REMARK SMILES N#C/C(=C/c1ccc(-c2cccc(C(=O)NCCCCCCNC(=O)c3ccc(-c4c5nc(c(-c6c(F)cccc6F)c6ccc([nH]6)c(-c6c(F)cccc6F)c6nc(c(-c7c(F)cccc7F)c7ccc4[nH]7)C=C6)C=C5)cc3)c2)o1)c1ccc(F)cc1
REMARK SMILES IDX 19 1 18 2 17 3 16 4 14 5 15 6 13 8 9 9 10 10 80 11 11 12
REMARK SMILES IDX 12 13 8 14 5 15 6 16 81 17 7 18 4 19 3 20 2 21 1 22 82 23
REMARK SMILES IDX 83 24 88 25 84 26 87 27 85 28 86 29 20 30 21 31 22 32 23 33
REMARK SMILES IDX 24 34 25 36 26 37 27 38 79 39 28 40 78 41 29 42 30 43 31 44
REMARK SMILES IDX 72 45 32 46 77 47 71 48 73 49 33 50 76 51 70 52 69 53 34 55
REMARK SMILES IDX 60 56 43 57 59 58 44 59 47 60 58 61 74 62 45 63 46 64 57 66
REMARK SMILES IDX 75 67 48 68 35 69 36 70 41 71 37 72 38 73 40 74 42 75 39 76
REMARK SMILES IDX 61 77 62 78 67 79 63 80 64 81 66 82 68 83 65 84 49 85 50 86
REMARK SMILES IDX 55 87 51 88 52 89 54 90 56 91 53 92
REMARK H PARENT 16 7 23 35 73 54 47 65
REMARK Flexibility Score: inf
ROOT
ATOM      1  C   UNL     1      11.041   6.826  -0.026  1.00  0.00     0.002 C 
ENDROOT
BRANCH   1   2
ATOM      2  C   UNL     1      10.111   5.830   0.662  1.00  0.00     0.021 C 
BRANCH   2   3
ATOM      3  C   UNL     1      10.602   4.391   0.751  1.00  0.00     0.116 C 
BRANCH   3   4
ATOM      4  N   UNL     1      11.762   4.189   1.606  1.00  0.00    -0.352 N 
ATOM      5  C   UNL     1      12.050   3.206   2.535  1.00  0.00     0.251 C 
ATOM      6  O   UNL     1      13.110   3.269   3.154  1.00  0.00    -0.269 OA
ATOM      7  H   UNL     1      12.465   4.871   1.506  1.00  0.00     0.163 HD
BRANCH   5   8
ATOM      8  C   UNL     1      11.089   2.112   2.852  1.00  0.00     0.040 A 
ATOM      9  C   UNL     1       9.078   0.875   2.269  1.00  0.00     0.018 A 
ATOM     10  C   UNL     1       8.990   0.403   3.579  1.00  0.00     0.012 A 
ATOM     11  C   UNL     1      10.208   1.615   1.897  1.00  0.00     0.025 A 
ATOM     12  C   UNL     1       9.991   0.726   4.506  1.00  0.00     0.002 A 
ATOM     13  C   UNL     1      11.016   1.612   4.154  1.00  0.00     0.014 A 
BRANCH   9  14
ATOM     14  C   UNL     1       8.007   0.763   1.285  1.00  0.00     0.134 A 
ATOM     15  C   UNL     1       5.879   0.919   0.639  1.00  0.00     0.128 A 
ATOM     16  C   UNL     1       6.682   0.920  -0.499  1.00  0.00     0.051 A 
ATOM     17  O   UNL     1       6.718   0.856   1.736  1.00  0.00    -0.457 OA
ATOM     18  C   UNL     1       8.019   0.761  -0.091  1.00  0.00     0.051 A 
BRANCH  15  19
ATOM     19  C   UNL     1       4.449   0.903   0.709  1.00  0.00     0.067 C 
ATOM     20  C   UNL     1       3.733  -0.048   0.073  1.00  0.00     0.063 C 
BRANCH  20  21
ATOM     21  C   UNL     1       2.213  -0.048   0.073  1.00  0.00     0.100 C 
ATOM     22  N   UNL     1       0.952  -0.048   0.073  1.00  0.00    -0.192 NA
ENDBRANCH  20  21
BRANCH  20  23
ATOM     23  C   UNL     1       4.373  -1.210  -0.616  1.00  0.00    -0.007 A 
ATOM     24  C   UNL     1       5.303  -2.025   0.064  1.00  0.00     0.012 A 
ATOM     25  C   UNL     1       4.110  -1.478  -1.968  1.00  0.00     0.012 A 
ATOM     26  C   UNL     1       6.021  -3.011  -0.614  1.00  0.00     0.040 A 
ATOM     27  C   UNL     1       4.811  -2.486  -2.637  1.00  0.00     0.040 A 
ATOM     28  C   UNL     1       5.774  -3.227  -1.961  1.00  0.00     0.123 A 
ATOM     29  F   UNL     1       6.480  -4.154  -2.621  1.00  0.00    -0.207 F 
ENDBRANCH  20  23
ENDBRANCH  15  19
ENDBRANCH   9  14
ENDBRANCH   5   8
ENDBRANCH   3   4
ENDBRANCH   2   3
ENDBRANCH   1   2
BRANCH   1  30
ATOM     30  C   UNL     1      11.511   6.456  -1.435  1.00  0.00     0.002 C 
BRANCH  30  31
ATOM     31  C   UNL     1      10.419   6.074  -2.437  1.00  0.00     0.021 C 
BRANCH  31  32
ATOM     32  C   UNL     1       9.302   7.096  -2.616  1.00  0.00     0.116 C 
BRANCH  32  33
ATOM     33  N   UNL     1       9.783   8.373  -3.115  1.00  0.00    -0.352 N 
ATOM     34  C   UNL     1       9.375   9.093  -4.212  1.00  0.00     0.251 C 
ATOM     35  H   UNL     1      10.508   8.782  -2.590  1.00  0.00     0.163 HD
ATOM     36  O   UNL     1      10.009  10.075  -4.577  1.00  0.00    -0.269 OA
BRANCH  34  37
ATOM     37  C   UNL     1       8.178   8.666  -4.970  1.00  0.00     0.039 A 
ATOM     38  C   UNL     1       8.234   8.644  -6.366  1.00  0.00     0.014 A 
ATOM     39  C   UNL     1       7.004   8.296  -4.309  1.00  0.00     0.014 A 
ATOM     40  C   UNL     1       7.134   8.189  -7.097  1.00  0.00     0.010 A 
ATOM     41  C   UNL     1       5.938   7.769  -5.033  1.00  0.00     0.010 A 
ATOM     42  C   UNL     1       5.990   7.714  -6.435  1.00  0.00    -0.014 A 
BRANCH  42  43
ATOM     43  C   UNL     1       4.833   7.163  -7.186  1.00  0.00     0.031 A 
ATOM     44  C   UNL     1       3.494   7.843  -7.111  1.00  0.00     0.074 A 
ATOM     45  C   UNL     1       4.970   6.017  -7.880  1.00  0.00     0.049 A 
ATOM     46  N   UNL     1       2.348   7.473  -7.623  1.00  0.00    -0.248 NA
ATOM     47  C   UNL     1       3.430   9.091  -6.335  1.00  0.00     0.031 C 
ATOM     48  C   UNL     1       6.208   5.245  -8.007  1.00  0.00     0.029 A 
ATOM     49  N   UNL     1       4.055   5.295  -8.604  1.00  0.00    -0.354 N 
ATOM     50  C   UNL     1       1.428   8.435  -7.224  1.00  0.00     0.074 A 
ATOM     51  C   UNL     1       2.136   9.368  -6.375  1.00  0.00     0.031 C 
ATOM     52  C   UNL     1       5.981   4.175  -8.785  1.00  0.00     0.029 A 
ATOM     53  C   UNL     1       4.575   4.158  -9.174  1.00  0.00     0.049 A 
ATOM     54  H   UNL     1       3.114   5.566  -8.706  1.00  0.00     0.167 HD
ATOM     55  C   UNL     1       0.119   8.546  -7.554  1.00  0.00     0.037 A 
ATOM     56  C   UNL     1       3.982   3.205  -9.919  1.00  0.00     0.037 A 
ATOM     57  C   UNL     1      -0.579   7.620  -8.407  1.00  0.00     0.049 A 
ATOM     58  C   UNL     1       2.516   3.325 -10.234  1.00  0.00     0.074 A 
ATOM     59  C   UNL     1      -1.895   7.664  -8.833  1.00  0.00     0.029 A 
ATOM     60  N   UNL     1      -0.018   6.477  -8.959  1.00  0.00    -0.354 N 
ATOM     61  N   UNL     1       1.671   4.269  -9.895  1.00  0.00    -0.248 NA
ATOM     62  C   UNL     1       1.922   2.248 -11.038  1.00  0.00     0.031 C 
ATOM     63  C   UNL     1      -2.145   6.520  -9.599  1.00  0.00     0.029 A 
ATOM     64  C   UNL     1      -0.969   5.795  -9.701  1.00  0.00     0.049 A 
ATOM     65  H   UNL     1       0.917   6.194  -8.841  1.00  0.00     0.167 HD
ATOM     66  C   UNL     1       0.458   3.920 -10.475  1.00  0.00     0.074 A 
ATOM     67  C   UNL     1       0.679   2.682 -11.193  1.00  0.00     0.031 C 
ATOM     68  C   UNL     1      -0.731   4.569 -10.421  1.00  0.00     0.037 A 
BRANCH  55  69
ATOM     69  C   UNL     1      -0.639   9.712  -6.985  1.00  0.00     0.057 A 
ATOM     70  C   UNL     1      -0.371  11.031  -7.377  1.00  0.00     0.134 A 
ATOM     71  C   UNL     1      -1.659   9.515  -6.046  1.00  0.00     0.134 A 
ATOM     72  F   UNL     1       0.600  11.293  -8.265  1.00  0.00    -0.206 F 
ATOM     73  C   UNL     1      -1.063  12.113  -6.828  1.00  0.00     0.040 A 
ATOM     74  C   UNL     1      -2.381  10.585  -5.514  1.00  0.00     0.040 A 
ATOM     75  F   UNL     1      -1.974   8.279  -5.631  1.00  0.00    -0.206 F 
ATOM     76  C   UNL     1      -2.076  11.890  -5.898  1.00  0.00     0.006 A 
ENDBRANCH  55  69
BRANCH  56  77
ATOM     77  C   UNL     1       4.778   2.065 -10.443  1.00  0.00     0.057 A 
ATOM     78  C   UNL     1       5.034   1.937 -11.813  1.00  0.00     0.134 A 
ATOM     79  C   UNL     1       5.292   1.075  -9.597  1.00  0.00     0.134 A 
ATOM     80  F   UNL     1       4.553   2.844 -12.676  1.00  0.00    -0.206 F 
ATOM     81  C   UNL     1       5.752   0.856 -12.326  1.00  0.00     0.040 A 
ATOM     82  C   UNL     1       6.036   0.003 -10.093  1.00  0.00     0.040 A 
ATOM     83  F   UNL     1       5.090   1.143  -8.272  1.00  0.00    -0.206 F 
ATOM     84  C   UNL     1       6.260  -0.113 -11.464  1.00  0.00     0.006 A 
ENDBRANCH  56  77
BRANCH  68  85
ATOM     85  C   UNL     1      -1.875   3.982 -11.198  1.00  0.00     0.057 A 
ATOM     86  C   UNL     1      -2.515   2.801 -10.802  1.00  0.00     0.134 A 
ATOM     87  C   UNL     1      -2.371   4.637 -12.332  1.00  0.00     0.134 A 
ATOM     88  F   UNL     1      -2.081   2.117  -9.733  1.00  0.00    -0.206 F 
ATOM     89  C   UNL     1      -3.594   2.281 -11.520  1.00  0.00     0.040 A 
ATOM     90  C   UNL     1      -3.468   4.144 -13.040  1.00  0.00     0.040 A 
ATOM     91  F   UNL     1      -1.810   5.778 -12.761  1.00  0.00    -0.206 F 
ATOM     92  C   UNL     1      -4.079   2.959 -12.637  1.00  0.00     0.006 A 
ENDBRANCH  68  85
ENDBRANCH  42  43
ENDBRANCH  34  37
ENDBRANCH  32  33
ENDBRANCH  31  32
ENDBRANCH  30  31
ENDBRANCH   1  30
TORSDOF 17
