REMARK SMILES O=C(NCCCCCCNC(=O)c1ccc(-c2c3nc(c(-c4c(F)cccc4F)c4ccc([nH]4)c(-c4c(F)cccc4F)c4nc(c(-c5c(F)cccc5F)c5ccc2[nH]5)C=C4)C=C3)cc1)c1ccc(NC(=O)[C@@H]2CC=CC[C@@H]2C(=O)Nc2ccc(Br)cc2)cc1
REMARK SMILES IDX 5 1 4 2 3 3 1 4 2 5 67 7 68 8 91 9 69 10 90 11 70 12 71 13
REMARK SMILES IDX 72 14 73 16 74 17 75 18 79 19 76 20 78 21 77 22 80 23 81 24
REMARK SMILES IDX 82 25 83 27 84 28 89 29 85 30 88 31 86 32 87 33 6 34 7 35
REMARK SMILES IDX 8 36 9 37 10 38 11 39 12 41 13 42 14 43 66 44 15 45 65 46
REMARK SMILES IDX 16 47 17 48 18 49 59 50 19 51 64 52 58 53 60 54 20 55 63 56
REMARK SMILES IDX 57 57 56 58 21 60 47 61 30 62 46 63 31 64 34 65 45 66 61 67
REMARK SMILES IDX 32 68 33 69 44 71 62 72 35 73 22 74 23 75 28 76 24 77 25 78
REMARK SMILES IDX 27 79 29 80 26 81 48 82 49 83 54 84 50 85 51 86 53 87 55 88
REMARK SMILES IDX 52 89 36 90 37 91 42 92 38 93 39 94 41 95 43 96 40 97
REMARK H PARENT 3 6 71 15 82 26 10 40 60 59 34 70
REMARK Flexibility Score: inf
ROOT
ATOM      1  C   UNL     1       6.152  -3.091  -9.340  1.00  0.00     0.021 C 
ENDROOT
BRANCH   1   2
ATOM      2  C   UNL     1       6.937  -2.582  -8.139  1.00  0.00     0.116 C 
BRANCH   2   3
ATOM      3  N   UNL     1       7.364  -1.195  -8.274  1.00  0.00    -0.352 N 
ATOM      4  O   UNL     1       7.631   0.957  -7.606  1.00  0.00    -0.269 OA
ATOM      5  C   UNL     1       7.358  -0.203  -7.317  1.00  0.00     0.251 C 
ATOM      6  H   UNL     1       7.701  -0.934  -9.161  1.00  0.00     0.163 HD
BRANCH   5   7
ATOM      7  C   UNL     1       7.005  -0.553  -5.925  1.00  0.00     0.039 A 
ATOM      8  C   UNL     1       7.571  -1.677  -5.340  1.00  0.00     0.016 A 
ATOM      9  C   UNL     1       6.070   0.195  -5.213  1.00  0.00     0.016 A 
ATOM     10  C   UNL     1       7.085  -2.146  -4.124  1.00  0.00     0.027 A 
ATOM     11  C   UNL     1       5.665  -0.234  -3.938  1.00  0.00     0.027 A 
ATOM     12  C   UNL     1       6.155  -1.427  -3.381  1.00  0.00     0.041 A 
BRANCH  12  13
ATOM     13  N   UNL     1       5.673  -1.785  -2.105  1.00  0.00    -0.326 N 
ATOM     14  C   UNL     1       5.806  -2.860  -1.265  1.00  0.00     0.228 C 
ATOM     15  H   UNL     1       5.094  -1.087  -1.721  1.00  0.00     0.169 HD
ATOM     16  O   UNL     1       5.194  -2.798  -0.195  1.00  0.00    -0.274 OA
BRANCH  14  17
ATOM     17  C   UNL     1       6.598  -4.099  -1.646  1.00  0.00     0.095 C 
ATOM     18  C   UNL     1       6.138  -5.369  -0.915  1.00  0.00     0.041 C 
ATOM     19  C   UNL     1       8.128  -3.918  -1.561  1.00  0.00     0.095 C 
ATOM     20  C   UNL     1       6.966  -6.557  -1.332  1.00  0.00    -0.030 C 
ATOM     21  C   UNL     1       8.810  -5.126  -2.247  1.00  0.00     0.041 C 
ATOM     22  C   UNL     1       8.149  -6.444  -1.955  1.00  0.00    -0.030 C 
BRANCH  19  23
ATOM     23  C   UNL     1       8.735  -3.685  -0.175  1.00  0.00     0.228 C 
ATOM     24  O   UNL     1       8.127  -3.917   0.868  1.00  0.00    -0.274 OA
ATOM     25  N   UNL     1      10.059  -3.307  -0.088  1.00  0.00    -0.326 N 
ATOM     26  H   UNL     1      10.455  -3.388   0.809  1.00  0.00     0.169 HD
BRANCH  25  27
ATOM     27  C   UNL     1      10.932  -2.824  -1.079  1.00  0.00     0.041 A 
ATOM     28  C   UNL     1      12.249  -3.290  -1.072  1.00  0.00     0.027 A 
ATOM     29  C   UNL     1      10.547  -1.889  -2.045  1.00  0.00     0.027 A 
ATOM     30  C   UNL     1      13.136  -2.914  -2.087  1.00  0.00     0.018 A 
ATOM     31  C   UNL     1      11.433  -1.503  -3.055  1.00  0.00     0.018 A 
ATOM     32  C   UNL     1      12.719  -2.035  -3.083  1.00  0.00     0.018 A 
ATOM     33  Br  UNL     1      13.903  -1.553  -4.474  1.00  0.00    -0.051 Br
ENDBRANCH  25  27
ENDBRANCH  19  23
ENDBRANCH  14  17
ENDBRANCH  12  13
ENDBRANCH   5   7
ENDBRANCH   2   3
ENDBRANCH   1   2
BRANCH   1  34
ATOM     34  C   UNL     1       6.960  -3.229 -10.630  1.00  0.00     0.002 C 
BRANCH  34  35
ATOM     35  C   UNL     1       8.171  -4.164 -10.560  1.00  0.00     0.002 C 
BRANCH  35  36
ATOM     36  C   UNL     1       7.891  -5.593 -10.086  1.00  0.00     0.021 C 
BRANCH  36  37
ATOM     37  C   UNL     1       6.788  -6.337 -10.835  1.00  0.00     0.116 C 
BRANCH  37  38
ATOM     38  N   UNL     1       7.047  -6.451 -12.259  1.00  0.00    -0.352 N 
ATOM     39  C   UNL     1       6.931  -7.541 -13.087  1.00  0.00     0.251 C 
ATOM     40  H   UNL     1       7.352  -5.624 -12.697  1.00  0.00     0.163 HD
ATOM     41  O   UNL     1       7.313  -7.469 -14.251  1.00  0.00    -0.269 OA
BRANCH  39  42
ATOM     42  C   UNL     1       6.375  -8.813 -12.575  1.00  0.00     0.039 A 
ATOM     43  C   UNL     1       7.029 -10.006 -12.901  1.00  0.00     0.014 A 
ATOM     44  C   UNL     1       5.213  -8.842 -11.800  1.00  0.00     0.014 A 
ATOM     45  C   UNL     1       6.554 -11.220 -12.398  1.00  0.00     0.010 A 
ATOM     46  C   UNL     1       4.775 -10.046 -11.250  1.00  0.00     0.010 A 
ATOM     47  C   UNL     1       5.442 -11.245 -11.542  1.00  0.00    -0.014 A 
BRANCH  47  48
ATOM     48  C   UNL     1       4.967 -12.516 -10.938  1.00  0.00     0.031 A 
ATOM     49  C   UNL     1       3.620 -13.075 -11.305  1.00  0.00     0.074 A 
ATOM     50  C   UNL     1       5.721 -13.133 -10.008  1.00  0.00     0.049 A 
ATOM     51  N   UNL     1       3.005 -14.128 -10.829  1.00  0.00    -0.248 NA
ATOM     52  C   UNL     1       2.854 -12.340 -12.324  1.00  0.00     0.031 C 
ATOM     53  C   UNL     1       7.028 -12.673  -9.535  1.00  0.00     0.029 A 
ATOM     54  N   UNL     1       5.491 -14.277  -9.285  1.00  0.00    -0.354 N 
ATOM     55  C   UNL     1       1.774 -14.168 -11.471  1.00  0.00     0.074 A 
ATOM     56  C   UNL     1       1.714 -13.016 -12.344  1.00  0.00     0.031 C 
ATOM     57  C   UNL     1       7.492 -13.536  -8.616  1.00  0.00     0.029 A 
ATOM     58  C   UNL     1       6.503 -14.589  -8.410  1.00  0.00     0.049 A 
ATOM     59  H   UNL     1       4.677 -14.822  -9.384  1.00  0.00     0.167 HD
ATOM     60  C   UNL     1       0.790 -15.092 -11.355  1.00  0.00     0.037 A 
ATOM     61  C   UNL     1       6.618 -15.607  -7.537  1.00  0.00     0.037 A 
ATOM     62  C   UNL     1       0.866 -16.260 -10.519  1.00  0.00     0.049 A 
ATOM     63  C   UNL     1       5.513 -16.621  -7.434  1.00  0.00     0.074 A 
ATOM     64  C   UNL     1      -0.047 -17.294 -10.397  1.00  0.00     0.029 A 
ATOM     65  N   UNL     1       1.915 -16.550  -9.661  1.00  0.00    -0.354 N 
ATOM     66  N   UNL     1       4.385 -16.684  -8.098  1.00  0.00    -0.248 NA
ATOM     67  C   UNL     1       5.700 -17.707  -6.461  1.00  0.00     0.031 C 
ATOM     68  C   UNL     1       0.434 -18.192  -9.438  1.00  0.00     0.029 A 
ATOM     69  C   UNL     1       1.663 -17.736  -8.991  1.00  0.00     0.049 A 
ATOM     70  H   UNL     1       2.720 -15.995  -9.545  1.00  0.00     0.167 HD
ATOM     71  C   UNL     1       3.742 -17.829  -7.647  1.00  0.00     0.074 A 
ATOM     72  C   UNL     1       4.609 -18.435  -6.658  1.00  0.00     0.031 C 
ATOM     73  C   UNL     1       2.541 -18.333  -8.019  1.00  0.00     0.037 A 
BRANCH  60  74
ATOM     74  C   UNL     1      -0.459 -14.878 -12.159  1.00  0.00     0.057 A 
ATOM     75  C   UNL     1      -0.485 -15.067 -13.546  1.00  0.00     0.134 A 
ATOM     76  C   UNL     1      -1.659 -14.523 -11.531  1.00  0.00     0.134 A 
ATOM     77  F   UNL     1       0.634 -15.396 -14.209  1.00  0.00    -0.206 F 
ATOM     78  C   UNL     1      -1.656 -14.889 -14.284  1.00  0.00     0.040 A 
ATOM     79  C   UNL     1      -2.842 -14.366 -12.254  1.00  0.00     0.040 A 
ATOM     80  F   UNL     1      -1.703 -14.333 -10.203  1.00  0.00    -0.206 F 
ATOM     81  C   UNL     1      -2.841 -14.544 -13.636  1.00  0.00     0.006 A 
ENDBRANCH  60  74
BRANCH  61  82
ATOM     82  C   UNL     1       7.838 -15.738  -6.702  1.00  0.00     0.057 A 
ATOM     83  C   UNL     1       8.768 -16.755  -6.946  1.00  0.00     0.134 A 
ATOM     84  C   UNL     1       8.096 -14.867  -5.638  1.00  0.00     0.134 A 
ATOM     85  F   UNL     1       8.563 -17.632  -7.940  1.00  0.00    -0.206 F 
ATOM     86  C   UNL     1       9.902 -16.915  -6.149  1.00  0.00     0.040 A 
ATOM     87  C   UNL     1       9.237 -15.002  -4.845  1.00  0.00     0.040 A 
ATOM     88  F   UNL     1       7.245 -13.868  -5.358  1.00  0.00    -0.206 F 
ATOM     89  C   UNL     1      10.140 -16.034  -5.096  1.00  0.00     0.006 A 
ENDBRANCH  61  82
BRANCH  73  90
ATOM     90  C   UNL     1       2.112 -19.621  -7.383  1.00  0.00     0.057 A 
ATOM     91  C   UNL     1       1.661 -19.676  -6.059  1.00  0.00     0.134 A 
ATOM     92  C   UNL     1       2.118 -20.814  -8.118  1.00  0.00     0.134 A 
ATOM     93  F   UNL     1       1.647 -18.570  -5.300  1.00  0.00    -0.206 F 
ATOM     94  C   UNL     1       1.248 -20.877  -5.481  1.00  0.00     0.040 A 
ATOM     95  C   UNL     1       1.686 -22.016  -7.558  1.00  0.00     0.040 A 
ATOM     96  F   UNL     1       2.533 -20.826  -9.394  1.00  0.00    -0.206 F 
ATOM     97  C   UNL     1       1.254 -22.051  -6.233  1.00  0.00     0.006 A 
ENDBRANCH  73  90
ENDBRANCH  47  48
ENDBRANCH  39  42
ENDBRANCH  37  38
ENDBRANCH  36  37
ENDBRANCH  35  36
ENDBRANCH  34  35
ENDBRANCH   1  34
TORSDOF 17
