REMARK SMILES Cc1cccc(-n2c(C)cc(/C=N\c3ccc(O)c(C(=O)NCCCCCCNC(=O)c4ccc(-c5c6nc(c(-c7c(F)cccc7F)c7ccc([nH]7)c(-c7c(F)cccc7F)c7nc(c(-c8c(F)cccc8F)c8ccc5[nH]8)C=C7)C=C6)cc4)c3)c2C)c1
REMARK SMILES IDX 25 1 24 2 23 3 22 4 20 5 21 6 19 8 14 9 15 10 86 11 16 12
REMARK SMILES IDX 17 13 13 14 12 15 11 16 7 17 8 18 87 19 9 20 10 21 88 22
REMARK SMILES IDX 6 23 1 24 2 25 3 26 89 27 4 28 5 29 18 30 26 32 27 33 28 34
REMARK SMILES IDX 29 35 30 36 31 38 32 39 33 40 85 41 34 42 84 43 35 44 36 45
REMARK SMILES IDX 37 46 78 47 38 48 83 49 77 50 79 51 39 52 82 53 76 54 75 55
REMARK SMILES IDX 40 57 66 58 49 59 65 60 50 61 53 62 64 63 80 64 51 65 52 66
REMARK SMILES IDX 63 68 81 69 54 70 41 71 42 72 47 73 43 74 44 75 46 76 48 77
REMARK SMILES IDX 45 78 67 79 68 80 73 81 69 82 70 83 72 84 74 85 71 86 55 87
REMARK SMILES IDX 56 88 61 89 57 90 58 91 60 92 62 93 59 94
REMARK H PARENT 22 7 18 31 29 37 79 56 53 67
REMARK Flexibility Score: inf
ROOT
ATOM      1  C   UNL     1      -5.294  -3.493   7.472  1.00  0.00     0.002 C 
ENDROOT
BRANCH   1   2
ATOM      2  C   UNL     1      -4.431  -2.232   7.577  1.00  0.00     0.021 C 
BRANCH   2   3
ATOM      3  C   UNL     1      -4.194  -1.376   6.339  1.00  0.00     0.116 C 
BRANCH   3   4
ATOM      4  N   UNL     1      -5.364  -0.927   5.620  1.00  0.00    -0.352 N 
ATOM      5  C   UNL     1      -5.538   0.125   4.745  1.00  0.00     0.255 C 
ATOM      6  O   UNL     1      -6.639   0.201   4.195  1.00  0.00    -0.269 OA
ATOM      7  H   UNL     1      -6.174  -1.462   5.782  1.00  0.00     0.163 HD
BRANCH   5   8
ATOM      8  C   UNL     1      -4.508   1.175   4.437  1.00  0.00     0.083 A 
ATOM      9  C   UNL     1      -4.116   3.361   3.391  1.00  0.00     0.064 A 
ATOM     10  C   UNL     1      -2.770   3.300   3.737  1.00  0.00     0.032 A 
ATOM     11  C   UNL     1      -4.990   2.367   3.861  1.00  0.00     0.046 A 
ATOM     12  C   UNL     1      -2.265   2.137   4.303  1.00  0.00     0.049 A 
ATOM     13  C   UNL     1      -3.117   1.052   4.528  1.00  0.00     0.128 A 
BRANCH   9  14
ATOM     14  N   UNL     1      -4.614   4.367   2.562  1.00  0.00    -0.256 NA
ATOM     15  C   UNL     1      -4.227   4.536   1.328  1.00  0.00     0.121 C 
BRANCH  15  16
ATOM     16  C   UNL     1      -3.256   3.808   0.501  1.00  0.00     0.014 A 
ATOM     17  N   UNL     1      -1.866   2.301  -0.467  1.00  0.00    -0.318 N 
ATOM     18  C   UNL     1      -1.642   3.517  -1.093  1.00  0.00     0.021 A 
ATOM     19  C   UNL     1      -2.976   2.445   0.373  1.00  0.00     0.029 A 
ATOM     20  C   UNL     1      -0.732   3.688  -2.262  1.00  0.00     0.065 C 
ATOM     21  C   UNL     1      -2.454   4.453  -0.488  1.00  0.00     0.033 A 
ATOM     22  C   UNL     1      -3.618   1.272   1.024  1.00  0.00     0.065 C 
BRANCH  17  23
ATOM     23  C   UNL     1      -1.051   1.137  -0.599  1.00  0.00     0.046 A 
ATOM     24  C   UNL     1       2.592   0.156  -0.022  1.00  0.00     0.044 C 
ATOM     25  C   UNL     1       1.125   0.083  -0.333  1.00  0.00    -0.049 A 
ATOM     26  C   UNL     1       0.531  -1.166  -0.556  1.00  0.00     0.003 A 
ATOM     27  C   UNL     1       0.328   1.238  -0.359  1.00  0.00     0.030 A 
ATOM     28  C   UNL     1      -0.829  -1.260  -0.842  1.00  0.00     0.002 A 
ATOM     29  C   UNL     1      -1.617  -0.110  -0.876  1.00  0.00     0.026 A 
ENDBRANCH  17  23
ENDBRANCH  15  16
ENDBRANCH   9  14
BRANCH  13  30
ATOM     30  O   UNL     1      -2.462  -0.146   4.612  1.00  0.00    -0.507 OA
ATOM     31  H   UNL     1      -1.527  -0.166   4.671  1.00  0.00     0.293 HD
ENDBRANCH  13  30
ENDBRANCH   5   8
ENDBRANCH   3   4
ENDBRANCH   2   3
ENDBRANCH   1   2
BRANCH   1  32
ATOM     32  C   UNL     1      -5.126  -4.455   6.289  1.00  0.00     0.002 C 
BRANCH  32  33
ATOM     33  C   UNL     1      -3.721  -4.888   5.874  1.00  0.00     0.021 C 
BRANCH  33  34
ATOM     34  C   UNL     1      -2.830  -5.462   6.965  1.00  0.00     0.116 C 
BRANCH  34  35
ATOM     35  N   UNL     1      -2.961  -6.893   7.202  1.00  0.00    -0.352 N 
ATOM     36  C   UNL     1      -2.347  -7.670   8.171  1.00  0.00     0.251 C 
ATOM     37  H   UNL     1      -3.566  -7.372   6.591  1.00  0.00     0.163 HD
ATOM     38  O   UNL     1      -2.549  -8.882   8.204  1.00  0.00    -0.269 OA
BRANCH  36  39
ATOM     39  C   UNL     1      -1.554  -7.027   9.251  1.00  0.00     0.039 A 
ATOM     40  C   UNL     1      -1.766  -7.458  10.568  1.00  0.00     0.014 A 
ATOM     41  C   UNL     1      -0.767  -5.904   9.010  1.00  0.00     0.014 A 
ATOM     42  C   UNL     1      -1.421  -6.622  11.627  1.00  0.00     0.010 A 
ATOM     43  C   UNL     1      -0.514  -5.028  10.047  1.00  0.00     0.010 A 
ATOM     44  C   UNL     1      -0.914  -5.356  11.345  1.00  0.00    -0.014 A 
BRANCH  44  45
ATOM     45  C   UNL     1      -0.914  -4.262  12.308  1.00  0.00     0.031 A 
ATOM     46  C   UNL     1       0.343  -3.778  12.912  1.00  0.00     0.074 A 
ATOM     47  C   UNL     1      -2.078  -3.616  12.550  1.00  0.00     0.049 A 
ATOM     48  N   UNL     1       0.389  -3.018  13.955  1.00  0.00    -0.248 NA
ATOM     49  C   UNL     1       1.667  -4.175  12.438  1.00  0.00     0.031 C 
ATOM     50  C   UNL     1      -2.261  -2.312  13.182  1.00  0.00     0.029 A 
ATOM     51  N   UNL     1      -3.376  -4.144  12.463  1.00  0.00    -0.354 N 
ATOM     52  C   UNL     1       1.680  -2.571  14.079  1.00  0.00     0.074 A 
ATOM     53  C   UNL     1       2.455  -3.434  13.226  1.00  0.00     0.031 C 
ATOM     54  C   UNL     1      -3.505  -2.243  13.682  1.00  0.00     0.029 A 
ATOM     55  C   UNL     1      -4.098  -3.559  13.528  1.00  0.00     0.049 A 
ATOM     56  H   UNL     1      -3.712  -4.788  11.799  1.00  0.00     0.167 HD
ATOM     57  C   UNL     1       1.909  -1.419  14.768  1.00  0.00     0.037 A 
ATOM     58  C   UNL     1      -4.592  -4.312  14.553  1.00  0.00     0.037 A 
ATOM     59  C   UNL     1       0.745  -1.047  15.572  1.00  0.00     0.049 A 
ATOM     60  C   UNL     1      -4.079  -3.917  15.919  1.00  0.00     0.074 A 
ATOM     61  C   UNL     1      -0.202  -0.042  15.479  1.00  0.00     0.029 A 
ATOM     62  N   UNL     1       0.286  -1.933  16.544  1.00  0.00    -0.354 N 
ATOM     63  N   UNL     1      -3.023  -3.177  16.113  1.00  0.00    -0.248 NA
ATOM     64  C   UNL     1      -4.691  -4.352  17.172  1.00  0.00     0.031 C 
ATOM     65  C   UNL     1      -1.291  -0.395  16.323  1.00  0.00     0.029 A 
ATOM     66  C   UNL     1      -0.979  -1.581  16.967  1.00  0.00     0.049 A 
ATOM     67  H   UNL     1       0.794  -2.705  16.883  1.00  0.00     0.167 HD
ATOM     68  C   UNL     1      -2.781  -3.067  17.456  1.00  0.00     0.074 A 
ATOM     69  C   UNL     1      -3.870  -3.796  18.080  1.00  0.00     0.031 C 
ATOM     70  C   UNL     1      -1.689  -2.404  17.939  1.00  0.00     0.037 A 
BRANCH  57  71
ATOM     71  C   UNL     1       3.105  -0.509  14.568  1.00  0.00     0.057 A 
ATOM     72  C   UNL     1       3.269   0.634  15.377  1.00  0.00     0.134 A 
ATOM     73  C   UNL     1       4.045  -0.607  13.520  1.00  0.00     0.134 A 
ATOM     74  F   UNL     1       2.446   0.884  16.407  1.00  0.00    -0.206 F 
ATOM     75  C   UNL     1       4.269   1.594  15.155  1.00  0.00     0.040 A 
ATOM     76  C   UNL     1       5.081   0.316  13.321  1.00  0.00     0.040 A 
ATOM     77  F   UNL     1       3.982  -1.559  12.583  1.00  0.00    -0.206 F 
ATOM     78  C   UNL     1       5.189   1.432  14.131  1.00  0.00     0.006 A 
ENDBRANCH  57  71
BRANCH  58  79
ATOM     79  C   UNL     1      -4.961  -5.692  14.147  1.00  0.00     0.057 A 
ATOM     80  C   UNL     1      -6.021  -5.864  13.240  1.00  0.00     0.134 A 
ATOM     81  C   UNL     1      -4.085  -6.768  14.314  1.00  0.00     0.134 A 
ATOM     82  F   UNL     1      -6.899  -4.868  13.034  1.00  0.00    -0.206 F 
ATOM     83  C   UNL     1      -6.138  -7.009  12.449  1.00  0.00     0.040 A 
ATOM     84  C   UNL     1      -4.199  -7.926  13.535  1.00  0.00     0.040 A 
ATOM     85  F   UNL     1      -3.035  -6.671  15.142  1.00  0.00    -0.206 F 
ATOM     86  C   UNL     1      -5.203  -8.032  12.572  1.00  0.00     0.006 A 
ENDBRANCH  58  79
BRANCH  70  87
ATOM     87  C   UNL     1      -1.218  -2.418  19.372  1.00  0.00     0.057 A 
ATOM     88  C   UNL     1      -1.393  -3.498  20.251  1.00  0.00     0.134 A 
ATOM     89  C   UNL     1      -0.422  -1.363  19.871  1.00  0.00     0.134 A 
ATOM     90  F   UNL     1      -2.030  -4.614  19.873  1.00  0.00    -0.206 F 
ATOM     91  C   UNL     1      -0.867  -3.503  21.551  1.00  0.00     0.040 A 
ATOM     92  C   UNL     1       0.150  -1.380  21.147  1.00  0.00     0.040 A 
ATOM     93  F   UNL     1      -0.148  -0.279  19.130  1.00  0.00    -0.206 F 
ATOM     94  C   UNL     1      -0.084  -2.447  22.000  1.00  0.00     0.006 A 
ENDBRANCH  70  87
ENDBRANCH  44  45
ENDBRANCH  36  39
ENDBRANCH  34  35
ENDBRANCH  33  34
ENDBRANCH  32  33
ENDBRANCH   1  32
TORSDOF 17
