REMARK SMILES O=C(C[C@@H]1CN(C(=O)N2CCC[C@H]2CO)CCO1)NCCCCCCNC(=O)c1ccc(-c2c3nc(c(-c4c(F)cccc4F)c4ccc([nH]4)c(-c4c(F)cccc4F)c4nc(c(-c5c(F)cccc5F)c5ccc2[nH]5)C=C4)C=C3)cc1
REMARK SMILES IDX 21 1 20 2 19 3 1 4 2 5 3 7 4 8 5 9 18 10 6 11 17 12 16 13
REMARK SMILES IDX 7 14 8 15 9 16 10 17 13 18 11 19 12 20 14 21 15 22 22 24
REMARK SMILES IDX 23 25 24 26 25 27 26 28 27 29 28 31 29 32 30 33 82 34 31 35
REMARK SMILES IDX 81 36 32 37 33 38 34 39 75 40 35 41 80 42 74 43 76 44 36 45
REMARK SMILES IDX 79 46 73 47 72 48 37 50 63 51 46 52 62 53 47 54 50 55 61 56
REMARK SMILES IDX 77 57 48 58 49 59 60 61 78 62 51 63 38 64 39 65 44 66 40 67
REMARK SMILES IDX 41 68 43 69 45 70 42 71 64 72 65 73 70 74 66 75 67 76 69 77
REMARK SMILES IDX 71 78 68 79 52 80 53 81 58 82 54 83 55 84 57 85 59 86 56 87
REMARK H PARENT 19 6 15 23 26 30 76 49 50 60
REMARK Flexibility Score: inf
ROOT
ATOM      1  C   UNL     1       2.487   1.886   2.917  1.00  0.00     0.021 C 
ENDROOT
BRANCH   1   2
ATOM      2  C   UNL     1       1.885   1.974   1.513  1.00  0.00     0.116 C 
BRANCH   2   3
ATOM      3  N   UNL     1       2.560   1.083   0.603  1.00  0.00    -0.356 N 
ATOM      4  O   UNL     1       0.857  -0.421   0.251  1.00  0.00    -0.275 OA
ATOM      5  C   UNL     1       2.021  -0.067   0.089  1.00  0.00     0.222 C 
ATOM      6  H   UNL     1       3.476   1.319   0.330  1.00  0.00     0.163 HD
BRANCH   5   7
ATOM      7  C   UNL     1       3.049  -0.954  -0.575  1.00  0.00     0.133 C 
BRANCH   7   8
ATOM      8  C   UNL     1       3.807  -0.333  -1.749  1.00  0.00     0.147 C 
ATOM      9  C   UNL     1       5.124  -1.098  -1.949  1.00  0.00     0.154 C 
ATOM     10  O   UNL     1       4.141   1.054  -1.517  1.00  0.00    -0.374 OA
ATOM     11  N   UNL     1       5.865  -0.567  -3.093  1.00  0.00    -0.320 N 
ATOM     12  C   UNL     1       4.776   1.614  -2.685  1.00  0.00     0.182 C 
ATOM     13  C   UNL     1       6.079   0.879  -3.016  1.00  0.00     0.150 C 
BRANCH  11  14
ATOM     14  C   UNL     1       6.792  -1.326  -3.775  1.00  0.00     0.320 C 
ATOM     15  O   UNL     1       7.902  -0.874  -4.059  1.00  0.00    -0.248 OA
BRANCH  14  16
ATOM     16  N   UNL     1       6.452  -2.619  -4.078  1.00  0.00    -0.319 N 
ATOM     17  C   UNL     1       5.139  -3.195  -4.295  1.00  0.00     0.122 C 
ATOM     18  C   UNL     1       7.482  -3.641  -4.271  1.00  0.00     0.112 C 
ATOM     19  C   UNL     1       5.299  -4.569  -3.677  1.00  0.00     0.024 C 
ATOM     20  C   UNL     1       6.713  -4.971  -4.109  1.00  0.00     0.029 C 
BRANCH  18  21
ATOM     21  C   UNL     1       8.265  -3.466  -5.595  1.00  0.00     0.181 C 
BRANCH  21  22
ATOM     22  O   UNL     1       8.040  -4.503  -6.547  1.00  0.00    -0.394 OA
ATOM     23  H   UNL     1       8.342  -5.349  -6.181  1.00  0.00     0.210 HD
ENDBRANCH  21  22
ENDBRANCH  18  21
ENDBRANCH  14  16
ENDBRANCH  11  14
ENDBRANCH   7   8
ENDBRANCH   5   7
ENDBRANCH   2   3
ENDBRANCH   1   2
BRANCH   1  24
ATOM     24  C   UNL     1       4.001   2.138   2.995  1.00  0.00     0.002 C 
BRANCH  24  25
ATOM     25  C   UNL     1       4.486   3.475   2.429  1.00  0.00     0.002 C 
BRANCH  25  26
ATOM     26  C   UNL     1       3.842   4.722   3.036  1.00  0.00     0.021 C 
BRANCH  26  27
ATOM     27  C   UNL     1       3.972   4.858   4.551  1.00  0.00     0.116 C 
BRANCH  27  28
ATOM     28  N   UNL     1       5.352   4.980   4.993  1.00  0.00    -0.352 N 
ATOM     29  C   UNL     1       5.918   5.872   5.869  1.00  0.00     0.251 C 
ATOM     30  H   UNL     1       5.975   4.324   4.605  1.00  0.00     0.163 HD
ATOM     31  O   UNL     1       7.141   5.892   6.014  1.00  0.00    -0.269 OA
BRANCH  29  32
ATOM     32  C   UNL     1       5.080   6.834   6.620  1.00  0.00     0.039 A 
ATOM     33  C   UNL     1       5.522   8.156   6.736  1.00  0.00     0.014 A 
ATOM     34  C   UNL     1       3.879   6.447   7.224  1.00  0.00     0.014 A 
ATOM     35  C   UNL     1       4.731   9.101   7.393  1.00  0.00     0.010 A 
ATOM     36  C   UNL     1       3.060   7.405   7.822  1.00  0.00     0.010 A 
ATOM     37  C   UNL     1       3.474   8.742   7.910  1.00  0.00    -0.014 A 
BRANCH  37  38
ATOM     38  C   UNL     1       2.580   9.766   8.508  1.00  0.00     0.031 A 
ATOM     39  C   UNL     1       2.224   9.725   9.968  1.00  0.00     0.074 A 
ATOM     40  C   UNL     1       2.045  10.716   7.717  1.00  0.00     0.049 A 
ATOM     41  N   UNL     1       1.464  10.539  10.656  1.00  0.00    -0.248 NA
ATOM     42  C   UNL     1       2.775   8.610  10.753  1.00  0.00     0.031 C 
ATOM     43  C   UNL     1       2.262  10.834   6.273  1.00  0.00     0.029 A 
ATOM     44  N   UNL     1       1.209  11.764   8.013  1.00  0.00    -0.354 N 
ATOM     45  C   UNL     1       1.434  10.031  11.948  1.00  0.00     0.074 A 
ATOM     46  C   UNL     1       2.215   8.812  11.937  1.00  0.00     0.031 C 
ATOM     47  C   UNL     1       1.607  11.914   5.818  1.00  0.00     0.029 A 
ATOM     48  C   UNL     1       0.902  12.546   6.928  1.00  0.00     0.049 A 
ATOM     49  H   UNL     1       0.863  11.937   8.918  1.00  0.00     0.167 HD
ATOM     50  C   UNL     1       0.830  10.543  13.047  1.00  0.00     0.037 A 
ATOM     51  C   UNL     1       0.142  13.654   6.836  1.00  0.00     0.037 A 
ATOM     52  C   UNL     1       0.073  11.768  13.064  1.00  0.00     0.049 A 
ATOM     53  C   UNL     1      -0.511  14.206   8.070  1.00  0.00     0.074 A 
ATOM     54  C   UNL     1      -0.506  12.411  14.145  1.00  0.00     0.029 A 
ATOM     55  N   UNL     1      -0.219  12.532  11.944  1.00  0.00    -0.354 N 
ATOM     56  N   UNL     1      -0.458  13.763   9.303  1.00  0.00    -0.248 NA
ATOM     57  C   UNL     1      -1.327  15.416   7.900  1.00  0.00     0.031 C 
ATOM     58  C   UNL     1      -1.185  13.540  13.673  1.00  0.00     0.029 A 
ATOM     59  C   UNL     1      -0.994  13.624  12.303  1.00  0.00     0.049 A 
ATOM     60  H   UNL     1       0.080  12.329  11.028  1.00  0.00     0.167 HD
ATOM     61  C   UNL     1      -1.214  14.649  10.058  1.00  0.00     0.074 A 
ATOM     62  C   UNL     1      -1.700  15.666   9.147  1.00  0.00     0.031 C 
ATOM     63  C   UNL     1      -1.481  14.623  11.387  1.00  0.00     0.037 A 
BRANCH  50  64
ATOM     64  C   UNL     1       0.964   9.772  14.329  1.00  0.00     0.057 A 
ATOM     65  C   UNL     1       2.180   9.695  15.022  1.00  0.00     0.134 A 
ATOM     66  C   UNL     1      -0.141   9.120  14.890  1.00  0.00     0.134 A 
ATOM     67  F   UNL     1       3.279  10.289  14.534  1.00  0.00    -0.206 F 
ATOM     68  C   UNL     1       2.299   8.972  16.210  1.00  0.00     0.040 A 
ATOM     69  C   UNL     1      -0.041   8.415  16.092  1.00  0.00     0.040 A 
ATOM     70  F   UNL     1      -1.337   9.159  14.283  1.00  0.00    -0.206 F 
ATOM     71  C   UNL     1       1.184   8.334  16.751  1.00  0.00     0.006 A 
ENDBRANCH  50  64
BRANCH  51  72
ATOM     72  C   UNL     1      -0.006  14.341   5.530  1.00  0.00     0.057 A 
ATOM     73  C   UNL     1       0.621  15.569   5.291  1.00  0.00     0.134 A 
ATOM     74  C   UNL     1      -0.768  13.791   4.493  1.00  0.00     0.134 A 
ATOM     75  F   UNL     1       1.348  16.154   6.255  1.00  0.00    -0.206 F 
ATOM     76  C   UNL     1       0.486  16.234   4.072  1.00  0.00     0.040 A 
ATOM     77  C   UNL     1      -0.893  14.434   3.260  1.00  0.00     0.040 A 
ATOM     78  F   UNL     1      -1.388  12.614   4.659  1.00  0.00    -0.206 F 
ATOM     79  C   UNL     1      -0.269  15.662   3.049  1.00  0.00     0.006 A 
ENDBRANCH  51  72
BRANCH  63  80
ATOM     80  C   UNL     1      -2.327  15.736  11.932  1.00  0.00     0.057 A 
ATOM     81  C   UNL     1      -3.701  15.815  11.669  1.00  0.00     0.134 A 
ATOM     82  C   UNL     1      -1.764  16.734  12.737  1.00  0.00     0.134 A 
ATOM     83  F   UNL     1      -4.297  14.899  10.891  1.00  0.00    -0.206 F 
ATOM     84  C   UNL     1      -4.479  16.862  12.164  1.00  0.00     0.040 A 
ATOM     85  C   UNL     1      -2.538  17.772  13.260  1.00  0.00     0.040 A 
ATOM     86  F   UNL     1      -0.456  16.714  13.033  1.00  0.00    -0.206 F 
ATOM     87  C   UNL     1      -3.898  17.842  12.966  1.00  0.00     0.006 A 
ENDBRANCH  63  80
ENDBRANCH  37  38
ENDBRANCH  29  32
ENDBRANCH  27  28
ENDBRANCH  26  27
ENDBRANCH  25  26
ENDBRANCH  24  25
ENDBRANCH   1  24
TORSDOF 18
