REMARK SMILES CC(C)C[C@@H]([NH3+])C(=O)N1CC[C@H](C(=O)NCCCCCCNC(=O)c2ccc(-c3c4nc(c(-c5c(F)cccc5F)c5ccc([nH]5)c(-c5c(F)cccc5F)c5nc(c(-c6c(F)cccc6F)c6ccc3[nH]6)C=C5)C=C4)cc2)[C@@H]1C
REMARK SMILES IDX 17 1 16 2 15 3 13 4 14 5 12 7 9 8 10 9 79 10 11 11 80 12
REMARK SMILES IDX 7 13 8 14 5 15 4 16 2 17 1 18 3 19 6 20 18 24 19 25 20 26
REMARK SMILES IDX 21 27 22 28 23 29 24 31 25 32 26 33 78 34 27 35 77 36 28 37
REMARK SMILES IDX 29 38 30 39 71 40 31 41 76 42 70 43 72 44 32 45 75 46 69 47
REMARK SMILES IDX 68 48 33 50 59 51 42 52 58 53 43 54 46 55 57 56 73 57 44 58
REMARK SMILES IDX 45 59 56 61 74 62 47 63 34 64 35 65 40 66 36 67 37 68 39 69
REMARK SMILES IDX 41 70 38 71 60 72 61 73 66 74 62 75 63 76 65 77 67 78 64 79
REMARK SMILES IDX 48 80 49 81 54 82 50 83 51 84 53 85 55 86 52 87
REMARK H PARENT 15 6 6 21 6 22 6 23 22 30 72 49 46 60
REMARK Flexibility Score: inf
ROOT
ATOM      1  C   UNL     1      -6.217   8.101   0.293  1.00  0.00     0.021 C 
ENDROOT
BRANCH   1   2
ATOM      2  C   UNL     1      -6.279   6.704   0.904  1.00  0.00     0.116 C 
BRANCH   2   3
ATOM      3  N   UNL     1      -6.486   5.690  -0.112  1.00  0.00    -0.356 N 
ATOM      4  C   UNL     1      -5.763   4.567  -0.390  1.00  0.00     0.225 C 
ATOM      5  O   UNL     1      -6.165   3.857  -1.307  1.00  0.00    -0.275 OA
ATOM      6  H   UNL     1      -7.269   5.835  -0.691  1.00  0.00     0.163 HD
BRANCH   4   7
ATOM      7  C   UNL     1      -4.551   4.263   0.482  1.00  0.00     0.102 C 
ATOM      8  N   UNL     1      -3.790   2.041   0.969  1.00  0.00    -0.334 N 
ATOM      9  C   UNL     1      -5.011   2.264   1.713  1.00  0.00     0.121 C 
ATOM     10  C   UNL     1      -3.554   3.158   0.049  1.00  0.00     0.094 C 
ATOM     11  C   UNL     1      -5.045   3.777   1.853  1.00  0.00     0.037 C 
ATOM     12  C   UNL     1      -3.652   2.713  -1.409  1.00  0.00     0.032 C 
BRANCH   8  13
ATOM     13  C   UNL     1      -2.996   0.962   1.290  1.00  0.00     0.280 C 
ATOM     14  O   UNL     1      -3.490  -0.020   1.862  1.00  0.00    -0.268 OA
BRANCH  13  15
ATOM     15  C   UNL     1      -1.441   1.046   1.197  1.00  0.00     0.271 C 
BRANCH  15  16
ATOM     16  C   UNL     1      -0.804   1.388  -0.153  1.00  0.00     0.078 C 
BRANCH  16  17
ATOM     17  C   UNL     1       0.739   1.334  -0.205  1.00  0.00    -0.011 C 
ATOM     18  C   UNL     1       1.281  -0.079  -0.003  1.00  0.00     0.007 C 
ATOM     19  C   UNL     1       1.225   1.895  -1.546  1.00  0.00     0.007 C 
ENDBRANCH  16  17
ENDBRANCH  15  16
BRANCH  15  20
ATOM     20  N   UNL     1      -0.978   1.958   2.271  1.00  0.00    -0.347 N 
ATOM     21  H   UNL     1      -1.336   2.897   2.098  1.00  0.00     0.345 HD
ATOM     22  H   UNL     1       0.042   1.980   2.282  1.00  0.00     0.345 HD
ATOM     23  H   UNL     1      -1.321   1.623   3.172  1.00  0.00     0.345 HD
ENDBRANCH  15  20
ENDBRANCH  13  15
ENDBRANCH   8  13
ENDBRANCH   4   7
ENDBRANCH   2   3
ENDBRANCH   1   2
BRANCH   1  24
ATOM     24  C   UNL     1      -7.455   8.493  -0.522  1.00  0.00     0.002 C 
BRANCH  24  25
ATOM     25  C   UNL     1      -8.794   8.327   0.203  1.00  0.00     0.002 C 
BRANCH  25  26
ATOM     26  C   UNL     1      -8.908   9.077   1.532  1.00  0.00     0.021 C 
BRANCH  26  27
ATOM     27  C   UNL     1      -8.652  10.576   1.440  1.00  0.00     0.116 C 
BRANCH  27  28
ATOM     28  N   UNL     1      -9.604  11.247   0.572  1.00  0.00    -0.352 N 
ATOM     29  C   UNL     1     -10.313  12.400   0.791  1.00  0.00     0.251 C 
ATOM     30  H   UNL     1      -9.763  10.813  -0.298  1.00  0.00     0.163 HD
ATOM     31  O   UNL     1     -11.205  12.733   0.013  1.00  0.00    -0.269 OA
BRANCH  29  32
ATOM     32  C   UNL     1     -10.024  13.230   1.979  1.00  0.00     0.039 A 
ATOM     33  C   UNL     1     -11.094  13.745   2.714  1.00  0.00     0.014 A 
ATOM     34  C   UNL     1      -8.709  13.505   2.368  1.00  0.00     0.014 A 
ATOM     35  C   UNL     1     -10.845  14.491   3.866  1.00  0.00     0.010 A 
ATOM     36  C   UNL     1      -8.464  14.181   3.560  1.00  0.00     0.010 A 
ATOM     37  C   UNL     1      -9.529  14.688   4.318  1.00  0.00    -0.014 A 
BRANCH  37  38
ATOM     38  C   UNL     1      -9.265  15.417   5.585  1.00  0.00     0.031 A 
ATOM     39  C   UNL     1      -8.510  16.718   5.577  1.00  0.00     0.074 A 
ATOM     40  C   UNL     1      -9.681  14.886   6.751  1.00  0.00     0.049 A 
ATOM     41  N   UNL     1      -8.198  17.497   6.582  1.00  0.00    -0.248 NA
ATOM     42  C   UNL     1      -8.019  17.195   4.275  1.00  0.00     0.031 C 
ATOM     43  C   UNL     1     -10.370  13.601   6.898  1.00  0.00     0.029 A 
ATOM     44  N   UNL     1      -9.590  15.361   8.035  1.00  0.00    -0.354 N 
ATOM     45  C   UNL     1      -7.474  18.549   6.035  1.00  0.00     0.074 A 
ATOM     46  C   UNL     1      -7.338  18.277   4.621  1.00  0.00     0.031 C 
ATOM     47  C   UNL     1     -10.672  13.410   8.192  1.00  0.00     0.029 A 
ATOM     48  C   UNL     1     -10.171  14.539   8.969  1.00  0.00     0.049 A 
ATOM     49  H   UNL     1      -9.150  16.211   8.265  1.00  0.00     0.167 HD
ATOM     50  C   UNL     1      -6.990  19.655   6.649  1.00  0.00     0.037 A 
ATOM     51  C   UNL     1     -10.292  14.681  10.302  1.00  0.00     0.037 A 
ATOM     52  C   UNL     1      -7.140  19.931   8.055  1.00  0.00     0.049 A 
ATOM     53  C   UNL     1      -9.752  15.921  10.958  1.00  0.00     0.074 A 
ATOM     54  C   UNL     1      -6.729  21.047   8.764  1.00  0.00     0.029 A 
ATOM     55  N   UNL     1      -7.748  19.081   8.967  1.00  0.00    -0.354 N 
ATOM     56  N   UNL     1      -9.135  16.944  10.416  1.00  0.00    -0.248 NA
ATOM     57  C   UNL     1      -9.939  16.033  12.411  1.00  0.00     0.031 C 
ATOM     58  C   UNL     1      -7.046  20.850  10.113  1.00  0.00     0.029 A 
ATOM     59  C   UNL     1      -7.706  19.639  10.235  1.00  0.00     0.049 A 
ATOM     60  H   UNL     1      -8.149  18.209   8.746  1.00  0.00     0.167 HD
ATOM     61  C   UNL     1      -8.890  17.834  11.454  1.00  0.00     0.074 A 
ATOM     62  C   UNL     1      -9.443  17.238  12.653  1.00  0.00     0.031 C 
ATOM     63  C   UNL     1      -8.264  19.036  11.419  1.00  0.00     0.037 A 
BRANCH  50  64
ATOM     64  C   UNL     1      -6.259  20.656   5.800  1.00  0.00     0.057 A 
ATOM     65  C   UNL     1      -6.921  21.438   4.843  1.00  0.00     0.134 A 
ATOM     66  C   UNL     1      -4.884  20.869   5.966  1.00  0.00     0.134 A 
ATOM     67  F   UNL     1      -8.235  21.277   4.625  1.00  0.00    -0.206 F 
ATOM     68  C   UNL     1      -6.239  22.375   4.065  1.00  0.00     0.040 A 
ATOM     69  C   UNL     1      -4.197  21.824   5.214  1.00  0.00     0.040 A 
ATOM     70  F   UNL     1      -4.188  20.160   6.867  1.00  0.00    -0.206 F 
ATOM     71  C   UNL     1      -4.873  22.575   4.255  1.00  0.00     0.006 A 
ENDBRANCH  50  64
BRANCH  51  72
ATOM     72  C   UNL     1     -10.984  13.640  11.104  1.00  0.00     0.057 A 
ATOM     73  C   UNL     1     -12.221  13.895  11.709  1.00  0.00     0.134 A 
ATOM     74  C   UNL     1     -10.420  12.374  11.302  1.00  0.00     0.134 A 
ATOM     75  F   UNL     1     -12.805  15.095  11.570  1.00  0.00    -0.206 F 
ATOM     76  C   UNL     1     -12.859  12.941  12.503  1.00  0.00     0.040 A 
ATOM     77  C   UNL     1     -11.060  11.400  12.070  1.00  0.00     0.040 A 
ATOM     78  F   UNL     1      -9.242  12.062  10.741  1.00  0.00    -0.206 F 
ATOM     79  C   UNL     1     -12.279  11.687  12.682  1.00  0.00     0.006 A 
ENDBRANCH  51  72
BRANCH  63  80
ATOM     80  C   UNL     1      -8.185  19.801  12.709  1.00  0.00     0.057 A 
ATOM     81  C   UNL     1      -7.377  19.383  13.775  1.00  0.00     0.134 A 
ATOM     82  C   UNL     1      -8.926  20.977  12.884  1.00  0.00     0.134 A 
ATOM     83  F   UNL     1      -6.651  18.259  13.678  1.00  0.00    -0.206 F 
ATOM     84  C   UNL     1      -7.341  20.084  14.981  1.00  0.00     0.040 A 
ATOM     85  C   UNL     1      -8.873  21.704  14.073  1.00  0.00     0.040 A 
ATOM     86  F   UNL     1      -9.711  21.441  11.900  1.00  0.00    -0.206 F 
ATOM     87  C   UNL     1      -8.087  21.252  15.131  1.00  0.00     0.006 A 
ENDBRANCH  63  80
ENDBRANCH  37  38
ENDBRANCH  29  32
ENDBRANCH  27  28
ENDBRANCH  26  27
ENDBRANCH  25  26
ENDBRANCH  24  25
ENDBRANCH   1  24
TORSDOF 18
