REMARK SMILES CC(=O)O[C@@H]1CC[C@@]23C(=O)O[C@]4(CC[C@]2(O)C1)[C@H]3CC[C@]1(C)[C@H](C(=O)NCCCCCCNC(=O)c2ccc(-c3c5nc(c(-c6c(F)cccc6F)c6ccc([nH]6)c(-c6c(F)cccc6F)c6nc(c(-c7c(F)cccc7F)c7ccc3[nH]7)C=C6)C=C5)cc2)CC[C@@H]14
REMARK SMILES IDX 29 1 28 2 27 3 26 4 24 5 25 6 23 8 5 9 6 10 17 11 7 12 15 13
REMARK SMILES IDX 8 14 14 15 9 16 18 17 13 18 10 19 11 20 12 21 19 22 92 23
REMARK SMILES IDX 20 24 21 25 91 26 22 27 90 28 4 29 2 30 1 31 3 32 16 33
REMARK SMILES IDX 30 35 31 36 32 37 33 38 34 39 35 41 36 42 37 43 89 44 38 45
REMARK SMILES IDX 88 46 39 47 40 48 41 49 82 50 42 51 87 52 81 53 83 54 43 55
REMARK SMILES IDX 86 56 80 57 79 58 44 60 70 61 53 62 69 63 54 64 57 65 68 66
REMARK SMILES IDX 84 67 55 68 56 69 67 71 85 72 58 73 45 74 46 75 51 76 47 77
REMARK SMILES IDX 48 78 50 79 52 80 49 81 71 82 72 83 77 84 73 85 74 86 76 87
REMARK SMILES IDX 78 88 75 89 59 90 60 91 65 92 61 93 62 94 64 95 66 96 63 97
REMARK H PARENT 26 7 16 34 33 40 83 59 57 70
REMARK Flexibility Score: inf
ROOT
ATOM      1  C   UNL     1      -4.817 -11.306  -2.838  1.00  0.00     0.002 C 
ENDROOT
BRANCH   1   2
ATOM      2  C   UNL     1      -3.473 -10.592  -2.966  1.00  0.00     0.021 C 
BRANCH   2   3
ATOM      3  C   UNL     1      -2.621 -10.620  -1.683  1.00  0.00     0.116 C 
BRANCH   3   4
ATOM      4  N   UNL     1      -1.841 -11.842  -1.663  1.00  0.00    -0.356 N 
ATOM      5  C   UNL     1      -0.591 -12.157  -2.075  1.00  0.00     0.223 C 
ATOM      6  O   UNL     1      -0.372 -13.372  -2.190  1.00  0.00    -0.275 OA
ATOM      7  H   UNL     1      -2.322 -12.604  -1.266  1.00  0.00     0.163 HD
BRANCH   5   8
ATOM      8  C   UNL     1       0.571 -11.181  -2.318  1.00  0.00     0.085 C 
ATOM      9  C   UNL     1      -0.275  -3.235  -1.436  1.00  0.00     0.179 C 
ATOM     10  C   UNL     1      -0.015  -4.481  -0.613  1.00  0.00     0.047 C 
ATOM     11  C   UNL     1      -0.299  -3.405  -2.967  1.00  0.00     0.081 C 
ATOM     12  C   UNL     1       0.656  -5.571  -1.416  1.00  0.00     0.026 C 
ATOM     13  C   UNL     1       0.086  -4.744  -3.628  1.00  0.00     0.085 C 
ATOM     14  C   UNL     1      -0.217  -5.971  -2.876  1.00  0.00     0.103 C 
ATOM     15  C   UNL     1       1.670  -4.997  -3.842  1.00  0.00     0.041 C 
ATOM     16  C   UNL     1      -0.957  -6.974  -2.162  1.00  0.00     0.316 C 
ATOM     17  C   UNL     1       0.202  -7.182  -4.039  1.00  0.00     0.054 C 
ATOM     18  C   UNL     1       2.243  -6.550  -3.354  1.00  0.00     0.052 C 
ATOM     19  O   UNL     1      -2.065  -7.005  -1.657  1.00  0.00    -0.251 OA
ATOM     20  O   UNL     1       0.096  -7.878  -2.009  1.00  0.00    -0.458 OA
ATOM     21  C   UNL     1       1.137  -7.741  -3.084  1.00  0.00     0.120 C 
ATOM     22  C   UNL     1      -0.730  -8.233  -4.660  1.00  0.00     0.009 C 
ATOM     23  C   UNL     1       1.732  -9.136  -3.132  1.00  0.00     0.040 C 
ATOM     24  C   UNL     1      -0.587  -9.684  -4.163  1.00  0.00     0.008 C 
ATOM     25  C   UNL     1       0.732 -10.249  -3.588  1.00  0.00    -0.014 C 
ATOM     26  C   UNL     1       2.132  -9.526  -1.675  1.00  0.00     0.009 C 
ATOM     27  C   UNL     1       1.415 -11.107  -4.677  1.00  0.00     0.012 C 
ATOM     28  C   UNL     1       0.966 -10.345  -1.113  1.00  0.00     0.014 C 
BRANCH   9  29
ATOM     29  O   UNL     1       0.690  -2.197  -1.135  1.00  0.00    -0.462 OA
BRANCH  29  30
ATOM     30  C   UNL     1       0.434  -1.465  -0.011  1.00  0.00     0.302 C 
ATOM     31  C   UNL     1       1.196  -0.175  -0.050  1.00  0.00     0.139 C 
ATOM     32  O   UNL     1      -0.351  -1.771   0.875  1.00  0.00    -0.253 OA
ENDBRANCH  29  30
ENDBRANCH   9  29
BRANCH  13  33
ATOM     33  O   UNL     1      -0.566  -4.771  -4.901  1.00  0.00    -0.389 OA
ATOM     34  H   UNL     1      -0.352  -5.599  -5.357  1.00  0.00     0.211 HD
ENDBRANCH  13  33
ENDBRANCH   5   8
ENDBRANCH   3   4
ENDBRANCH   2   3
ENDBRANCH   1   2
BRANCH   1  35
ATOM     35  C   UNL     1      -5.788 -10.626  -1.875  1.00  0.00     0.002 C 
BRANCH  35  36
ATOM     36  C   UNL     1      -6.056  -9.148  -2.177  1.00  0.00     0.021 C 
BRANCH  36  37
ATOM     37  C   UNL     1      -6.566  -8.880  -3.591  1.00  0.00     0.116 C 
BRANCH  37  38
ATOM     38  N   UNL     1      -7.806  -9.597  -3.853  1.00  0.00    -0.352 N 
ATOM     39  C   UNL     1      -9.062  -9.101  -4.083  1.00  0.00     0.251 C 
ATOM     40  H   UNL     1      -7.731 -10.579  -3.866  1.00  0.00     0.163 HD
ATOM     41  O   UNL     1     -10.044  -9.830  -4.002  1.00  0.00    -0.269 OA
BRANCH  39  42
ATOM     42  C   UNL     1      -9.226  -7.676  -4.432  1.00  0.00     0.039 A 
ATOM     43  C   UNL     1     -10.242  -6.940  -3.820  1.00  0.00     0.014 A 
ATOM     44  C   UNL     1      -8.383  -7.076  -5.371  1.00  0.00     0.014 A 
ATOM     45  C   UNL     1     -10.376  -5.581  -4.110  1.00  0.00     0.010 A 
ATOM     46  C   UNL     1      -8.469  -5.707  -5.601  1.00  0.00     0.010 A 
ATOM     47  C   UNL     1      -9.468  -4.947  -4.975  1.00  0.00    -0.014 A 
BRANCH  47  48
ATOM     48  C   UNL     1      -9.539  -3.487  -5.226  1.00  0.00     0.031 A 
ATOM     49  C   UNL     1      -9.827  -2.969  -6.608  1.00  0.00     0.074 A 
ATOM     50  C   UNL     1      -9.279  -2.630  -4.220  1.00  0.00     0.049 A 
ATOM     51  N   UNL     1      -9.856  -1.733  -7.037  1.00  0.00    -0.248 NA
ATOM     52  C   UNL     1     -10.096  -3.973  -7.651  1.00  0.00     0.031 C 
ATOM     53  C   UNL     1      -8.945  -3.013  -2.847  1.00  0.00     0.029 A 
ATOM     54  N   UNL     1      -9.242  -1.258  -4.200  1.00  0.00    -0.354 N 
ATOM     55  C   UNL     1     -10.136  -1.811  -8.395  1.00  0.00     0.074 A 
ATOM     56  C   UNL     1     -10.216  -3.215  -8.731  1.00  0.00     0.031 C 
ATOM     57  C   UNL     1      -8.758  -1.904  -2.114  1.00  0.00     0.029 A 
ATOM     58  C   UNL     1      -8.910  -0.735  -2.973  1.00  0.00     0.049 A 
ATOM     59  H   UNL     1      -9.435  -0.702  -4.989  1.00  0.00     0.167 HD
ATOM     60  C   UNL     1     -10.328  -0.801  -9.277  1.00  0.00     0.037 A 
ATOM     61  C   UNL     1      -8.732   0.543  -2.589  1.00  0.00     0.037 A 
ATOM     62  C   UNL     1     -10.260   0.596  -8.932  1.00  0.00     0.049 A 
ATOM     63  C   UNL     1      -8.922   1.643  -3.598  1.00  0.00     0.074 A 
ATOM     64  C   UNL     1     -10.493   1.694  -9.742  1.00  0.00     0.029 A 
ATOM     65  N   UNL     1      -9.928   1.086  -7.678  1.00  0.00    -0.354 N 
ATOM     66  N   UNL     1      -9.254   1.558  -4.863  1.00  0.00    -0.248 NA
ATOM     67  C   UNL     1      -8.715   3.018  -3.123  1.00  0.00     0.031 C 
ATOM     68  C   UNL     1     -10.243   2.848  -8.995  1.00  0.00     0.029 A 
ATOM     69  C   UNL     1      -9.919   2.472  -7.701  1.00  0.00     0.049 A 
ATOM     70  H   UNL     1      -9.729   0.532  -6.889  1.00  0.00     0.167 HD
ATOM     71  C   UNL     1      -9.328   2.865  -5.326  1.00  0.00     0.074 A 
ATOM     72  C   UNL     1      -9.024   3.724  -4.201  1.00  0.00     0.031 C 
ATOM     73  C   UNL     1      -9.621   3.314  -6.571  1.00  0.00     0.037 A 
BRANCH  60  74
ATOM     74  C   UNL     1     -10.629  -1.165 -10.703  1.00  0.00     0.057 A 
ATOM     75  C   UNL     1     -11.848  -1.746 -11.077  1.00  0.00     0.134 A 
ATOM     76  C   UNL     1      -9.713  -0.876 -11.722  1.00  0.00     0.134 A 
ATOM     77  F   UNL     1     -12.766  -2.058 -10.150  1.00  0.00    -0.206 F 
ATOM     78  C   UNL     1     -12.135  -2.046 -12.410  1.00  0.00     0.040 A 
ATOM     79  C   UNL     1     -10.001  -1.143 -13.061  1.00  0.00     0.040 A 
ATOM     80  F   UNL     1      -8.529  -0.313 -11.435  1.00  0.00    -0.206 F 
ATOM     81  C   UNL     1     -11.214  -1.735 -13.408  1.00  0.00     0.006 A 
ENDBRANCH  60  74
BRANCH  61  82
ATOM     82  C   UNL     1      -8.351   0.859  -1.188  1.00  0.00     0.057 A 
ATOM     83  C   UNL     1      -9.226   1.543  -0.336  1.00  0.00     0.134 A 
ATOM     84  C   UNL     1      -7.095   0.511  -0.675  1.00  0.00     0.134 A 
ATOM     85  F   UNL     1     -10.437   1.920  -0.773  1.00  0.00    -0.206 F 
ATOM     86  C   UNL     1      -8.856   1.899   0.963  1.00  0.00     0.040 A 
ATOM     87  C   UNL     1      -6.723   0.831   0.632  1.00  0.00     0.040 A 
ATOM     88  F   UNL     1      -6.211  -0.151  -1.437  1.00  0.00    -0.206 F 
ATOM     89  C   UNL     1      -7.601   1.538   1.450  1.00  0.00     0.006 A 
ENDBRANCH  61  82
BRANCH  73  90
ATOM     90  C   UNL     1      -9.667   4.802  -6.772  1.00  0.00     0.057 A 
ATOM     91  C   UNL     1      -8.511   5.592  -6.747  1.00  0.00     0.134 A 
ATOM     92  C   UNL     1     -10.884   5.447  -7.030  1.00  0.00     0.134 A 
ATOM     93  F   UNL     1      -7.315   5.040  -6.493  1.00  0.00    -0.206 F 
ATOM     94  C   UNL     1      -8.567   6.974  -6.941  1.00  0.00     0.040 A 
ATOM     95  C   UNL     1     -10.949   6.822  -7.258  1.00  0.00     0.040 A 
ATOM     96  F   UNL     1     -12.029   4.749  -7.079  1.00  0.00    -0.206 F 
ATOM     97  C   UNL     1      -9.788   7.591  -7.205  1.00  0.00     0.006 A 
ENDBRANCH  73  90
ENDBRANCH  47  48
ENDBRANCH  39  42
ENDBRANCH  37  38
ENDBRANCH  36  37
ENDBRANCH  35  36
ENDBRANCH   1  35
TORSDOF 16
