REMARK SMILES O=C(NCCCCCCNC(=O)[C@@H](CCCCl)[P@TB4](=O)(c1ccccc1)c1ccccc1)c1ccc(-c2c3nc(c(-c4c(F)cccc4F)c4ccc([nH]4)c(-c4c(F)cccc4F)c4nc(c(-c5c(F)cccc5F)c5ccc2[nH]5)C=C4)C=C3)cc1
REMARK SMILES IDX 7 1 6 2 5 3 4 4 3 5 1 6 2 7 32 9 33 10 85 11 34 12 84 13
REMARK SMILES IDX 35 14 36 15 37 16 78 17 38 18 83 19 77 20 79 21 39 22 82 23
REMARK SMILES IDX 76 24 75 25 40 27 66 28 49 29 65 30 50 31 53 32 64 33 80 34
REMARK SMILES IDX 51 35 52 36 63 38 81 39 54 40 41 41 42 42 47 43 43 44 44 45
REMARK SMILES IDX 46 46 48 47 45 48 67 49 68 50 73 51 69 52 70 53 72 54 74 55
REMARK SMILES IDX 71 56 55 57 56 58 61 59 57 60 58 61 60 62 62 63 59 64 8 65
REMARK SMILES IDX 9 66 10 67 11 68 12 70 13 71 14 72 15 73 16 74 17 75 18 76
REMARK SMILES IDX 19 77 20 78 21 79 25 80 22 81 24 82 23 83 26 84 27 85 31 86
REMARK SMILES IDX 28 87 30 88 29 89
REMARK H PARENT 3 8 79 26 53 37 10 69
REMARK Flexibility Score: inf
ROOT
ATOM      1  C   UNL     1       4.222  -0.298   4.780  1.00  0.00       nan C 
ENDROOT
BRANCH   1   2
ATOM      2  C   UNL     1       3.708   0.826   3.865  1.00  0.00       nan C 
BRANCH   2   3
ATOM      3  C   UNL     1       4.368   0.932   2.489  1.00  0.00       nan C 
BRANCH   3   4
ATOM      4  C   UNL     1       4.123  -0.244   1.556  1.00  0.00       nan C 
BRANCH   4   5
ATOM      5  N   UNL     1       2.724  -0.369   1.179  1.00  0.00       nan N 
ATOM      6  O   UNL     1       0.898  -0.285  -0.132  1.00  0.00       inf OA
ATOM      7  C   UNL     1       2.133  -0.347  -0.056  1.00  0.00       nan C 
ATOM      8  H   UNL     1       2.102  -0.488   1.932  1.00  0.00       nan HD
BRANCH   7   9
ATOM      9  C   UNL     1       2.933  -0.392  -1.300  1.00  0.00       inf A 
ATOM     10  C   UNL     1       4.081  -1.180  -1.396  1.00  0.00     0.014 A 
ATOM     11  C   UNL     1       2.486   0.316  -2.422  1.00  0.00     0.014 A 
ATOM     12  C   UNL     1       4.844  -1.165  -2.559  1.00  0.00     0.010 A 
ATOM     13  C   UNL     1       3.199   0.253  -3.624  1.00  0.00     0.010 A 
ATOM     14  C   UNL     1       4.392  -0.481  -3.698  1.00  0.00    -0.014 A 
BRANCH  14  15
ATOM     15  C   UNL     1       5.125  -0.643  -4.980  1.00  0.00     0.031 A 
ATOM     16  C   UNL     1       5.789   0.521  -5.656  1.00  0.00     0.074 A 
ATOM     17  C   UNL     1       5.196  -1.874  -5.524  1.00  0.00     0.049 A 
ATOM     18  N   UNL     1       6.464   0.545  -6.778  1.00  0.00    -0.248 NA
ATOM     19  C   UNL     1       5.678   1.830  -4.995  1.00  0.00     0.031 C 
ATOM     20  C   UNL     1       4.577  -3.078  -4.962  1.00  0.00     0.029 A 
ATOM     21  N   UNL     1       5.829  -2.325  -6.652  1.00  0.00    -0.354 N 
ATOM     22  C   UNL     1       6.847   1.867  -6.966  1.00  0.00     0.074 A 
ATOM     23  C   UNL     1       6.305   2.622  -5.855  1.00  0.00     0.031 C 
ATOM     24  C   UNL     1       4.903  -4.136  -5.717  1.00  0.00     0.029 A 
ATOM     25  C   UNL     1       5.691  -3.678  -6.854  1.00  0.00     0.049 A 
ATOM     26  H   UNL     1       6.334  -1.738  -7.260  1.00  0.00     0.167 HD
ATOM     27  C   UNL     1       7.587   2.396  -7.970  1.00  0.00     0.037 A 
ATOM     28  C   UNL     1       6.131  -4.462  -7.854  1.00  0.00     0.037 A 
ATOM     29  C   UNL     1       8.125   1.634  -9.069  1.00  0.00     0.049 A 
ATOM     30  C   UNL     1       6.914  -3.841  -8.972  1.00  0.00     0.074 A 
ATOM     31  C   UNL     1       8.906   2.074 -10.124  1.00  0.00     0.029 A 
ATOM     32  N   UNL     1       7.933   0.272  -9.257  1.00  0.00    -0.354 N 
ATOM     33  N   UNL     1       7.287  -2.594  -9.123  1.00  0.00    -0.248 NA
ATOM     34  C   UNL     1       7.330  -4.734 -10.061  1.00  0.00     0.031 C 
ATOM     35  C   UNL     1       9.148   0.989 -10.974  1.00  0.00     0.029 A 
ATOM     36  C   UNL     1       8.561  -0.139 -10.423  1.00  0.00     0.049 A 
ATOM     37  H   UNL     1       7.426  -0.316  -8.652  1.00  0.00     0.167 HD
ATOM     38  C   UNL     1       7.995  -2.553 -10.315  1.00  0.00     0.074 A 
ATOM     39  C   UNL     1       8.018  -3.905 -10.835  1.00  0.00     0.031 C 
ATOM     40  C   UNL     1       8.572  -1.489 -10.926  1.00  0.00     0.037 A 
BRANCH  27  41
ATOM     41  C   UNL     1       7.846   3.876  -7.939  1.00  0.00     0.057 A 
ATOM     42  C   UNL     1       8.716   4.457  -7.008  1.00  0.00     0.134 A 
ATOM     43  C   UNL     1       7.251   4.725  -8.882  1.00  0.00     0.134 A 
ATOM     44  F   UNL     1       9.311   3.703  -6.071  1.00  0.00    -0.206 F 
ATOM     45  C   UNL     1       8.970   5.830  -7.002  1.00  0.00     0.040 A 
ATOM     46  C   UNL     1       7.516   6.096  -8.902  1.00  0.00     0.040 A 
ATOM     47  F   UNL     1       6.413   4.234  -9.808  1.00  0.00    -0.206 F 
ATOM     48  C   UNL     1       8.374   6.653  -7.956  1.00  0.00     0.006 A 
ENDBRANCH  27  41
BRANCH  28  49
ATOM     49  C   UNL     1       5.827  -5.915  -7.841  1.00  0.00     0.057 A 
ATOM     50  C   UNL     1       6.836  -6.864  -7.647  1.00  0.00     0.134 A 
ATOM     51  C   UNL     1       4.518  -6.388  -8.005  1.00  0.00     0.134 A 
ATOM     52  F   UNL     1       8.110  -6.474  -7.500  1.00  0.00    -0.206 F 
ATOM     53  C   UNL     1       6.558  -8.232  -7.629  1.00  0.00     0.040 A 
ATOM     54  C   UNL     1       4.222  -7.750  -7.960  1.00  0.00     0.040 A 
ATOM     55  F   UNL     1       3.505  -5.528  -8.186  1.00  0.00    -0.206 F 
ATOM     56  C   UNL     1       5.245  -8.677  -7.778  1.00  0.00     0.006 A 
ENDBRANCH  28  49
BRANCH  40  57
ATOM     57  C   UNL     1       9.300  -1.758 -12.210  1.00  0.00     0.057 A 
ATOM     58  C   UNL     1       8.619  -2.047 -13.399  1.00  0.00     0.134 A 
ATOM     59  C   UNL     1      10.699  -1.702 -12.260  1.00  0.00     0.134 A 
ATOM     60  F   UNL     1       7.280  -2.131 -13.412  1.00  0.00    -0.206 F 
ATOM     61  C   UNL     1       9.305  -2.296 -14.588  1.00  0.00     0.040 A 
ATOM     62  C   UNL     1      11.394  -1.923 -13.449  1.00  0.00     0.040 A 
ATOM     63  F   UNL     1      11.410  -1.424 -11.157  1.00  0.00    -0.206 F 
ATOM     64  C   UNL     1      10.697  -2.227 -14.616  1.00  0.00     0.006 A 
ENDBRANCH  40  57
ENDBRANCH  14  15
ENDBRANCH   7   9
ENDBRANCH   4   5
ENDBRANCH   3   4
ENDBRANCH   2   3
ENDBRANCH   1   2
BRANCH   1  65
ATOM     65  C   UNL     1       5.742  -0.396   4.977  1.00  0.00       nan C 
BRANCH  65  66
ATOM     66  C   UNL     1       6.420   0.908   5.379  1.00  0.00       nan C 
BRANCH  66  67
ATOM     67  N   UNL     1       6.574   1.145   6.801  1.00  0.00       nan N 
ATOM     68  C   UNL     1       7.508   1.940   7.410  1.00  0.00       nan C 
ATOM     69  H   UNL     1       5.937   0.683   7.393  1.00  0.00       nan HD
ATOM     70  O   UNL     1       7.149   2.544   8.427  1.00  0.00       nan OA
BRANCH  68  71
ATOM     71  C   UNL     1       8.945   2.078   6.932  1.00  0.00       nan C 
BRANCH  71  72
ATOM     72  C   UNL     1       9.685   0.688   6.793  1.00  0.00       nan C 
BRANCH  72  73
ATOM     73  C   UNL     1       9.483  -0.319   5.626  1.00  0.00       nan C 
BRANCH  73  74
ATOM     74  C   UNL     1       9.814   0.034   4.171  1.00  0.00       nan C 
ATOM     75  Cl  UNL     1      11.559  -0.031   3.823  1.00  0.00       nan Cl
ENDBRANCH  73  74
ENDBRANCH  72  73
ENDBRANCH  71  72
BRANCH  71  76
ATOM     76  P   UNL     1       9.387   3.436   5.787  1.00  0.00       nan P 
ATOM     77  O   UNL     1      10.420   2.533   5.116  1.00  0.00       nan OA
BRANCH  76  78
ATOM     78  C   UNL     1       7.685   3.624   4.922  1.00  0.00       nan A 
ATOM     79  C   UNL     1       6.704   4.402   5.568  1.00  0.00       nan A 
ATOM     80  C   UNL     1       7.516   3.297   3.561  1.00  0.00       nan A 
ATOM     81  C   UNL     1       5.573   4.826   4.869  1.00  0.00       nan A 
ATOM     82  C   UNL     1       6.388   3.738   2.869  1.00  0.00       nan A 
ATOM     83  C   UNL     1       5.417   4.497   3.523  1.00  0.00       nan A 
ENDBRANCH  76  78
BRANCH  76  84
ATOM     84  C   UNL     1       9.829   4.794   4.643  1.00  0.00       nan A 
ATOM     85  C   UNL     1      10.485   4.622   3.407  1.00  0.00       nan A 
ATOM     86  C   UNL     1       9.567   6.115   5.062  1.00  0.00       nan A 
ATOM     87  C   UNL     1      10.812   5.715   2.602  1.00  0.00       nan A 
ATOM     88  C   UNL     1       9.886   7.207   4.251  1.00  0.00       nan A 
ATOM     89  C   UNL     1      10.503   7.006   3.020  1.00  0.00       nan A 
ENDBRANCH  76  84
ENDBRANCH  71  76
ENDBRANCH  68  71
ENDBRANCH  66  67
ENDBRANCH  65  66
ENDBRANCH   1  65
TORSDOF 19
