REMARK SMILES [NH3+][C@]1(C(=O)NCCCCCCNC(=O)c2ccc(-c3c4nc(c(-c5c(F)cccc5F)c5ccc([nH]5)c(-c5c(F)cccc5F)c5nc(c(-c6c(F)cccc6F)c6ccc3[nH]6)C=C5)C=C4)cc2)CC[N@H+](Cc2ccccc2O)C1
REMARK SMILES IDX 8 1 7 2 6 3 5 4 3 5 4 6 2 8 69 9 80 10 70 11 71 12 1 14
REMARK SMILES IDX 72 18 73 19 74 20 78 21 75 22 77 23 76 24 79 25 9 27 10 28
REMARK SMILES IDX 11 29 12 30 13 31 14 33 15 34 16 35 68 36 17 37 67 38 18 39
REMARK SMILES IDX 19 40 20 41 61 42 21 43 66 44 60 45 62 46 22 47 65 48 59 49
REMARK SMILES IDX 58 50 23 52 49 53 32 54 48 55 33 56 36 57 47 58 63 59 34 60
REMARK SMILES IDX 35 61 46 63 64 64 37 65 24 66 25 67 30 68 26 69 27 70 29 71
REMARK SMILES IDX 31 72 28 73 50 74 51 75 56 76 52 77 53 78 55 79 57 80 54 81
REMARK SMILES IDX 38 82 39 83 44 84 40 85 41 86 43 87 45 88 42 89
REMARK H PARENT 5 7 71 13 1 15 1 16 1 17 79 26 12 32 62 51 36 62
REMARK Flexibility Score: inf
ROOT
ATOM      1  C   UNL     1       3.767  -0.928   3.140  1.00  0.00     0.002 C 
ENDROOT
BRANCH   1   2
ATOM      2  C   UNL     1       2.899  -1.849   2.273  1.00  0.00     0.021 C 
BRANCH   2   3
ATOM      3  C   UNL     1       1.452  -1.379   2.125  1.00  0.00     0.116 C 
BRANCH   3   4
ATOM      4  N   UNL     1       1.378  -0.224   1.261  1.00  0.00    -0.350 N 
ATOM      5  C   UNL     1       1.057  -0.104  -0.050  1.00  0.00     0.287 C 
ATOM      6  O   UNL     1       1.200   1.030  -0.531  1.00  0.00    -0.268 OA
ATOM      7  H   UNL     1       1.599   0.627   1.704  1.00  0.00     0.163 HD
BRANCH   5   8
ATOM      8  C   UNL     1       0.458  -1.256  -0.927  1.00  0.00     0.228 C 
ATOM      9  C   UNL     1       1.177  -2.606  -0.928  1.00  0.00     0.146 C 
ATOM     10  C   UNL     1      -0.976  -1.575  -0.454  1.00  0.00     0.342 C 
ATOM     11  C   UNL     1       0.160  -3.640  -0.455  1.00  0.00     0.270 C 
ATOM     12  N   UNL     1      -1.165  -3.033  -0.499  1.00  0.00    -0.325 N 
ATOM     13  H   UNL     1      -1.694  -3.334   0.319  1.00  0.00     0.348 HD
BRANCH   8  14
ATOM     14  N   UNL     1       0.469  -0.747  -2.329  1.00  0.00    -0.340 N 
ATOM     15  H   UNL     1       0.088  -1.459  -2.952  1.00  0.00     0.345 HD
ATOM     16  H   UNL     1       1.427  -0.531  -2.605  1.00  0.00     0.345 HD
ATOM     17  H   UNL     1      -0.100   0.097  -2.389  1.00  0.00     0.345 HD
ENDBRANCH   8  14
BRANCH  12  18
ATOM     18  C   UNL     1      -2.062  -3.523  -1.554  1.00  0.00     0.303 C 
BRANCH  18  19
ATOM     19  C   UNL     1      -1.741  -3.183  -2.994  1.00  0.00     0.048 A 
ATOM     20  C   UNL     1      -2.344  -2.043  -3.562  1.00  0.00     0.013 A 
ATOM     21  C   UNL     1      -0.861  -3.917  -3.801  1.00  0.00     0.124 A 
ATOM     22  C   UNL     1      -2.031  -1.620  -4.856  1.00  0.00     0.001 A 
ATOM     23  C   UNL     1      -0.530  -3.486  -5.087  1.00  0.00     0.046 A 
ATOM     24  C   UNL     1      -1.109  -2.334  -5.612  1.00  0.00     0.004 A 
BRANCH  21  25
ATOM     25  O   UNL     1      -0.284  -5.095  -3.415  1.00  0.00    -0.507 OA
ATOM     26  H   UNL     1      -0.461  -5.446  -2.564  1.00  0.00     0.293 HD
ENDBRANCH  21  25
ENDBRANCH  18  19
ENDBRANCH  12  18
ENDBRANCH   5   8
ENDBRANCH   3   4
ENDBRANCH   2   3
ENDBRANCH   1   2
BRANCH   1  27
ATOM     27  C   UNL     1       3.318  -0.791   4.598  1.00  0.00     0.002 C 
BRANCH  27  28
ATOM     28  C   UNL     1       3.098  -2.113   5.338  1.00  0.00     0.021 C 
BRANCH  28  29
ATOM     29  C   UNL     1       4.299  -3.053   5.340  1.00  0.00     0.116 C 
BRANCH  29  30
ATOM     30  N   UNL     1       5.437  -2.482   6.036  1.00  0.00    -0.352 N 
ATOM     31  C   UNL     1       6.189  -3.013   7.053  1.00  0.00     0.251 C 
ATOM     32  H   UNL     1       5.708  -1.584   5.736  1.00  0.00     0.163 HD
ATOM     33  O   UNL     1       6.991  -2.308   7.656  1.00  0.00    -0.269 OA
BRANCH  31  34
ATOM     34  C   UNL     1       6.033  -4.435   7.429  1.00  0.00     0.039 A 
ATOM     35  C   UNL     1       6.017  -4.773   8.785  1.00  0.00     0.014 A 
ATOM     36  C   UNL     1       5.959  -5.435   6.455  1.00  0.00     0.014 A 
ATOM     37  C   UNL     1       5.905  -6.112   9.165  1.00  0.00     0.010 A 
ATOM     38  C   UNL     1       5.782  -6.763   6.835  1.00  0.00     0.010 A 
ATOM     39  C   UNL     1       5.780  -7.116   8.193  1.00  0.00    -0.014 A 
BRANCH  39  40
ATOM     40  C   UNL     1       5.716  -8.548   8.577  1.00  0.00     0.031 A 
ATOM     41  C   UNL     1       6.847  -9.469   8.210  1.00  0.00     0.074 A 
ATOM     42  C   UNL     1       4.633  -9.027   9.217  1.00  0.00     0.049 A 
ATOM     43  N   UNL     1       6.962 -10.759   8.402  1.00  0.00    -0.248 NA
ATOM     44  C   UNL     1       7.992  -8.864   7.510  1.00  0.00     0.031 C 
ATOM     45  C   UNL     1       3.456  -8.243   9.595  1.00  0.00     0.029 A 
ATOM     46  N   UNL     1       4.346 -10.294   9.657  1.00  0.00    -0.354 N 
ATOM     47  C   UNL     1       8.175 -11.119   7.830  1.00  0.00     0.074 A 
ATOM     48  C   UNL     1       8.738  -9.924   7.240  1.00  0.00     0.031 C 
ATOM     49  C   UNL     1       2.583  -9.043  10.229  1.00  0.00     0.029 A 
ATOM     50  C   UNL     1       3.125 -10.398  10.278  1.00  0.00     0.049 A 
ATOM     51  H   UNL     1       4.957 -11.057   9.539  1.00  0.00     0.167 HD
ATOM     52  C   UNL     1       8.781 -12.331   7.819  1.00  0.00     0.037 A 
ATOM     53  C   UNL     1       2.516 -11.466  10.825  1.00  0.00     0.037 A 
ATOM     54  C   UNL     1       8.238 -13.510   8.438  1.00  0.00     0.049 A 
ATOM     55  C   UNL     1       3.217 -12.797  10.818  1.00  0.00     0.074 A 
ATOM     56  C   UNL     1       8.794 -14.775   8.523  1.00  0.00     0.029 A 
ATOM     57  N   UNL     1       7.015 -13.565   9.089  1.00  0.00    -0.354 N 
ATOM     58  N   UNL     1       4.387 -13.112  10.318  1.00  0.00    -0.248 NA
ATOM     59  C   UNL     1       2.518 -13.917  11.463  1.00  0.00     0.031 C 
ATOM     60  C   UNL     1       7.893 -15.603   9.201  1.00  0.00     0.029 A 
ATOM     61  C   UNL     1       6.795 -14.844   9.572  1.00  0.00     0.049 A 
ATOM     62  H   UNL     1       6.395 -12.807   9.191  1.00  0.00     0.167 HD
ATOM     63  C   UNL     1       4.580 -14.455  10.618  1.00  0.00     0.074 A 
ATOM     64  C   UNL     1       3.409 -14.892  11.349  1.00  0.00     0.031 C 
ATOM     65  C   UNL     1       5.632 -15.253  10.316  1.00  0.00     0.037 A 
BRANCH  52  66
ATOM     66  C   UNL     1      10.105 -12.433   7.119  1.00  0.00     0.057 A 
ATOM     67  C   UNL     1      11.264 -11.850   7.647  1.00  0.00     0.134 A 
ATOM     68  C   UNL     1      10.226 -13.138   5.916  1.00  0.00     0.134 A 
ATOM     69  F   UNL     1      11.213 -11.148   8.790  1.00  0.00    -0.206 F 
ATOM     70  C   UNL     1      12.492 -11.940   6.989  1.00  0.00     0.040 A 
ATOM     71  C   UNL     1      11.454 -13.258   5.261  1.00  0.00     0.040 A 
ATOM     72  F   UNL     1       9.157 -13.725   5.358  1.00  0.00    -0.206 F 
ATOM     73  C   UNL     1      12.590 -12.651   5.794  1.00  0.00     0.006 A 
ENDBRANCH  52  66
BRANCH  53  74
ATOM     74  C   UNL     1       1.185 -11.316  11.463  1.00  0.00     0.057 A 
ATOM     75  C   UNL     1       1.041 -11.387  12.854  1.00  0.00     0.134 A 
ATOM     76  C   UNL     1       0.028 -11.108  10.704  1.00  0.00     0.134 A 
ATOM     77  F   UNL     1       2.112 -11.603  13.632  1.00  0.00    -0.206 F 
ATOM     78  C   UNL     1      -0.207 -11.277  13.467  1.00  0.00     0.040 A 
ATOM     79  C   UNL     1      -1.225 -10.974  11.306  1.00  0.00     0.040 A 
ATOM     80  F   UNL     1       0.100 -11.023   9.368  1.00  0.00    -0.206 F 
ATOM     81  C   UNL     1      -1.345 -11.066  12.691  1.00  0.00     0.006 A 
ENDBRANCH  53  74
BRANCH  65  82
ATOM     82  C   UNL     1       5.588 -16.665  10.820  1.00  0.00     0.057 A 
ATOM     83  C   UNL     1       4.753 -17.631  10.246  1.00  0.00     0.134 A 
ATOM     84  C   UNL     1       6.423 -17.069  11.870  1.00  0.00     0.134 A 
ATOM     85  F   UNL     1       3.921 -17.303   9.246  1.00  0.00    -0.206 F 
ATOM     86  C   UNL     1       4.734 -18.946  10.713  1.00  0.00     0.040 A 
ATOM     87  C   UNL     1       6.431 -18.386  12.330  1.00  0.00     0.040 A 
ATOM     88  F   UNL     1       7.253 -16.193  12.457  1.00  0.00    -0.206 F 
ATOM     89  C   UNL     1       5.580 -19.328  11.754  1.00  0.00     0.006 A 
ENDBRANCH  65  82
ENDBRANCH  39  40
ENDBRANCH  31  34
ENDBRANCH  29  30
ENDBRANCH  28  29
ENDBRANCH  27  28
ENDBRANCH   1  27
TORSDOF 17
