REMARK SMILES CC(C)c1ccc(NC(=O)C[C@H]2SC[C@@H](C(=O)NCCCCCCNC(=O)c3ccc(-c4c5nc(c(-c6c(F)cccc6F)c6ccc([nH]6)c(-c6c(F)cccc6F)c6nc(c(-c7c(F)cccc7F)c7ccc4[nH]7)C=C6)C=C5)cc3)NC2=O)cc1
REMARK SMILES IDX 20 1 19 2 18 3 16 4 17 5 15 7 12 8 13 9 83 10 14 11 82 12
REMARK SMILES IDX 84 13 11 15 9 16 8 17 10 19 7 20 4 21 5 22 86 23 6 24 85 25
REMARK SMILES IDX 2 26 1 27 3 28 21 29 22 30 23 31 24 32 25 33 26 34 27 36
REMARK SMILES IDX 28 37 29 38 81 39 30 40 80 41 31 42 32 43 33 44 74 45 34 46
REMARK SMILES IDX 79 47 73 48 75 49 35 50 78 51 72 52 71 53 36 55 62 56 45 57
REMARK SMILES IDX 61 58 46 59 49 60 60 61 76 62 47 63 48 64 59 66 77 67 50 68
REMARK SMILES IDX 37 69 38 70 43 71 39 72 40 73 42 74 44 75 41 76 63 77 64 78
REMARK SMILES IDX 69 79 65 80 66 81 68 82 70 83 67 84 51 85 52 86 57 87 53 88
REMARK SMILES IDX 54 89 56 90 58 91 55 92
REMARK H PARENT 18 6 82 14 8 18 25 35 75 54 49 65
REMARK Flexibility Score: inf
ROOT
ATOM      1  C   UNL     1       2.394   3.184   1.013  1.00  0.00     0.021 C 
ENDROOT
BRANCH   1   2
ATOM      2  C   UNL     1       1.249   2.182   1.167  1.00  0.00     0.116 C 
BRANCH   2   3
ATOM      3  N   UNL     1       0.503   2.501   2.362  1.00  0.00    -0.354 N 
ATOM      4  C   UNL     1      -0.501   3.423   2.470  1.00  0.00     0.243 C 
ATOM      5  O   UNL     1      -0.617   4.012   3.544  1.00  0.00    -0.273 OA
ATOM      6  H   UNL     1       0.740   2.005   3.179  1.00  0.00     0.163 HD
BRANCH   4   7
ATOM      7  C   UNL     1      -1.583   3.437   1.369  1.00  0.00     0.181 C 
ATOM      8  C   UNL     1      -4.192   3.726   2.931  1.00  0.00     0.145 C 
ATOM      9  S   UNL     1      -3.348   5.319   2.526  1.00  0.00    -0.145 SA
ATOM     10  C   UNL     1      -3.253   2.514   2.891  1.00  0.00     0.234 C 
ATOM     11  C   UNL     1      -2.267   4.780   1.171  1.00  0.00     0.105 C 
ATOM     12  N   UNL     1      -2.471   2.358   1.772  1.00  0.00    -0.343 N 
ATOM     13  O   UNL     1      -3.213   1.600   3.709  1.00  0.00    -0.274 OA
ATOM     14  H   UNL     1      -2.512   1.526   1.248  1.00  0.00     0.164 HD
BRANCH   8  15
ATOM     15  C   UNL     1      -5.022   3.950   4.204  1.00  0.00     0.124 C 
BRANCH  15  16
ATOM     16  C   UNL     1      -5.213   2.820   5.196  1.00  0.00     0.226 C 
ATOM     17  N   UNL     1      -5.710   1.599   4.864  1.00  0.00    -0.326 N 
ATOM     18  H   UNL     1      -5.756   0.968   5.619  1.00  0.00     0.169 HD
ATOM     19  O   UNL     1      -4.916   3.002   6.384  1.00  0.00    -0.275 OA
BRANCH  17  20
ATOM     20  C   UNL     1      -6.168   1.068   3.654  1.00  0.00     0.041 A 
ATOM     21  C   UNL     1      -6.853  -0.125   1.185  1.00  0.00    -0.045 A 
ATOM     22  C   UNL     1      -7.146   1.220   1.448  1.00  0.00     0.006 A 
ATOM     23  C   UNL     1      -6.237  -0.871   2.202  1.00  0.00     0.006 A 
ATOM     24  C   UNL     1      -6.816   1.808   2.674  1.00  0.00     0.026 A 
ATOM     25  C   UNL     1      -5.922  -0.288   3.430  1.00  0.00     0.026 A 
BRANCH  21  26
ATOM     26  C   UNL     1      -7.173  -0.805  -0.139  1.00  0.00     0.013 C 
ATOM     27  C   UNL     1      -8.169  -1.953   0.069  1.00  0.00     0.012 C 
ATOM     28  C   UNL     1      -7.699   0.127  -1.236  1.00  0.00     0.012 C 
ENDBRANCH  21  26
ENDBRANCH  17  20
ENDBRANCH  15  16
ENDBRANCH   8  15
ENDBRANCH   4   7
ENDBRANCH   2   3
ENDBRANCH   1   2
BRANCH   1  29
ATOM     29  C   UNL     1       3.387   3.164   2.186  1.00  0.00     0.002 C 
BRANCH  29  30
ATOM     30  C   UNL     1       4.006   1.794   2.480  1.00  0.00     0.002 C 
BRANCH  30  31
ATOM     31  C   UNL     1       4.657   1.118   1.272  1.00  0.00     0.021 C 
BRANCH  31  32
ATOM     32  C   UNL     1       5.738   1.952   0.599  1.00  0.00     0.116 C 
BRANCH  32  33
ATOM     33  N   UNL     1       6.882   2.168   1.469  1.00  0.00    -0.352 N 
ATOM     34  C   UNL     1       8.209   1.942   1.213  1.00  0.00     0.251 C 
ATOM     35  H   UNL     1       6.675   2.524   2.363  1.00  0.00     0.163 HD
ATOM     36  O   UNL     1       9.036   1.992   2.121  1.00  0.00    -0.269 OA
BRANCH  34  37
ATOM     37  C   UNL     1       8.641   1.613  -0.161  1.00  0.00     0.039 A 
ATOM     38  C   UNL     1       9.527   0.551  -0.354  1.00  0.00     0.014 A 
ATOM     39  C   UNL     1       8.164   2.342  -1.254  1.00  0.00     0.014 A 
ATOM     40  C   UNL     1       9.894   0.186  -1.650  1.00  0.00     0.010 A 
ATOM     41  C   UNL     1       8.471   1.930  -2.547  1.00  0.00     0.010 A 
ATOM     42  C   UNL     1       9.344   0.851  -2.759  1.00  0.00    -0.014 A 
BRANCH  42  43
ATOM     43  C   UNL     1       9.672   0.434  -4.145  1.00  0.00     0.031 A 
ATOM     44  C   UNL     1      10.397   1.377  -5.066  1.00  0.00     0.074 A 
ATOM     45  C   UNL     1       9.262  -0.769  -4.593  1.00  0.00     0.049 A 
ATOM     46  N   UNL     1      10.716   1.218  -6.326  1.00  0.00    -0.248 NA
ATOM     47  C   UNL     1      10.793   2.680  -4.508  1.00  0.00     0.031 C 
ATOM     48  C   UNL     1       8.510  -1.754  -3.813  1.00  0.00     0.029 A 
ATOM     49  N   UNL     1       9.411  -1.365  -5.821  1.00  0.00    -0.354 N 
ATOM     50  C   UNL     1      11.328   2.404  -6.713  1.00  0.00     0.074 A 
ATOM     51  C   UNL     1      11.296   3.290  -5.570  1.00  0.00     0.031 C 
ATOM     52  C   UNL     1       8.285  -2.839  -4.572  1.00  0.00     0.029 A 
ATOM     53  C   UNL     1       8.838  -2.612  -5.903  1.00  0.00     0.049 A 
ATOM     54  H   UNL     1       9.883  -0.939  -6.572  1.00  0.00     0.167 HD
ATOM     55  C   UNL     1      11.882   2.718  -7.908  1.00  0.00     0.037 A 
ATOM     56  C   UNL     1       8.760  -3.470  -6.938  1.00  0.00     0.037 A 
ATOM     57  C   UNL     1      11.947   1.819  -9.030  1.00  0.00     0.049 A 
ATOM     58  C   UNL     1       9.385  -3.092  -8.253  1.00  0.00     0.074 A 
ATOM     59  C   UNL     1      12.565   2.014 -10.253  1.00  0.00     0.029 A 
ATOM     60  N   UNL     1      11.372   0.559  -9.068  1.00  0.00    -0.354 N 
ATOM     61  N   UNL     1      10.037  -2.002  -8.577  1.00  0.00    -0.248 NA
ATOM     62  C   UNL     1       9.267  -4.067  -9.347  1.00  0.00     0.031 C 
ATOM     63  C   UNL     1      12.317   0.893 -11.051  1.00  0.00     0.029 A 
ATOM     64  C   UNL     1      11.593  -0.022 -10.305  1.00  0.00     0.049 A 
ATOM     65  H   UNL     1      10.880   0.139  -8.325  1.00  0.00     0.167 HD
ATOM     66  C   UNL     1      10.437  -2.175  -9.896  1.00  0.00     0.074 A 
ATOM     67  C   UNL     1       9.966  -3.481 -10.308  1.00  0.00     0.031 C 
ATOM     68  C   UNL     1      11.132  -1.330 -10.695  1.00  0.00     0.037 A 
BRANCH  55  69
ATOM     69  C   UNL     1      12.465   4.091  -8.072  1.00  0.00     0.057 A 
ATOM     70  C   UNL     1      13.650   4.476  -7.431  1.00  0.00     0.134 A 
ATOM     71  C   UNL     1      11.867   5.019  -8.934  1.00  0.00     0.134 A 
ATOM     72  F   UNL     1      14.268   3.639  -6.584  1.00  0.00    -0.206 F 
ATOM     73  C   UNL     1      14.210   5.740  -7.628  1.00  0.00     0.040 A 
ATOM     74  C   UNL     1      12.431   6.276  -9.161  1.00  0.00     0.040 A 
ATOM     75  F   UNL     1      10.734   4.713  -9.584  1.00  0.00    -0.206 F 
ATOM     76  C   UNL     1      13.604   6.640  -8.503  1.00  0.00     0.006 A 
ENDBRANCH  55  69
BRANCH  56  77
ATOM     77  C   UNL     1       8.076  -4.780  -6.780  1.00  0.00     0.057 A 
ATOM     78  C   UNL     1       8.794  -5.981  -6.833  1.00  0.00     0.134 A 
ATOM     79  C   UNL     1       6.688  -4.866  -6.615  1.00  0.00     0.134 A 
ATOM     80  F   UNL     1      10.123  -5.965  -7.008  1.00  0.00    -0.206 F 
ATOM     81  C   UNL     1       8.155  -7.220  -6.761  1.00  0.00     0.040 A 
ATOM     82  C   UNL     1       6.039  -6.098  -6.513  1.00  0.00     0.040 A 
ATOM     83  F   UNL     1       5.942  -3.754  -6.549  1.00  0.00    -0.206 F 
ATOM     84  C   UNL     1       6.773  -7.280  -6.598  1.00  0.00     0.006 A 
ENDBRANCH  56  77
BRANCH  68  85
ATOM     85  C   UNL     1      11.466  -1.808 -12.078  1.00  0.00     0.057 A 
ATOM     86  C   UNL     1      10.492  -1.932 -13.076  1.00  0.00     0.134 A 
ATOM     87  C   UNL     1      12.790  -2.110 -12.425  1.00  0.00     0.134 A 
ATOM     88  F   UNL     1       9.204  -1.671 -12.806  1.00  0.00    -0.206 F 
ATOM     89  C   UNL     1      10.818  -2.365 -14.363  1.00  0.00     0.040 A 
ATOM     90  C   UNL     1      13.132  -2.514 -13.715  1.00  0.00     0.040 A 
ATOM     91  F   UNL     1      13.773  -2.002 -11.519  1.00  0.00    -0.206 F 
ATOM     92  C   UNL     1      12.143  -2.650 -14.687  1.00  0.00     0.006 A 
ENDBRANCH  68  85
ENDBRANCH  42  43
ENDBRANCH  34  37
ENDBRANCH  32  33
ENDBRANCH  31  32
ENDBRANCH  30  31
ENDBRANCH  29  30
ENDBRANCH   1  29
TORSDOF 17
