REMARK SMILES O=C(NCCCCCCNC(=O)[C@@H]1[C@@H](C(=O)N2CCN(c3cccc(Cl)c3)CC2)[C@H]2CC[C@@H]1O2)c1ccc(-c2c3nc(c(-c4c(F)cccc4F)c4ccc([nH]4)c(-c4c(F)cccc4F)c4nc(c(-c5c(F)cccc5F)c5ccc2[nH]5)C=C4)C=C3)cc1
REMARK SMILES IDX 6 1 5 2 4 3 3 4 1 5 2 6 35 8 36 9 88 10 37 11 87 12 38 13
REMARK SMILES IDX 39 14 40 15 81 16 41 17 86 18 80 19 82 20 42 21 85 22 79 23
REMARK SMILES IDX 78 24 43 26 69 27 52 28 68 29 53 30 56 31 67 32 83 33 54 34
REMARK SMILES IDX 55 35 66 37 84 38 57 39 44 40 45 41 50 42 46 43 47 44 49 45
REMARK SMILES IDX 51 46 48 47 70 48 71 49 76 50 72 51 73 52 75 53 77 54 74 55
REMARK SMILES IDX 58 56 59 57 64 58 60 59 61 60 63 61 65 62 62 63 7 64 8 65
REMARK SMILES IDX 9 66 10 67 11 68 12 70 13 71 14 72 33 73 30 74 32 75 34 76
REMARK SMILES IDX 31 77 15 78 16 79 17 80 18 81 29 82 19 83 28 84 20 85 21 86
REMARK SMILES IDX 22 87 27 88 23 89 25 90 24 91 26 92
REMARK H PARENT 3 7 82 25 56 36 10 69
REMARK Flexibility Score: inf
ROOT
ATOM      1  C   UNL     1       4.090   2.021  -3.521  1.00  0.00     0.002 C 
ENDROOT
BRANCH   1   2
ATOM      2  C   UNL     1       4.494   0.706  -2.856  1.00  0.00     0.021 C 
BRANCH   2   3
ATOM      3  C   UNL     1       4.331   0.691  -1.343  1.00  0.00     0.116 C 
BRANCH   3   4
ATOM      4  N   UNL     1       2.936   0.720  -0.932  1.00  0.00    -0.352 N 
ATOM      5  O   UNL     1       1.072  -0.040   0.099  1.00  0.00    -0.269 OA
ATOM      6  C   UNL     1       2.292  -0.090  -0.027  1.00  0.00     0.251 C 
ATOM      7  H   UNL     1       2.380   1.411  -1.358  1.00  0.00     0.163 HD
BRANCH   6   8
ATOM      8  C   UNL     1       3.082  -1.044   0.782  1.00  0.00     0.039 A 
ATOM      9  C   UNL     1       4.274  -0.638   1.384  1.00  0.00     0.014 A 
ATOM     10  C   UNL     1       2.632  -2.359   0.930  1.00  0.00     0.014 A 
ATOM     11  C   UNL     1       5.085  -1.577   2.005  1.00  0.00     0.010 A 
ATOM     12  C   UNL     1       3.406  -3.283   1.640  1.00  0.00     0.010 A 
ATOM     13  C   UNL     1       4.653  -2.905   2.160  1.00  0.00    -0.014 A 
BRANCH  13  14
ATOM     14  C   UNL     1       5.501  -3.838   2.945  1.00  0.00     0.031 A 
ATOM     15  C   UNL     1       6.155  -5.034   2.313  1.00  0.00     0.074 A 
ATOM     16  C   UNL     1       5.732  -3.545   4.240  1.00  0.00     0.049 A 
ATOM     17  N   UNL     1       6.991  -5.889   2.848  1.00  0.00    -0.248 NA
ATOM     18  C   UNL     1       5.827  -5.316   0.907  1.00  0.00     0.031 C 
ATOM     19  C   UNL     1       5.128  -2.424   4.966  1.00  0.00     0.029 A 
ATOM     20  N   UNL     1       6.556  -4.132   5.163  1.00  0.00    -0.354 N 
ATOM     21  C   UNL     1       7.283  -6.812   1.852  1.00  0.00     0.074 A 
ATOM     22  C   UNL     1       6.513  -6.431   0.687  1.00  0.00     0.031 C 
ATOM     23  C   UNL     1       5.651  -2.365   6.199  1.00  0.00     0.029 A 
ATOM     24  C   UNL     1       6.579  -3.476   6.370  1.00  0.00     0.049 A 
ATOM     25  H   UNL     1       7.081  -4.944   4.979  1.00  0.00     0.167 HD
ATOM     26  C   UNL     1       8.125  -7.873   1.906  1.00  0.00     0.037 A 
ATOM     27  C   UNL     1       7.265  -3.741   7.495  1.00  0.00     0.037 A 
ATOM     28  C   UNL     1       8.894  -8.245   3.067  1.00  0.00     0.049 A 
ATOM     29  C   UNL     1       8.195  -4.917   7.520  1.00  0.00     0.074 A 
ATOM     30  C   UNL     1       9.779  -9.300   3.216  1.00  0.00     0.029 A 
ATOM     31  N   UNL     1       8.872  -7.571   4.279  1.00  0.00    -0.354 N 
ATOM     32  N   UNL     1       8.473  -5.767   6.562  1.00  0.00    -0.248 NA
ATOM     33  C   UNL     1       8.903  -5.171   8.780  1.00  0.00     0.031 C 
ATOM     34  C   UNL     1      10.268  -9.282   4.527  1.00  0.00     0.029 A 
ATOM     35  C   UNL     1       9.719  -8.193   5.183  1.00  0.00     0.049 A 
ATOM     36  H   UNL     1       8.334  -6.769   4.470  1.00  0.00     0.167 HD
ATOM     37  C   UNL     1       9.387  -6.659   7.103  1.00  0.00     0.074 A 
ATOM     38  C   UNL     1       9.645  -6.222   8.461  1.00  0.00     0.031 C 
ATOM     39  C   UNL     1       9.952  -7.750   6.533  1.00  0.00     0.037 A 
BRANCH  26  40
ATOM     40  C   UNL     1       8.260  -8.720   0.673  1.00  0.00     0.057 A 
ATOM     41  C   UNL     1       8.973  -8.277  -0.448  1.00  0.00     0.134 A 
ATOM     42  C   UNL     1       7.729 -10.015   0.631  1.00  0.00     0.134 A 
ATOM     43  F   UNL     1       9.498  -7.043  -0.477  1.00  0.00    -0.206 F 
ATOM     44  C   UNL     1       9.145  -9.089  -1.571  1.00  0.00     0.040 A 
ATOM     45  C   UNL     1       7.912 -10.844  -0.478  1.00  0.00     0.040 A 
ATOM     46  F   UNL     1       7.041 -10.504   1.674  1.00  0.00    -0.206 F 
ATOM     47  C   UNL     1       8.620 -10.381  -1.585  1.00  0.00     0.006 A 
ENDBRANCH  26  40
BRANCH  27  48
ATOM     48  C   UNL     1       7.086  -2.878   8.688  1.00  0.00     0.057 A 
ATOM     49  C   UNL     1       8.111  -2.041   9.143  1.00  0.00     0.134 A 
ATOM     50  C   UNL     1       5.878  -2.864   9.397  1.00  0.00     0.134 A 
ATOM     51  F   UNL     1       9.296  -2.022   8.514  1.00  0.00    -0.206 F 
ATOM     52  C   UNL     1       7.948  -1.233  10.269  1.00  0.00     0.040 A 
ATOM     53  C   UNL     1       5.691  -2.041  10.507  1.00  0.00     0.040 A 
ATOM     54  F   UNL     1       4.854  -3.637   9.005  1.00  0.00    -0.206 F 
ATOM     55  C   UNL     1       6.731  -1.227  10.950  1.00  0.00     0.006 A 
ENDBRANCH  27  48
BRANCH  39  56
ATOM     56  C   UNL     1      10.902  -8.536   7.386  1.00  0.00     0.057 A 
ATOM     57  C   UNL     1      10.449  -9.334   8.444  1.00  0.00     0.134 A 
ATOM     58  C   UNL     1      12.281  -8.490   7.152  1.00  0.00     0.134 A 
ATOM     59  F   UNL     1       9.140  -9.406   8.729  1.00  0.00    -0.206 F 
ATOM     60  C   UNL     1      11.338 -10.035   9.260  1.00  0.00     0.040 A 
ATOM     61  C   UNL     1      13.178  -9.205   7.946  1.00  0.00     0.040 A 
ATOM     62  F   UNL     1      12.779  -7.748   6.151  1.00  0.00    -0.206 F 
ATOM     63  C   UNL     1      12.707  -9.974   9.009  1.00  0.00     0.006 A 
ENDBRANCH  39  56
ENDBRANCH  13  14
ENDBRANCH   6   8
ENDBRANCH   3   4
ENDBRANCH   2   3
ENDBRANCH   1   2
BRANCH   1  64
ATOM     64  C   UNL     1       4.850   3.258  -3.027  1.00  0.00     0.002 C 
BRANCH  64  65
ATOM     65  C   UNL     1       6.381   3.142  -3.063  1.00  0.00     0.021 C 
BRANCH  65  66
ATOM     66  C   UNL     1       6.941   2.820  -4.449  1.00  0.00     0.116 C 
BRANCH  66  67
ATOM     67  N   UNL     1       6.712   3.933  -5.352  1.00  0.00    -0.356 N 
ATOM     68  C   UNL     1       7.595   4.880  -5.786  1.00  0.00     0.226 C 
ATOM     69  H   UNL     1       5.795   4.016  -5.699  1.00  0.00     0.163 HD
ATOM     70  O   UNL     1       7.145   5.899  -6.306  1.00  0.00    -0.275 OA
BRANCH  68  71
ATOM     71  C   UNL     1       9.078   4.595  -5.647  1.00  0.00     0.122 C 
ATOM     72  C   UNL     1       9.966   5.836  -5.862  1.00  0.00     0.122 C 
ATOM     73  C   UNL     1       9.497   3.693  -6.814  1.00  0.00     0.132 C 
ATOM     74  C   UNL     1      10.735   5.442  -7.137  1.00  0.00     0.132 C 
ATOM     75  C   UNL     1      10.903   3.134  -6.593  1.00  0.00     0.035 C 
ATOM     76  O   UNL     1       9.747   4.668  -7.856  1.00  0.00    -0.373 OA
ATOM     77  C   UNL     1      11.781   4.346  -6.905  1.00  0.00     0.035 C 
BRANCH  72  78
ATOM     78  C   UNL     1      10.940   6.065  -4.721  1.00  0.00     0.229 C 
ATOM     79  O   UNL     1      11.079   5.235  -3.820  1.00  0.00    -0.274 OA
ATOM     80  N   UNL     1      11.788   7.144  -4.838  1.00  0.00    -0.339 N 
ATOM     81  C   UNL     1      13.147   7.034  -4.296  1.00  0.00     0.141 C 
ATOM     82  C   UNL     1      11.463   8.450  -5.430  1.00  0.00     0.141 C 
ATOM     83  C   UNL     1      14.170   7.349  -5.404  1.00  0.00     0.138 C 
ATOM     84  C   UNL     1      12.514   8.914  -6.459  1.00  0.00     0.138 C 
ATOM     85  N   UNL     1      13.870   8.673  -5.956  1.00  0.00    -0.368 N 
BRANCH  85  86
ATOM     86  C   UNL     1      14.881   9.579  -6.168  1.00  0.00     0.038 A 
ATOM     87  C   UNL     1      14.843  10.827  -5.533  1.00  0.00     0.026 A 
ATOM     88  C   UNL     1      15.988   9.272  -6.965  1.00  0.00     0.046 A 
ATOM     89  C   UNL     1      15.893  11.736  -5.662  1.00  0.00     0.004 A 
ATOM     90  C   UNL     1      17.029  10.189  -7.113  1.00  0.00     0.043 A 
ATOM     91  C   UNL     1      16.991  11.417  -6.456  1.00  0.00     0.020 A 
ATOM     92  Cl  UNL     1      18.377   9.797  -8.109  1.00  0.00    -0.084 Cl
ENDBRANCH  85  86
ENDBRANCH  72  78
ENDBRANCH  68  71
ENDBRANCH  66  67
ENDBRANCH  65  66
ENDBRANCH  64  65
ENDBRANCH   1  64
TORSDOF 15
