REMARK SMILES Cc1cc(C)c2c(OCCCC(=O)NCCCCCCNC(=O)c3ccc(-c4c5nc(c(-c6c(F)cccc6F)c6ccc([nH]6)c(-c6c(F)cccc6F)c6nc(c(-c7c(F)cccc7F)c7ccc4[nH]7)C=C6)C=C5)cc3)nsc2n1
REMARK SMILES IDX 16 1 15 2 14 3 12 4 13 5 11 7 10 8 9 9 8 10 7 11 1 12 2 13
REMARK SMILES IDX 3 14 81 15 4 16 80 17 5 18 6 19 79 20 78 21 17 22 18 23
REMARK SMILES IDX 19 24 20 25 21 26 22 27 23 29 24 30 25 31 77 32 26 33 76 34
REMARK SMILES IDX 27 35 28 36 29 37 70 38 30 39 75 40 69 41 71 42 31 43 74 44
REMARK SMILES IDX 68 45 67 46 32 48 58 49 41 50 57 51 42 52 45 53 56 54 72 55
REMARK SMILES IDX 43 56 44 57 55 59 73 60 46 61 33 62 34 63 39 64 35 65 36 66
REMARK SMILES IDX 38 67 40 68 37 69 59 70 60 71 65 72 61 73 62 74 64 75 66 76
REMARK SMILES IDX 63 77 47 78 48 79 53 80 49 81 50 82 52 83 54 84 51 85
REMARK H PARENT 14 6 21 28 71 47 45 58
REMARK Flexibility Score: inf
ROOT
ATOM      1  C   UNL     1       1.938  -0.929   6.367  1.00  0.00     0.021 C 
ENDROOT
BRANCH   1   2
ATOM      2  C   UNL     1       1.608  -1.132   4.845  1.00  0.00     0.116 C 
BRANCH   2   3
ATOM      3  N   UNL     1       0.193  -1.692   4.542  1.00  0.00    -0.356 N 
ATOM      4  C   UNL     1      -1.128  -1.544   4.202  1.00  0.00     0.220 C 
ATOM      5  O   UNL     1      -1.629  -2.685   4.063  1.00  0.00    -0.275 OA
ATOM      6  H   UNL     1       0.299  -2.664   4.650  1.00  0.00     0.163 HD
BRANCH   4   7
ATOM      7  C   UNL     1      -2.138  -0.326   3.763  1.00  0.00     0.103 C 
BRANCH   7   8
ATOM      8  C   UNL     1      -3.128   0.714   4.504  1.00  0.00     0.051 C 
BRANCH   8   9
ATOM      9  C   UNL     1      -2.892   2.046   5.349  1.00  0.00     0.232 C 
BRANCH   9  10
ATOM     10  O   UNL     1      -2.712   3.358   4.792  1.00  0.00    -0.477 OA
BRANCH  10  11
ATOM     11  C   UNL     1      -1.582   3.750   4.147  1.00  0.00     0.235 A 
ATOM     12  C   UNL     1       1.079   0.934   0.290  1.00  0.00     0.067 C 
ATOM     13  C   UNL     1       0.687   1.719   1.514  1.00  0.00     0.039 A 
ATOM     14  C   UNL     1       0.448   1.042   2.707  1.00  0.00     0.027 A 
ATOM     15  N   UNL     1       0.599   3.062   1.412  1.00  0.00    -0.240 NA
ATOM     16  C   UNL     1      -0.060   1.715   3.837  1.00  0.00    -0.034 A 
ATOM     17  C   UNL     1      -0.059   3.623   2.449  1.00  0.00     0.147 A 
ATOM     18  C   UNL     1      -0.181   1.257   5.241  1.00  0.00     0.045 C 
ATOM     19  C   UNL     1      -0.554   2.973   3.566  1.00  0.00     0.078 A 
ATOM     20  S   UNL     1      -0.404   5.277   2.650  1.00  0.00    -0.012 S 
ATOM     21  N   UNL     1      -1.526   5.055   3.878  1.00  0.00    -0.153 NA
ENDBRANCH  10  11
ENDBRANCH   9  10
ENDBRANCH   8   9
ENDBRANCH   7   8
ENDBRANCH   4   7
ENDBRANCH   2   3
ENDBRANCH   1   2
BRANCH   1  22
ATOM     22  C   UNL     1       3.423  -0.741   6.723  1.00  0.00     0.002 C 
BRANCH  22  23
ATOM     23  C   UNL     1       4.122   0.562   6.283  1.00  0.00     0.002 C 
BRANCH  23  24
ATOM     24  C   UNL     1       3.813   1.869   7.041  1.00  0.00     0.021 C 
BRANCH  24  25
ATOM     25  C   UNL     1       3.973   1.827   8.559  1.00  0.00     0.116 C 
BRANCH  25  26
ATOM     26  N   UNL     1       5.287   1.374   8.995  1.00  0.00    -0.352 N 
ATOM     27  C   UNL     1       5.771   1.209  10.282  1.00  0.00     0.251 C 
ATOM     28  H   UNL     1       5.920   1.154   8.274  1.00  0.00     0.163 HD
ATOM     29  O   UNL     1       6.963   1.128  10.490  1.00  0.00    -0.269 OA
BRANCH  27  30
ATOM     30  C   UNL     1       4.816   1.138  11.409  1.00  0.00     0.039 A 
ATOM     31  C   UNL     1       5.119   1.770  12.618  1.00  0.00     0.014 A 
ATOM     32  C   UNL     1       3.628   0.421  11.263  1.00  0.00     0.014 A 
ATOM     33  C   UNL     1       4.181   1.741  13.646  1.00  0.00     0.010 A 
ATOM     34  C   UNL     1       2.656   0.481  12.238  1.00  0.00     0.010 A 
ATOM     35  C   UNL     1       2.936   1.120  13.440  1.00  0.00    -0.014 A 
BRANCH  35  36
ATOM     36  C   UNL     1       1.869   1.311  14.419  1.00  0.00     0.031 A 
ATOM     37  C   UNL     1       1.616   2.745  14.728  1.00  0.00     0.074 A 
ATOM     38  C   UNL     1       1.059   0.334  14.882  1.00  0.00     0.049 A 
ATOM     39  N   UNL     1       1.903   3.366  15.822  1.00  0.00    -0.248 NA
ATOM     40  C   UNL     1       1.157   3.631  13.644  1.00  0.00     0.031 C 
ATOM     41  C   UNL     1       0.988  -1.064  14.448  1.00  0.00     0.029 A 
ATOM     42  N   UNL     1       0.052   0.411  15.800  1.00  0.00    -0.354 N 
ATOM     43  C   UNL     1       1.442   4.668  15.651  1.00  0.00     0.074 A 
ATOM     44  C   UNL     1       1.181   4.823  14.245  1.00  0.00     0.031 C 
ATOM     45  C   UNL     1      -0.140  -1.635  14.930  1.00  0.00     0.029 A 
ATOM     46  C   UNL     1      -0.781  -0.705  15.841  1.00  0.00     0.049 A 
ATOM     47  H   UNL     1      -0.075   1.192  16.386  1.00  0.00     0.167 HD
ATOM     48  C   UNL     1       1.038   5.397  16.727  1.00  0.00     0.037 A 
ATOM     49  C   UNL     1      -1.919  -0.847  16.567  1.00  0.00     0.037 A 
ATOM     50  C   UNL     1       1.534   4.819  17.952  1.00  0.00     0.049 A 
ATOM     51  C   UNL     1      -1.849   0.137  17.671  1.00  0.00     0.074 A 
ATOM     52  C   UNL     1       2.778   4.542  18.482  1.00  0.00     0.029 A 
ATOM     53  N   UNL     1       0.635   4.072  18.669  1.00  0.00    -0.354 N 
ATOM     54  N   UNL     1      -1.002   0.068  18.657  1.00  0.00    -0.248 NA
ATOM     55  C   UNL     1      -2.476   1.433  17.469  1.00  0.00     0.031 C 
ATOM     56  C   UNL     1       2.611   3.324  19.206  1.00  0.00     0.029 A 
ATOM     57  C   UNL     1       1.266   2.957  19.143  1.00  0.00     0.049 A 
ATOM     58  H   UNL     1      -0.311   4.302  18.817  1.00  0.00     0.167 HD
ATOM     59  C   UNL     1      -0.652   1.385  18.903  1.00  0.00     0.074 A 
ATOM     60  C   UNL     1      -1.685   2.179  18.242  1.00  0.00     0.031 C 
ATOM     61  C   UNL     1       0.594   1.695  19.362  1.00  0.00     0.037 A 
BRANCH  48  62
ATOM     62  C   UNL     1      -0.174   6.306  16.722  1.00  0.00     0.057 A 
ATOM     63  C   UNL     1      -0.468   7.049  17.882  1.00  0.00     0.134 A 
ATOM     64  C   UNL     1      -1.226   6.226  15.786  1.00  0.00     0.134 A 
ATOM     65  F   UNL     1       0.439   7.181  18.863  1.00  0.00    -0.206 F 
ATOM     66  C   UNL     1      -1.735   7.593  18.127  1.00  0.00     0.040 A 
ATOM     67  C   UNL     1      -2.477   6.811  15.997  1.00  0.00     0.040 A 
ATOM     68  F   UNL     1      -1.147   5.494  14.670  1.00  0.00    -0.206 F 
ATOM     69  C   UNL     1      -2.748   7.468  17.185  1.00  0.00     0.006 A 
ENDBRANCH  48  62
BRANCH  49  70
ATOM     70  C   UNL     1      -3.184  -1.551  16.243  1.00  0.00     0.057 A 
ATOM     71  C   UNL     1      -4.172  -1.742  17.224  1.00  0.00     0.134 A 
ATOM     72  C   UNL     1      -3.592  -1.760  14.915  1.00  0.00     0.134 A 
ATOM     73  F   UNL     1      -3.894  -1.540  18.521  1.00  0.00    -0.206 F 
ATOM     74  C   UNL     1      -5.498  -2.062  16.902  1.00  0.00     0.040 A 
ATOM     75  C   UNL     1      -4.912  -2.087  14.581  1.00  0.00     0.040 A 
ATOM     76  F   UNL     1      -2.749  -1.559  13.893  1.00  0.00    -0.206 F 
ATOM     77  C   UNL     1      -5.876  -2.217  15.573  1.00  0.00     0.006 A 
ENDBRANCH  49  70
BRANCH  61  78
ATOM     78  C   UNL     1       1.430   0.594  19.951  1.00  0.00     0.057 A 
ATOM     79  C   UNL     1       1.950  -0.491  19.230  1.00  0.00     0.134 A 
ATOM     80  C   UNL     1       1.869   0.750  21.271  1.00  0.00     0.134 A 
ATOM     81  F   UNL     1       1.644  -0.682  17.940  1.00  0.00    -0.206 F 
ATOM     82  C   UNL     1       2.860  -1.383  19.806  1.00  0.00     0.040 A 
ATOM     83  C   UNL     1       2.803  -0.113  21.845  1.00  0.00     0.040 A 
ATOM     84  F   UNL     1       1.441   1.789  22.006  1.00  0.00    -0.206 F 
ATOM     85  C   UNL     1       3.301  -1.186  21.113  1.00  0.00     0.006 A 
ENDBRANCH  61  78
ENDBRANCH  35  36
ENDBRANCH  27  30
ENDBRANCH  25  26
ENDBRANCH  24  25
ENDBRANCH  23  24
ENDBRANCH  22  23
ENDBRANCH   1  22
TORSDOF 17
