REMARK SMILES C[C@H](NC(=O)CCN1C(=O)/C(=C/c2ccc([N+](=O)[O-])cc2)SC1=S)C(=O)NCCCCCCNC(=O)c1ccc(-c2c3nc(c(-c4c(F)cccc4F)c4ccc([nH]4)c(-c4c(F)cccc4F)c4nc(c(-c5c(F)cccc5F)c5ccc2[nH]5)C=C4)C=C3)cc1
REMARK SMILES IDX 28 1 27 2 25 3 26 4 2 6 1 7 3 8 4 9 5 11 6 12 7 13 8 14 9 15
REMARK SMILES IDX 23 16 10 17 11 18 22 19 24 20 12 21 13 22 14 23 21 24 15 25
REMARK SMILES IDX 20 26 16 27 17 28 18 29 19 30 29 31 30 32 31 33 32 34 33 35
REMARK SMILES IDX 34 36 35 37 36 39 37 40 38 41 90 42 39 43 89 44 40 45 41 46
REMARK SMILES IDX 42 47 83 48 43 49 88 50 82 51 84 52 44 53 87 54 81 55 80 56
REMARK SMILES IDX 45 58 71 59 54 60 70 61 55 62 58 63 69 64 85 65 56 66 57 67
REMARK SMILES IDX 68 69 86 70 59 71 46 72 47 73 52 74 48 75 49 76 51 77 53 78
REMARK SMILES IDX 50 79 72 80 73 81 78 82 74 83 75 84 77 85 79 86 76 87 60 88
REMARK SMILES IDX 61 89 66 90 62 91 63 92 65 93 67 94 64 95
REMARK H PARENT 27 5 3 10 34 38 84 57 58 68
REMARK Flexibility Score: inf
ROOT
ATOM      1  C   UNL     1      -0.678  -0.882  -2.751  1.00  0.00     0.116 C 
ENDROOT
BRANCH   1   2
ATOM      2  N   UNL     1      -1.072   0.017  -1.695  1.00  0.00    -0.354 N 
ATOM      3  C   UNL     1      -0.295   0.148  -0.584  1.00  0.00     0.242 C 
ATOM      4  O   UNL     1      -0.768  -0.159   0.508  1.00  0.00    -0.273 OA
ATOM      5  H   UNL     1      -1.904   0.536  -1.776  1.00  0.00     0.163 HD
BRANCH   3   6
ATOM      6  C   UNL     1       1.022   0.922  -0.735  1.00  0.00     0.168 C 
ATOM      7  C   UNL     1       1.550   1.286  -2.113  1.00  0.00     0.041 C 
BRANCH   6   8
ATOM      8  N   UNL     1       2.067   0.453   0.143  1.00  0.00    -0.345 N 
ATOM      9  C   UNL     1       2.383   0.872   1.396  1.00  0.00     0.222 C 
ATOM     10  H   UNL     1       2.629  -0.271  -0.216  1.00  0.00     0.164 HD
ATOM     11  O   UNL     1       3.365   0.344   1.926  1.00  0.00    -0.275 OA
BRANCH   9  12
ATOM     12  C   UNL     1       1.534   1.876   2.171  1.00  0.00     0.122 C 
BRANCH  12  13
ATOM     13  C   UNL     1       1.317   3.289   1.597  1.00  0.00     0.137 C 
BRANCH  13  14
ATOM     14  N   UNL     1       0.053   3.573   0.867  1.00  0.00    -0.292 N 
ATOM     15  C   UNL     1      -1.154   2.987   1.232  1.00  0.00     0.266 C 
ATOM     16  C   UNL     1      -0.034   4.473  -0.181  1.00  0.00     0.148 C 
ATOM     17  O   UNL     1      -1.415   2.449   2.290  1.00  0.00    -0.268 OA
ATOM     18  C   UNL     1      -2.132   3.110   0.102  1.00  0.00     0.081 C 
ATOM     19  S   UNL     1      -1.619   4.364  -0.944  1.00  0.00    -0.054 SA
ATOM     20  S   UNL     1       1.141   5.505  -0.762  1.00  0.00    -0.052 S 
ATOM     21  C   UNL     1      -3.146   2.239  -0.038  1.00  0.00     0.029 C 
BRANCH  21  22
ATOM     22  C   UNL     1      -4.128   2.041  -1.131  1.00  0.00    -0.024 A 
ATOM     23  C   UNL     1      -5.361   1.444  -0.811  1.00  0.00     0.015 A 
ATOM     24  C   UNL     1      -3.851   2.281  -2.486  1.00  0.00     0.015 A 
ATOM     25  C   UNL     1      -6.298   1.115  -1.802  1.00  0.00     0.086 A 
ATOM     26  C   UNL     1      -4.785   1.971  -3.488  1.00  0.00     0.086 A 
ATOM     27  C   UNL     1      -6.003   1.380  -3.142  1.00  0.00     0.269 A 
BRANCH  27  28
ATOM     28  N   UNL     1      -6.951   0.990  -4.194  1.00  0.00     0.062 N 
ATOM     29  O   UNL     1      -8.082   0.626  -3.843  1.00  0.00    -0.258 OA
ATOM     30  O   UNL     1      -6.555   1.035  -5.367  1.00  0.00    -0.258 OA
ENDBRANCH  27  28
ENDBRANCH  21  22
ENDBRANCH  13  14
ENDBRANCH  12  13
ENDBRANCH   9  12
ENDBRANCH   6   8
ENDBRANCH   3   6
ENDBRANCH   1   2
BRANCH   1  31
ATOM     31  C   UNL     1      -1.410  -2.212  -2.584  1.00  0.00     0.021 C 
BRANCH  31  32
ATOM     32  C   UNL     1      -2.941  -2.099  -2.669  1.00  0.00     0.002 C 
BRANCH  32  33
ATOM     33  C   UNL     1      -3.457  -1.340  -3.893  1.00  0.00     0.002 C 
BRANCH  33  34
ATOM     34  C   UNL     1      -2.906  -1.824  -5.229  1.00  0.00     0.021 C 
BRANCH  34  35
ATOM     35  C   UNL     1      -3.041  -3.319  -5.436  1.00  0.00     0.116 C 
BRANCH  35  36
ATOM     36  N   UNL     1      -4.427  -3.743  -5.499  1.00  0.00    -0.352 N 
ATOM     37  C   UNL     1      -5.005  -4.560  -6.438  1.00  0.00     0.251 C 
ATOM     38  H   UNL     1      -5.020  -3.406  -4.788  1.00  0.00     0.163 HD
ATOM     39  O   UNL     1      -6.218  -4.720  -6.487  1.00  0.00    -0.269 OA
BRANCH  37  40
ATOM     40  C   UNL     1      -4.117  -5.215  -7.415  1.00  0.00     0.039 A 
ATOM     41  C   UNL     1      -4.361  -5.036  -8.776  1.00  0.00     0.014 A 
ATOM     42  C   UNL     1      -2.981  -5.899  -6.970  1.00  0.00     0.014 A 
ATOM     43  C   UNL     1      -3.426  -5.502  -9.699  1.00  0.00     0.010 A 
ATOM     44  C   UNL     1      -2.007  -6.270  -7.885  1.00  0.00     0.010 A 
ATOM     45  C   UNL     1      -2.226  -6.086  -9.259  1.00  0.00    -0.014 A 
BRANCH  45  46
ATOM     46  C   UNL     1      -1.188  -6.526 -10.222  1.00  0.00     0.031 A 
ATOM     47  C   UNL     1      -0.802  -7.976 -10.289  1.00  0.00     0.074 A 
ATOM     48  C   UNL     1      -0.551  -5.615 -10.982  1.00  0.00     0.049 A 
ATOM     49  N   UNL     1       0.125  -8.553 -11.011  1.00  0.00    -0.248 NA
ATOM     50  C   UNL     1      -1.530  -8.896  -9.400  1.00  0.00     0.031 C 
ATOM     51  C   UNL     1      -0.797  -4.172 -10.961  1.00  0.00     0.029 A 
ATOM     52  N   UNL     1       0.445  -5.769 -11.912  1.00  0.00    -0.354 N 
ATOM     53  C   UNL     1       0.096  -9.895 -10.655  1.00  0.00     0.074 A 
ATOM     54  C   UNL     1      -0.886 -10.035  -9.603  1.00  0.00     0.031 C 
ATOM     55  C   UNL     1       0.010  -3.576 -11.852  1.00  0.00     0.029 A 
ATOM     56  C   UNL     1       0.859  -4.586 -12.476  1.00  0.00     0.049 A 
ATOM     57  H   UNL     1       0.828  -6.643 -12.153  1.00  0.00     0.167 HD
ATOM     58  C   UNL     1       0.801 -10.924 -11.180  1.00  0.00     0.037 A 
ATOM     59  C   UNL     1       1.822  -4.344 -13.385  1.00  0.00     0.037 A 
ATOM     60  C   UNL     1       1.766 -10.778 -12.237  1.00  0.00     0.049 A 
ATOM     61  C   UNL     1       2.603  -5.499 -13.946  1.00  0.00     0.074 A 
ATOM     62  C   UNL     1       2.492 -11.762 -12.883  1.00  0.00     0.029 A 
ATOM     63  N   UNL     1       2.144  -9.566 -12.797  1.00  0.00    -0.354 N 
ATOM     64  N   UNL     1       2.510  -6.776 -13.660  1.00  0.00    -0.248 NA
ATOM     65  C   UNL     1       3.619  -5.183 -14.960  1.00  0.00     0.031 C 
ATOM     66  C   UNL     1       3.351 -11.140 -13.795  1.00  0.00     0.029 A 
ATOM     67  C   UNL     1       3.118  -9.774 -13.759  1.00  0.00     0.049 A 
ATOM     68  H   UNL     1       1.775  -8.688 -12.547  1.00  0.00     0.167 HD
ATOM     69  C   UNL     1       3.438  -7.417 -14.471  1.00  0.00     0.074 A 
ATOM     70  C   UNL     1       4.070  -6.389 -15.273  1.00  0.00     0.031 C 
ATOM     71  C   UNL     1       3.740  -8.737 -14.544  1.00  0.00     0.037 A 
BRANCH  58  72
ATOM     72  C   UNL     1       0.551 -12.291 -10.609  1.00  0.00     0.057 A 
ATOM     73  C   UNL     1      -0.671 -12.955 -10.783  1.00  0.00     0.134 A 
ATOM     74  C   UNL     1       1.545 -12.954  -9.878  1.00  0.00     0.134 A 
ATOM     75  F   UNL     1      -1.672 -12.372 -11.460  1.00  0.00    -0.206 F 
ATOM     76  C   UNL     1      -0.909 -14.210 -10.218  1.00  0.00     0.040 A 
ATOM     77  C   UNL     1       1.331 -14.223  -9.337  1.00  0.00     0.040 A 
ATOM     78  F   UNL     1       2.741 -12.380  -9.676  1.00  0.00    -0.206 F 
ATOM     79  C   UNL     1       0.097 -14.849  -9.498  1.00  0.00     0.006 A 
ENDBRANCH  58  72
BRANCH  59  80
ATOM     80  C   UNL     1       2.090  -2.950 -13.822  1.00  0.00     0.057 A 
ATOM     81  C   UNL     1       1.770  -2.519 -15.114  1.00  0.00     0.134 A 
ATOM     82  C   UNL     1       2.661  -2.012 -12.953  1.00  0.00     0.134 A 
ATOM     83  F   UNL     1       1.236  -3.375 -15.998  1.00  0.00    -0.206 F 
ATOM     84  C   UNL     1       2.021  -1.211 -15.532  1.00  0.00     0.040 A 
ATOM     85  C   UNL     1       2.893  -0.694 -13.349  1.00  0.00     0.040 A 
ATOM     86  F   UNL     1       2.981  -2.358 -11.697  1.00  0.00    -0.206 F 
ATOM     87  C   UNL     1       2.579  -0.292 -14.645  1.00  0.00     0.006 A 
ENDBRANCH  59  80
BRANCH  71  88
ATOM     88  C   UNL     1       4.788  -9.148 -15.538  1.00  0.00     0.057 A 
ATOM     89  C   UNL     1       6.144  -8.857 -15.346  1.00  0.00     0.134 A 
ATOM     90  C   UNL     1       4.439  -9.887 -16.676  1.00  0.00     0.134 A 
ATOM     91  F   UNL     1       6.543  -8.142 -14.283  1.00  0.00    -0.206 F 
ATOM     92  C   UNL     1       7.114  -9.270 -16.260  1.00  0.00     0.040 A 
ATOM     93  C   UNL     1       5.404 -10.331 -17.581  1.00  0.00     0.040 A 
ATOM     94  F   UNL     1       3.159 -10.208 -16.915  1.00  0.00    -0.206 F 
ATOM     95  C   UNL     1       6.745 -10.017 -17.378  1.00  0.00     0.006 A 
ENDBRANCH  71  88
ENDBRANCH  45  46
ENDBRANCH  37  40
ENDBRANCH  35  36
ENDBRANCH  34  35
ENDBRANCH  33  34
ENDBRANCH  32  33
ENDBRANCH  31  32
ENDBRANCH   1  31
TORSDOF 19
