REMARK SMILES O=C(NCCCCCCNC(=O)[C@H]1Cc2c([nH]c3ccccc23)[C@H](c2c[nH]c3ccccc23)[NH2+]1)c1ccc(-c2c3nc(c(-c4c(F)cccc4F)c4ccc([nH]4)c(-c4c(F)cccc4F)c4nc(c(-c5c(F)cccc5F)c5ccc2[nH]5)C=C4)C=C3)cc1
REMARK SMILES IDX 6 1 5 2 4 3 3 4 1 5 2 6 35 8 36 9 88 10 37 11 87 12 38 13
REMARK SMILES IDX 39 14 40 15 81 16 41 17 86 18 80 19 82 20 42 21 85 22 79 23
REMARK SMILES IDX 78 24 43 26 69 27 52 28 68 29 53 30 56 31 67 32 83 33 54 34
REMARK SMILES IDX 55 35 66 37 84 38 57 39 44 40 45 41 50 42 46 43 47 44 49 45
REMARK SMILES IDX 51 46 48 47 70 48 71 49 76 50 72 51 73 52 75 53 77 54 74 55
REMARK SMILES IDX 58 56 59 57 64 58 60 59 61 60 63 61 65 62 62 63 7 64 8 65
REMARK SMILES IDX 9 66 10 67 11 68 12 70 13 71 14 72 34 73 15 74 24 75 16 78
REMARK SMILES IDX 23 79 17 80 18 81 22 82 19 84 21 85 20 86 25 87 26 88 33 89
REMARK SMILES IDX 27 90 28 91 32 92 29 94 31 95 30 96
REMARK H PARENT 3 7 82 25 56 36 10 69 34 76 34 77 17 83 27 93
REMARK Flexibility Score: inf
ROOT
ATOM      1  C   UNL     1       4.146  -1.875   3.327  1.00  0.00     0.002 C 
ENDROOT
BRANCH   1   2
ATOM      2  C   UNL     1       4.701  -0.714   2.499  1.00  0.00     0.021 C 
BRANCH   2   3
ATOM      3  C   UNL     1       4.455  -0.814   0.999  1.00  0.00     0.116 C 
BRANCH   3   4
ATOM      4  N   UNL     1       3.040  -0.879   0.678  1.00  0.00    -0.352 N 
ATOM      5  O   UNL     1       1.060  -0.132  -0.099  1.00  0.00    -0.269 OA
ATOM      6  C   UNL     1       2.287  -0.036  -0.092  1.00  0.00     0.251 C 
ATOM      7  H   UNL     1       2.553  -1.639   1.071  1.00  0.00     0.163 HD
BRANCH   6   8
ATOM      8  C   UNL     1       2.946   1.005  -0.904  1.00  0.00     0.039 A 
ATOM      9  C   UNL     1       4.063   0.701  -1.690  1.00  0.00     0.014 A 
ATOM     10  C   UNL     1       2.419   2.297  -0.895  1.00  0.00     0.014 A 
ATOM     11  C   UNL     1       4.718   1.714  -2.384  1.00  0.00     0.010 A 
ATOM     12  C   UNL     1       3.033   3.296  -1.649  1.00  0.00     0.010 A 
ATOM     13  C   UNL     1       4.197   3.016  -2.384  1.00  0.00    -0.014 A 
BRANCH  13  14
ATOM     14  C   UNL     1       4.832   4.080  -3.198  1.00  0.00     0.031 A 
ATOM     15  C   UNL     1       5.440   5.283  -2.543  1.00  0.00     0.074 A 
ATOM     16  C   UNL     1       4.803   3.978  -4.540  1.00  0.00     0.049 A 
ATOM     17  N   UNL     1       5.928   6.366  -3.092  1.00  0.00    -0.248 NA
ATOM     18  C   UNL     1       5.497   5.274  -1.073  1.00  0.00     0.031 C 
ATOM     19  C   UNL     1       4.237   2.854  -5.287  1.00  0.00     0.029 A 
ATOM     20  N   UNL     1       5.240   4.841  -5.512  1.00  0.00    -0.354 N 
ATOM     21  C   UNL     1       6.324   7.179  -2.039  1.00  0.00     0.074 A 
ATOM     22  C   UNL     1       5.997   6.474  -0.817  1.00  0.00     0.031 C 
ATOM     23  C   UNL     1       4.360   3.095  -6.600  1.00  0.00     0.029 A 
ATOM     24  C   UNL     1       4.952   4.415  -6.785  1.00  0.00     0.049 A 
ATOM     25  H   UNL     1       5.713   5.682  -5.317  1.00  0.00     0.167 HD
ATOM     26  C   UNL     1       6.908   8.401  -2.091  1.00  0.00     0.037 A 
ATOM     27  C   UNL     1       5.105   5.035  -7.970  1.00  0.00     0.037 A 
ATOM     28  C   UNL     1       7.223   9.092  -3.316  1.00  0.00     0.049 A 
ATOM     29  C   UNL     1       5.707   6.409  -8.004  1.00  0.00     0.074 A 
ATOM     30  C   UNL     1       7.848  10.315  -3.480  1.00  0.00     0.029 A 
ATOM     31  N   UNL     1       6.917   8.626  -4.588  1.00  0.00    -0.354 N 
ATOM     32  N   UNL     1       6.114   7.154  -7.006  1.00  0.00    -0.248 NA
ATOM     33  C   UNL     1       5.872   7.029  -9.325  1.00  0.00     0.031 C 
ATOM     34  C   UNL     1       7.866  10.617  -4.846  1.00  0.00     0.029 A 
ATOM     35  C   UNL     1       7.314   9.551  -5.539  1.00  0.00     0.049 A 
ATOM     36  H   UNL     1       6.483   7.764  -4.785  1.00  0.00     0.167 HD
ATOM     37  C   UNL     1       6.613   8.317  -7.577  1.00  0.00     0.074 A 
ATOM     38  C   UNL     1       6.455   8.178  -9.010  1.00  0.00     0.031 C 
ATOM     39  C   UNL     1       7.162   9.395  -6.966  1.00  0.00     0.037 A 
BRANCH  26  40
ATOM     40  C   UNL     1       7.202   9.082  -0.784  1.00  0.00     0.057 A 
ATOM     41  C   UNL     1       8.178   8.607   0.104  1.00  0.00     0.134 A 
ATOM     42  C   UNL     1       6.501  10.236  -0.410  1.00  0.00     0.134 A 
ATOM     43  F   UNL     1       8.882   7.503  -0.186  1.00  0.00    -0.206 F 
ATOM     44  C   UNL     1       8.414   9.230   1.332  1.00  0.00     0.040 A 
ATOM     45  C   UNL     1       6.751  10.886   0.800  1.00  0.00     0.040 A 
ATOM     46  F   UNL     1       5.562  10.754  -1.216  1.00  0.00    -0.206 F 
ATOM     47  C   UNL     1       7.702  10.375   1.681  1.00  0.00     0.006 A 
ENDBRANCH  26  40
BRANCH  27  48
ATOM     48  C   UNL     1       4.664   4.348  -9.208  1.00  0.00     0.057 A 
ATOM     49  C   UNL     1       5.590   3.843 -10.124  1.00  0.00     0.134 A 
ATOM     50  C   UNL     1       3.305   4.130  -9.473  1.00  0.00     0.134 A 
ATOM     51  F   UNL     1       6.904   4.031  -9.929  1.00  0.00    -0.206 F 
ATOM     52  C   UNL     1       5.184   3.147 -11.264  1.00  0.00     0.040 A 
ATOM     53  C   UNL     1       2.886   3.413 -10.594  1.00  0.00     0.040 A 
ATOM     54  F   UNL     1       2.369   4.578  -8.624  1.00  0.00    -0.206 F 
ATOM     55  C   UNL     1       3.828   2.922 -11.496  1.00  0.00     0.006 A 
ENDBRANCH  27  48
BRANCH  39  56
ATOM     56  C   UNL     1       7.688  10.496  -7.840  1.00  0.00     0.057 A 
ATOM     57  C   UNL     1       6.840  11.380  -8.517  1.00  0.00     0.134 A 
ATOM     58  C   UNL     1       9.068  10.717  -7.940  1.00  0.00     0.134 A 
ATOM     59  F   UNL     1       5.509  11.215  -8.475  1.00  0.00    -0.206 F 
ATOM     60  C   UNL     1       7.347  12.443  -9.268  1.00  0.00     0.040 A 
ATOM     61  C   UNL     1       9.585  11.790  -8.665  1.00  0.00     0.040 A 
ATOM     62  F   UNL     1       9.934   9.909  -7.311  1.00  0.00    -0.206 F 
ATOM     63  C   UNL     1       8.723  12.657  -9.334  1.00  0.00     0.006 A 
ENDBRANCH  39  56
ENDBRANCH  13  14
ENDBRANCH   6   8
ENDBRANCH   3   4
ENDBRANCH   2   3
ENDBRANCH   1   2
BRANCH   1  64
ATOM     64  C   UNL     1       4.535  -3.278   2.854  1.00  0.00     0.002 C 
BRANCH  64  65
ATOM     65  C   UNL     1       6.025  -3.507   2.614  1.00  0.00     0.021 C 
BRANCH  65  66
ATOM     66  C   UNL     1       6.932  -3.203   3.795  1.00  0.00     0.116 C 
BRANCH  66  67
ATOM     67  N   UNL     1       6.742  -4.117   4.904  1.00  0.00    -0.351 N 
ATOM     68  C   UNL     1       7.666  -4.685   5.734  1.00  0.00     0.278 C 
ATOM     69  H   UNL     1       5.807  -4.365   5.087  1.00  0.00     0.163 HD
ATOM     70  O   UNL     1       7.242  -5.428   6.627  1.00  0.00    -0.268 OA
BRANCH  68  71
ATOM     71  C   UNL     1       9.182  -4.474   5.552  1.00  0.00     0.277 C 
ATOM     72  C   UNL     1       9.739  -5.647   4.715  1.00  0.00     0.114 C 
ATOM     73  N   UNL     1       9.476  -3.126   5.003  1.00  0.00    -0.324 N 
ATOM     74  C   UNL     1      11.139  -5.349   4.312  1.00  0.00    -0.006 A 
ATOM     75  C   UNL     1      10.882  -2.823   4.763  1.00  0.00     0.264 C 
ATOM     76  H   UNL     1       9.117  -2.435   5.662  1.00  0.00     0.347 HD
ATOM     77  H   UNL     1       9.029  -3.100   4.086  1.00  0.00     0.347 HD
ATOM     78  C   UNL     1      11.622  -4.054   4.337  1.00  0.00     0.083 A 
ATOM     79  C   UNL     1      12.178  -6.200   3.850  1.00  0.00     0.003 A 
ATOM     80  N   UNL     1      12.886  -4.079   3.812  1.00  0.00    -0.353 N 
ATOM     81  C   UNL     1      13.257  -5.375   3.524  1.00  0.00     0.046 A 
ATOM     82  C   UNL     1      12.310  -7.590   3.664  1.00  0.00     0.010 A 
ATOM     83  H   UNL     1      13.450  -3.286   3.663  1.00  0.00     0.166 HD
ATOM     84  C   UNL     1      14.457  -5.872   3.001  1.00  0.00     0.026 A 
ATOM     85  C   UNL     1      13.513  -8.104   3.165  1.00  0.00     0.001 A 
ATOM     86  C   UNL     1      14.567  -7.255   2.833  1.00  0.00     0.002 A 
BRANCH  75  87
ATOM     87  C   UNL     1      11.507  -2.046   5.905  1.00  0.00     0.041 A 
ATOM     88  C   UNL     1      12.718  -1.373   5.786  1.00  0.00     0.093 A 
ATOM     89  C   UNL     1      11.007  -1.716   7.230  1.00  0.00     0.009 A 
ATOM     90  N   UNL     1      12.981  -0.710   6.948  1.00  0.00    -0.361 N 
ATOM     91  C   UNL     1      11.947  -0.873   7.833  1.00  0.00     0.046 A 
ATOM     92  C   UNL     1       9.843  -2.006   7.984  1.00  0.00     0.011 A 
ATOM     93  H   UNL     1      13.797  -0.189   7.126  1.00  0.00     0.166 HD
ATOM     94  C   UNL     1      11.783  -0.325   9.113  1.00  0.00     0.026 A 
ATOM     95  C   UNL     1       9.657  -1.460   9.260  1.00  0.00     0.001 A 
ATOM     96  C   UNL     1      10.617  -0.629   9.815  1.00  0.00     0.002 A 
ENDBRANCH  75  87
ENDBRANCH  68  71
ENDBRANCH  66  67
ENDBRANCH  65  66
ENDBRANCH  64  65
ENDBRANCH   1  64
TORSDOF 14
