REMARK SMILES C[C@](NC(=O)Cc1cccc(F)c1F)(C(=O)NCCCCCCNC(=O)c1ccc(-c2c3nc(c(-c4c(F)cccc4F)c4ccc([nH]4)c(-c4c(F)cccc4F)c4nc(c(-c5c(F)cccc5F)c5ccc2[nH]5)C=C4)C=C3)cc1)C1CC1
REMARK SMILES IDX 20 1 19 2 18 3 17 4 15 5 16 6 2 8 1 9 81 10 82 11 83 12 3 13
REMARK SMILES IDX 4 14 5 16 6 17 7 18 8 19 13 20 9 21 11 22 14 23 10 24 12 25
REMARK SMILES IDX 21 26 22 27 23 28 24 29 25 30 26 32 27 33 28 34 80 35 29 36
REMARK SMILES IDX 79 37 30 38 31 39 32 40 73 41 33 42 78 43 72 44 74 45 34 46
REMARK SMILES IDX 77 47 71 48 70 49 35 51 61 52 44 53 60 54 45 55 48 56 59 57
REMARK SMILES IDX 75 58 46 59 47 60 58 62 76 63 49 64 36 65 37 66 42 67 38 68
REMARK SMILES IDX 39 69 41 70 43 71 40 72 62 73 63 74 68 75 64 76 65 77 67 78
REMARK SMILES IDX 69 79 66 80 50 81 51 82 56 83 52 84 53 85 55 86 57 87 54 88
REMARK H PARENT 17 7 3 15 24 31 74 50 48 61
REMARK Flexibility Score: inf
ROOT
ATOM      1  C   UNL     1      -3.551  -1.152   2.123  1.00  0.00     0.002 C 
ENDROOT
BRANCH   1   2
ATOM      2  C   UNL     1      -2.095  -0.785   1.797  1.00  0.00     0.021 C 
BRANCH   2   3
ATOM      3  C   UNL     1      -1.573  -1.271   0.446  1.00  0.00     0.116 C 
BRANCH   3   4
ATOM      4  N   UNL     1      -1.443  -0.248  -0.581  1.00  0.00    -0.354 N 
ATOM      5  C   UNL     1      -0.693  -0.450  -1.731  1.00  0.00     0.245 C 
ATOM      6  O   UNL     1      -1.312  -0.519  -2.798  1.00  0.00    -0.272 OA
ATOM      7  H   UNL     1      -1.901   0.615  -0.456  1.00  0.00     0.163 HD
BRANCH   5   8
ATOM      8  C   UNL     1       0.885  -0.257  -1.698  1.00  0.00     0.119 C 
ATOM      9  C   UNL     1       1.566  -0.927  -2.914  1.00  0.00     0.046 C 
BRANCH   8  10
ATOM     10  C   UNL     1       1.261   1.241  -1.878  1.00  0.00     0.024 C 
ATOM     11  C   UNL     1       0.337   2.232  -2.556  1.00  0.00     0.007 C 
ATOM     12  C   UNL     1       0.670   2.389  -1.097  1.00  0.00     0.007 C 
ENDBRANCH   8  10
BRANCH   8  13
ATOM     13  N   UNL     1       1.465  -0.659  -0.408  1.00  0.00    -0.341 N 
ATOM     14  C   UNL     1       1.726  -1.850   0.196  1.00  0.00     0.225 C 
ATOM     15  H   UNL     1       1.725   0.111   0.147  1.00  0.00     0.164 HD
ATOM     16  O   UNL     1       1.991  -1.794   1.403  1.00  0.00    -0.275 OA
BRANCH  14  17
ATOM     17  C   UNL     1       1.718  -3.196  -0.517  1.00  0.00     0.138 C 
BRANCH  17  18
ATOM     18  C   UNL     1       0.374  -3.864  -0.726  1.00  0.00     0.000 A 
ATOM     19  C   UNL     1      -0.350  -3.743  -1.923  1.00  0.00     0.007 A 
ATOM     20  C   UNL     1      -0.183  -4.669   0.275  1.00  0.00     0.162 A 
ATOM     21  C   UNL     1      -1.595  -4.357  -2.099  1.00  0.00     0.004 A 
ATOM     22  C   UNL     1      -1.405  -5.317   0.083  1.00  0.00     0.159 A 
ATOM     23  F   UNL     1       0.459  -4.825   1.442  1.00  0.00    -0.203 F 
ATOM     24  C   UNL     1      -2.126  -5.151  -1.092  1.00  0.00     0.042 A 
ATOM     25  F   UNL     1      -1.907  -6.101   1.046  1.00  0.00    -0.204 F 
ENDBRANCH  17  18
ENDBRANCH  14  17
ENDBRANCH   8  13
ENDBRANCH   5   8
ENDBRANCH   3   4
ENDBRANCH   2   3
ENDBRANCH   1   2
BRANCH   1  26
ATOM     26  C   UNL     1      -3.963  -2.624   1.970  1.00  0.00     0.002 C 
BRANCH  26  27
ATOM     27  C   UNL     1      -3.100  -3.666   2.687  1.00  0.00     0.021 C 
BRANCH  27  28
ATOM     28  C   UNL     1      -3.143  -3.663   4.212  1.00  0.00     0.116 C 
BRANCH  28  29
ATOM     29  N   UNL     1      -4.457  -4.004   4.734  1.00  0.00    -0.352 N 
ATOM     30  C   UNL     1      -4.874  -4.996   5.584  1.00  0.00     0.251 C 
ATOM     31  H   UNL     1      -5.180  -3.414   4.420  1.00  0.00     0.163 HD
ATOM     32  O   UNL     1      -6.089  -5.160   5.736  1.00  0.00    -0.269 OA
BRANCH  30  33
ATOM     33  C   UNL     1      -3.937  -5.881   6.322  1.00  0.00     0.039 A 
ATOM     34  C   UNL     1      -4.353  -7.191   6.605  1.00  0.00     0.014 A 
ATOM     35  C   UNL     1      -2.711  -5.440   6.825  1.00  0.00     0.014 A 
ATOM     36  C   UNL     1      -3.540  -8.053   7.350  1.00  0.00     0.010 A 
ATOM     37  C   UNL     1      -1.867  -6.323   7.511  1.00  0.00     0.010 A 
ATOM     38  C   UNL     1      -2.278  -7.633   7.794  1.00  0.00    -0.014 A 
BRANCH  38  39
ATOM     39  C   UNL     1      -1.399  -8.553   8.567  1.00  0.00     0.031 A 
ATOM     40  C   UNL     1      -1.061  -8.268  10.007  1.00  0.00     0.074 A 
ATOM     41  C   UNL     1      -0.875  -9.639   7.967  1.00  0.00     0.049 A 
ATOM     42  N   UNL     1      -0.312  -8.955  10.834  1.00  0.00    -0.248 NA
ATOM     43  C   UNL     1      -1.619  -7.038  10.588  1.00  0.00     0.031 C 
ATOM     44  C   UNL     1      -1.078 -10.012   6.567  1.00  0.00     0.029 A 
ATOM     45  N   UNL     1      -0.063 -10.631   8.461  1.00  0.00    -0.354 N 
ATOM     46  C   UNL     1      -0.289  -8.231  12.020  1.00  0.00     0.074 A 
ATOM     47  C   UNL     1      -1.070  -7.032  11.793  1.00  0.00     0.031 C 
ATOM     48  C   UNL     1      -0.439 -11.168   6.323  1.00  0.00     0.029 A 
ATOM     49  C   UNL     1       0.241 -11.603   7.540  1.00  0.00     0.049 A 
ATOM     50  H   UNL     1       0.270 -10.643   9.387  1.00  0.00     0.167 HD
ATOM     51  C   UNL     1       0.310  -8.540  13.195  1.00  0.00     0.037 A 
ATOM     52  C   UNL     1       0.976 -12.725   7.662  1.00  0.00     0.037 A 
ATOM     53  C   UNL     1       1.052  -9.750  13.441  1.00  0.00     0.049 A 
ATOM     54  C   UNL     1       1.606 -13.061   8.983  1.00  0.00     0.074 A 
ATOM     55  C   UNL     1       1.620 -10.190  14.624  1.00  0.00     0.029 A 
ATOM     56  N   UNL     1       1.330 -10.712  12.483  1.00  0.00    -0.354 N 
ATOM     57  N   UNL     1       1.557 -12.402  10.114  1.00  0.00    -0.248 NA
ATOM     58  C   UNL     1       2.392 -14.302   9.043  1.00  0.00     0.031 C 
ATOM     59  C   UNL     1       2.271 -11.404  14.375  1.00  0.00     0.029 A 
ATOM     60  C   UNL     1       2.079 -11.735  13.043  1.00  0.00     0.049 A 
ATOM     61  H   UNL     1       1.038 -10.675  11.543  1.00  0.00     0.167 HD
ATOM     62  C   UNL     1       2.286 -13.155  11.024  1.00  0.00     0.074 A 
ATOM     63  C   UNL     1       2.754 -14.329  10.318  1.00  0.00     0.031 C 
ATOM     64  C   UNL     1       2.544 -12.896  12.329  1.00  0.00     0.037 A 
BRANCH  51  65
ATOM     65  C   UNL     1       0.185  -7.547  14.314  1.00  0.00     0.057 A 
ATOM     66  C   UNL     1      -1.021  -7.356  15.002  1.00  0.00     0.134 A 
ATOM     67  C   UNL     1       1.289  -6.790  14.723  1.00  0.00     0.134 A 
ATOM     68  F   UNL     1      -2.119  -8.043  14.652  1.00  0.00    -0.206 F 
ATOM     69  C   UNL     1      -1.131  -6.426  16.037  1.00  0.00     0.040 A 
ATOM     70  C   UNL     1       1.198  -5.873  15.772  1.00  0.00     0.040 A 
ATOM     71  F   UNL     1       2.475  -6.929  14.112  1.00  0.00    -0.206 F 
ATOM     72  C   UNL     1      -0.017  -5.685  16.428  1.00  0.00     0.006 A 
ENDBRANCH  51  65
BRANCH  52  73
ATOM     73  C   UNL     1       1.118 -13.642   6.506  1.00  0.00     0.057 A 
ATOM     74  C   UNL     1       0.437 -14.865   6.475  1.00  0.00     0.134 A 
ATOM     75  C   UNL     1       1.927 -13.323   5.410  1.00  0.00     0.134 A 
ATOM     76  F   UNL     1      -0.336 -15.232   7.508  1.00  0.00    -0.206 F 
ATOM     77  C   UNL     1       0.564 -15.744   5.400  1.00  0.00     0.040 A 
ATOM     78  C   UNL     1       2.048 -14.185   4.319  1.00  0.00     0.040 A 
ATOM     79  F   UNL     1       2.603 -12.166   5.381  1.00  0.00    -0.206 F 
ATOM     80  C   UNL     1       1.368 -15.402   4.314  1.00  0.00     0.006 A 
ENDBRANCH  52  73
BRANCH  64  81
ATOM     81  C   UNL     1       3.357 -13.911  13.076  1.00  0.00     0.057 A 
ATOM     82  C   UNL     1       4.737 -14.040  12.874  1.00  0.00     0.134 A 
ATOM     83  C   UNL     1       2.756 -14.759  14.014  1.00  0.00     0.134 A 
ATOM     84  F   UNL     1       5.368 -13.267  11.978  1.00  0.00    -0.206 F 
ATOM     85  C   UNL     1       5.487 -14.996  13.561  1.00  0.00     0.040 A 
ATOM     86  C   UNL     1       3.499 -15.704  14.723  1.00  0.00     0.040 A 
ATOM     87  F   UNL     1       1.439 -14.682  14.257  1.00  0.00    -0.206 F 
ATOM     88  C   UNL     1       4.868 -15.829  14.492  1.00  0.00     0.006 A 
ENDBRANCH  64  81
ENDBRANCH  38  39
ENDBRANCH  30  33
ENDBRANCH  28  29
ENDBRANCH  27  28
ENDBRANCH  26  27
ENDBRANCH   1  26
TORSDOF 17
