REMARK SMILES O=C(NCCCCCCNC(=O)C1(c2ccccc2)CCN(S(=O)(=O)c2cccs2)CC1)c1ccc(-c2c3nc(c(-c4c(F)cccc4F)c4ccc([nH]4)c(-c4c(F)cccc4F)c4nc(c(-c5c(F)cccc5F)c5ccc2[nH]5)C=C4)C=C3)cc1
REMARK SMILES IDX 6 1 5 2 4 3 3 4 1 5 2 6 33 8 34 9 86 10 35 11 85 12 36 13
REMARK SMILES IDX 37 14 38 15 79 16 39 17 84 18 78 19 80 20 40 21 83 22 77 23
REMARK SMILES IDX 76 24 41 26 67 27 50 28 66 29 51 30 54 31 65 32 81 33 52 34
REMARK SMILES IDX 53 35 64 37 82 38 55 39 42 40 43 41 48 42 44 43 45 44 47 45
REMARK SMILES IDX 49 46 46 47 68 48 69 49 74 50 70 51 71 52 73 53 75 54 72 55
REMARK SMILES IDX 56 56 57 57 62 58 58 59 59 60 61 61 63 62 60 63 7 64 8 65
REMARK SMILES IDX 9 66 10 67 11 68 12 70 13 71 20 72 32 73 21 74 31 75 22 76
REMARK SMILES IDX 14 77 15 78 19 79 16 80 18 81 17 82 23 83 24 84 25 85 26 86
REMARK SMILES IDX 27 87 30 88 28 89 29 90
REMARK H PARENT 3 7 80 25 54 36 10 69
REMARK Flexibility Score: inf
ROOT
ATOM      1  C   UNL     1       3.911   1.377  -3.572  1.00  0.00     0.002 C 
ENDROOT
BRANCH   1   2
ATOM      2  C   UNL     1       4.452   0.312  -2.619  1.00  0.00     0.021 C 
BRANCH   2   3
ATOM      3  C   UNL     1       4.346   0.706  -1.155  1.00  0.00     0.116 C 
BRANCH   3   4
ATOM      4  N   UNL     1       2.959   0.805  -0.722  1.00  0.00    -0.352 N 
ATOM      5  O   UNL     1       1.078   0.099   0.317  1.00  0.00    -0.269 OA
ATOM      6  C   UNL     1       2.299   0.061   0.225  1.00  0.00     0.251 C 
ATOM      7  H   UNL     1       2.422   1.499  -1.168  1.00  0.00     0.163 HD
BRANCH   6   8
ATOM      8  C   UNL     1       3.091  -0.798   1.128  1.00  0.00     0.039 A 
ATOM      9  C   UNL     1       4.272  -0.303   1.680  1.00  0.00     0.014 A 
ATOM     10  C   UNL     1       2.674  -2.102   1.401  1.00  0.00     0.014 A 
ATOM     11  C   UNL     1       5.124  -1.162   2.352  1.00  0.00     0.010 A 
ATOM     12  C   UNL     1       3.473  -2.929   2.196  1.00  0.00     0.010 A 
ATOM     13  C   UNL     1       4.717  -2.472   2.658  1.00  0.00    -0.014 A 
BRANCH  13  14
ATOM     14  C   UNL     1       5.587  -3.277   3.551  1.00  0.00     0.031 A 
ATOM     15  C   UNL     1       6.218  -4.562   3.101  1.00  0.00     0.074 A 
ATOM     16  C   UNL     1       5.856  -2.777   4.774  1.00  0.00     0.049 A 
ATOM     17  N   UNL     1       7.059  -5.331   3.747  1.00  0.00    -0.248 NA
ATOM     18  C   UNL     1       5.861  -5.059   1.763  1.00  0.00     0.031 C 
ATOM     19  C   UNL     1       5.276  -1.547   5.324  1.00  0.00     0.029 A 
ATOM     20  N   UNL     1       6.705  -3.208   5.758  1.00  0.00    -0.354 N 
ATOM     21  C   UNL     1       7.329  -6.399   2.902  1.00  0.00     0.074 A 
ATOM     22  C   UNL     1       6.532  -6.202   1.710  1.00  0.00     0.031 C 
ATOM     23  C   UNL     1       5.837  -1.285   6.511  1.00  0.00     0.029 A 
ATOM     24  C   UNL     1       6.747  -2.371   6.847  1.00  0.00     0.049 A 
ATOM     25  H   UNL     1       7.234  -4.036   5.692  1.00  0.00     0.167 HD
ATOM     26  C   UNL     1       8.174  -7.440   3.103  1.00  0.00     0.037 A 
ATOM     27  C   UNL     1       7.422  -2.474   8.005  1.00  0.00     0.037 A 
ATOM     28  C   UNL     1       8.957  -7.629   4.299  1.00  0.00     0.049 A 
ATOM     29  C   UNL     1       8.322  -3.656   8.207  1.00  0.00     0.074 A 
ATOM     30  C   UNL     1       9.846  -8.648   4.597  1.00  0.00     0.029 A 
ATOM     31  N   UNL     1       8.943  -6.782   5.399  1.00  0.00    -0.354 N 
ATOM     32  N   UNL     1       8.588  -4.642   7.385  1.00  0.00    -0.248 NA
ATOM     33  C   UNL     1       9.016  -3.740   9.497  1.00  0.00     0.031 C 
ATOM     34  C   UNL     1      10.331  -8.446   5.894  1.00  0.00     0.029 A 
ATOM     35  C   UNL     1       9.793  -7.267   6.383  1.00  0.00     0.049 A 
ATOM     36  H   UNL     1       8.409  -5.959   5.471  1.00  0.00     0.167 HD
ATOM     37  C   UNL     1       9.488  -5.458   8.053  1.00  0.00     0.074 A 
ATOM     38  C   UNL     1       9.752  -4.827   9.331  1.00  0.00     0.031 C 
ATOM     39  C   UNL     1      10.039  -6.630   7.652  1.00  0.00     0.037 A 
BRANCH  26  40
ATOM     40  C   UNL     1       8.295  -8.464   2.009  1.00  0.00     0.057 A 
ATOM     41  C   UNL     1       8.932  -8.177   0.795  1.00  0.00     0.134 A 
ATOM     42  C   UNL     1       7.827  -9.772   2.196  1.00  0.00     0.134 A 
ATOM     43  F   UNL     1       9.395  -6.943   0.545  1.00  0.00    -0.206 F 
ATOM     44  C   UNL     1       9.086  -9.147  -0.198  1.00  0.00     0.040 A 
ATOM     45  C   UNL     1       7.999 -10.758   1.221  1.00  0.00     0.040 A 
ATOM     46  F   UNL     1       7.213 -10.120   3.337  1.00  0.00    -0.206 F 
ATOM     47  C   UNL     1       8.627 -10.445   0.018  1.00  0.00     0.006 A 
ENDBRANCH  26  40
BRANCH  27  48
ATOM     48  C   UNL     1       7.239  -1.452   9.066  1.00  0.00     0.057 A 
ATOM     49  C   UNL     1       8.288  -0.620   9.471  1.00  0.00     0.134 A 
ATOM     50  C   UNL     1       6.005  -1.293   9.710  1.00  0.00     0.134 A 
ATOM     51  F   UNL     1       9.497  -0.730   8.901  1.00  0.00    -0.206 F 
ATOM     52  C   UNL     1       8.126   0.311  10.498  1.00  0.00     0.040 A 
ATOM     53  C   UNL     1       5.818  -0.341  10.711  1.00  0.00     0.040 A 
ATOM     54  F   UNL     1       4.954  -2.050   9.360  1.00  0.00    -0.206 F 
ATOM     55  C   UNL     1       6.885   0.456  11.117  1.00  0.00     0.006 A 
ENDBRANCH  27  48
BRANCH  39  56
ATOM     56  C   UNL     1      11.003  -7.280   8.603  1.00  0.00     0.057 A 
ATOM     57  C   UNL     1      10.583  -7.838   9.818  1.00  0.00     0.134 A 
ATOM     58  C   UNL     1      12.370  -7.338   8.304  1.00  0.00     0.134 A 
ATOM     59  F   UNL     1       9.289  -7.801  10.173  1.00  0.00    -0.206 F 
ATOM     60  C   UNL     1      11.493  -8.391  10.720  1.00  0.00     0.040 A 
ATOM     61  C   UNL     1      13.285  -7.920   9.182  1.00  0.00     0.040 A 
ATOM     62  F   UNL     1      12.839  -6.831   7.154  1.00  0.00    -0.206 F 
ATOM     63  C   UNL     1      12.848  -8.436  10.401  1.00  0.00     0.006 A 
ENDBRANCH  39  56
ENDBRANCH  13  14
ENDBRANCH   6   8
ENDBRANCH   3   4
ENDBRANCH   2   3
ENDBRANCH   1   2
BRANCH   1  64
ATOM     64  C   UNL     1       4.611   2.736  -3.462  1.00  0.00     0.002 C 
BRANCH  64  65
ATOM     65  C   UNL     1       6.141   2.668  -3.520  1.00  0.00     0.021 C 
BRANCH  65  66
ATOM     66  C   UNL     1       6.670   2.033  -4.810  1.00  0.00     0.116 C 
BRANCH  66  67
ATOM     67  N   UNL     1       6.681   3.011  -5.875  1.00  0.00    -0.355 N 
ATOM     68  C   UNL     1       7.605   3.951  -6.205  1.00  0.00     0.230 C 
ATOM     69  H   UNL     1       5.888   2.992  -6.458  1.00  0.00     0.163 HD
ATOM     70  O   UNL     1       7.121   4.946  -6.759  1.00  0.00    -0.274 OA
BRANCH  68  71
ATOM     71  C   UNL     1       9.155   3.760  -6.098  1.00  0.00     0.077 C 
ATOM     72  C   UNL     1       9.844   5.157  -6.174  1.00  0.00     0.038 C 
ATOM     73  C   UNL     1       9.595   2.962  -7.350  1.00  0.00     0.038 C 
ATOM     74  C   UNL     1       9.737   5.870  -7.527  1.00  0.00     0.104 C 
ATOM     75  C   UNL     1       9.384   3.716  -8.657  1.00  0.00     0.104 C 
ATOM     76  N   UNL     1      10.158   4.981  -8.645  1.00  0.00    -0.197 NA
BRANCH  71  77
ATOM     77  C   UNL     1       9.592   3.062  -4.785  1.00  0.00    -0.032 A 
ATOM     78  C   UNL     1      10.132   1.756  -4.764  1.00  0.00     0.005 A 
ATOM     79  C   UNL     1       9.364   3.682  -3.542  1.00  0.00     0.005 A 
ATOM     80  C   UNL     1      10.333   1.068  -3.563  1.00  0.00     0.000 A 
ATOM     81  C   UNL     1       9.574   2.994  -2.340  1.00  0.00     0.000 A 
ATOM     82  C   UNL     1      10.034   1.680  -2.352  1.00  0.00     0.000 A 
ENDBRANCH  71  77
BRANCH  76  83
ATOM     83  S   UNL     1      10.122   5.817 -10.159  1.00  0.00     0.252 S 
ATOM     84  O   UNL     1       8.743   5.888 -10.589  1.00  0.00    -0.206 OA
ATOM     85  O   UNL     1      10.934   7.011 -10.032  1.00  0.00    -0.206 OA
BRANCH  83  86
ATOM     86  C   UNL     1      10.908   4.766 -11.371  1.00  0.00     0.135 A 
ATOM     87  C   UNL     1      10.455   3.631 -12.023  1.00  0.00     0.033 A 
ATOM     88  S   UNL     1      12.495   5.170 -11.861  1.00  0.00    -0.131 S 
ATOM     89  C   UNL     1      11.431   3.076 -12.898  1.00  0.00     0.013 A 
ATOM     90  C   UNL     1      12.581   3.832 -12.923  1.00  0.00     0.066 A 
ENDBRANCH  83  86
ENDBRANCH  76  83
ENDBRANCH  68  71
ENDBRANCH  66  67
ENDBRANCH  65  66
ENDBRANCH  64  65
ENDBRANCH   1  64
TORSDOF 16
