REMARK SMILES Cc1ccc(-c2c(C(=O)NCCCCCCNC(=O)c3ccc(-c4c5nc(c(-c6c(F)cccc6F)c6ccc([nH]6)c(-c6c(F)cccc6F)c6nc(c(-c7c(F)cccc7F)c7ccc4[nH]7)C=C6)C=C5)cc3)nnn2Cc2c(F)cccc2Cl)cc1
REMARK SMILES IDX 13 1 12 2 11 3 10 4 8 5 9 6 7 8 6 9 76 10 74 11 75 12 5 13
REMARK SMILES IDX 1 14 2 15 3 16 87 17 4 18 86 19 77 20 78 21 79 22 84 23
REMARK SMILES IDX 80 24 81 25 83 26 85 27 82 28 14 29 15 30 16 31 17 32 18 33
REMARK SMILES IDX 19 35 20 36 21 37 73 38 22 39 72 40 23 41 24 42 25 43 66 44
REMARK SMILES IDX 26 45 71 46 65 47 67 48 27 49 70 50 64 51 63 52 28 54 54 55
REMARK SMILES IDX 37 56 53 57 38 58 41 59 52 60 68 61 39 62 40 63 51 65 69 66
REMARK SMILES IDX 42 67 29 68 30 69 35 70 31 71 32 72 34 73 36 74 33 75 55 76
REMARK SMILES IDX 56 77 61 78 57 79 58 80 60 81 62 82 59 83 43 84 44 85 49 86
REMARK SMILES IDX 45 87 46 88 48 89 50 90 47 91
REMARK H PARENT 10 7 17 34 67 53 41 64
REMARK Flexibility Score: inf
ROOT
ATOM      1  C   UNL     1      -0.350  -1.484   4.882  1.00  0.00     0.002 C 
ENDROOT
BRANCH   1   2
ATOM      2  C   UNL     1      -0.792  -0.358   3.945  1.00  0.00     0.021 C 
BRANCH   2   3
ATOM      3  C   UNL     1      -1.656  -0.700   2.736  1.00  0.00     0.116 C 
BRANCH   3   4
ATOM      4  N   UNL     1      -2.997  -1.124   3.008  1.00  0.00    -0.351 N 
ATOM      5  C   UNL     1      -4.137  -1.046   2.237  1.00  0.00     0.274 C 
ATOM      6  O   UNL     1      -5.129  -1.566   2.760  1.00  0.00    -0.267 OA
ATOM      7  H   UNL     1      -3.126  -1.540   3.891  1.00  0.00     0.163 HD
BRANCH   5   8
ATOM      8  C   UNL     1      -4.249  -0.401   0.913  1.00  0.00     0.178 A 
ATOM      9  C   UNL     1      -3.375   0.022  -0.098  1.00  0.00     0.102 A 
ATOM     10  N   UNL     1      -4.228   0.424  -1.113  1.00  0.00    -0.239 N 
ATOM     11  N   UNL     1      -5.542  -0.126   0.484  1.00  0.00    -0.124 NA
ATOM     12  N   UNL     1      -5.507   0.412  -0.717  1.00  0.00    -0.066 NA
BRANCH   9  13
ATOM     13  C   UNL     1      -1.929   0.051  -0.269  1.00  0.00     0.002 A 
ATOM     14  C   UNL     1       2.374   0.158  -0.561  1.00  0.00     0.044 C 
ATOM     15  C   UNL     1       0.876   0.132  -0.480  1.00  0.00    -0.051 A 
ATOM     16  C   UNL     1       0.189  -1.083  -0.594  1.00  0.00     0.004 A 
ATOM     17  C   UNL     1       0.148   1.313  -0.303  1.00  0.00     0.004 A 
ATOM     18  C   UNL     1      -1.204  -1.124  -0.488  1.00  0.00     0.011 A 
ATOM     19  C   UNL     1      -1.245   1.274  -0.206  1.00  0.00     0.011 A 
ENDBRANCH   9  13
BRANCH  10  20
ATOM     20  C   UNL     1      -3.943   0.908  -2.463  1.00  0.00     0.187 C 
BRANCH  20  21
ATOM     21  C   UNL     1      -3.029   0.055  -3.309  1.00  0.00     0.028 A 
ATOM     22  C   UNL     1      -2.101   0.725  -4.122  1.00  0.00     0.129 A 
ATOM     23  C   UNL     1      -3.072  -1.343  -3.412  1.00  0.00     0.049 A 
ATOM     24  F   UNL     1      -2.074   2.066  -4.131  1.00  0.00    -0.207 F 
ATOM     25  C   UNL     1      -1.204   0.049  -4.947  1.00  0.00     0.040 A 
ATOM     26  C   UNL     1      -2.148  -2.033  -4.213  1.00  0.00     0.021 A 
ATOM     27  Cl  UNL     1      -4.253  -2.310  -2.606  1.00  0.00    -0.084 Cl
ATOM     28  C   UNL     1      -1.211  -1.339  -4.975  1.00  0.00     0.005 A 
ENDBRANCH  20  21
ENDBRANCH  10  20
ENDBRANCH   5   8
ENDBRANCH   3   4
ENDBRANCH   2   3
ENDBRANCH   1   2
BRANCH   1  29
ATOM     29  C   UNL     1       0.260  -2.761   4.286  1.00  0.00     0.002 C 
BRANCH  29  30
ATOM     30  C   UNL     1       1.264  -2.623   3.141  1.00  0.00     0.021 C 
BRANCH  30  31
ATOM     31  C   UNL     1       2.539  -1.856   3.464  1.00  0.00     0.116 C 
BRANCH  31  32
ATOM     32  N   UNL     1       3.717  -2.703   3.643  1.00  0.00    -0.352 N 
ATOM     33  C   UNL     1       5.024  -2.312   3.901  1.00  0.00     0.251 C 
ATOM     34  H   UNL     1       3.565  -3.673   3.571  1.00  0.00     0.163 HD
ATOM     35  O   UNL     1       5.902  -3.132   4.105  1.00  0.00    -0.269 OA
BRANCH  33  36
ATOM     36  C   UNL     1       5.300  -0.864   4.043  1.00  0.00     0.039 A 
ATOM     37  C   UNL     1       5.819  -0.416   5.260  1.00  0.00     0.014 A 
ATOM     38  C   UNL     1       4.810   0.036   3.099  1.00  0.00     0.014 A 
ATOM     39  C   UNL     1       5.599   0.905   5.639  1.00  0.00     0.010 A 
ATOM     40  C   UNL     1       4.514   1.322   3.507  1.00  0.00     0.010 A 
ATOM     41  C   UNL     1       4.838   1.728   4.807  1.00  0.00    -0.014 A 
BRANCH  41  42
ATOM     42  C   UNL     1       4.221   2.960   5.285  1.00  0.00     0.031 A 
ATOM     43  C   UNL     1       4.793   4.275   4.942  1.00  0.00     0.074 A 
ATOM     44  C   UNL     1       3.101   2.893   6.038  1.00  0.00     0.049 A 
ATOM     45  N   UNL     1       4.651   5.342   5.655  1.00  0.00    -0.248 NA
ATOM     46  C   UNL     1       5.635   4.474   3.771  1.00  0.00     0.031 C 
ATOM     47  C   UNL     1       2.225   3.995   6.423  1.00  0.00     0.029 A 
ATOM     48  N   UNL     1       2.660   1.809   6.811  1.00  0.00    -0.354 N 
ATOM     49  C   UNL     1       5.125   6.407   4.922  1.00  0.00     0.074 A 
ATOM     50  C   UNL     1       5.804   5.799   3.800  1.00  0.00     0.031 C 
ATOM     51  C   UNL     1       1.562   3.650   7.537  1.00  0.00     0.029 A 
ATOM     52  C   UNL     1       2.088   2.369   7.974  1.00  0.00     0.049 A 
ATOM     53  H   UNL     1       2.734   0.853   6.588  1.00  0.00     0.167 HD
ATOM     54  C   UNL     1       4.760   7.675   5.278  1.00  0.00     0.037 A 
ATOM     55  C   UNL     1       2.587   2.108   9.216  1.00  0.00     0.037 A 
ATOM     56  C   UNL     1       3.994   7.672   6.527  1.00  0.00     0.049 A 
ATOM     57  C   UNL     1       3.030   3.335   9.976  1.00  0.00     0.074 A 
ATOM     58  C   UNL     1       2.634   7.735   6.791  1.00  0.00     0.029 A 
ATOM     59  N   UNL     1       4.608   7.305   7.719  1.00  0.00    -0.354 N 
ATOM     60  N   UNL     1       3.253   4.492   9.418  1.00  0.00    -0.248 NA
ATOM     61  C   UNL     1       3.294   3.350  11.413  1.00  0.00     0.031 C 
ATOM     62  C   UNL     1       2.428   7.354   8.139  1.00  0.00     0.029 A 
ATOM     63  C   UNL     1       3.662   7.075   8.699  1.00  0.00     0.049 A 
ATOM     64  H   UNL     1       5.581   7.220   7.846  1.00  0.00     0.167 HD
ATOM     65  C   UNL     1       3.700   5.378  10.364  1.00  0.00     0.074 A 
ATOM     66  C   UNL     1       3.684   4.623  11.602  1.00  0.00     0.031 C 
ATOM     67  C   UNL     1       4.057   6.656  10.036  1.00  0.00     0.037 A 
BRANCH  54  68
ATOM     68  C   UNL     1       4.813   8.876   4.346  1.00  0.00     0.057 A 
ATOM     69  C   UNL     1       3.922   9.958   4.512  1.00  0.00     0.134 A 
ATOM     70  C   UNL     1       5.650   9.003   3.225  1.00  0.00     0.134 A 
ATOM     71  F   UNL     1       3.148  10.078   5.598  1.00  0.00    -0.206 F 
ATOM     72  C   UNL     1       3.777  10.988   3.571  1.00  0.00     0.040 A 
ATOM     73  C   UNL     1       5.486   9.999   2.249  1.00  0.00     0.040 A 
ATOM     74  F   UNL     1       6.716   8.216   3.049  1.00  0.00    -0.206 F 
ATOM     75  C   UNL     1       4.529  10.988   2.409  1.00  0.00     0.006 A 
ENDBRANCH  54  68
BRANCH  55  76
ATOM     76  C   UNL     1       3.199   0.761   9.336  1.00  0.00     0.057 A 
ATOM     77  C   UNL     1       2.370  -0.367   9.202  1.00  0.00     0.134 A 
ATOM     78  C   UNL     1       4.575   0.561   9.202  1.00  0.00     0.134 A 
ATOM     79  F   UNL     1       1.038  -0.242   9.316  1.00  0.00    -0.206 F 
ATOM     80  C   UNL     1       2.877  -1.617   8.840  1.00  0.00     0.040 A 
ATOM     81  C   UNL     1       5.095  -0.691   8.851  1.00  0.00     0.040 A 
ATOM     82  F   UNL     1       5.427   1.592   9.293  1.00  0.00    -0.206 F 
ATOM     83  C   UNL     1       4.243  -1.773   8.631  1.00  0.00     0.006 A 
ENDBRANCH  55  76
BRANCH  67  84
ATOM     84  C   UNL     1       4.724   7.658  10.945  1.00  0.00     0.057 A 
ATOM     85  C   UNL     1       5.598   7.323  11.989  1.00  0.00     0.134 A 
ATOM     86  C   UNL     1       4.607   9.043  10.685  1.00  0.00     0.134 A 
ATOM     87  F   UNL     1       5.889   6.047  12.276  1.00  0.00    -0.206 F 
ATOM     88  C   UNL     1       6.263   8.292  12.754  1.00  0.00     0.040 A 
ATOM     89  C   UNL     1       5.304  10.016  11.408  1.00  0.00     0.040 A 
ATOM     90  F   UNL     1       3.823   9.512   9.703  1.00  0.00    -0.206 F 
ATOM     91  C   UNL     1       6.127   9.643  12.457  1.00  0.00     0.006 A 
ENDBRANCH  67  84
ENDBRANCH  41  42
ENDBRANCH  33  36
ENDBRANCH  31  32
ENDBRANCH  30  31
ENDBRANCH  29  30
ENDBRANCH   1  29
TORSDOF 16
