REMARK SMILES CC(C)(C)c1csc(NC(=O)Cn2cccc2C(=O)NCCCCCCNC(=O)c2ccc(-c3c4nc(c(-c5c(F)cccc5F)c5ccc([nH]5)c(-c5c(F)cccc5F)c5nc(c(-c6c(F)cccc6F)c6ccc3[nH]6)C=C5)C=C4)cc2)n1
REMARK SMILES IDX 22 1 21 2 20 3 18 4 19 5 17 7 13 8 14 9 15 10 16 11 12 12
REMARK SMILES IDX 10 13 9 14 11 16 8 17 5 18 6 19 84 20 7 21 2 22 1 23 3 24
REMARK SMILES IDX 4 25 23 26 24 27 25 28 26 29 27 30 28 31 29 33 30 34 31 35
REMARK SMILES IDX 83 36 32 37 82 38 33 39 34 40 35 41 76 42 36 43 81 44 75 45
REMARK SMILES IDX 77 46 37 47 80 48 74 49 73 50 38 52 64 53 47 54 63 55 48 56
REMARK SMILES IDX 51 57 62 58 78 59 49 60 50 61 61 63 79 64 52 65 39 66 40 67
REMARK SMILES IDX 45 68 41 69 42 70 44 71 46 72 43 73 65 74 66 75 71 76 67 77
REMARK SMILES IDX 68 78 70 79 72 80 69 81 53 82 54 83 59 84 55 85 56 86 58 87
REMARK SMILES IDX 60 88 57 89
REMARK H PARENT 20 6 9 15 27 32 77 51 51 62
REMARK Flexibility Score: inf
ROOT
ATOM      1  C   UNL     1       1.786  -3.728  -9.861  1.00  0.00     0.021 C 
ENDROOT
BRANCH   1   2
ATOM      2  C   UNL     1       1.994  -3.479  -8.378  1.00  0.00     0.116 C 
BRANCH   2   3
ATOM      3  N   UNL     1       2.061  -4.618  -7.513  1.00  0.00    -0.351 N 
ATOM      4  C   UNL     1       2.690  -4.800  -6.305  1.00  0.00     0.267 C 
ATOM      5  O   UNL     1       2.474  -5.908  -5.800  1.00  0.00    -0.268 OA
ATOM      6  H   UNL     1       1.573  -5.407  -7.841  1.00  0.00     0.163 HD
BRANCH   4   7
ATOM      7  C   UNL     1       3.591  -3.843  -5.643  1.00  0.00     0.107 A 
ATOM      8  N   UNL     1       3.773  -2.455  -5.681  1.00  0.00    -0.334 N 
ATOM      9  C   UNL     1       4.817  -2.098  -4.851  1.00  0.00     0.087 A 
ATOM     10  C   UNL     1       5.230  -3.203  -4.157  1.00  0.00     0.020 A 
ATOM     11  C   UNL     1       4.471  -4.280  -4.644  1.00  0.00     0.033 A 
BRANCH   8  12
ATOM     12  C   UNL     1       3.003  -1.446  -6.402  1.00  0.00     0.222 C 
BRANCH  12  13
ATOM     13  C   UNL     1       2.856  -0.091  -5.755  1.00  0.00     0.246 C 
ATOM     14  N   UNL     1       2.192   0.116  -4.592  1.00  0.00    -0.300 N 
ATOM     15  H   UNL     1       2.183   1.056  -4.300  1.00  0.00     0.172 HD
ATOM     16  O   UNL     1       3.338   0.900  -6.321  1.00  0.00    -0.273 OA
BRANCH  14  17
ATOM     17  C   UNL     1       1.534  -0.732  -3.749  1.00  0.00     0.189 A 
ATOM     18  C   UNL     1       0.740  -1.437  -1.814  1.00  0.00     0.059 A 
ATOM     19  C   UNL     1       0.528  -2.571  -2.578  1.00  0.00     0.093 A 
ATOM     20  N   UNL     1       1.279  -0.372  -2.519  1.00  0.00    -0.224 NA
ATOM     21  S   UNL     1       0.898  -2.238  -4.205  1.00  0.00    -0.105 S 
BRANCH  18  22
ATOM     22  C   UNL     1       0.391  -1.254  -0.353  1.00  0.00     0.005 C 
ATOM     23  C   UNL     1       0.950   0.078   0.190  1.00  0.00     0.017 C 
ATOM     24  C   UNL     1       0.975  -2.398   0.496  1.00  0.00     0.017 C 
ATOM     25  C   UNL     1      -1.143  -1.237  -0.220  1.00  0.00     0.017 C 
ENDBRANCH  18  22
ENDBRANCH  14  17
ENDBRANCH  12  13
ENDBRANCH   8  12
ENDBRANCH   4   7
ENDBRANCH   2   3
ENDBRANCH   1   2
BRANCH   1  26
ATOM     26  C   UNL     1       0.429  -4.276 -10.293  1.00  0.00     0.002 C 
BRANCH  26  27
ATOM     27  C   UNL     1      -0.826  -3.610  -9.715  1.00  0.00     0.002 C 
BRANCH  27  28
ATOM     28  C   UNL     1      -0.945  -2.083  -9.836  1.00  0.00     0.021 C 
BRANCH  28  29
ATOM     29  C   UNL     1      -0.808  -1.531 -11.249  1.00  0.00     0.116 C 
BRANCH  29  30
ATOM     30  N   UNL     1      -1.811  -2.075 -12.145  1.00  0.00    -0.352 N 
ATOM     31  C   UNL     1      -2.029  -1.810 -13.474  1.00  0.00     0.251 C 
ATOM     32  H   UNL     1      -2.424  -2.731 -11.740  1.00  0.00     0.163 HD
ATOM     33  O   UNL     1      -3.099  -2.107 -13.984  1.00  0.00    -0.269 OA
BRANCH  31  34
ATOM     34  C   UNL     1      -0.987  -1.159 -14.293  1.00  0.00     0.039 A 
ATOM     35  C   UNL     1      -1.391  -0.229 -15.259  1.00  0.00     0.014 A 
ATOM     36  C   UNL     1       0.358  -1.526 -14.182  1.00  0.00     0.014 A 
ATOM     37  C   UNL     1      -0.442   0.366 -16.080  1.00  0.00     0.010 A 
ATOM     38  C   UNL     1       1.315  -0.899 -14.963  1.00  0.00     0.010 A 
ATOM     39  C   UNL     1       0.910   0.041 -15.916  1.00  0.00    -0.014 A 
BRANCH  39  40
ATOM     40  C   UNL     1       1.925   0.781 -16.689  1.00  0.00     0.031 A 
ATOM     41  C   UNL     1       2.160   2.191 -16.106  1.00  0.00     0.074 A 
ATOM     42  C   UNL     1       2.465   0.108 -17.752  1.00  0.00     0.049 A 
ATOM     43  N   UNL     1       2.594   3.273 -16.675  1.00  0.00    -0.248 NA
ATOM     44  C   UNL     1       1.806   2.454 -14.680  1.00  0.00     0.031 C 
ATOM     45  C   UNL     1       2.134  -1.291 -18.119  1.00  0.00     0.029 A 
ATOM     46  N   UNL     1       3.386   0.425 -18.731  1.00  0.00    -0.354 N 
ATOM     47  C   UNL     1       2.774   4.250 -15.665  1.00  0.00     0.074 A 
ATOM     48  C   UNL     1       2.148   3.731 -14.489  1.00  0.00     0.031 C 
ATOM     49  C   UNL     1       2.768  -1.662 -19.252  1.00  0.00     0.029 A 
ATOM     50  C   UNL     1       3.574  -0.564 -19.740  1.00  0.00     0.049 A 
ATOM     51  H   UNL     1       3.879   1.277 -18.732  1.00  0.00     0.167 HD
ATOM     52  C   UNL     1       3.570   5.351 -15.824  1.00  0.00     0.037 A 
ATOM     53  C   UNL     1       4.295  -0.485 -20.903  1.00  0.00     0.037 A 
ATOM     54  C   UNL     1       4.112   5.361 -17.139  1.00  0.00     0.049 A 
ATOM     55  C   UNL     1       5.024   0.781 -20.801  1.00  0.00     0.074 A 
ATOM     56  C   UNL     1       3.540   5.577 -18.364  1.00  0.00     0.029 A 
ATOM     57  N   UNL     1       5.321   4.728 -17.305  1.00  0.00    -0.354 N 
ATOM     58  N   UNL     1       6.042   0.974 -20.020  1.00  0.00    -0.248 NA
ATOM     59  C   UNL     1       4.542   1.942 -21.556  1.00  0.00     0.031 C 
ATOM     60  C   UNL     1       4.170   4.616 -19.177  1.00  0.00     0.029 A 
ATOM     61  C   UNL     1       5.262   4.058 -18.498  1.00  0.00     0.049 A 
ATOM     62  H   UNL     1       6.085   4.751 -16.684  1.00  0.00     0.167 HD
ATOM     63  C   UNL     1       6.070   2.341 -19.922  1.00  0.00     0.074 A 
ATOM     64  C   UNL     1       5.391   2.856 -21.093  1.00  0.00     0.031 C 
ATOM     65  C   UNL     1       6.117   2.910 -18.689  1.00  0.00     0.037 A 
BRANCH  52  66
ATOM     66  C   UNL     1       4.163   6.337 -14.853  1.00  0.00     0.057 A 
ATOM     67  C   UNL     1       4.679   7.554 -15.365  1.00  0.00     0.134 A 
ATOM     68  C   UNL     1       4.572   6.003 -13.559  1.00  0.00     0.134 A 
ATOM     69  F   UNL     1       4.322   7.999 -16.582  1.00  0.00    -0.206 F 
ATOM     70  C   UNL     1       5.641   8.311 -14.692  1.00  0.00     0.040 A 
ATOM     71  C   UNL     1       5.503   6.782 -12.855  1.00  0.00     0.040 A 
ATOM     72  F   UNL     1       4.166   4.872 -12.969  1.00  0.00    -0.206 F 
ATOM     73  C   UNL     1       6.073   7.912 -13.437  1.00  0.00     0.006 A 
ENDBRANCH  52  66
BRANCH  53  74
ATOM     74  C   UNL     1       4.494  -1.243 -22.198  1.00  0.00     0.057 A 
ATOM     75  C   UNL     1       3.906  -2.460 -22.548  1.00  0.00     0.134 A 
ATOM     76  C   UNL     1       5.252  -0.653 -23.253  1.00  0.00     0.134 A 
ATOM     77  F   UNL     1       3.251  -3.203 -21.651  1.00  0.00    -0.206 F 
ATOM     78  C   UNL     1       3.968  -2.980 -23.860  1.00  0.00     0.040 A 
ATOM     79  C   UNL     1       5.277  -1.127 -24.568  1.00  0.00     0.040 A 
ATOM     80  F   UNL     1       6.005   0.440 -23.063  1.00  0.00    -0.206 F 
ATOM     81  C   UNL     1       4.614  -2.292 -24.883  1.00  0.00     0.006 A 
ENDBRANCH  53  74
BRANCH  65  82
ATOM     82  C   UNL     1       6.712   2.016 -17.608  1.00  0.00     0.057 A 
ATOM     83  C   UNL     1       7.990   1.461 -17.777  1.00  0.00     0.134 A 
ATOM     84  C   UNL     1       6.020   1.570 -16.471  1.00  0.00     0.134 A 
ATOM     85  F   UNL     1       8.758   1.841 -18.809  1.00  0.00    -0.206 F 
ATOM     86  C   UNL     1       8.516   0.493 -16.907  1.00  0.00     0.040 A 
ATOM     87  C   UNL     1       6.532   0.609 -15.585  1.00  0.00     0.040 A 
ATOM     88  F   UNL     1       4.816   2.049 -16.170  1.00  0.00    -0.206 F 
ATOM     89  C   UNL     1       7.782   0.055 -15.810  1.00  0.00     0.006 A 
ENDBRANCH  65  82
ENDBRANCH  39  40
ENDBRANCH  31  34
ENDBRANCH  29  30
ENDBRANCH  28  29
ENDBRANCH  27  28
ENDBRANCH  26  27
ENDBRANCH   1  26
TORSDOF 17
