REMARK SMILES CC(C)C[C@@H](NC(=O)c1cccnc1)C(=O)NCCCCCCNC(=O)c1ccc(-c2c3nc(c(-c4c(F)cccc4F)c4ccc([nH]4)c(-c4c(F)cccc4F)c4nc(c(-c5c(F)cccc5F)c5ccc2[nH]5)C=C4)C=C3)cc1
REMARK SMILES IDX 20 1 19 2 18 3 17 4 15 5 16 6 5 8 4 9 2 10 1 11 3 12 6 13
REMARK SMILES IDX 7 14 8 16 9 17 10 18 14 19 11 20 13 21 12 22 21 23 22 24
REMARK SMILES IDX 23 25 24 26 25 27 26 29 27 30 28 31 80 32 29 33 79 34 30 35
REMARK SMILES IDX 31 36 32 37 73 38 33 39 78 40 72 41 74 42 34 43 77 44 71 45
REMARK SMILES IDX 70 46 35 48 61 49 44 50 60 51 45 52 48 53 59 54 75 55 46 56
REMARK SMILES IDX 47 57 58 59 76 60 49 61 36 62 37 63 42 64 38 65 39 66 41 67
REMARK SMILES IDX 43 68 40 69 62 70 63 71 68 72 64 73 65 74 67 75 69 76 66 77
REMARK SMILES IDX 50 78 51 79 56 80 52 81 53 82 55 83 57 84 54 85
REMARK H PARENT 17 7 6 15 24 28 74 47 48 58
REMARK Flexibility Score: inf
ROOT
ATOM      1  C   UNL     1      -5.205   1.764   4.071  1.00  0.00     0.002 C 
ENDROOT
BRANCH   1   2
ATOM      2  C   UNL     1      -3.699   1.783   3.788  1.00  0.00     0.021 C 
BRANCH   2   3
ATOM      3  C   UNL     1      -3.168   0.422   3.364  1.00  0.00     0.116 C 
BRANCH   3   4
ATOM      4  N   UNL     1      -3.676   0.089   2.046  1.00  0.00    -0.354 N 
ATOM      5  C   UNL     1      -3.040  -0.461   0.977  1.00  0.00     0.242 C 
ATOM      6  O   UNL     1      -3.628  -0.482  -0.107  1.00  0.00    -0.273 OA
ATOM      7  H   UNL     1      -4.628   0.293   1.903  1.00  0.00     0.163 HD
BRANCH   5   8
ATOM      8  C   UNL     1      -1.580  -0.930   1.090  1.00  0.00     0.171 C 
BRANCH   8   9
ATOM      9  C   UNL     1      -0.756   0.383   1.014  1.00  0.00     0.038 C 
BRANCH   9  10
ATOM     10  C   UNL     1       0.772   0.299   1.114  1.00  0.00    -0.015 C 
ATOM     11  C   UNL     1       1.379  -0.258  -0.169  1.00  0.00     0.007 C 
ATOM     12  C   UNL     1       1.324   1.706   1.391  1.00  0.00     0.007 C 
ENDBRANCH   9  10
ENDBRANCH   8   9
BRANCH   8  13
ATOM     13  N   UNL     1      -1.280  -1.749   2.282  1.00  0.00    -0.340 N 
ATOM     14  C   UNL     1      -1.939  -2.834   2.826  1.00  0.00     0.253 C 
ATOM     15  H   UNL     1      -0.471  -1.475   2.772  1.00  0.00     0.164 HD
ATOM     16  O   UNL     1      -1.344  -3.560   3.619  1.00  0.00    -0.269 OA
BRANCH  14  17
ATOM     17  C   UNL     1      -3.389  -3.033   2.646  1.00  0.00     0.058 A 
ATOM     18  C   UNL     1      -4.015  -3.209   1.417  1.00  0.00     0.017 A 
ATOM     19  C   UNL     1      -4.189  -2.938   3.780  1.00  0.00     0.124 A 
ATOM     20  C   UNL     1      -5.409  -3.143   1.356  1.00  0.00     0.021 A 
ATOM     21  N   UNL     1      -5.544  -2.877   3.750  1.00  0.00    -0.264 NA
ATOM     22  C   UNL     1      -6.121  -2.955   2.532  1.00  0.00     0.111 A 
ENDBRANCH  14  17
ENDBRANCH   8  13
ENDBRANCH   5   8
ENDBRANCH   3   4
ENDBRANCH   2   3
ENDBRANCH   1   2
BRANCH   1  23
ATOM     23  C   UNL     1      -5.630   0.776   5.163  1.00  0.00     0.002 C 
BRANCH  23  24
ATOM     24  C   UNL     1      -4.899   0.953   6.495  1.00  0.00     0.021 C 
BRANCH  24  25
ATOM     25  C   UNL     1      -4.974   2.367   7.050  1.00  0.00     0.116 C 
BRANCH  25  26
ATOM     26  N   UNL     1      -6.348   2.796   7.260  1.00  0.00    -0.352 N 
ATOM     27  C   UNL     1      -6.892   3.418   8.350  1.00  0.00     0.251 C 
ATOM     28  H   UNL     1      -6.969   2.615   6.518  1.00  0.00     0.163 HD
ATOM     29  O   UNL     1      -8.108   3.545   8.458  1.00  0.00    -0.269 OA
BRANCH  27  30
ATOM     30  C   UNL     1      -5.995   3.917   9.408  1.00  0.00     0.039 A 
ATOM     31  C   UNL     1      -6.307   3.646  10.740  1.00  0.00     0.014 A 
ATOM     32  C   UNL     1      -4.841   4.634   9.078  1.00  0.00     0.014 A 
ATOM     33  C   UNL     1      -5.436   4.063  11.745  1.00  0.00     0.010 A 
ATOM     34  C   UNL     1      -3.932   4.971  10.072  1.00  0.00     0.010 A 
ATOM     35  C   UNL     1      -4.230   4.706  11.416  1.00  0.00    -0.014 A 
BRANCH  35  36
ATOM     36  C   UNL     1      -3.285   5.138  12.474  1.00  0.00     0.031 A 
ATOM     37  C   UNL     1      -2.987   6.600  12.660  1.00  0.00     0.074 A 
ATOM     38  C   UNL     1      -2.669   4.214  13.236  1.00  0.00     0.049 A 
ATOM     39  N   UNL     1      -2.162   7.176  13.498  1.00  0.00    -0.248 NA
ATOM     40  C   UNL     1      -3.689   7.540  11.770  1.00  0.00     0.031 C 
ATOM     41  C   UNL     1      -2.840   2.765  13.116  1.00  0.00     0.029 A 
ATOM     42  N   UNL     1      -1.770   4.359  14.261  1.00  0.00    -0.354 N 
ATOM     43  C   UNL     1      -2.247   8.537  13.233  1.00  0.00     0.074 A 
ATOM     44  C   UNL     1      -3.143   8.697  12.110  1.00  0.00     0.031 C 
ATOM     45  C   UNL     1      -2.092   2.155  14.050  1.00  0.00     0.029 A 
ATOM     46  C   UNL     1      -1.361   3.166  14.807  1.00  0.00     0.049 A 
ATOM     47  H   UNL     1      -1.448   5.234  14.577  1.00  0.00     0.167 HD
ATOM     48  C   UNL     1      -1.658   9.565  13.889  1.00  0.00     0.037 A 
ATOM     49  C   UNL     1      -0.490   2.919  15.803  1.00  0.00     0.037 A 
ATOM     50  C   UNL     1      -0.776   9.402  15.014  1.00  0.00     0.049 A 
ATOM     51  C   UNL     1       0.168   4.078  16.500  1.00  0.00     0.074 A 
ATOM     52  C   UNL     1      -0.147  10.377  15.767  1.00  0.00     0.029 A 
ATOM     53  N   UNL     1      -0.398   8.178  15.548  1.00  0.00    -0.354 N 
ATOM     54  N   UNL     1       0.034   5.364  16.279  1.00  0.00    -0.248 NA
ATOM     55  C   UNL     1       1.091   3.752  17.596  1.00  0.00     0.031 C 
ATOM     56  C   UNL     1       0.645   9.744  16.729  1.00  0.00     0.029 A 
ATOM     57  C   UNL     1       0.466   8.375  16.613  1.00  0.00     0.049 A 
ATOM     58  H   UNL     1      -0.699   7.301  15.219  1.00  0.00     0.167 HD
ATOM     59  C   UNL     1       0.824   5.999  17.229  1.00  0.00     0.074 A 
ATOM     60  C   UNL     1       1.420   4.956  18.038  1.00  0.00     0.031 C 
ATOM     61  C   UNL     1       1.038   7.324  17.416  1.00  0.00     0.037 A 
BRANCH  48  62
ATOM     62  C   UNL     1      -1.963  10.955  13.410  1.00  0.00     0.057 A 
ATOM     63  C   UNL     1      -3.235  11.524  13.564  1.00  0.00     0.134 A 
ATOM     64  C   UNL     1      -0.972  11.745  12.814  1.00  0.00     0.134 A 
ATOM     65  F   UNL     1      -4.235  10.818  14.114  1.00  0.00    -0.206 F 
ATOM     66  C   UNL     1      -3.518  12.816  13.118  1.00  0.00     0.040 A 
ATOM     67  C   UNL     1      -1.235  13.050  12.392  1.00  0.00     0.040 A 
ATOM     68  F   UNL     1       0.268  11.266  12.639  1.00  0.00    -0.206 F 
ATOM     69  C   UNL     1      -2.513  13.586  12.537  1.00  0.00     0.006 A 
ENDBRANCH  48  62
BRANCH  49  70
ATOM     70  C   UNL     1      -0.198   1.521  16.214  1.00  0.00     0.057 A 
ATOM     71  C   UNL     1      -0.587   1.038  17.470  1.00  0.00     0.134 A 
ATOM     72  C   UNL     1       0.504   0.645  15.377  1.00  0.00     0.134 A 
ATOM     73  F   UNL     1      -1.248   1.833  18.323  1.00  0.00    -0.206 F 
ATOM     74  C   UNL     1      -0.259  -0.251  17.892  1.00  0.00     0.040 A 
ATOM     75  C   UNL     1       0.811  -0.657  15.774  1.00  0.00     0.040 A 
ATOM     76  F   UNL     1       0.896   1.042  14.158  1.00  0.00    -0.206 F 
ATOM     77  C   UNL     1       0.440  -1.104  17.041  1.00  0.00     0.006 A 
ENDBRANCH  49  70
BRANCH  61  78
ATOM     78  C   UNL     1       1.910   7.721  18.572  1.00  0.00     0.057 A 
ATOM     79  C   UNL     1       3.291   7.487  18.578  1.00  0.00     0.134 A 
ATOM     80  C   UNL     1       1.360   8.371  19.685  1.00  0.00     0.134 A 
ATOM     81  F   UNL     1       3.880   6.859  17.549  1.00  0.00    -0.206 F 
ATOM     82  C   UNL     1       4.088   7.854  19.664  1.00  0.00     0.040 A 
ATOM     83  C   UNL     1       2.151   8.772  20.762  1.00  0.00     0.040 A 
ATOM     84  F   UNL     1       0.046   8.636  19.739  1.00  0.00    -0.206 F 
ATOM     85  C   UNL     1       3.518   8.505  20.757  1.00  0.00     0.006 A 
ENDBRANCH  61  78
ENDBRANCH  35  36
ENDBRANCH  27  30
ENDBRANCH  25  26
ENDBRANCH  24  25
ENDBRANCH  23  24
ENDBRANCH   1  23
TORSDOF 17
