REMARK SMILES Cc1cc(N2CC[NH+]([C@@H](C(=O)NCCCCCCNC(=O)c3ccc(-c4c5nc(c(-c6c(F)cccc6F)c6ccc([nH]6)c(-c6c(F)cccc6F)c6nc(c(-c7c(F)cccc7F)c7ccc4[nH]7)C=C6)C=C5)cc3)c3c[nH]c4ccccc34)CC2)nc2ccccc12
REMARK SMILES IDX 15 1 14 2 13 3 12 4 10 5 11 6 9 8 8 9 5 10 6 11 86 12 7 13
REMARK SMILES IDX 85 14 4 16 1 17 2 18 3 19 93 20 88 21 92 22 87 23 89 24
REMARK SMILES IDX 91 25 90 26 76 27 77 28 84 29 78 30 79 31 83 32 80 34 82 35
REMARK SMILES IDX 81 36 16 37 17 38 18 39 19 40 20 41 21 43 22 44 23 45 75 46
REMARK SMILES IDX 24 47 74 48 25 49 26 50 27 51 68 52 28 53 73 54 67 55 69 56
REMARK SMILES IDX 29 57 72 58 66 59 65 60 30 62 56 63 39 64 55 65 40 66 43 67
REMARK SMILES IDX 54 68 70 69 41 70 42 71 53 73 71 74 44 75 31 76 32 77 37 78
REMARK SMILES IDX 33 79 34 80 36 81 38 82 35 83 57 84 58 85 63 86 59 87 60 88
REMARK SMILES IDX 62 89 64 90 61 91 45 92 46 93 51 94 47 95 48 96 50 97 52 98
REMARK SMILES IDX 49 99
REMARK H PARENT 12 7 8 15 78 33 19 42 69 61 43 72
REMARK Flexibility Score: inf
ROOT
ATOM      1  C   UNL     1      -2.775  -2.102  -3.457  1.00  0.00     0.002 C 
ENDROOT
BRANCH   1   2
ATOM      2  C   UNL     1      -4.225  -2.596  -3.278  1.00  0.00     0.021 C 
BRANCH   2   3
ATOM      3  C   UNL     1      -4.425  -4.094  -2.892  1.00  0.00     0.116 C 
BRANCH   3   4
ATOM      4  N   UNL     1      -3.402  -4.693  -2.021  1.00  0.00    -0.351 N 
ATOM      5  C   UNL     1      -3.283  -5.183  -0.737  1.00  0.00     0.283 C 
ATOM      6  O   UNL     1      -2.183  -5.714  -0.524  1.00  0.00    -0.268 OA
ATOM      7  H   UNL     1      -2.544  -4.766  -2.498  1.00  0.00     0.163 HD
BRANCH   5   8
ATOM      8  C   UNL     1      -4.415  -5.181   0.341  1.00  0.00     0.307 C 
BRANCH   8   9
ATOM      9  N   UNL     1      -4.865  -3.865   0.943  1.00  0.00    -0.318 N 
ATOM     10  N   UNL     1      -2.866  -1.733   1.085  1.00  0.00    -0.345 N 
ATOM     11  C   UNL     1      -2.785  -2.842   2.024  1.00  0.00     0.179 C 
ATOM     12  C   UNL     1      -3.509  -2.055  -0.187  1.00  0.00     0.179 C 
ATOM     13  C   UNL     1      -4.232  -3.343   2.177  1.00  0.00     0.284 C 
ATOM     14  C   UNL     1      -4.887  -2.726   0.028  1.00  0.00     0.284 C 
ATOM     15  H   UNL     1      -5.792  -4.210   1.192  1.00  0.00     0.349 HD
BRANCH  10  16
ATOM     16  C   UNL     1      -1.779  -0.894   0.914  1.00  0.00     0.129 A 
ATOM     17  C   UNL     1      -1.472   2.740   0.002  1.00  0.00     0.045 C 
ATOM     18  C   UNL     1      -1.075   1.326   0.305  1.00  0.00    -0.038 A 
ATOM     19  C   UNL     1      -2.073   0.442   0.683  1.00  0.00     0.051 A 
ATOM     20  C   UNL     1       0.243   0.840   0.220  1.00  0.00     0.003 A 
ATOM     21  C   UNL     1       0.457  -0.538   0.474  1.00  0.00     0.073 A 
ATOM     22  C   UNL     1       1.341   1.660  -0.110  1.00  0.00     0.010 A 
ATOM     23  N   UNL     1      -0.532  -1.382   0.819  1.00  0.00    -0.231 NA
ATOM     24  C   UNL     1       1.743  -1.044   0.336  1.00  0.00     0.029 A 
ATOM     25  C   UNL     1       2.624   1.130  -0.216  1.00  0.00     0.001 A 
ATOM     26  C   UNL     1       2.824  -0.228  -0.006  1.00  0.00     0.002 A 
ENDBRANCH  10  16
ENDBRANCH   8   9
BRANCH   8  27
ATOM     27  C   UNL     1      -4.255  -6.250   1.476  1.00  0.00     0.044 A 
ATOM     28  C   UNL     1      -5.348  -6.832   2.122  1.00  0.00     0.094 A 
ATOM     29  C   UNL     1      -3.232  -6.360   2.499  1.00  0.00     0.009 A 
ATOM     30  N   UNL     1      -5.267  -6.255   3.380  1.00  0.00    -0.361 N 
ATOM     31  C   UNL     1      -3.931  -6.120   3.693  1.00  0.00     0.046 A 
ATOM     32  C   UNL     1      -1.825  -6.410   2.574  1.00  0.00     0.011 A 
ATOM     33  H   UNL     1      -6.027  -5.989   3.947  1.00  0.00     0.166 HD
ATOM     34  C   UNL     1      -3.310  -5.673   4.866  1.00  0.00     0.026 A 
ATOM     35  C   UNL     1      -1.187  -6.125   3.794  1.00  0.00     0.001 A 
ATOM     36  C   UNL     1      -1.917  -5.679   4.894  1.00  0.00     0.002 A 
ENDBRANCH   8  27
ENDBRANCH   5   8
ENDBRANCH   3   4
ENDBRANCH   2   3
ENDBRANCH   1   2
BRANCH   1  37
ATOM     37  C   UNL     1      -2.428  -1.621  -4.868  1.00  0.00     0.002 C 
BRANCH  37  38
ATOM     38  C   UNL     1      -3.172  -0.368  -5.341  1.00  0.00     0.021 C 
BRANCH  38  39
ATOM     39  C   UNL     1      -2.887   0.900  -4.537  1.00  0.00     0.116 C 
BRANCH  39  40
ATOM     40  N   UNL     1      -1.558   1.431  -4.806  1.00  0.00    -0.352 N 
ATOM     41  C   UNL     1      -1.209   2.575  -5.489  1.00  0.00     0.251 C 
ATOM     42  H   UNL     1      -0.808   0.900  -4.453  1.00  0.00     0.163 HD
ATOM     43  O   UNL     1      -0.061   2.763  -5.859  1.00  0.00    -0.269 OA
BRANCH  41  44
ATOM     44  C   UNL     1      -2.251   3.586  -5.774  1.00  0.00     0.039 A 
ATOM     45  C   UNL     1      -2.382   4.091  -7.069  1.00  0.00     0.014 A 
ATOM     46  C   UNL     1      -3.099   4.025  -4.754  1.00  0.00     0.014 A 
ATOM     47  C   UNL     1      -3.408   4.997  -7.354  1.00  0.00     0.010 A 
ATOM     48  C   UNL     1      -4.165   4.866  -5.056  1.00  0.00     0.010 A 
ATOM     49  C   UNL     1      -4.327   5.367  -6.357  1.00  0.00    -0.014 A 
BRANCH  49  50
ATOM     50  C   UNL     1      -5.461   6.277  -6.659  1.00  0.00     0.031 A 
ATOM     51  C   UNL     1      -5.563   7.615  -5.980  1.00  0.00     0.074 A 
ATOM     52  C   UNL     1      -6.440   5.870  -7.489  1.00  0.00     0.049 A 
ATOM     53  N   UNL     1      -6.499   8.524  -6.078  1.00  0.00    -0.248 NA
ATOM     54  C   UNL     1      -4.486   7.961  -5.040  1.00  0.00     0.031 C 
ATOM     55  C   UNL     1      -6.492   4.570  -8.159  1.00  0.00     0.029 A 
ATOM     56  N   UNL     1      -7.587   6.503  -7.900  1.00  0.00    -0.354 N 
ATOM     57  C   UNL     1      -6.133   9.539  -5.203  1.00  0.00     0.074 A 
ATOM     58  C   UNL     1      -4.923   9.106  -4.539  1.00  0.00     0.031 C 
ATOM     59  C   UNL     1      -7.603   4.508  -8.910  1.00  0.00     0.029 A 
ATOM     60  C   UNL     1      -8.360   5.746  -8.746  1.00  0.00     0.049 A 
ATOM     61  H   UNL     1      -7.832   7.413  -7.615  1.00  0.00     0.167 HD
ATOM     62  C   UNL     1      -6.738  10.732  -4.987  1.00  0.00     0.037 A 
ATOM     63  C   UNL     1      -9.549   6.012  -9.318  1.00  0.00     0.037 A 
ATOM     64  C   UNL     1      -7.935  11.163  -5.662  1.00  0.00     0.049 A 
ATOM     65  C   UNL     1     -10.201   7.343  -9.074  1.00  0.00     0.074 A 
ATOM     66  C   UNL     1      -8.580  12.384  -5.579  1.00  0.00     0.029 A 
ATOM     67  N   UNL     1      -8.677  10.378  -6.533  1.00  0.00    -0.354 N 
ATOM     68  N   UNL     1      -9.795   8.335  -8.319  1.00  0.00    -0.248 NA
ATOM     69  C   UNL     1     -11.471   7.598  -9.769  1.00  0.00     0.031 C 
ATOM     70  C   UNL     1      -9.748  12.315  -6.347  1.00  0.00     0.029 A 
ATOM     71  C   UNL     1      -9.796  11.074  -6.962  1.00  0.00     0.049 A 
ATOM     72  H   UNL     1      -8.444   9.461  -6.805  1.00  0.00     0.167 HD
ATOM     73  C   UNL     1     -10.746   9.338  -8.460  1.00  0.00     0.074 A 
ATOM     74  C   UNL     1     -11.741   8.839  -9.388  1.00  0.00     0.031 C 
ATOM     75  C   UNL     1     -10.789  10.561  -7.876  1.00  0.00     0.037 A 
BRANCH  62  76
ATOM     76  C   UNL     1      -6.119  11.643  -3.963  1.00  0.00     0.057 A 
ATOM     77  C   UNL     1      -4.862  12.236  -4.152  1.00  0.00     0.134 A 
ATOM     78  C   UNL     1      -6.790  11.931  -2.768  1.00  0.00     0.134 A 
ATOM     79  F   UNL     1      -4.158  11.996  -5.270  1.00  0.00    -0.206 F 
ATOM     80  C   UNL     1      -4.276  13.040  -3.173  1.00  0.00     0.040 A 
ATOM     81  C   UNL     1      -6.230  12.763  -1.796  1.00  0.00     0.040 A 
ATOM     82  F   UNL     1      -8.000  11.408  -2.522  1.00  0.00    -0.206 F 
ATOM     83  C   UNL     1      -4.963  13.309  -1.991  1.00  0.00     0.006 A 
ENDBRANCH  62  76
BRANCH  63  84
ATOM     84  C   UNL     1     -10.183   4.991 -10.190  1.00  0.00     0.057 A 
ATOM     85  C   UNL     1     -10.252   5.160 -11.577  1.00  0.00     0.134 A 
ATOM     86  C   UNL     1     -10.698   3.801  -9.659  1.00  0.00     0.134 A 
ATOM     87  F   UNL     1      -9.791   6.285 -12.143  1.00  0.00    -0.206 F 
ATOM     88  C   UNL     1     -10.815   4.187 -12.405  1.00  0.00     0.040 A 
ATOM     89  C   UNL     1     -11.241   2.809 -10.477  1.00  0.00     0.040 A 
ATOM     90  F   UNL     1     -10.653   3.574  -8.338  1.00  0.00    -0.206 F 
ATOM     91  C   UNL     1     -11.303   3.003 -11.855  1.00  0.00     0.006 A 
ENDBRANCH  63  84
BRANCH  75  92
ATOM     92  C   UNL     1     -11.942  11.455  -8.234  1.00  0.00     0.057 A 
ATOM     93  C   UNL     1     -13.247  11.195  -7.796  1.00  0.00     0.134 A 
ATOM     94  C   UNL     1     -11.736  12.616  -8.992  1.00  0.00     0.134 A 
ATOM     95  F   UNL     1     -13.516  10.095  -7.076  1.00  0.00    -0.206 F 
ATOM     96  C   UNL     1     -14.308  12.042  -8.119  1.00  0.00     0.040 A 
ATOM     97  C   UNL     1     -12.783  13.486  -9.295  1.00  0.00     0.040 A 
ATOM     98  F   UNL     1     -10.510  12.931  -9.436  1.00  0.00    -0.206 F 
ATOM     99  C   UNL     1     -14.076  13.197  -8.864  1.00  0.00     0.006 A 
ENDBRANCH  75  92
ENDBRANCH  49  50
ENDBRANCH  41  44
ENDBRANCH  39  40
ENDBRANCH  38  39
ENDBRANCH  37  38
ENDBRANCH   1  37
TORSDOF 16
