REMARK SMILES CC[C@@H](C)[C@@H](NC(N)=O)C(=O)N1CCC[C@H](C(=O)NCCCCCCNC(=O)c2ccc(-c3c4nc(c(-c5c(F)cccc5F)c5ccc([nH]5)c(-c5c(F)cccc5F)c5nc(c(-c6c(F)cccc6F)c6ccc3[nH]6)C=C5)C=C4)cc2)C1
REMARK SMILES IDX 21 1 20 2 19 3 17 4 18 5 16 7 12 8 13 9 83 10 14 11 15 12
REMARK SMILES IDX 10 13 11 14 5 15 3 16 4 17 2 18 1 19 6 20 7 21 8 23 9 24
REMARK SMILES IDX 22 27 23 28 24 29 25 30 26 31 27 32 28 34 29 35 30 36 82 37
REMARK SMILES IDX 31 38 81 39 32 40 33 41 34 42 75 43 35 44 80 45 74 46 76 47
REMARK SMILES IDX 36 48 79 49 73 50 72 51 37 53 63 54 46 55 62 56 47 57 50 58
REMARK SMILES IDX 61 59 77 60 48 61 49 62 60 64 78 65 51 66 38 67 39 68 44 69
REMARK SMILES IDX 40 70 41 71 43 72 45 73 42 74 64 75 65 76 70 77 66 78 67 79
REMARK SMILES IDX 69 80 71 81 68 82 52 83 53 84 58 85 54 86 55 87 57 88 59 89
REMARK SMILES IDX 56 90
REMARK H PARENT 19 6 6 22 8 25 8 26 26 33 76 52 50 63
REMARK Flexibility Score: inf
ROOT
ATOM      1  C   UNL     1       1.601   4.820  -6.919  1.00  0.00     0.021 C 
ENDROOT
BRANCH   1   2
ATOM      2  C   UNL     1       1.764   3.888  -5.725  1.00  0.00     0.116 C 
BRANCH   2   3
ATOM      3  N   UNL     1       2.556   2.709  -5.979  1.00  0.00    -0.356 N 
ATOM      4  C   UNL     1       3.567   2.166  -5.252  1.00  0.00     0.224 C 
ATOM      5  O   UNL     1       3.833   0.981  -5.491  1.00  0.00    -0.275 OA
ATOM      6  H   UNL     1       2.330   2.224  -6.805  1.00  0.00     0.163 HD
BRANCH   4   7
ATOM      7  C   UNL     1       4.379   2.907  -4.175  1.00  0.00     0.098 C 
ATOM      8  N   UNL     1       2.911   4.300  -2.722  1.00  0.00    -0.340 N 
ATOM      9  C   UNL     1       3.622   5.535  -3.046  1.00  0.00     0.119 C 
ATOM     10  C   UNL     1       3.673   3.069  -2.831  1.00  0.00     0.133 C 
ATOM     11  C   UNL     1       4.429   5.487  -4.348  1.00  0.00     0.022 C 
ATOM     12  C   UNL     1       5.128   4.159  -4.625  1.00  0.00     0.017 C 
BRANCH   8  13
ATOM     13  C   UNL     1       1.549   4.364  -2.430  1.00  0.00     0.245 C 
ATOM     14  O   UNL     1       0.784   5.032  -3.136  1.00  0.00    -0.272 OA
BRANCH  13  15
ATOM     15  C   UNL     1       0.994   3.674  -1.139  1.00  0.00     0.176 C 
BRANCH  15  16
ATOM     16  C   UNL     1       1.099   2.125  -1.105  1.00  0.00     0.018 C 
ATOM     17  C   UNL     1       0.530   1.492  -2.388  1.00  0.00     0.010 C 
BRANCH  16  18
ATOM     18  C   UNL     1       0.413   1.484   0.126  1.00  0.00     0.002 C 
ATOM     19  C   UNL     1       0.821   0.022   0.312  1.00  0.00     0.004 C 
ENDBRANCH  16  18
ENDBRANCH  15  16
BRANCH  15  20
ATOM     20  N   UNL     1       1.663   4.290   0.019  1.00  0.00    -0.326 N 
ATOM     21  C   UNL     1       1.701   5.643   0.199  1.00  0.00     0.312 C 
ATOM     22  H   UNL     1       2.096   3.708   0.685  1.00  0.00     0.166 HD
ATOM     23  N   UNL     1       2.272   6.003   1.371  1.00  0.00    -0.352 N 
ATOM     24  O   UNL     1       1.328   6.490  -0.591  1.00  0.00    -0.249 OA
ATOM     25  H   UNL     1       2.571   5.312   2.006  1.00  0.00     0.161 HD
ATOM     26  H   UNL     1       2.388   6.956   1.591  1.00  0.00     0.161 HD
ENDBRANCH  15  20
ENDBRANCH  13  15
ENDBRANCH   8  13
ENDBRANCH   4   7
ENDBRANCH   2   3
ENDBRANCH   1   2
BRANCH   1  27
ATOM     27  C   UNL     1       0.225   4.741  -7.577  1.00  0.00     0.002 C 
BRANCH  27  28
ATOM     28  C   UNL     1      -0.967   5.058  -6.661  1.00  0.00     0.002 C 
BRANCH  28  29
ATOM     29  C   UNL     1      -0.941   6.422  -5.965  1.00  0.00     0.021 C 
BRANCH  29  30
ATOM     30  C   UNL     1      -0.796   7.624  -6.893  1.00  0.00     0.116 C 
BRANCH  30  31
ATOM     31  N   UNL     1      -1.789   7.619  -7.957  1.00  0.00    -0.352 N 
ATOM     32  C   UNL     1      -2.727   8.555  -8.301  1.00  0.00     0.251 C 
ATOM     33  H   UNL     1      -1.785   6.812  -8.521  1.00  0.00     0.163 HD
ATOM     34  O   UNL     1      -3.615   8.264  -9.098  1.00  0.00    -0.269 OA
BRANCH  32  35
ATOM     35  C   UNL     1      -2.681   9.913  -7.721  1.00  0.00     0.039 A 
ATOM     36  C   UNL     1      -3.883  10.531  -7.368  1.00  0.00     0.014 A 
ATOM     37  C   UNL     1      -1.472  10.599  -7.575  1.00  0.00     0.014 A 
ATOM     38  C   UNL     1      -3.869  11.818  -6.830  1.00  0.00     0.010 A 
ATOM     39  C   UNL     1      -1.453  11.853  -6.968  1.00  0.00     0.010 A 
ATOM     40  C   UNL     1      -2.652  12.481  -6.602  1.00  0.00    -0.014 A 
BRANCH  40  41
ATOM     41  C   UNL     1      -2.627  13.832  -5.987  1.00  0.00     0.031 A 
ATOM     42  C   UNL     1      -2.110  15.011  -6.765  1.00  0.00     0.074 A 
ATOM     43  C   UNL     1      -3.036  13.986  -4.713  1.00  0.00     0.049 A 
ATOM     44  N   UNL     1      -1.988  16.259  -6.388  1.00  0.00    -0.248 NA
ATOM     45  C   UNL     1      -1.647  14.755  -8.139  1.00  0.00     0.031 C 
ATOM     46  C   UNL     1      -3.510  12.910  -3.840  1.00  0.00     0.029 A 
ATOM     47  N   UNL     1      -3.114  15.108  -3.926  1.00  0.00    -0.354 N 
ATOM     48  C   UNL     1      -1.426  16.929  -7.468  1.00  0.00     0.074 A 
ATOM     49  C   UNL     1      -1.184  15.943  -8.498  1.00  0.00     0.031 C 
ATOM     50  C   UNL     1      -3.852  13.427  -2.649  1.00  0.00     0.029 A 
ATOM     51  C   UNL     1      -3.585  14.861  -2.659  1.00  0.00     0.049 A 
ATOM     52  H   UNL     1      -2.858  16.006  -4.240  1.00  0.00     0.167 HD
ATOM     53  C   UNL     1      -1.158  18.250  -7.596  1.00  0.00     0.037 A 
ATOM     54  C   UNL     1      -3.770  15.696  -1.619  1.00  0.00     0.037 A 
ATOM     55  C   UNL     1      -1.427  19.231  -6.578  1.00  0.00     0.049 A 
ATOM     56  C   UNL     1      -3.459  17.158  -1.791  1.00  0.00     0.074 A 
ATOM     57  C   UNL     1      -1.255  20.603  -6.639  1.00  0.00     0.029 A 
ATOM     58  N   UNL     1      -1.920  18.944  -5.314  1.00  0.00    -0.354 N 
ATOM     59  N   UNL     1      -3.009  17.790  -2.848  1.00  0.00    -0.248 NA
ATOM     60  C   UNL     1      -3.691  18.027  -0.628  1.00  0.00     0.031 C 
ATOM     61  C   UNL     1      -1.591  21.140  -5.393  1.00  0.00     0.029 A 
ATOM     62  C   UNL     1      -2.031  20.111  -4.577  1.00  0.00     0.049 A 
ATOM     63  H   UNL     1      -2.156  18.045  -4.990  1.00  0.00     0.167 HD
ATOM     64  C   UNL     1      -2.935  19.129  -2.489  1.00  0.00     0.074 A 
ATOM     65  C   UNL     1      -3.405  19.222  -1.123  1.00  0.00     0.031 C 
ATOM     66  C   UNL     1      -2.514  20.188  -3.222  1.00  0.00     0.037 A 
BRANCH  53  67
ATOM     67  C   UNL     1      -0.547  18.722  -8.884  1.00  0.00     0.057 A 
ATOM     68  C   UNL     1      -1.278  18.761 -10.079  1.00  0.00     0.134 A 
ATOM     69  C   UNL     1       0.763  19.216  -8.913  1.00  0.00     0.134 A 
ATOM     70  F   UNL     1      -2.535  18.295 -10.123  1.00  0.00    -0.206 F 
ATOM     71  C   UNL     1      -0.722  19.259 -11.259  1.00  0.00     0.040 A 
ATOM     72  C   UNL     1       1.321  19.742 -10.079  1.00  0.00     0.040 A 
ATOM     73  F   UNL     1       1.516  19.215  -7.802  1.00  0.00    -0.206 F 
ATOM     74  C   UNL     1       0.578  19.763 -11.258  1.00  0.00     0.006 A 
ENDBRANCH  53  67
BRANCH  54  75
ATOM     75  C   UNL     1      -4.278  15.180  -0.321  1.00  0.00     0.057 A 
ATOM     76  C   UNL     1      -5.537  15.551   0.167  1.00  0.00     0.134 A 
ATOM     77  C   UNL     1      -3.502  14.335   0.482  1.00  0.00     0.134 A 
ATOM     78  F   UNL     1      -6.322  16.373  -0.545  1.00  0.00    -0.206 F 
ATOM     79  C   UNL     1      -5.990  15.132   1.419  1.00  0.00     0.040 A 
ATOM     80  C   UNL     1      -3.955  13.882   1.721  1.00  0.00     0.040 A 
ATOM     81  F   UNL     1      -2.289  13.935   0.071  1.00  0.00    -0.206 F 
ATOM     82  C   UNL     1      -5.198  14.291   2.199  1.00  0.00     0.006 A 
ENDBRANCH  54  75
BRANCH  66  83
ATOM     83  C   UNL     1      -2.585  21.543  -2.580  1.00  0.00     0.057 A 
ATOM     84  C   UNL     1      -1.724  21.919  -1.542  1.00  0.00     0.134 A 
ATOM     85  C   UNL     1      -3.504  22.498  -3.036  1.00  0.00     0.134 A 
ATOM     86  F   UNL     1      -0.829  21.049  -1.051  1.00  0.00    -0.206 F 
ATOM     87  C   UNL     1      -1.792  23.187  -0.962  1.00  0.00     0.040 A 
ATOM     88  C   UNL     1      -3.560  23.779  -2.486  1.00  0.00     0.040 A 
ATOM     89  F   UNL     1      -4.351  22.207  -4.035  1.00  0.00    -0.206 F 
ATOM     90  C   UNL     1      -2.707  24.123  -1.440  1.00  0.00     0.006 A 
ENDBRANCH  66  83
ENDBRANCH  40  41
ENDBRANCH  32  35
ENDBRANCH  30  31
ENDBRANCH  29  30
ENDBRANCH  28  29
ENDBRANCH  27  28
ENDBRANCH   1  27
TORSDOF 18
