REMARK SMILES C[C@](NC(=O)CSCc1cccs1)(C(=O)NCCCCCCNC(=O)c1ccc(-c2c3nc(c(-c4c(F)cccc4F)c4ccc([nH]4)c(-c4c(F)cccc4F)c4nc(c(-c5c(F)cccc5F)c5ccc2[nH]5)C=C4)C=C3)cc1)C(F)(F)F
REMARK SMILES IDX 18 1 17 2 16 3 14 4 15 5 2 7 1 8 80 9 81 10 82 11 83 12 3 13
REMARK SMILES IDX 4 14 5 16 6 17 7 18 8 19 9 20 10 21 13 22 11 23 12 24 19 25
REMARK SMILES IDX 20 26 21 27 22 28 23 29 24 30 25 32 26 33 27 34 79 35 28 36
REMARK SMILES IDX 78 37 29 38 30 39 31 40 72 41 32 42 77 43 71 44 73 45 33 46
REMARK SMILES IDX 76 47 70 48 69 49 34 51 60 52 43 53 59 54 44 55 47 56 58 57
REMARK SMILES IDX 74 58 45 59 46 60 57 62 75 63 48 64 35 65 36 66 41 67 37 68
REMARK SMILES IDX 38 69 40 70 42 71 39 72 61 73 62 74 67 75 63 76 64 77 66 78
REMARK SMILES IDX 68 79 65 80 49 81 50 82 55 83 51 84 52 85 54 86 56 87 53 88
REMARK H PARENT 16 6 3 15 23 31 73 50 47 61
REMARK Flexibility Score: inf
ROOT
ATOM      1  C   UNL     1      -1.628   0.604   2.455  1.00  0.00     0.021 C 
ENDROOT
BRANCH   1   2
ATOM      2  C   UNL     1      -1.144  -0.727   1.879  1.00  0.00     0.116 C 
BRANCH   2   3
ATOM      3  N   UNL     1      -1.743  -0.954   0.571  1.00  0.00    -0.354 N 
ATOM      4  C   UNL     1      -1.241  -1.324  -0.643  1.00  0.00     0.254 C 
ATOM      5  O   UNL     1      -2.085  -1.489  -1.527  1.00  0.00    -0.272 OA
ATOM      6  H   UNL     1      -2.717  -0.808   0.560  1.00  0.00     0.163 HD
BRANCH   4   7
ATOM      7  C   UNL     1       0.238  -1.722  -0.823  1.00  0.00     0.212 C 
ATOM      8  C   UNL     1       0.360  -3.107  -0.180  1.00  0.00     0.056 C 
BRANCH   7   9
ATOM      9  C   UNL     1       0.479  -1.818  -2.343  1.00  0.00     0.420 C 
ATOM     10  F   UNL     1       0.206  -0.652  -2.973  1.00  0.00    -0.168 F 
ATOM     11  F   UNL     1       1.786  -2.087  -2.598  1.00  0.00    -0.168 F 
ATOM     12  F   UNL     1      -0.229  -2.804  -2.934  1.00  0.00    -0.168 F 
ENDBRANCH   7   9
BRANCH   7  13
ATOM     13  N   UNL     1       1.090  -0.677  -0.169  1.00  0.00    -0.334 N 
ATOM     14  C   UNL     1       2.400  -0.588   0.175  1.00  0.00     0.231 C 
ATOM     15  H   UNL     1       0.582   0.133   0.066  1.00  0.00     0.164 HD
ATOM     16  O   UNL     1       2.759   0.484   0.674  1.00  0.00    -0.274 OA
BRANCH  14  17
ATOM     17  C   UNL     1       3.390  -1.724   0.007  1.00  0.00     0.169 C 
BRANCH  17  18
ATOM     18  S   UNL     1       3.256  -3.004   1.295  1.00  0.00    -0.146 SA
BRANCH  18  19
ATOM     19  C   UNL     1       3.344  -2.012   2.819  1.00  0.00     0.116 C 
BRANCH  19  20
ATOM     20  C   UNL     1       4.757  -1.652   3.123  1.00  0.00     0.014 A 
ATOM     21  C   UNL     1       5.470  -0.545   2.706  1.00  0.00     0.016 A 
ATOM     22  S   UNL     1       5.718  -2.689   4.094  1.00  0.00    -0.148 S 
ATOM     23  C   UNL     1       6.831  -0.595   3.117  1.00  0.00     0.012 A 
ATOM     24  C   UNL     1       7.100  -1.712   3.876  1.00  0.00     0.065 A 
ENDBRANCH  19  20
ENDBRANCH  18  19
ENDBRANCH  17  18
ENDBRANCH  14  17
ENDBRANCH   7  13
ENDBRANCH   4   7
ENDBRANCH   2   3
ENDBRANCH   1   2
BRANCH   1  25
ATOM     25  C   UNL     1      -3.130   0.631   2.773  1.00  0.00     0.002 C 
BRANCH  25  26
ATOM     26  C   UNL     1      -3.589  -0.418   3.790  1.00  0.00     0.002 C 
BRANCH  26  27
ATOM     27  C   UNL     1      -2.880  -0.349   5.144  1.00  0.00     0.021 C 
BRANCH  27  28
ATOM     28  C   UNL     1      -2.982   1.003   5.840  1.00  0.00     0.116 C 
BRANCH  28  29
ATOM     29  N   UNL     1      -4.358   1.364   6.139  1.00  0.00    -0.352 N 
ATOM     30  C   UNL     1      -4.901   1.796   7.322  1.00  0.00     0.251 C 
ATOM     31  H   UNL     1      -4.989   1.288   5.387  1.00  0.00     0.163 HD
ATOM     32  O   UNL     1      -6.121   1.881   7.449  1.00  0.00    -0.269 OA
BRANCH  30  33
ATOM     33  C   UNL     1      -4.016   2.137   8.453  1.00  0.00     0.039 A 
ATOM     34  C   UNL     1      -4.342   1.674   9.730  1.00  0.00     0.014 A 
ATOM     35  C   UNL     1      -2.866   2.907   8.255  1.00  0.00     0.014 A 
ATOM     36  C   UNL     1      -3.485   1.938  10.799  1.00  0.00     0.010 A 
ATOM     37  C   UNL     1      -1.974   3.101   9.305  1.00  0.00     0.010 A 
ATOM     38  C   UNL     1      -2.278   2.625  10.589  1.00  0.00    -0.014 A 
BRANCH  38  39
ATOM     39  C   UNL     1      -1.324   2.856  11.704  1.00  0.00     0.031 A 
ATOM     40  C   UNL     1      -1.006   4.256  12.150  1.00  0.00     0.074 A 
ATOM     41  C   UNL     1      -0.703   1.806  12.276  1.00  0.00     0.049 A 
ATOM     42  N   UNL     1      -0.166   4.659  13.070  1.00  0.00    -0.248 NA
ATOM     43  C   UNL     1      -1.703   5.349  11.454  1.00  0.00     0.031 C 
ATOM     44  C   UNL     1      -0.890   0.404  11.900  1.00  0.00     0.029 A 
ATOM     45  N   UNL     1       0.217   1.757  13.293  1.00  0.00    -0.354 N 
ATOM     46  C   UNL     1      -0.225   6.047  13.053  1.00  0.00     0.074 A 
ATOM     47  C   UNL     1      -1.139   6.418  11.995  1.00  0.00     0.031 C 
ATOM     48  C   UNL     1      -0.130  -0.369  12.692  1.00  0.00     0.029 A 
ATOM     49  C   UNL     1       0.627   0.483  13.603  1.00  0.00     0.049 A 
ATOM     50  H   UNL     1       0.552   2.559  13.755  1.00  0.00     0.167 HD
ATOM     51  C   UNL     1       0.406   6.931  13.862  1.00  0.00     0.037 A 
ATOM     52  C   UNL     1       1.518   0.051  14.515  1.00  0.00     0.037 A 
ATOM     53  C   UNL     1       1.300   6.557  14.927  1.00  0.00     0.049 A 
ATOM     54  C   UNL     1       2.215   1.054  15.393  1.00  0.00     0.074 A 
ATOM     55  C   UNL     1       1.942   7.375  15.840  1.00  0.00     0.029 A 
ATOM     56  N   UNL     1       1.681   5.255  15.217  1.00  0.00    -0.354 N 
ATOM     57  N   UNL     1       2.094   2.359  15.415  1.00  0.00    -0.248 NA
ATOM     58  C   UNL     1       3.165   0.522  16.380  1.00  0.00     0.031 C 
ATOM     59  C   UNL     1       2.754   6.573  16.648  1.00  0.00     0.029 A 
ATOM     60  C   UNL     1       2.572   5.250  16.279  1.00  0.00     0.049 A 
ATOM     61  H   UNL     1       1.367   4.454  14.740  1.00  0.00     0.167 HD
ATOM     62  C   UNL     1       2.927   2.802  16.435  1.00  0.00     0.074 A 
ATOM     63  C   UNL     1       3.536   1.623  17.017  1.00  0.00     0.031 C 
ATOM     64  C   UNL     1       3.165   4.069  16.853  1.00  0.00     0.037 A 
BRANCH  51  65
ATOM     65  C   UNL     1       0.151   8.393  13.625  1.00  0.00     0.057 A 
ATOM     66  C   UNL     1      -1.091   8.982  13.897  1.00  0.00     0.134 A 
ATOM     67  C   UNL     1       1.171   9.229  13.152  1.00  0.00     0.134 A 
ATOM     68  F   UNL     1      -2.115   8.237  14.341  1.00  0.00    -0.206 F 
ATOM     69  C   UNL     1      -1.318  10.343  13.681  1.00  0.00     0.040 A 
ATOM     70  C   UNL     1       0.965  10.596  12.961  1.00  0.00     0.040 A 
ATOM     71  F   UNL     1       2.386   8.733  12.877  1.00  0.00    -0.206 F 
ATOM     72  C   UNL     1      -0.285  11.155  13.219  1.00  0.00     0.006 A 
ENDBRANCH  51  65
BRANCH  52  73
ATOM     73  C   UNL     1       1.789  -1.402  14.661  1.00  0.00     0.057 A 
ATOM     74  C   UNL     1       1.388  -2.101  15.805  1.00  0.00     0.134 A 
ATOM     75  C   UNL     1       2.462  -2.124  13.668  1.00  0.00     0.134 A 
ATOM     76  F   UNL     1       0.755  -1.461  16.799  1.00  0.00    -0.206 F 
ATOM     77  C   UNL     1       1.666  -3.459  15.969  1.00  0.00     0.040 A 
ATOM     78  C   UNL     1       2.722  -3.489  13.805  1.00  0.00     0.040 A 
ATOM     79  F   UNL     1       2.865  -1.516  12.543  1.00  0.00    -0.206 F 
ATOM     80  C   UNL     1       2.331  -4.158  14.963  1.00  0.00     0.006 A 
ENDBRANCH  52  73
BRANCH  64  81
ATOM     81  C   UNL     1       4.093   4.246  18.020  1.00  0.00     0.057 A 
ATOM     82  C   UNL     1       5.471   4.020  17.916  1.00  0.00     0.134 A 
ATOM     83  C   UNL     1       3.602   4.681  19.259  1.00  0.00     0.134 A 
ATOM     84  F   UNL     1       6.005   3.590  16.762  1.00  0.00    -0.206 F 
ATOM     85  C   UNL     1       6.324   4.195  19.008  1.00  0.00     0.040 A 
ATOM     86  C   UNL     1       4.448   4.889  20.348  1.00  0.00     0.040 A 
ATOM     87  F   UNL     1       2.293   4.926  19.425  1.00  0.00    -0.206 F 
ATOM     88  C   UNL     1       5.813   4.638  20.226  1.00  0.00     0.006 A 
ENDBRANCH  64  81
ENDBRANCH  38  39
ENDBRANCH  30  33
ENDBRANCH  28  29
ENDBRANCH  27  28
ENDBRANCH  26  27
ENDBRANCH  25  26
ENDBRANCH   1  25
TORSDOF 19
