REMARK SMILES O=C(NCCCCCCNC(=O)[C@H]1C[C@H]1c1ccc(C2CC2)cc1)c1ccc(-c2c3nc(c(-c4c(F)cccc4F)c4ccc([nH]4)c(-c4c(F)cccc4F)c4nc(c(-c5c(F)cccc5F)c5ccc2[nH]5)C=C4)C=C3)cc1
REMARK SMILES IDX 6 1 5 2 4 3 3 4 1 5 2 6 25 8 26 9 78 10 27 11 77 12 28 13
REMARK SMILES IDX 29 14 30 15 71 16 31 17 76 18 70 19 72 20 32 21 75 22 69 23
REMARK SMILES IDX 68 24 33 26 59 27 42 28 58 29 43 30 46 31 57 32 73 33 44 34
REMARK SMILES IDX 45 35 56 37 74 38 47 39 34 40 35 41 40 42 36 43 37 44 39 45
REMARK SMILES IDX 41 46 38 47 60 48 61 49 66 50 62 51 63 52 65 53 67 54 64 55
REMARK SMILES IDX 48 56 49 57 54 58 50 59 51 60 53 61 55 62 52 63 7 64 8 65
REMARK SMILES IDX 9 66 10 67 11 68 12 70 13 71 14 72 15 73 16 74 17 75 24 76
REMARK SMILES IDX 18 77 23 78 19 79 20 80 21 81 22 82
REMARK H PARENT 3 7 72 25 46 36 10 69
REMARK Flexibility Score: inf
ROOT
ATOM      1  C   UNL     1      13.536   4.055  10.057  1.00  0.00     0.002 C 
ENDROOT
BRANCH   1   2
ATOM      2  C   UNL     1      14.758   4.213   9.152  1.00  0.00     0.021 C 
BRANCH   2   3
ATOM      3  C   UNL     1      15.230   5.650   8.980  1.00  0.00     0.116 C 
BRANCH   3   4
ATOM      4  N   UNL     1      15.781   6.196  10.210  1.00  0.00    -0.352 N 
ATOM      5  O   UNL     1      17.404   6.943  11.590  1.00  0.00    -0.269 OA
ATOM      6  C   UNL     1      17.033   6.706  10.444  1.00  0.00     0.251 C 
ATOM      7  H   UNL     1      15.171   6.200  10.982  1.00  0.00     0.163 HD
BRANCH   6   8
ATOM      8  C   UNL     1      17.944   6.958   9.307  1.00  0.00     0.039 A 
ATOM      9  C   UNL     1      17.475   7.583   8.149  1.00  0.00     0.014 A 
ATOM     10  C   UNL     1      19.286   6.581   9.409  1.00  0.00     0.014 A 
ATOM     11  C   UNL     1      18.312   7.716   7.049  1.00  0.00     0.010 A 
ATOM     12  C   UNL     1      20.150   6.796   8.332  1.00  0.00     0.010 A 
ATOM     13  C   UNL     1      19.664   7.348   7.136  1.00  0.00    -0.014 A 
BRANCH  13  14
ATOM     14  C   UNL     1      20.569   7.632   5.995  1.00  0.00     0.031 A 
ATOM     15  C   UNL     1      21.231   6.525   5.227  1.00  0.00     0.074 A 
ATOM     16  C   UNL     1      20.776   8.918   5.648  1.00  0.00     0.049 A 
ATOM     17  N   UNL     1      22.050   6.606   4.209  1.00  0.00    -0.248 NA
ATOM     18  C   UNL     1      20.943   5.149   5.657  1.00  0.00     0.031 C 
ATOM     19  C   UNL     1      20.192  10.077   6.329  1.00  0.00     0.029 A 
ATOM     20  N   UNL     1      21.520   9.467   4.637  1.00  0.00    -0.354 N 
ATOM     21  C   UNL     1      22.388   5.299   3.885  1.00  0.00     0.074 A 
ATOM     22  C   UNL     1      21.705   4.442   4.833  1.00  0.00     0.031 C 
ATOM     23  C   UNL     1      20.567  11.195   5.693  1.00  0.00     0.029 A 
ATOM     24  C   UNL     1      21.469  10.840   4.605  1.00  0.00     0.049 A 
ATOM     25  H   UNL     1      22.041   8.931   3.996  1.00  0.00     0.167 HD
ATOM     26  C   UNL     1      23.187   4.857   2.884  1.00  0.00     0.037 A 
ATOM     27  C   UNL     1      22.097  11.719   3.804  1.00  0.00     0.037 A 
ATOM     28  C   UNL     1      23.860   5.719   1.944  1.00  0.00     0.049 A 
ATOM     29  C   UNL     1      23.012  11.202   2.734  1.00  0.00     0.074 A 
ATOM     30  C   UNL     1      24.667   5.366   0.876  1.00  0.00     0.029 A 
ATOM     31  N   UNL     1      23.812   7.105   1.965  1.00  0.00    -0.354 N 
ATOM     32  N   UNL     1      23.293   9.962   2.417  1.00  0.00    -0.248 NA
ATOM     33  C   UNL     1      23.701  12.206   1.914  1.00  0.00     0.031 C 
ATOM     34  C   UNL     1      25.147   6.538   0.282  1.00  0.00     0.029 A 
ATOM     35  C   UNL     1      24.596   7.623   0.946  1.00  0.00     0.049 A 
ATOM     36  H   UNL     1      23.296   7.643   2.609  1.00  0.00     0.167 HD
ATOM     37  C   UNL     1      24.177  10.034   1.350  1.00  0.00     0.074 A 
ATOM     38  C   UNL     1      24.368  11.441   1.061  1.00  0.00     0.031 C 
ATOM     39  C   UNL     1      24.776   9.026   0.671  1.00  0.00     0.037 A 
BRANCH  26  40
ATOM     40  C   UNL     1      23.398   3.375   2.762  1.00  0.00     0.057 A 
ATOM     41  C   UNL     1      22.384   2.516   2.316  1.00  0.00     0.134 A 
ATOM     42  C   UNL     1      24.646   2.805   3.046  1.00  0.00     0.134 A 
ATOM     43  F   UNL     1      21.163   2.994   2.035  1.00  0.00    -0.206 F 
ATOM     44  C   UNL     1      22.599   1.143   2.176  1.00  0.00     0.040 A 
ATOM     45  C   UNL     1      24.880   1.437   2.886  1.00  0.00     0.040 A 
ATOM     46  F   UNL     1      25.663   3.569   3.469  1.00  0.00    -0.206 F 
ATOM     47  C   UNL     1      23.852   0.601   2.455  1.00  0.00     0.006 A 
ENDBRANCH  26  40
BRANCH  27  48
ATOM     48  C   UNL     1      21.886  13.175   3.999  1.00  0.00     0.057 A 
ATOM     49  C   UNL     1      21.195  13.939   3.053  1.00  0.00     0.134 A 
ATOM     50  C   UNL     1      22.358  13.833   5.141  1.00  0.00     0.134 A 
ATOM     51  F   UNL     1      20.732  13.368   1.931  1.00  0.00    -0.206 F 
ATOM     52  C   UNL     1      20.992  15.309   3.228  1.00  0.00     0.040 A 
ATOM     53  C   UNL     1      22.138  15.195   5.344  1.00  0.00     0.040 A 
ATOM     54  F   UNL     1      23.020  13.154   6.090  1.00  0.00    -0.206 F 
ATOM     55  C   UNL     1      21.459  15.939   4.381  1.00  0.00     0.006 A 
ENDBRANCH  27  48
BRANCH  39  56
ATOM     56  C   UNL     1      25.673   9.412  -0.468  1.00  0.00     0.057 A 
ATOM     57  C   UNL     1      26.927   9.998  -0.257  1.00  0.00     0.134 A 
ATOM     58  C   UNL     1      25.286   9.169  -1.792  1.00  0.00     0.134 A 
ATOM     59  F   UNL     1      27.349  10.272   0.987  1.00  0.00    -0.206 F 
ATOM     60  C   UNL     1      27.755  10.351  -1.324  1.00  0.00     0.040 A 
ATOM     61  C   UNL     1      26.117   9.491  -2.866  1.00  0.00     0.040 A 
ATOM     62  F   UNL     1      24.099   8.604  -2.063  1.00  0.00    -0.206 F 
ATOM     63  C   UNL     1      27.353  10.090  -2.633  1.00  0.00     0.006 A 
ENDBRANCH  39  56
ENDBRANCH  13  14
ENDBRANCH   6   8
ENDBRANCH   3   4
ENDBRANCH   2   3
ENDBRANCH   1   2
BRANCH   1  64
ATOM     64  C   UNL     1      12.276   4.795   9.588  1.00  0.00     0.002 C 
BRANCH  64  65
ATOM     65  C   UNL     1      11.852   4.527   8.136  1.00  0.00     0.021 C 
BRANCH  65  66
ATOM     66  C   UNL     1      11.669   3.049   7.802  1.00  0.00     0.116 C 
BRANCH  66  67
ATOM     67  N   UNL     1      10.530   2.479   8.480  1.00  0.00    -0.356 N 
ATOM     68  C   UNL     1       9.299   2.080   8.053  1.00  0.00     0.223 C 
ATOM     69  H   UNL     1      10.671   2.352   9.446  1.00  0.00     0.163 HD
ATOM     70  O   UNL     1       8.571   1.524   8.876  1.00  0.00    -0.275 OA
BRANCH  68  71
ATOM     71  C   UNL     1       8.746   2.301   6.697  1.00  0.00     0.086 C 
ATOM     72  C   UNL     1       9.334   2.851   5.436  1.00  0.00     0.023 C 
ATOM     73  C   UNL     1       9.104   1.363   5.555  1.00  0.00     0.032 C 
BRANCH  73  74
ATOM     74  C   UNL     1      10.270   0.398   5.591  1.00  0.00    -0.044 A 
ATOM     75  C   UNL     1      11.359   0.517   4.717  1.00  0.00     0.004 A 
ATOM     76  C   UNL     1      10.256  -0.731   6.421  1.00  0.00     0.004 A 
ATOM     77  C   UNL     1      12.362  -0.461   4.653  1.00  0.00     0.004 A 
ATOM     78  C   UNL     1      11.259  -1.712   6.353  1.00  0.00     0.004 A 
ATOM     79  C   UNL     1      12.328  -1.616   5.450  1.00  0.00    -0.045 A 
BRANCH  79  80
ATOM     80  C   UNL     1      13.387  -2.688   5.264  1.00  0.00     0.019 C 
ATOM     81  C   UNL     1      13.609  -3.828   6.227  1.00  0.00     0.009 C 
ATOM     82  C   UNL     1      12.948  -4.092   4.906  1.00  0.00     0.009 C 
ENDBRANCH  79  80
ENDBRANCH  73  74
ENDBRANCH  68  71
ENDBRANCH  66  67
ENDBRANCH  65  66
ENDBRANCH  64  65
ENDBRANCH   1  64
TORSDOF 15
