REMARK SMILES Cc1csc(C[NH2+]C[C@H]2CCC[C@H]2C(=O)NCCCCCCNC(=O)c2ccc(-c3c4nc(c(-c5c(F)cccc5F)c5ccc([nH]5)c(-c5c(F)cccc5F)c5nc(c(-c6c(F)cccc6F)c6ccc3[nH]6)C=C5)C=C4)cc2)n1
REMARK SMILES IDX 18 1 17 2 16 3 14 4 15 5 13 7 9 8 10 9 11 10 12 11 8 12 7 13
REMARK SMILES IDX 6 16 5 17 1 18 2 19 3 20 80 21 4 22 19 23 20 24 21 25 22 26
REMARK SMILES IDX 23 27 24 28 25 30 26 31 27 32 79 33 28 34 78 35 29 36 30 37
REMARK SMILES IDX 31 38 72 39 32 40 77 41 71 42 73 43 33 44 76 45 70 46 69 47
REMARK SMILES IDX 34 49 60 50 43 51 59 52 44 53 47 54 58 55 74 56 45 57 46 58
REMARK SMILES IDX 57 60 75 61 48 62 35 63 36 64 41 65 37 66 38 67 40 68 42 69
REMARK SMILES IDX 39 70 61 71 62 72 67 73 63 74 64 75 66 76 68 77 65 78 49 79
REMARK SMILES IDX 50 80 55 81 51 82 52 83 54 84 56 85 53 86
REMARK H PARENT 16 6 7 14 7 15 23 29 73 48 47 59
REMARK Flexibility Score: inf
ROOT
ATOM      1  C   UNL     1       4.532   2.407   2.052  1.00  0.00     0.021 C 
ENDROOT
BRANCH   1   2
ATOM      2  C   UNL     1       5.011   1.924   0.679  1.00  0.00     0.116 C 
BRANCH   2   3
ATOM      3  N   UNL     1       3.892   1.423  -0.098  1.00  0.00    -0.356 N 
ATOM      4  C   UNL     1       3.225   1.886  -1.182  1.00  0.00     0.223 C 
ATOM      5  O   UNL     1       2.196   1.270  -1.485  1.00  0.00    -0.275 OA
ATOM      6  H   UNL     1       3.545   0.564   0.233  1.00  0.00     0.163 HD
BRANCH   4   7
ATOM      7  C   UNL     1       3.647   3.082  -2.033  1.00  0.00     0.087 C 
ATOM      8  C   UNL     1       3.271   4.516  -1.583  1.00  0.00     0.057 C 
ATOM      9  C   UNL     1       4.154   5.354  -2.519  1.00  0.00     0.010 C 
ATOM     10  C   UNL     1       5.483   4.611  -2.539  1.00  0.00     0.001 C 
ATOM     11  C   UNL     1       5.107   3.131  -2.507  1.00  0.00     0.014 C 
BRANCH   8  12
ATOM     12  C   UNL     1       3.510   4.792  -0.095  1.00  0.00     0.265 C 
BRANCH  12  13
ATOM     13  N   UNL     1       3.502   6.170   0.356  1.00  0.00    -0.340 N 
ATOM     14  H   UNL     1       3.949   6.202   1.272  1.00  0.00     0.346 HD
ATOM     15  H   UNL     1       3.994   6.700  -0.363  1.00  0.00     0.346 HD
BRANCH  13  16
ATOM     16  C   UNL     1       2.185   6.789   0.477  1.00  0.00     0.329 C 
BRANCH  16  17
ATOM     17  C   UNL     1       2.344   8.157   1.095  1.00  0.00     0.147 A 
ATOM     18  C   UNL     1       3.378  10.148   3.909  1.00  0.00     0.067 C 
ATOM     19  C   UNL     1       2.909   9.719   2.568  1.00  0.00     0.049 A 
ATOM     20  C   UNL     1       2.688  10.523   1.467  1.00  0.00     0.090 A 
ATOM     21  N   UNL     1       2.680   8.372   2.353  1.00  0.00    -0.241 NA
ATOM     22  S   UNL     1       2.207   9.572   0.125  1.00  0.00    -0.121 S 
ENDBRANCH  16  17
ENDBRANCH  13  16
ENDBRANCH  12  13
ENDBRANCH   8  12
ENDBRANCH   4   7
ENDBRANCH   2   3
ENDBRANCH   1   2
BRANCH   1  23
ATOM     23  C   UNL     1       4.452   1.306   3.112  1.00  0.00     0.002 C 
BRANCH  23  24
ATOM     24  C   UNL     1       5.804   0.737   3.549  1.00  0.00     0.002 C 
BRANCH  24  25
ATOM     25  C   UNL     1       6.829   1.775   4.014  1.00  0.00     0.021 C 
BRANCH  25  26
ATOM     26  C   UNL     1       6.346   2.692   5.135  1.00  0.00     0.116 C 
BRANCH  26  27
ATOM     27  N   UNL     1       6.035   1.949   6.346  1.00  0.00    -0.352 N 
ATOM     28  C   UNL     1       6.594   2.048   7.595  1.00  0.00     0.251 C 
ATOM     29  H   UNL     1       5.319   1.279   6.256  1.00  0.00     0.163 HD
ATOM     30  O   UNL     1       6.371   1.192   8.443  1.00  0.00    -0.269 OA
BRANCH  28  31
ATOM     31  C   UNL     1       7.476   3.189   7.914  1.00  0.00     0.039 A 
ATOM     32  C   UNL     1       8.674   2.951   8.592  1.00  0.00     0.014 A 
ATOM     33  C   UNL     1       7.110   4.493   7.565  1.00  0.00     0.014 A 
ATOM     34  C   UNL     1       9.529   4.017   8.879  1.00  0.00     0.010 A 
ATOM     35  C   UNL     1       7.994   5.543   7.790  1.00  0.00     0.010 A 
ATOM     36  C   UNL     1       9.206   5.317   8.458  1.00  0.00    -0.014 A 
BRANCH  36  37
ATOM     37  C   UNL     1      10.113   6.460   8.729  1.00  0.00     0.031 A 
ATOM     38  C   UNL     1       9.672   7.570   9.641  1.00  0.00     0.074 A 
ATOM     39  C   UNL     1      11.306   6.527   8.109  1.00  0.00     0.049 A 
ATOM     40  N   UNL     1      10.289   8.682   9.951  1.00  0.00    -0.248 NA
ATOM     41  C   UNL     1       8.348   7.423  10.267  1.00  0.00     0.031 C 
ATOM     42  C   UNL     1      11.831   5.534   7.171  1.00  0.00     0.029 A 
ATOM     43  N   UNL     1      12.291   7.481   8.169  1.00  0.00    -0.354 N 
ATOM     44  C   UNL     1       9.425   9.370  10.794  1.00  0.00     0.074 A 
ATOM     45  C   UNL     1       8.219   8.578  10.901  1.00  0.00     0.031 C 
ATOM     46  C   UNL     1      13.052   5.917   6.764  1.00  0.00     0.029 A 
ATOM     47  C   UNL     1      13.380   7.197   7.382  1.00  0.00     0.049 A 
ATOM     48  H   UNL     1      12.224   8.291   8.725  1.00  0.00     0.167 HD
ATOM     49  C   UNL     1       9.627  10.544  11.439  1.00  0.00     0.037 A 
ATOM     50  C   UNL     1      14.513   7.895   7.179  1.00  0.00     0.037 A 
ATOM     51  C   UNL     1      10.836  11.319  11.346  1.00  0.00     0.049 A 
ATOM     52  C   UNL     1      14.711   9.201   7.898  1.00  0.00     0.074 A 
ATOM     53  C   UNL     1      11.160  12.495  11.998  1.00  0.00     0.029 A 
ATOM     54  N   UNL     1      11.921  10.992  10.546  1.00  0.00    -0.354 N 
ATOM     55  N   UNL     1      13.911   9.812   8.737  1.00  0.00    -0.248 NA
ATOM     56  C   UNL     1      15.973   9.910   7.645  1.00  0.00     0.031 C 
ATOM     57  C   UNL     1      12.425  12.902  11.562  1.00  0.00     0.029 A 
ATOM     58  C   UNL     1      12.909  11.955  10.675  1.00  0.00     0.049 A 
ATOM     59  H   UNL     1      11.981  10.194   9.973  1.00  0.00     0.167 HD
ATOM     60  C   UNL     1      14.583  10.960   9.137  1.00  0.00     0.074 A 
ATOM     61  C   UNL     1      15.860  10.954   8.454  1.00  0.00     0.031 C 
ATOM     62  C   UNL     1      14.179  11.929   9.994  1.00  0.00     0.037 A 
BRANCH  49  63
ATOM     63  C   UNL     1       8.509  11.054  12.303  1.00  0.00     0.057 A 
ATOM     64  C   UNL     1       8.153  10.420  13.501  1.00  0.00     0.134 A 
ATOM     65  C   UNL     1       7.789  12.199  11.940  1.00  0.00     0.134 A 
ATOM     66  F   UNL     1       8.794   9.312  13.900  1.00  0.00    -0.206 F 
ATOM     67  C   UNL     1       7.099  10.886  14.289  1.00  0.00     0.040 A 
ATOM     68  C   UNL     1       6.752  12.691  12.735  1.00  0.00     0.040 A 
ATOM     69  F   UNL     1       8.081  12.860  10.809  1.00  0.00    -0.206 F 
ATOM     70  C   UNL     1       6.398  12.029  13.908  1.00  0.00     0.006 A 
ENDBRANCH  49  63
BRANCH  50  71
ATOM     71  C   UNL     1      15.566   7.354   6.283  1.00  0.00     0.057 A 
ATOM     72  C   UNL     1      16.774   6.876   6.801  1.00  0.00     0.134 A 
ATOM     73  C   UNL     1      15.391   7.299   4.895  1.00  0.00     0.134 A 
ATOM     74  F   UNL     1      17.006   6.920   8.122  1.00  0.00    -0.206 F 
ATOM     75  C   UNL     1      17.779   6.376   5.972  1.00  0.00     0.040 A 
ATOM     76  C   UNL     1      16.378   6.779   4.056  1.00  0.00     0.040 A 
ATOM     77  F   UNL     1      14.252   7.735   4.337  1.00  0.00    -0.206 F 
ATOM     78  C   UNL     1      17.579   6.322   4.594  1.00  0.00     0.006 A 
ENDBRANCH  50  71
BRANCH  62  79
ATOM     79  C   UNL     1      15.145  13.043  10.273  1.00  0.00     0.057 A 
ATOM     80  C   UNL     1      15.423  14.037   9.327  1.00  0.00     0.134 A 
ATOM     81  C   UNL     1      15.776  13.140  11.520  1.00  0.00     0.134 A 
ATOM     82  F   UNL     1      14.862  13.993   8.109  1.00  0.00    -0.206 F 
ATOM     83  C   UNL     1      16.312  15.078   9.604  1.00  0.00     0.040 A 
ATOM     84  C   UNL     1      16.645  14.190  11.818  1.00  0.00     0.040 A 
ATOM     85  F   UNL     1      15.546  12.225  12.473  1.00  0.00    -0.206 F 
ATOM     86  C   UNL     1      16.920  15.160  10.856  1.00  0.00     0.006 A 
ENDBRANCH  62  79
ENDBRANCH  36  37
ENDBRANCH  28  31
ENDBRANCH  26  27
ENDBRANCH  25  26
ENDBRANCH  24  25
ENDBRANCH  23  24
ENDBRANCH   1  23
TORSDOF 17
