REMARK SMILES Cc1cc(C(=O)NCCCCCCNC(=O)c2ccc(-c3c4nc(c(-c5c(F)cccc5F)c5ccc([nH]5)c(-c5c(F)cccc5F)c5nc(c(-c6c(F)cccc6F)c6ccc3[nH]6)C=C5)C=C4)cc2)ccc1NS(=O)(=O)c1c(F)cccc1F
REMARK SMILES IDX 10 1 9 2 8 3 7 4 5 5 6 6 4 8 1 9 2 10 3 11 73 12 72 13 71 14
REMARK SMILES IDX 74 15 75 17 76 18 77 19 78 20 79 21 84 22 80 23 81 24 83 25
REMARK SMILES IDX 85 26 82 27 11 28 12 29 13 30 14 31 15 32 16 34 17 35 18 36
REMARK SMILES IDX 70 37 19 38 69 39 20 40 21 41 22 42 63 43 23 44 68 45 62 46
REMARK SMILES IDX 64 47 24 48 67 49 61 50 60 51 25 53 51 54 34 55 50 56 35 57
REMARK SMILES IDX 38 58 49 59 65 60 36 61 37 62 48 64 66 65 39 66 26 67 27 68
REMARK SMILES IDX 32 69 28 70 29 71 31 72 33 73 30 74 52 75 53 76 58 77 54 78
REMARK SMILES IDX 55 79 57 80 59 81 56 82 40 83 41 84 46 85 42 86 43 87 45 88
REMARK SMILES IDX 47 89 44 90
REMARK H PARENT 7 7 74 16 14 33 64 52 38 63
REMARK Flexibility Score: inf
ROOT
ATOM      1  C   UNL     1      -5.981  -2.780  -1.065  1.00  0.00     0.002 C 
ENDROOT
BRANCH   1   2
ATOM      2  C   UNL     1      -4.949  -1.649  -1.157  1.00  0.00     0.021 C 
BRANCH   2   3
ATOM      3  C   UNL     1      -3.955  -1.501  -0.003  1.00  0.00     0.116 C 
BRANCH   3   4
ATOM      4  N   UNL     1      -2.970  -2.563   0.077  1.00  0.00    -0.352 N 
ATOM      5  C   UNL     1      -1.616  -2.526   0.329  1.00  0.00     0.251 C 
ATOM      6  O   UNL     1      -0.988  -3.583   0.316  1.00  0.00    -0.269 OA
ATOM      7  H   UNL     1      -3.332  -3.466  -0.074  1.00  0.00     0.163 HD
BRANCH   5   8
ATOM      8  C   UNL     1      -0.874  -1.249   0.531  1.00  0.00     0.040 A 
ATOM      9  C   UNL     1       2.550   0.069  -0.448  1.00  0.00     0.046 C 
ATOM     10  C   UNL     1       1.109   0.067  -0.014  1.00  0.00    -0.026 A 
ATOM     11  C   UNL     1       0.423  -1.160   0.012  1.00  0.00     0.019 A 
ATOM     12  C   UNL     1       0.433   1.223   0.405  1.00  0.00     0.052 A 
ATOM     13  C   UNL     1      -0.723   1.081   1.174  1.00  0.00     0.028 A 
ATOM     14  C   UNL     1      -1.381  -0.156   1.232  1.00  0.00     0.016 A 
BRANCH  12  15
ATOM     15  N   UNL     1       0.870   2.473  -0.129  1.00  0.00    -0.279 N 
ATOM     16  H   UNL     1       1.672   2.443  -0.700  1.00  0.00     0.180 HD
BRANCH  15  17
ATOM     17  S   UNL     1       0.186   3.980   0.097  1.00  0.00     0.267 S 
ATOM     18  O   UNL     1       0.353   4.293   1.496  1.00  0.00    -0.201 OA
ATOM     19  O   UNL     1       0.761   4.819  -0.940  1.00  0.00    -0.201 OA
BRANCH  17  20
ATOM     20  C   UNL     1      -1.534   3.904  -0.231  1.00  0.00     0.158 A 
ATOM     21  C   UNL     1      -2.349   4.824   0.421  1.00  0.00     0.146 A 
ATOM     22  C   UNL     1      -2.123   2.901  -0.986  1.00  0.00     0.146 A 
ATOM     23  F   UNL     1      -1.828   5.866   1.082  1.00  0.00    -0.205 F 
ATOM     24  C   UNL     1      -3.736   4.691   0.403  1.00  0.00     0.041 A 
ATOM     25  C   UNL     1      -3.511   2.740  -0.987  1.00  0.00     0.041 A 
ATOM     26  F   UNL     1      -1.393   2.037  -1.702  1.00  0.00    -0.205 F 
ATOM     27  C   UNL     1      -4.321   3.625  -0.275  1.00  0.00     0.006 A 
ENDBRANCH  17  20
ENDBRANCH  15  17
ENDBRANCH  12  15
ENDBRANCH   5   8
ENDBRANCH   3   4
ENDBRANCH   2   3
ENDBRANCH   1   2
BRANCH   1  28
ATOM     28  C   UNL     1      -6.809  -2.891   0.226  1.00  0.00     0.002 C 
BRANCH  28  29
ATOM     29  C   UNL     1      -7.416  -1.599   0.774  1.00  0.00     0.021 C 
BRANCH  29  30
ATOM     30  C   UNL     1      -8.526  -0.995  -0.076  1.00  0.00     0.116 C 
BRANCH  30  31
ATOM     31  N   UNL     1      -9.873  -1.412   0.298  1.00  0.00    -0.352 N 
ATOM     32  C   UNL     1     -11.086  -1.107  -0.296  1.00  0.00     0.251 C 
ATOM     33  H   UNL     1      -9.928  -1.997   1.088  1.00  0.00     0.163 HD
ATOM     34  O   UNL     1     -12.130  -1.527   0.192  1.00  0.00    -0.269 OA
BRANCH  32  35
ATOM     35  C   UNL     1     -11.113  -0.402  -1.602  1.00  0.00     0.039 A 
ATOM     36  C   UNL     1     -11.954  -0.912  -2.599  1.00  0.00     0.014 A 
ATOM     37  C   UNL     1     -10.170   0.571  -1.917  1.00  0.00     0.014 A 
ATOM     38  C   UNL     1     -11.651  -0.669  -3.936  1.00  0.00     0.010 A 
ATOM     39  C   UNL     1      -9.800   0.728  -3.236  1.00  0.00     0.010 A 
ATOM     40  C   UNL     1     -10.492   0.042  -4.236  1.00  0.00    -0.014 A 
BRANCH  40  41
ATOM     41  C   UNL     1      -9.875   0.061  -5.554  1.00  0.00     0.031 A 
ATOM     42  C   UNL     1     -10.037   1.238  -6.425  1.00  0.00     0.074 A 
ATOM     43  C   UNL     1      -9.069  -0.961  -5.916  1.00  0.00     0.049 A 
ATOM     44  N   UNL     1      -9.803   1.248  -7.691  1.00  0.00    -0.248 NA
ATOM     45  C   UNL     1     -10.520   2.515  -5.916  1.00  0.00     0.031 C 
ATOM     46  C   UNL     1      -8.154  -1.024  -7.052  1.00  0.00     0.029 A 
ATOM     47  N   UNL     1      -9.103  -2.273  -5.427  1.00  0.00    -0.354 N 
ATOM     48  C   UNL     1      -9.874   2.550  -8.126  1.00  0.00     0.074 A 
ATOM     49  C   UNL     1     -10.357   3.297  -6.987  1.00  0.00     0.031 C 
ATOM     50  C   UNL     1      -7.956  -2.313  -7.372  1.00  0.00     0.029 A 
ATOM     51  C   UNL     1      -8.854  -3.102  -6.547  1.00  0.00     0.049 A 
ATOM     52  H   UNL     1      -9.265  -2.559  -4.499  1.00  0.00     0.167 HD
ATOM     53  C   UNL     1      -9.419   2.856  -9.376  1.00  0.00     0.037 A 
ATOM     54  C   UNL     1      -9.833  -3.932  -7.016  1.00  0.00     0.037 A 
ATOM     55  C   UNL     1      -9.049   1.648 -10.111  1.00  0.00     0.049 A 
ATOM     56  C   UNL     1     -10.300  -3.617  -8.423  1.00  0.00     0.074 A 
ATOM     57  C   UNL     1      -7.862   0.962 -10.314  1.00  0.00     0.029 A 
ATOM     58  N   UNL     1     -10.057   0.788 -10.506  1.00  0.00    -0.354 N 
ATOM     59  N   UNL     1      -9.910  -2.583  -9.117  1.00  0.00    -0.248 NA
ATOM     60  C   UNL     1     -11.320  -4.402  -9.123  1.00  0.00     0.031 C 
ATOM     61  C   UNL     1      -8.182  -0.348 -10.776  1.00  0.00     0.029 A 
ATOM     62  C   UNL     1      -9.559  -0.447 -10.870  1.00  0.00     0.049 A 
ATOM     63  H   UNL     1     -11.012   1.027 -10.524  1.00  0.00     0.167 HD
ATOM     64  C   UNL     1     -10.624  -2.524 -10.283  1.00  0.00     0.074 A 
ATOM     65  C   UNL     1     -11.492  -3.685 -10.246  1.00  0.00     0.031 C 
ATOM     66  C   UNL     1     -10.493  -1.513 -11.186  1.00  0.00     0.037 A 
BRANCH  53  67
ATOM     67  C   UNL     1      -9.114   4.254  -9.855  1.00  0.00     0.057 A 
ATOM     68  C   UNL     1      -8.116   4.473 -10.824  1.00  0.00     0.134 A 
ATOM     69  C   UNL     1      -9.725   5.427  -9.380  1.00  0.00     0.134 A 
ATOM     70  F   UNL     1      -7.502   3.457 -11.444  1.00  0.00    -0.206 F 
ATOM     71  C   UNL     1      -7.688   5.753 -11.204  1.00  0.00     0.040 A 
ATOM     72  C   UNL     1      -9.268   6.713  -9.705  1.00  0.00     0.040 A 
ATOM     73  F   UNL     1     -10.831   5.391  -8.628  1.00  0.00    -0.206 F 
ATOM     74  C   UNL     1      -8.237   6.880 -10.614  1.00  0.00     0.006 A 
ENDBRANCH  53  67
BRANCH  54  75
ATOM     75  C   UNL     1     -10.702  -4.457  -5.925  1.00  0.00     0.057 A 
ATOM     76  C   UNL     1     -10.104  -5.199  -4.888  1.00  0.00     0.134 A 
ATOM     77  C   UNL     1     -11.972  -3.930  -5.679  1.00  0.00     0.134 A 
ATOM     78  F   UNL     1      -8.886  -5.739  -5.061  1.00  0.00    -0.206 F 
ATOM     79  C   UNL     1     -10.678  -5.286  -3.619  1.00  0.00     0.040 A 
ATOM     80  C   UNL     1     -12.569  -4.037  -4.418  1.00  0.00     0.040 A 
ATOM     81  F   UNL     1     -12.603  -3.200  -6.609  1.00  0.00    -0.206 F 
ATOM     82  C   UNL     1     -11.900  -4.671  -3.372  1.00  0.00     0.006 A 
ENDBRANCH  54  75
BRANCH  66  83
ATOM     83  C   UNL     1     -11.268  -1.475 -12.464  1.00  0.00     0.057 A 
ATOM     84  C   UNL     1     -11.282  -2.559 -13.351  1.00  0.00     0.134 A 
ATOM     85  C   UNL     1     -11.923  -0.309 -12.896  1.00  0.00     0.134 A 
ATOM     86  F   UNL     1     -10.655  -3.705 -13.045  1.00  0.00    -0.206 F 
ATOM     87  C   UNL     1     -11.930  -2.495 -14.588  1.00  0.00     0.040 A 
ATOM     88  C   UNL     1     -12.535  -0.216 -14.147  1.00  0.00     0.040 A 
ATOM     89  F   UNL     1     -12.009   0.776 -12.111  1.00  0.00    -0.206 F 
ATOM     90  C   UNL     1     -12.546  -1.316 -14.996  1.00  0.00     0.006 A 
ENDBRANCH  66  83
ENDBRANCH  40  41
ENDBRANCH  32  35
ENDBRANCH  30  31
ENDBRANCH  29  30
ENDBRANCH  28  29
ENDBRANCH   1  28
TORSDOF 16
