REMARK SMILES O=C(CSc1ccc2ccccc2n1)NCc1ccc(C(=O)NCCCCCCNC(=O)c2ccc(-c3c4nc(c(-c5c(F)cccc5F)c5ccc([nH]5)c(-c5c(F)cccc5F)c5nc(c(-c6c(F)cccc6F)c6ccc3[nH]6)C=C5)C=C4)cc2)cc1
REMARK SMILES IDX 25 1 24 2 23 3 21 4 22 5 20 7 17 8 18 9 88 10 19 11 87 12
REMARK SMILES IDX 16 13 15 14 1 15 2 16 3 18 4 19 5 20 6 21 14 22 7 23 13 24
REMARK SMILES IDX 8 25 12 26 9 27 11 28 10 29 26 30 27 31 28 32 29 33 30 34
REMARK SMILES IDX 31 35 32 37 33 38 34 39 86 40 35 41 85 42 36 43 37 44 38 45
REMARK SMILES IDX 79 46 39 47 84 48 78 49 80 50 40 51 83 52 77 53 76 54 41 56
REMARK SMILES IDX 67 57 50 58 66 59 51 60 54 61 65 62 81 63 52 64 53 65 64 67
REMARK SMILES IDX 82 68 55 69 42 70 43 71 48 72 44 73 45 74 47 75 49 76 46 77
REMARK SMILES IDX 68 78 69 79 74 80 70 81 71 82 73 83 75 84 72 85 56 86 57 87
REMARK SMILES IDX 62 88 58 89 59 90 61 91 63 92 60 93
REMARK H PARENT 23 6 15 17 30 36 80 55 54 66
REMARK Flexibility Score: inf
ROOT
ATOM      1  C   UNL     1       2.772   3.631   8.647  1.00  0.00     0.021 C 
ENDROOT
BRANCH   1   2
ATOM      2  C   UNL     1       3.857   2.809   7.947  1.00  0.00     0.116 C 
BRANCH   2   3
ATOM      3  N   UNL     1       3.529   1.398   8.009  1.00  0.00    -0.352 N 
ATOM      4  C   UNL     1       3.049   0.516   7.078  1.00  0.00     0.251 C 
ATOM      5  O   UNL     1       2.877  -0.650   7.436  1.00  0.00    -0.269 OA
ATOM      6  H   UNL     1       3.682   0.995   8.895  1.00  0.00     0.163 HD
BRANCH   4   7
ATOM      7  C   UNL     1       2.789   0.881   5.658  1.00  0.00     0.039 A 
ATOM      8  C   UNL     1       2.391   1.395   2.901  1.00  0.00    -0.029 A 
ATOM      9  C   UNL     1       2.728   0.112   3.345  1.00  0.00     0.006 A 
ATOM     10  C   UNL     1       2.192   2.400   3.861  1.00  0.00     0.006 A 
ATOM     11  C   UNL     1       2.937  -0.137   4.706  1.00  0.00     0.014 A 
ATOM     12  C   UNL     1       2.363   2.138   5.226  1.00  0.00     0.014 A 
BRANCH   8  13
ATOM     13  C   UNL     1       2.137   1.716   1.447  1.00  0.00     0.151 C 
BRANCH  13  14
ATOM     14  N   UNL     1       2.784   0.810   0.526  1.00  0.00    -0.351 N 
ATOM     15  O   UNL     1       0.847   0.018  -0.404  1.00  0.00    -0.274 OA
ATOM     16  C   UNL     1       2.074   0.057  -0.386  1.00  0.00     0.230 C 
ATOM     17  H   UNL     1       3.765   0.728   0.550  1.00  0.00     0.163 HD
BRANCH  16  18
ATOM     18  C   UNL     1       2.924  -0.799  -1.312  1.00  0.00     0.176 C 
BRANCH  18  19
ATOM     19  S   UNL     1       4.248   0.177  -2.098  1.00  0.00    -0.096 SA
BRANCH  19  20
ATOM     20  C   UNL     1       3.246   1.321  -3.027  1.00  0.00     0.097 A 
ATOM     21  C   UNL     1       3.525   2.676  -2.954  1.00  0.00     0.036 A 
ATOM     22  N   UNL     1       2.270   0.807  -3.805  1.00  0.00    -0.241 NA
ATOM     23  C   UNL     1       2.756   3.552  -3.711  1.00  0.00     0.013 A 
ATOM     24  C   UNL     1       1.531   1.655  -4.546  1.00  0.00     0.072 A 
ATOM     25  C   UNL     1       1.742   3.051  -4.532  1.00  0.00     0.000 A 
ATOM     26  C   UNL     1       0.528   1.159  -5.369  1.00  0.00     0.029 A 
ATOM     27  C   UNL     1       0.956   3.900  -5.331  1.00  0.00     0.010 A 
ATOM     28  C   UNL     1      -0.253   1.999  -6.171  1.00  0.00     0.002 A 
ATOM     29  C   UNL     1      -0.038   3.372  -6.152  1.00  0.00     0.001 A 
ENDBRANCH  19  20
ENDBRANCH  18  19
ENDBRANCH  16  18
ENDBRANCH  13  14
ENDBRANCH   8  13
ENDBRANCH   4   7
ENDBRANCH   2   3
ENDBRANCH   1   2
BRANCH   1  30
ATOM     30  C   UNL     1       2.878   3.598  10.178  1.00  0.00     0.002 C 
BRANCH  30  31
ATOM     31  C   UNL     1       4.147   4.240  10.752  1.00  0.00     0.002 C 
BRANCH  31  32
ATOM     32  C   UNL     1       4.391   5.689  10.322  1.00  0.00     0.021 C 
BRANCH  32  33
ATOM     33  C   UNL     1       3.289   6.662  10.731  1.00  0.00     0.116 C 
BRANCH  33  34
ATOM     34  N   UNL     1       3.203   6.802  12.176  1.00  0.00    -0.352 N 
ATOM     35  C   UNL     1       3.309   7.931  12.948  1.00  0.00     0.251 C 
ATOM     36  H   UNL     1       3.047   5.966  12.672  1.00  0.00     0.163 HD
ATOM     37  O   UNL     1       3.440   7.840  14.164  1.00  0.00    -0.269 OA
BRANCH  35  38
ATOM     38  C   UNL     1       3.277   9.264  12.310  1.00  0.00     0.039 A 
ATOM     39  C   UNL     1       4.202  10.231  12.714  1.00  0.00     0.014 A 
ATOM     40  C   UNL     1       2.324   9.565  11.333  1.00  0.00     0.014 A 
ATOM     41  C   UNL     1       4.206  11.483  12.098  1.00  0.00     0.010 A 
ATOM     42  C   UNL     1       2.371  10.791  10.674  1.00  0.00     0.010 A 
ATOM     43  C   UNL     1       3.310  11.763  11.053  1.00  0.00    -0.014 A 
BRANCH  43  44
ATOM     44  C   UNL     1       3.339  13.066  10.343  1.00  0.00     0.031 A 
ATOM     45  C   UNL     1       2.169  14.004  10.437  1.00  0.00     0.074 A 
ATOM     46  C   UNL     1       4.392  13.373   9.562  1.00  0.00     0.049 A 
ATOM     47  N   UNL     1       1.977  15.150   9.834  1.00  0.00    -0.248 NA
ATOM     48  C   UNL     1       1.055  13.588  11.304  1.00  0.00     0.031 C 
ATOM     49  C   UNL     1       5.568  12.527   9.355  1.00  0.00     0.029 A 
ATOM     50  N   UNL     1       4.637  14.479   8.787  1.00  0.00    -0.354 N 
ATOM     51  C   UNL     1       0.720  15.583  10.236  1.00  0.00     0.074 A 
ATOM     52  C   UNL     1       0.174  14.554  11.095  1.00  0.00     0.031 C 
ATOM     53  C   UNL     1       6.418  13.152   8.524  1.00  0.00     0.029 A 
ATOM     54  C   UNL     1       5.832  14.424   8.113  1.00  0.00     0.049 A 
ATOM     55  H   UNL     1       4.015  15.239   8.720  1.00  0.00     0.167 HD
ATOM     56  C   UNL     1       0.088  16.742   9.934  1.00  0.00     0.037 A 
ATOM     57  C   UNL     1       6.390  15.297   7.254  1.00  0.00     0.037 A 
ATOM     58  C   UNL     1       0.644  17.773   9.098  1.00  0.00     0.049 A 
ATOM     59  C   UNL     1       5.665  16.574   6.930  1.00  0.00     0.074 A 
ATOM     60  C   UNL     1       0.108  19.009   8.781  1.00  0.00     0.029 A 
ATOM     61  N   UNL     1       1.865  17.688   8.446  1.00  0.00    -0.354 N 
ATOM     62  N   UNL     1       4.505  16.999   7.367  1.00  0.00    -0.248 NA
ATOM     63  C   UNL     1       6.330  17.494   5.997  1.00  0.00     0.031 C 
ATOM     64  C   UNL     1       0.986  19.654   7.903  1.00  0.00     0.029 A 
ATOM     65  C   UNL     1       2.089  18.839   7.709  1.00  0.00     0.049 A 
ATOM     66  H   UNL     1       2.481  16.921   8.498  1.00  0.00     0.167 HD
ATOM     67  C   UNL     1       4.312  18.245   6.784  1.00  0.00     0.074 A 
ATOM     68  C   UNL     1       5.482  18.513   5.973  1.00  0.00     0.031 C 
ATOM     69  C   UNL     1       3.261  19.091   6.910  1.00  0.00     0.037 A 
BRANCH  56  70
ATOM     70  C   UNL     1      -1.279  16.955  10.516  1.00  0.00     0.057 A 
ATOM     71  C   UNL     1      -1.470  17.196  11.884  1.00  0.00     0.134 A 
ATOM     72  C   UNL     1      -2.415  16.951   9.697  1.00  0.00     0.134 A 
ATOM     73  F   UNL     1      -0.424  17.202  12.725  1.00  0.00    -0.206 F 
ATOM     74  C   UNL     1      -2.743  17.398  12.420  1.00  0.00     0.040 A 
ATOM     75  C   UNL     1      -3.691  17.177  10.217  1.00  0.00     0.040 A 
ATOM     76  F   UNL     1      -2.304  16.732   8.379  1.00  0.00    -0.206 F 
ATOM     77  C   UNL     1      -3.857  17.395  11.584  1.00  0.00     0.006 A 
ENDBRANCH  56  70
BRANCH  57  78
ATOM     78  C   UNL     1       7.716  15.006   6.655  1.00  0.00     0.057 A 
ATOM     79  C   UNL     1       8.851  15.732   7.033  1.00  0.00     0.134 A 
ATOM     80  C   UNL     1       7.882  14.001   5.695  1.00  0.00     0.134 A 
ATOM     81  F   UNL     1       8.752  16.719   7.935  1.00  0.00    -0.206 F 
ATOM     82  C   UNL     1      10.101  15.483   6.464  1.00  0.00     0.040 A 
ATOM     83  C   UNL     1       9.130  13.725   5.135  1.00  0.00     0.040 A 
ATOM     84  F   UNL     1       6.834  13.265   5.297  1.00  0.00    -0.206 F 
ATOM     85  C   UNL     1      10.244  14.473   5.515  1.00  0.00     0.006 A 
ENDBRANCH  57  78
BRANCH  69  86
ATOM     86  C   UNL     1       3.342  20.397   6.177  1.00  0.00     0.057 A 
ATOM     87  C   UNL     1       3.198  20.474   4.786  1.00  0.00     0.134 A 
ATOM     88  C   UNL     1       3.532  21.596   6.875  1.00  0.00     0.134 A 
ATOM     89  F   UNL     1       3.028  19.360   4.058  1.00  0.00    -0.206 F 
ATOM     90  C   UNL     1       3.261  21.695   4.113  1.00  0.00     0.040 A 
ATOM     91  C   UNL     1       3.571  22.826   6.217  1.00  0.00     0.040 A 
ATOM     92  F   UNL     1       3.669  21.593   8.210  1.00  0.00    -0.206 F 
ATOM     93  C   UNL     1       3.441  22.876   4.831  1.00  0.00     0.006 A 
ENDBRANCH  69  86
ENDBRANCH  43  44
ENDBRANCH  35  38
ENDBRANCH  33  34
ENDBRANCH  32  33
ENDBRANCH  31  32
ENDBRANCH  30  31
ENDBRANCH   1  30
TORSDOF 18
