REMARK SMILES CCCCCCNC(=O)Oc1cccc(-c2ccc([C@@H](C)C(=O)NCCCCCCNC(=O)c3ccc(-c4c5nc(c(-c6c(F)cccc6F)c6ccc([nH]6)c(-c6c(F)cccc6F)c6nc(c(-c7c(F)cccc7F)c7ccc4[nH]7)C=C6)C=C5)cc3)cc2O)c1
REMARK SMILES IDX 22 1 23 2 24 3 20 5 21 6 19 7 16 8 17 9 89 10 18 11 88 12
REMARK SMILES IDX 15 13 11 14 12 15 91 16 13 17 14 18 10 19 8 20 7 21 9 23
REMARK SMILES IDX 6 24 5 25 4 26 3 27 2 28 1 29 90 30 25 32 26 33 27 34 28 35
REMARK SMILES IDX 29 36 30 37 31 38 32 39 33 41 34 42 35 43 87 44 36 45 86 46
REMARK SMILES IDX 37 47 38 48 39 49 80 50 40 51 85 52 79 53 81 54 41 55 84 56
REMARK SMILES IDX 78 57 77 58 42 60 68 61 51 62 67 63 52 64 55 65 66 66 82 67
REMARK SMILES IDX 53 68 54 69 65 71 83 72 56 73 43 74 44 75 49 76 45 77 46 78
REMARK SMILES IDX 48 79 50 80 47 81 69 82 70 83 75 84 71 85 72 86 74 87 76 88
REMARK SMILES IDX 73 89 57 90 58 91 63 92 59 93 60 94 62 95 64 96 61 97
REMARK H PARENT 24 4 7 22 90 31 31 40 81 59 55 70
REMARK Flexibility Score: inf
ROOT
ATOM      1  C   UNL     1      -3.846 -13.491   4.424  1.00  0.00     0.227 C 
ATOM      2  O   UNL     1      -2.916 -13.318   5.222  1.00  0.00    -0.274 OA
ATOM      3  N   UNL     1      -3.692 -14.509   3.535  1.00  0.00    -0.356 N 
ATOM      4  H   UNL     1      -2.876 -15.043   3.672  1.00  0.00     0.163 HD
ENDROOT
BRANCH   1   5
ATOM      5  C   UNL     1      -5.095 -12.601   4.498  1.00  0.00     0.105 C 
ATOM      6  C   UNL     1      -6.389 -13.361   4.790  1.00  0.00     0.023 C 
BRANCH   5   7
ATOM      7  C   UNL     1      -5.184 -11.556   3.396  1.00  0.00    -0.032 A 
ATOM      8  C   UNL     1      -5.255  -9.544   1.351  1.00  0.00     0.024 A 
ATOM      9  C   UNL     1      -5.781 -10.832   1.148  1.00  0.00     0.013 A 
ATOM     10  C   UNL     1      -4.728  -9.285   2.628  1.00  0.00     0.123 A 
ATOM     11  C   UNL     1      -5.785 -11.800   2.159  1.00  0.00     0.005 A 
ATOM     12  C   UNL     1      -4.654 -10.277   3.614  1.00  0.00     0.051 A 
BRANCH   8  13
ATOM     13  C   UNL     1      -5.284  -8.558   0.244  1.00  0.00    -0.011 A 
ATOM     14  C   UNL     1      -4.275  -6.756  -1.040  1.00  0.00     0.133 A 
ATOM     15  C   UNL     1      -5.395  -6.665  -1.861  1.00  0.00     0.047 A 
ATOM     16  C   UNL     1      -4.202  -7.697  -0.010  1.00  0.00     0.056 A 
ATOM     17  C   UNL     1      -6.460  -7.531  -1.650  1.00  0.00     0.004 A 
ATOM     18  C   UNL     1      -6.409  -8.454  -0.601  1.00  0.00     0.009 A 
BRANCH  14  19
ATOM     19  O   UNL     1      -3.308  -5.748  -1.190  1.00  0.00    -0.410 OA
BRANCH  19  20
ATOM     20  C   UNL     1      -1.965  -6.084  -1.251  1.00  0.00     0.412 C 
ATOM     21  N   UNL     1      -1.147  -4.987  -1.234  1.00  0.00    -0.321 N 
ATOM     22  H   UNL     1      -0.179  -5.157  -1.302  1.00  0.00     0.167 HD
ATOM     23  O   UNL     1      -1.510  -7.218  -1.324  1.00  0.00    -0.224 OA
BRANCH  21  24
ATOM     24  C   UNL     1      -1.560  -3.602  -1.126  1.00  0.00     0.119 C 
BRANCH  24  25
ATOM     25  C   UNL     1      -0.971  -2.921   0.110  1.00  0.00     0.021 C 
BRANCH  25  26
ATOM     26  C   UNL     1       0.557  -2.800   0.110  1.00  0.00     0.002 C 
BRANCH  26  27
ATOM     27  C   UNL     1       1.161  -2.054  -1.085  1.00  0.00    -0.000 C 
BRANCH  27  28
ATOM     28  C   UNL     1       0.665  -0.619  -1.282  1.00  0.00    -0.003 C 
ATOM     29  C   UNL     1       1.017   0.302  -0.125  1.00  0.00     0.004 C 
ENDBRANCH  27  28
ENDBRANCH  26  27
ENDBRANCH  25  26
ENDBRANCH  24  25
ENDBRANCH  21  24
ENDBRANCH  19  20
ENDBRANCH  14  19
ENDBRANCH   8  13
BRANCH  10  30
ATOM     30  O   UNL     1      -4.297  -8.044   3.020  1.00  0.00    -0.507 OA
ATOM     31  H   UNL     1      -4.317  -7.328   2.415  1.00  0.00     0.293 HD
ENDBRANCH  10  30
ENDBRANCH   5   7
ENDBRANCH   1   5
BRANCH   3  32
ATOM     32  C   UNL     1      -4.507 -14.950   2.424  1.00  0.00     0.116 C 
BRANCH  32  33
ATOM     33  C   UNL     1      -3.948 -14.465   1.085  1.00  0.00     0.021 C 
BRANCH  33  34
ATOM     34  C   UNL     1      -2.935 -15.425   0.452  1.00  0.00     0.002 C 
BRANCH  34  35
ATOM     35  C   UNL     1      -3.497 -16.799   0.060  1.00  0.00     0.002 C 
BRANCH  35  36
ATOM     36  C   UNL     1      -4.718 -16.774  -0.864  1.00  0.00     0.021 C 
BRANCH  36  37
ATOM     37  C   UNL     1      -4.490 -16.090  -2.210  1.00  0.00     0.116 C 
BRANCH  37  38
ATOM     38  N   UNL     1      -3.490 -16.783  -3.006  1.00  0.00    -0.352 N 
ATOM     39  C   UNL     1      -3.603 -17.377  -4.237  1.00  0.00     0.251 C 
ATOM     40  H   UNL     1      -2.595 -16.833  -2.599  1.00  0.00     0.163 HD
ATOM     41  O   UNL     1      -2.712 -18.113  -4.649  1.00  0.00    -0.269 OA
BRANCH  39  42
ATOM     42  C   UNL     1      -4.801 -17.141  -5.072  1.00  0.00     0.039 A 
ATOM     43  C   UNL     1      -5.385 -18.224  -5.737  1.00  0.00     0.014 A 
ATOM     44  C   UNL     1      -5.323 -15.855  -5.234  1.00  0.00     0.014 A 
ATOM     45  C   UNL     1      -6.524 -18.025  -6.520  1.00  0.00     0.010 A 
ATOM     46  C   UNL     1      -6.494 -15.668  -5.966  1.00  0.00     0.010 A 
ATOM     47  C   UNL     1      -7.104 -16.750  -6.619  1.00  0.00    -0.014 A 
BRANCH  47  48
ATOM     48  C   UNL     1      -8.350 -16.529  -7.396  1.00  0.00     0.031 A 
ATOM     49  C   UNL     1      -8.333 -15.659  -8.624  1.00  0.00     0.074 A 
ATOM     50  C   UNL     1      -9.511 -17.049  -6.953  1.00  0.00     0.049 A 
ATOM     51  N   UNL     1      -9.331 -15.276  -9.378  1.00  0.00    -0.248 NA
ATOM     52  C   UNL     1      -7.026 -15.129  -9.043  1.00  0.00     0.031 C 
ATOM     53  C   UNL     1      -9.668 -17.865  -5.747  1.00  0.00     0.029 A 
ATOM     54  N   UNL     1     -10.785 -16.951  -7.455  1.00  0.00    -0.354 N 
ATOM     55  C   UNL     1      -8.779 -14.444 -10.344  1.00  0.00     0.074 A 
ATOM     56  C   UNL     1      -7.363 -14.348 -10.060  1.00  0.00     0.031 C 
ATOM     57  C   UNL     1     -10.961 -18.197  -5.606  1.00  0.00     0.029 A 
ATOM     58  C   UNL     1     -11.729 -17.592  -6.690  1.00  0.00     0.049 A 
ATOM     59  H   UNL     1     -11.002 -16.466  -8.284  1.00  0.00     0.167 HD
ATOM     60  C   UNL     1      -9.394 -13.830 -11.382  1.00  0.00     0.037 A 
ATOM     61  C   UNL     1     -13.065 -17.672  -6.838  1.00  0.00     0.037 A 
ATOM     62  C   UNL     1     -10.794 -13.961 -11.688  1.00  0.00     0.049 A 
ATOM     63  C   UNL     1     -13.717 -17.000  -8.014  1.00  0.00     0.074 A 
ATOM     64  C   UNL     1     -11.491 -13.448 -12.768  1.00  0.00     0.029 A 
ATOM     65  N   UNL     1     -11.710 -14.657 -10.914  1.00  0.00    -0.354 N 
ATOM     66  N   UNL     1     -13.168 -16.282  -8.964  1.00  0.00    -0.248 NA
ATOM     67  C   UNL     1     -15.174 -17.154  -8.144  1.00  0.00     0.031 C 
ATOM     68  C   UNL     1     -12.837 -13.799 -12.627  1.00  0.00     0.029 A 
ATOM     69  C   UNL     1     -12.970 -14.566 -11.481  1.00  0.00     0.049 A 
ATOM     70  H   UNL     1     -11.496 -15.143 -10.085  1.00  0.00     0.167 HD
ATOM     71  C   UNL     1     -14.204 -15.923  -9.816  1.00  0.00     0.074 A 
ATOM     72  C   UNL     1     -15.412 -16.514  -9.280  1.00  0.00     0.031 C 
ATOM     73  C   UNL     1     -14.160 -15.170 -10.941  1.00  0.00     0.037 A 
BRANCH  60  74
ATOM     74  C   UNL     1      -8.559 -12.961 -12.276  1.00  0.00     0.057 A 
ATOM     75  C   UNL     1      -7.643 -13.503 -13.186  1.00  0.00     0.134 A 
ATOM     76  C   UNL     1      -8.724 -11.570 -12.274  1.00  0.00     0.134 A 
ATOM     77  F   UNL     1      -7.432 -14.827 -13.231  1.00  0.00    -0.206 F 
ATOM     78  C   UNL     1      -6.910 -12.691 -14.053  1.00  0.00     0.040 A 
ATOM     79  C   UNL     1      -8.014 -10.750 -13.152  1.00  0.00     0.040 A 
ATOM     80  F   UNL     1      -9.591 -10.988 -11.431  1.00  0.00    -0.206 F 
ATOM     81  C   UNL     1      -7.101 -11.310 -14.043  1.00  0.00     0.006 A 
ENDBRANCH  60  74
BRANCH  61  82
ATOM     82  C   UNL     1     -13.882 -18.422  -5.851  1.00  0.00     0.057 A 
ATOM     83  C   UNL     1     -14.500 -19.631  -6.191  1.00  0.00     0.134 A 
ATOM     84  C   UNL     1     -14.084 -17.937  -4.553  1.00  0.00     0.134 A 
ATOM     85  F   UNL     1     -14.359 -20.136  -7.426  1.00  0.00    -0.206 F 
ATOM     86  C   UNL     1     -15.312 -20.317  -5.287  1.00  0.00     0.040 A 
ATOM     87  C   UNL     1     -14.872 -18.626  -3.630  1.00  0.00     0.040 A 
ATOM     88  F   UNL     1     -13.512 -16.788  -4.162  1.00  0.00    -0.206 F 
ATOM     89  C   UNL     1     -15.497 -19.816  -4.000  1.00  0.00     0.006 A 
ENDBRANCH  61  82
BRANCH  73  90
ATOM     90  C   UNL     1     -15.446 -14.969 -11.685  1.00  0.00     0.057 A 
ATOM     91  C   UNL     1     -16.451 -14.120 -11.206  1.00  0.00     0.134 A 
ATOM     92  C   UNL     1     -15.664 -15.602 -12.915  1.00  0.00     0.134 A 
ATOM     93  F   UNL     1     -16.308 -13.496 -10.027  1.00  0.00    -0.206 F 
ATOM     94  C   UNL     1     -17.636 -13.922 -11.915  1.00  0.00     0.040 A 
ATOM     95  C   UNL     1     -16.834 -15.393 -13.646  1.00  0.00     0.040 A 
ATOM     96  F   UNL     1     -14.736 -16.421 -13.434  1.00  0.00    -0.206 F 
ATOM     97  C   UNL     1     -17.826 -14.554 -13.143  1.00  0.00     0.006 A 
ENDBRANCH  73  90
ENDBRANCH  47  48
ENDBRANCH  39  42
ENDBRANCH  37  38
ENDBRANCH  36  37
ENDBRANCH  35  36
ENDBRANCH  34  35
ENDBRANCH  33  34
ENDBRANCH  32  33
ENDBRANCH   3  32
TORSDOF 23
