REMARK SMILES CCc1ccc(S(=O)(=O)c2nnn(-c3ccc(C(=O)NCCCCCCNC(=O)c4ccc(-c5c6nc(c(-c7c(F)cccc7F)c7ccc([nH]7)c(-c7c(F)cccc7F)c7nc(c(-c8c(F)cccc8F)c8ccc5[nH]8)C=C7)C=C6)cc4)cc3)c2C)cc1
REMARK SMILES IDX 22 1 21 2 20 3 18 4 19 5 17 7 14 8 15 9 85 10 16 11 84 12
REMARK SMILES IDX 13 13 10 14 11 15 86 16 12 17 87 18 7 19 8 20 9 21 6 22 3 23
REMARK SMILES IDX 4 24 89 25 5 26 88 27 2 28 1 29 23 30 24 31 25 32 26 33
REMARK SMILES IDX 27 34 28 35 29 37 30 38 31 39 83 40 32 41 82 42 33 43 34 44
REMARK SMILES IDX 35 45 76 46 36 47 81 48 75 49 77 50 37 51 80 52 74 53 73 54
REMARK SMILES IDX 38 56 64 57 47 58 63 59 48 60 51 61 62 62 78 63 49 64 50 65
REMARK SMILES IDX 61 67 79 68 52 69 39 70 40 71 45 72 41 73 42 74 44 75 46 76
REMARK SMILES IDX 43 77 65 78 66 79 71 80 67 81 68 82 70 83 72 84 69 85 53 86
REMARK SMILES IDX 54 87 59 88 55 89 56 90 58 91 60 92 57 93
REMARK H PARENT 20 6 27 36 77 55 51 66
REMARK Flexibility Score: inf
ROOT
ATOM      1  C   UNL     1      -5.581   9.895   6.029  1.00  0.00     0.021 C 
ENDROOT
BRANCH   1   2
ATOM      2  C   UNL     1      -5.231   8.987   4.847  1.00  0.00     0.116 C 
BRANCH   2   3
ATOM      3  N   UNL     1      -4.582   9.758   3.802  1.00  0.00    -0.352 N 
ATOM      4  C   UNL     1      -3.277   9.883   3.400  1.00  0.00     0.251 C 
ATOM      5  O   UNL     1      -3.040  10.645   2.462  1.00  0.00    -0.269 OA
ATOM      6  H   UNL     1      -5.208  10.302   3.272  1.00  0.00     0.163 HD
BRANCH   4   7
ATOM      7  C   UNL     1      -2.163   9.082   3.979  1.00  0.00     0.039 A 
ATOM      8  C   UNL     1      -0.173   7.293   4.772  1.00  0.00     0.067 A 
ATOM      9  C   UNL     1      -0.030   7.970   3.561  1.00  0.00     0.029 A 
ATOM     10  C   UNL     1      -1.220   7.601   5.643  1.00  0.00     0.029 A 
ATOM     11  C   UNL     1      -1.049   8.835   3.154  1.00  0.00     0.016 A 
ATOM     12  C   UNL     1      -2.172   8.545   5.267  1.00  0.00     0.016 A 
BRANCH   8  13
ATOM     13  N   UNL     1       0.701   6.245   5.102  1.00  0.00    -0.216 N 
ATOM     14  C   UNL     1       1.579   4.370   5.754  1.00  0.00     0.205 A 
ATOM     15  N   UNL     1       2.587   5.248   5.459  1.00  0.00    -0.117 NA
ATOM     16  C   UNL     1       0.356   4.953   5.456  1.00  0.00     0.081 A 
ATOM     17  N   UNL     1       2.038   6.356   4.977  1.00  0.00    -0.061 NA
ATOM     18  C   UNL     1      -1.008   4.383   5.307  1.00  0.00     0.070 C 
BRANCH  14  19
ATOM     19  S   UNL     1       1.882   2.721   6.176  1.00  0.00     0.227 S 
ATOM     20  O   UNL     1       0.861   2.411   7.151  1.00  0.00    -0.217 OA
ATOM     21  O   UNL     1       3.301   2.639   6.477  1.00  0.00    -0.217 OA
BRANCH  19  22
ATOM     22  C   UNL     1       1.568   1.750   4.727  1.00  0.00     0.073 A 
ATOM     23  C   UNL     1       0.905   0.157   2.513  1.00  0.00    -0.048 A 
ATOM     24  C   UNL     1       1.173  -0.427   3.762  1.00  0.00     0.005 A 
ATOM     25  C   UNL     1       0.967   1.551   2.396  1.00  0.00     0.005 A 
ATOM     26  C   UNL     1       1.498   0.363   4.868  1.00  0.00     0.021 A 
ATOM     27  C   UNL     1       1.321   2.344   3.487  1.00  0.00     0.021 A 
BRANCH  23  28
ATOM     28  C   UNL     1       0.497  -0.720   1.351  1.00  0.00     0.032 C 
ATOM     29  C   UNL     1       0.986  -0.250  -0.014  1.00  0.00     0.009 C 
ENDBRANCH  23  28
ENDBRANCH  19  22
ENDBRANCH  14  19
ENDBRANCH   8  13
ENDBRANCH   4   7
ENDBRANCH   2   3
ENDBRANCH   1   2
BRANCH   1  30
ATOM     30  C   UNL     1      -6.858  10.714   5.801  1.00  0.00     0.002 C 
BRANCH  30  31
ATOM     31  C   UNL     1      -8.125   9.892   5.508  1.00  0.00     0.002 C 
BRANCH  31  32
ATOM     32  C   UNL     1      -8.441   8.756   6.494  1.00  0.00     0.021 C 
BRANCH  32  33
ATOM     33  C   UNL     1      -8.838   9.251   7.874  1.00  0.00     0.116 C 
BRANCH  33  34
ATOM     34  N   UNL     1     -10.125   9.953   7.862  1.00  0.00    -0.352 N 
ATOM     35  C   UNL     1     -10.773  10.588   8.906  1.00  0.00     0.251 C 
ATOM     36  H   UNL     1     -10.590   9.977   6.995  1.00  0.00     0.163 HD
ATOM     37  O   UNL     1     -11.979  10.795   8.873  1.00  0.00    -0.269 OA
BRANCH  35  38
ATOM     38  C   UNL     1      -9.971  11.034  10.055  1.00  0.00     0.039 A 
ATOM     39  C   UNL     1     -10.436  10.972  11.371  1.00  0.00     0.014 A 
ATOM     40  C   UNL     1      -8.693  11.501   9.774  1.00  0.00     0.014 A 
ATOM     41  C   UNL     1      -9.569  11.340  12.398  1.00  0.00     0.010 A 
ATOM     42  C   UNL     1      -7.780  11.613  10.778  1.00  0.00     0.010 A 
ATOM     43  C   UNL     1      -8.236  11.653  12.084  1.00  0.00    -0.014 A 
BRANCH  43  44
ATOM     44  C   UNL     1      -7.237  11.931  13.101  1.00  0.00     0.031 A 
ATOM     45  C   UNL     1      -7.065  10.823  14.069  1.00  0.00     0.074 A 
ATOM     46  C   UNL     1      -6.380  12.974  13.005  1.00  0.00     0.049 A 
ATOM     47  N   UNL     1      -7.437  10.801  15.304  1.00  0.00    -0.248 NA
ATOM     48  C   UNL     1      -6.603   9.519  13.563  1.00  0.00     0.031 C 
ATOM     49  C   UNL     1      -6.238  13.949  11.914  1.00  0.00     0.029 A 
ATOM     50  N   UNL     1      -5.367  13.329  13.842  1.00  0.00    -0.354 N 
ATOM     51  C   UNL     1      -7.018   9.570  15.797  1.00  0.00     0.074 A 
ATOM     52  C   UNL     1      -6.742   8.753  14.647  1.00  0.00     0.031 C 
ATOM     53  C   UNL     1      -5.075  14.626  12.048  1.00  0.00     0.029 A 
ATOM     54  C   UNL     1      -4.474  14.263  13.316  1.00  0.00     0.049 A 
ATOM     55  H   UNL     1      -5.273  12.955  14.748  1.00  0.00     0.167 HD
ATOM     56  C   UNL     1      -6.644   9.445  17.101  1.00  0.00     0.037 A 
ATOM     57  C   UNL     1      -3.317  14.681  13.892  1.00  0.00     0.037 A 
ATOM     58  C   UNL     1      -7.101  10.580  17.871  1.00  0.00     0.049 A 
ATOM     59  C   UNL     1      -3.406  14.344  15.336  1.00  0.00     0.074 A 
ATOM     60  C   UNL     1      -8.333  11.148  18.136  1.00  0.00     0.029 A 
ATOM     61  N   UNL     1      -6.175  11.551  18.169  1.00  0.00    -0.354 N 
ATOM     62  N   UNL     1      -4.244  14.912  16.157  1.00  0.00    -0.248 NA
ATOM     63  C   UNL     1      -2.918  13.036  15.744  1.00  0.00     0.031 C 
ATOM     64  C   UNL     1      -8.106  12.556  18.102  1.00  0.00     0.029 A 
ATOM     65  C   UNL     1      -6.741  12.771  17.909  1.00  0.00     0.049 A 
ATOM     66  H   UNL     1      -5.264  11.396  18.509  1.00  0.00     0.167 HD
ATOM     67  C   UNL     1      -4.731  13.873  16.937  1.00  0.00     0.074 A 
ATOM     68  C   UNL     1      -3.824  12.752  16.683  1.00  0.00     0.031 C 
ATOM     69  C   UNL     1      -5.988  13.924  17.470  1.00  0.00     0.037 A 
BRANCH  56  70
ATOM     70  C   UNL     1      -5.515   8.561  17.584  1.00  0.00     0.057 A 
ATOM     71  C   UNL     1      -5.269   8.485  18.968  1.00  0.00     0.134 A 
ATOM     72  C   UNL     1      -4.487   8.040  16.770  1.00  0.00     0.134 A 
ATOM     73  F   UNL     1      -6.169   8.941  19.853  1.00  0.00    -0.206 F 
ATOM     74  C   UNL     1      -4.054   8.031  19.492  1.00  0.00     0.040 A 
ATOM     75  C   UNL     1      -3.291   7.537  17.287  1.00  0.00     0.040 A 
ATOM     76  F   UNL     1      -4.528   8.074  15.434  1.00  0.00    -0.206 F 
ATOM     77  C   UNL     1      -3.053   7.567  18.650  1.00  0.00     0.006 A 
ENDBRANCH  56  70
BRANCH  57  78
ATOM     78  C   UNL     1      -2.030  15.053  13.257  1.00  0.00     0.057 A 
ATOM     79  C   UNL     1      -1.028  15.718  13.982  1.00  0.00     0.134 A 
ATOM     80  C   UNL     1      -1.634  14.500  12.028  1.00  0.00     0.134 A 
ATOM     81  F   UNL     1      -1.295  16.246  15.185  1.00  0.00    -0.206 F 
ATOM     82  C   UNL     1       0.296  15.799  13.527  1.00  0.00     0.040 A 
ATOM     83  C   UNL     1      -0.316  14.575  11.560  1.00  0.00     0.040 A 
ATOM     84  F   UNL     1      -2.490  13.784  11.284  1.00  0.00    -0.206 F 
ATOM     85  C   UNL     1       0.659  15.213  12.318  1.00  0.00     0.006 A 
ENDBRANCH  57  78
BRANCH  69  86
ATOM     86  C   UNL     1      -6.727  15.234  17.402  1.00  0.00     0.057 A 
ATOM     87  C   UNL     1      -7.122  15.867  16.212  1.00  0.00     0.134 A 
ATOM     88  C   UNL     1      -7.180  15.806  18.595  1.00  0.00     0.134 A 
ATOM     89  F   UNL     1      -6.821  15.347  15.016  1.00  0.00    -0.206 F 
ATOM     90  C   UNL     1      -7.892  17.035  16.214  1.00  0.00     0.040 A 
ATOM     91  C   UNL     1      -7.977  16.952  18.611  1.00  0.00     0.040 A 
ATOM     92  F   UNL     1      -6.889  15.228  19.771  1.00  0.00    -0.206 F 
ATOM     93  C   UNL     1      -8.328  17.578  17.418  1.00  0.00     0.006 A 
ENDBRANCH  69  86
ENDBRANCH  43  44
ENDBRANCH  35  38
ENDBRANCH  33  34
ENDBRANCH  32  33
ENDBRANCH  31  32
ENDBRANCH  30  31
ENDBRANCH   1  30
TORSDOF 17
