REMARK SMILES C[C@@H]1C[C@H]([NH3+])CN(S(=O)(=O)CCCC(=O)NCCCCCCNC(=O)c2ccc(-c3c4nc(c(-c5c(F)cccc5F)c5ccc([nH]5)c(-c5c(F)cccc5F)c5nc(c(-c6c(F)cccc6F)c6ccc3[nH]6)C=C5)C=C4)cc2)C1
REMARK SMILES IDX 18 1 17 2 16 3 14 4 15 5 13 7 12 8 11 9 8 10 9 11 10 12 7 13
REMARK SMILES IDX 1 14 2 15 3 16 80 17 4 18 6 19 5 20 19 24 20 25 21 26 22 27
REMARK SMILES IDX 23 28 24 29 25 31 26 32 27 33 79 34 28 35 78 36 29 37 30 38
REMARK SMILES IDX 31 39 72 40 32 41 77 42 71 43 73 44 33 45 76 46 70 47 69 48
REMARK SMILES IDX 34 50 60 51 43 52 59 53 44 54 47 55 58 56 74 57 45 58 46 59
REMARK SMILES IDX 57 61 75 62 48 63 35 64 36 65 41 66 37 67 38 68 40 69 42 70
REMARK SMILES IDX 39 71 61 72 62 73 67 74 63 75 64 76 66 77 68 78 65 79 49 80
REMARK SMILES IDX 50 81 55 82 51 83 52 84 54 85 56 86 53 87
REMARK H PARENT 16 6 5 21 5 22 5 23 23 30 73 49 47 60
REMARK Flexibility Score: inf
ROOT
ATOM      1  C   UNL     1       3.047  -7.229   1.015  1.00  0.00     0.021 C 
ENDROOT
BRANCH   1   2
ATOM      2  C   UNL     1       2.957  -5.751   1.354  1.00  0.00     0.116 C 
BRANCH   2   3
ATOM      3  N   UNL     1       3.894  -5.292   2.349  1.00  0.00    -0.356 N 
ATOM      4  C   UNL     1       4.450  -4.069   2.550  1.00  0.00     0.220 C 
ATOM      5  O   UNL     1       4.749  -3.799   3.718  1.00  0.00    -0.275 OA
ATOM      6  H   UNL     1       4.180  -5.981   2.991  1.00  0.00     0.163 HD
BRANCH   4   7
ATOM      7  C   UNL     1       4.657  -3.010   1.468  1.00  0.00     0.101 C 
BRANCH   7   8
ATOM      8  C   UNL     1       5.419  -3.342   0.197  1.00  0.00     0.027 C 
BRANCH   8   9
ATOM      9  C   UNL     1       4.728  -4.035  -0.960  1.00  0.00     0.155 C 
BRANCH   9  10
ATOM     10  S   UNL     1       3.359  -3.286  -1.857  1.00  0.00     0.214 S 
ATOM     11  O   UNL     1       2.550  -4.391  -2.349  1.00  0.00    -0.212 OA
ATOM     12  O   UNL     1       3.955  -2.359  -2.794  1.00  0.00    -0.212 OA
BRANCH  10  13
ATOM     13  N   UNL     1       2.309  -2.356  -0.860  1.00  0.00    -0.196 NA
ATOM     14  C   UNL     1       1.149   0.591  -0.491  1.00  0.00     0.009 C 
ATOM     15  C   UNL     1       0.414  -0.654  -0.988  1.00  0.00     0.007 C 
ATOM     16  C   UNL     1      -0.339  -1.407   0.115  1.00  0.00     0.071 C 
ATOM     17  C   UNL     1       1.353  -1.586  -1.764  1.00  0.00     0.106 C 
ATOM     18  C   UNL     1       0.573  -2.239   1.005  1.00  0.00     0.196 C 
ATOM     19  C   UNL     1       1.485  -3.123   0.131  1.00  0.00     0.167 C 
BRANCH  18  20
ATOM     20  N   UNL     1       1.314  -1.386   1.944  1.00  0.00    -0.354 N 
ATOM     21  H   UNL     1       1.899  -0.734   1.421  1.00  0.00     0.344 HD
ATOM     22  H   UNL     1       1.903  -1.968   2.539  1.00  0.00     0.344 HD
ATOM     23  H   UNL     1       0.655  -0.864   2.522  1.00  0.00     0.344 HD
ENDBRANCH  18  20
ENDBRANCH  10  13
ENDBRANCH   9  10
ENDBRANCH   8   9
ENDBRANCH   7   8
ENDBRANCH   4   7
ENDBRANCH   2   3
ENDBRANCH   1   2
BRANCH   1  24
ATOM     24  C   UNL     1       1.825  -8.005   1.511  1.00  0.00     0.002 C 
BRANCH  24  25
ATOM     25  C   UNL     1       0.472  -7.534   0.952  1.00  0.00     0.002 C 
BRANCH  25  26
ATOM     26  C   UNL     1       0.332  -7.561  -0.572  1.00  0.00     0.021 C 
BRANCH  26  27
ATOM     27  C   UNL     1       0.672  -8.898  -1.218  1.00  0.00     0.116 C 
BRANCH  27  28
ATOM     28  N   UNL     1      -0.032 -10.006  -0.589  1.00  0.00    -0.352 N 
ATOM     29  C   UNL     1      -0.778 -11.006  -1.152  1.00  0.00     0.251 C 
ATOM     30  H   UNL     1       0.039 -10.041   0.392  1.00  0.00     0.163 HD
ATOM     31  O   UNL     1      -1.454 -11.745  -0.445  1.00  0.00    -0.269 OA
BRANCH  29  32
ATOM     32  C   UNL     1      -0.774 -11.182  -2.616  1.00  0.00     0.039 A 
ATOM     33  C   UNL     1      -1.985 -11.422  -3.268  1.00  0.00     0.014 A 
ATOM     34  C   UNL     1       0.421 -11.118  -3.338  1.00  0.00     0.014 A 
ATOM     35  C   UNL     1      -2.004 -11.545  -4.656  1.00  0.00     0.010 A 
ATOM     36  C   UNL     1       0.389 -11.159  -4.726  1.00  0.00     0.010 A 
ATOM     37  C   UNL     1      -0.822 -11.382  -5.397  1.00  0.00    -0.014 A 
BRANCH  37  38
ATOM     38  C   UNL     1      -0.832 -11.444  -6.878  1.00  0.00     0.031 A 
ATOM     39  C   UNL     1      -0.074 -12.527  -7.591  1.00  0.00     0.074 A 
ATOM     40  C   UNL     1      -1.475 -10.489  -7.575  1.00  0.00     0.049 A 
ATOM     41  N   UNL     1       0.088 -12.714  -8.876  1.00  0.00    -0.248 NA
ATOM     42  C   UNL     1       0.618 -13.517  -6.749  1.00  0.00     0.031 C 
ATOM     43  C   UNL     1      -2.205  -9.361  -6.991  1.00  0.00     0.029 A 
ATOM     44  N   UNL     1      -1.610 -10.307  -8.928  1.00  0.00    -0.354 N 
ATOM     45  C   UNL     1       0.906 -13.830  -8.995  1.00  0.00     0.074 A 
ATOM     46  C   UNL     1       1.256 -14.244  -7.654  1.00  0.00     0.031 C 
ATOM     47  C   UNL     1      -2.731  -8.620  -7.979  1.00  0.00     0.029 A 
ATOM     48  C   UNL     1      -2.340  -9.192  -9.263  1.00  0.00     0.049 A 
ATOM     49  H   UNL     1      -1.221 -10.917  -9.595  1.00  0.00     0.167 HD
ATOM     50  C   UNL     1       1.309 -14.464 -10.121  1.00  0.00     0.037 A 
ATOM     51  C   UNL     1      -2.648  -8.684 -10.470  1.00  0.00     0.037 A 
ATOM     52  C   UNL     1       0.943 -14.053 -11.450  1.00  0.00     0.049 A 
ATOM     53  C   UNL     1      -2.171  -9.397 -11.705  1.00  0.00     0.074 A 
ATOM     54  C   UNL     1       1.250 -14.661 -12.655  1.00  0.00     0.029 A 
ATOM     55  N   UNL     1       0.195 -12.924 -11.750  1.00  0.00    -0.354 N 
ATOM     56  N   UNL     1      -1.460 -10.495 -11.804  1.00  0.00    -0.248 NA
ATOM     57  C   UNL     1      -2.544  -8.805 -12.996  1.00  0.00     0.031 C 
ATOM     58  C   UNL     1       0.736 -13.869 -13.686  1.00  0.00     0.029 A 
ATOM     59  C   UNL     1       0.055 -12.802 -13.123  1.00  0.00     0.049 A 
ATOM     60  H   UNL     1      -0.181 -12.303 -11.086  1.00  0.00     0.167 HD
ATOM     61  C   UNL     1      -1.326 -10.740 -13.164  1.00  0.00     0.074 A 
ATOM     62  C   UNL     1      -2.043  -9.686 -13.851  1.00  0.00     0.031 C 
ATOM     63  C   UNL     1      -0.668 -11.748 -13.790  1.00  0.00     0.037 A 
BRANCH  50  64
ATOM     64  C   UNL     1       2.194 -15.668  -9.961  1.00  0.00     0.057 A 
ATOM     65  C   UNL     1       1.723 -16.867  -9.409  1.00  0.00     0.134 A 
ATOM     66  C   UNL     1       3.525 -15.639 -10.396  1.00  0.00     0.134 A 
ATOM     67  F   UNL     1       0.462 -16.960  -8.960  1.00  0.00    -0.206 F 
ATOM     68  C   UNL     1       2.550 -17.983  -9.269  1.00  0.00     0.040 A 
ATOM     69  C   UNL     1       4.353 -16.758 -10.290  1.00  0.00     0.040 A 
ATOM     70  F   UNL     1       4.041 -14.526 -10.940  1.00  0.00    -0.206 F 
ATOM     71  C   UNL     1       3.868 -17.932  -9.719  1.00  0.00     0.006 A 
ENDBRANCH  50  64
BRANCH  51  72
ATOM     72  C   UNL     1      -3.459  -7.444 -10.571  1.00  0.00     0.057 A 
ATOM     73  C   UNL     1      -4.763  -7.472 -11.080  1.00  0.00     0.134 A 
ATOM     74  C   UNL     1      -2.951  -6.202 -10.170  1.00  0.00     0.134 A 
ATOM     75  F   UNL     1      -5.301  -8.628 -11.496  1.00  0.00    -0.206 F 
ATOM     76  C   UNL     1      -5.523  -6.309 -11.210  1.00  0.00     0.040 A 
ATOM     77  C   UNL     1      -3.711  -5.035 -10.267  1.00  0.00     0.040 A 
ATOM     78  F   UNL     1      -1.713  -6.108  -9.664  1.00  0.00    -0.206 F 
ATOM     79  C   UNL     1      -4.998  -5.086 -10.797  1.00  0.00     0.006 A 
ENDBRANCH  51  72
BRANCH  63  80
ATOM     80  C   UNL     1      -0.726 -11.780 -15.290  1.00  0.00     0.057 A 
ATOM     81  C   UNL     1      -0.046 -10.845 -16.079  1.00  0.00     0.134 A 
ATOM     82  C   UNL     1      -1.440 -12.787 -15.952  1.00  0.00     0.134 A 
ATOM     83  F   UNL     1       0.646  -9.847 -15.508  1.00  0.00    -0.206 F 
ATOM     84  C   UNL     1      -0.094 -10.896 -17.474  1.00  0.00     0.040 A 
ATOM     85  C   UNL     1      -1.470 -12.867 -17.344  1.00  0.00     0.040 A 
ATOM     86  F   UNL     1      -2.106 -13.721 -15.255  1.00  0.00    -0.206 F 
ATOM     87  C   UNL     1      -0.801 -11.915 -18.109  1.00  0.00     0.006 A 
ENDBRANCH  63  80
ENDBRANCH  37  38
ENDBRANCH  29  32
ENDBRANCH  27  28
ENDBRANCH  26  27
ENDBRANCH  25  26
ENDBRANCH  24  25
ENDBRANCH   1  24
TORSDOF 18
