REMARK SMILES COc1ccc2cc([C@@H](C)C(=O)NCCCCCCNC(=O)c3ccc(-c4c5nc(c(-c6c(F)cccc6F)c6ccc([nH]6)c(-c6c(F)cccc6F)c6nc(c(-c7c(F)cccc7F)c7ccc4[nH]7)C=C6)C=C5)cc3)ccc2c1
REMARK SMILES IDX 16 1 15 2 14 3 13 4 11 5 12 6 9 8 10 9 8 10 3 11 4 12 80 13
REMARK SMILES IDX 5 14 79 15 6 16 78 17 7 18 77 19 2 20 1 21 17 22 18 23 19 24
REMARK SMILES IDX 20 25 21 26 22 28 23 29 24 30 76 31 25 32 75 33 26 34 27 35
REMARK SMILES IDX 28 36 69 37 29 38 74 39 68 40 70 41 30 42 73 43 67 44 66 45
REMARK SMILES IDX 31 47 57 48 40 49 56 50 41 51 44 52 55 53 71 54 42 55 43 56
REMARK SMILES IDX 54 58 72 59 45 60 32 61 33 62 38 63 34 64 35 65 37 66 39 67
REMARK SMILES IDX 36 68 58 69 59 70 64 71 60 72 61 73 63 74 65 75 62 76 46 77
REMARK SMILES IDX 47 78 52 79 48 80 49 81 51 82 53 83 50 84
REMARK H PARENT 13 7 20 27 70 46 44 57
REMARK Flexibility Score: inf
ROOT
ATOM      1  C   UNL     1       5.630   4.944   5.363  1.00  0.00     0.002 C 
ENDROOT
BRANCH   1   2
ATOM      2  C   UNL     1       4.414   4.063   5.669  1.00  0.00     0.021 C 
BRANCH   2   3
ATOM      3  C   UNL     1       4.112   3.916   7.163  1.00  0.00     0.116 C 
BRANCH   3   4
ATOM      4  N   UNL     1       3.179   4.925   7.622  1.00  0.00    -0.356 N 
ATOM      5  C   UNL     1       1.840   4.889   7.860  1.00  0.00     0.227 C 
ATOM      6  O   UNL     1       1.311   5.968   8.156  1.00  0.00    -0.274 OA
ATOM      7  H   UNL     1       3.592   5.802   7.793  1.00  0.00     0.163 HD
BRANCH   5   8
ATOM      8  C   UNL     1       0.985   3.614   7.795  1.00  0.00     0.105 C 
ATOM      9  C   UNL     1       1.440   2.498   8.735  1.00  0.00     0.023 C 
BRANCH   8  10
ATOM     10  C   UNL     1       0.639   3.182   6.378  1.00  0.00    -0.035 A 
ATOM     11  C   UNL     1       0.656   1.521   1.566  1.00  0.00     0.119 A 
ATOM     12  C   UNL     1       1.869   1.125   2.124  1.00  0.00     0.047 A 
ATOM     13  C   UNL     1      -0.257   2.246   2.337  1.00  0.00     0.055 A 
ATOM     14  C   UNL     1       2.141   1.399   3.465  1.00  0.00     0.012 A 
ATOM     15  C   UNL     1       0.013   2.550   3.682  1.00  0.00    -0.015 A 
ATOM     16  C   UNL     1       1.218   2.099   4.256  1.00  0.00    -0.018 A 
ATOM     17  C   UNL     1      -0.875   3.296   4.469  1.00  0.00     0.009 A 
ATOM     18  C   UNL     1       1.488   2.380   5.605  1.00  0.00     0.013 A 
ATOM     19  C   UNL     1      -0.555   3.626   5.790  1.00  0.00     0.005 A 
BRANCH  11  20
ATOM     20  O   UNL     1       0.280   1.284   0.272  1.00  0.00    -0.497 OA
ATOM     21  C   UNL     1       0.830   0.104  -0.308  1.00  0.00     0.278 C 
ENDBRANCH  11  20
ENDBRANCH   8  10
ENDBRANCH   5   8
ENDBRANCH   3   4
ENDBRANCH   2   3
ENDBRANCH   1   2
BRANCH   1  22
ATOM     22  C   UNL     1       6.978   4.380   5.832  1.00  0.00     0.002 C 
BRANCH  22  23
ATOM     23  C   UNL     1       7.325   2.976   5.326  1.00  0.00     0.021 C 
BRANCH  23  24
ATOM     24  C   UNL     1       7.372   2.829   3.806  1.00  0.00     0.116 C 
BRANCH  24  25
ATOM     25  N   UNL     1       8.417   3.648   3.212  1.00  0.00    -0.352 N 
ATOM     26  C   UNL     1       9.527   3.277   2.495  1.00  0.00     0.251 C 
ATOM     27  H   UNL     1       8.312   4.618   3.345  1.00  0.00     0.163 HD
ATOM     28  O   UNL     1      10.412   4.095   2.267  1.00  0.00    -0.269 OA
BRANCH  26  29
ATOM     29  C   UNL     1       9.670   1.890   2.001  1.00  0.00     0.039 A 
ATOM     30  C   UNL     1      10.906   1.251   2.130  1.00  0.00     0.014 A 
ATOM     31  C   UNL     1       8.606   1.236   1.372  1.00  0.00     0.014 A 
ATOM     32  C   UNL     1      11.060  -0.065   1.685  1.00  0.00     0.010 A 
ATOM     33  C   UNL     1       8.743  -0.094   0.979  1.00  0.00     0.010 A 
ATOM     34  C   UNL     1       9.970  -0.758   1.134  1.00  0.00    -0.014 A 
BRANCH  34  35
ATOM     35  C   UNL     1      10.089  -2.180   0.723  1.00  0.00     0.031 A 
ATOM     36  C   UNL     1       9.961  -2.563  -0.725  1.00  0.00     0.074 A 
ATOM     37  C   UNL     1      10.239  -3.133   1.662  1.00  0.00     0.049 A 
ATOM     38  N   UNL     1       9.926  -3.755  -1.264  1.00  0.00    -0.248 NA
ATOM     39  C   UNL     1       9.835  -1.462  -1.692  1.00  0.00     0.031 C 
ATOM     40  C   UNL     1      10.342  -2.893   3.103  1.00  0.00     0.029 A 
ATOM     41  N   UNL     1      10.314  -4.499   1.547  1.00  0.00    -0.354 N 
ATOM     42  C   UNL     1       9.762  -3.549  -2.628  1.00  0.00     0.074 A 
ATOM     43  C   UNL     1       9.662  -2.119  -2.830  1.00  0.00     0.031 C 
ATOM     44  C   UNL     1      10.472  -4.071   3.736  1.00  0.00     0.029 A 
ATOM     45  C   UNL     1      10.425  -5.148   2.752  1.00  0.00     0.049 A 
ATOM     46  H   UNL     1      10.289  -4.969   0.682  1.00  0.00     0.167 HD
ATOM     47  C   UNL     1       9.717  -4.467  -3.623  1.00  0.00     0.037 A 
ATOM     48  C   UNL     1      10.469  -6.463   3.035  1.00  0.00     0.037 A 
ATOM     49  C   UNL     1       9.840  -5.888  -3.425  1.00  0.00     0.049 A 
ATOM     50  C   UNL     1      10.406  -7.461   1.912  1.00  0.00     0.074 A 
ATOM     51  C   UNL     1       9.851  -6.893  -4.377  1.00  0.00     0.029 A 
ATOM     52  N   UNL     1       9.976  -6.504  -2.191  1.00  0.00    -0.354 N 
ATOM     53  N   UNL     1      10.295  -7.248   0.624  1.00  0.00    -0.248 NA
ATOM     54  C   UNL     1      10.477  -8.882   2.283  1.00  0.00     0.031 C 
ATOM     55  C   UNL     1       9.960  -8.121  -3.715  1.00  0.00     0.029 A 
ATOM     56  C   UNL     1      10.056  -7.877  -2.355  1.00  0.00     0.049 A 
ATOM     57  H   UNL     1      10.010  -6.035  -1.326  1.00  0.00     0.167 HD
ATOM     58  C   UNL     1      10.308  -8.503   0.029  1.00  0.00     0.074 A 
ATOM     59  C   UNL     1      10.452  -9.471   1.096  1.00  0.00     0.031 C 
ATOM     60  C   UNL     1      10.207  -8.826  -1.283  1.00  0.00     0.037 A 
BRANCH  47  61
ATOM     61  C   UNL     1       9.537  -3.962  -5.024  1.00  0.00     0.057 A 
ATOM     62  C   UNL     1      10.569  -3.306  -5.708  1.00  0.00     0.134 A 
ATOM     63  C   UNL     1       8.338  -4.178  -5.716  1.00  0.00     0.134 A 
ATOM     64  F   UNL     1      11.738  -3.059  -5.098  1.00  0.00    -0.206 F 
ATOM     65  C   UNL     1      10.409  -2.866  -7.023  1.00  0.00     0.040 A 
ATOM     66  C   UNL     1       8.174  -3.763  -7.039  1.00  0.00     0.040 A 
ATOM     67  F   UNL     1       7.312  -4.804  -5.121  1.00  0.00    -0.206 F 
ATOM     68  C   UNL     1       9.211  -3.102  -7.694  1.00  0.00     0.006 A 
ENDBRANCH  47  61
BRANCH  48  69
ATOM     69  C   UNL     1      10.582  -6.920   4.443  1.00  0.00     0.057 A 
ATOM     70  C   UNL     1      11.759  -7.509   4.918  1.00  0.00     0.134 A 
ATOM     71  C   UNL     1       9.513  -6.797   5.338  1.00  0.00     0.134 A 
ATOM     72  F   UNL     1      12.809  -7.672   4.101  1.00  0.00    -0.206 F 
ATOM     73  C   UNL     1      11.863  -7.980   6.228  1.00  0.00     0.040 A 
ATOM     74  C   UNL     1       9.611  -7.242   6.658  1.00  0.00     0.040 A 
ATOM     75  F   UNL     1       8.360  -6.235   4.945  1.00  0.00    -0.206 F 
ATOM     76  C   UNL     1      10.787  -7.843   7.103  1.00  0.00     0.006 A 
ENDBRANCH  48  69
BRANCH  60  77
ATOM     77  C   UNL     1      10.280 -10.281  -1.637  1.00  0.00     0.057 A 
ATOM     78  C   UNL     1       9.215 -11.155  -1.386  1.00  0.00     0.134 A 
ATOM     79  C   UNL     1      11.416 -10.806  -2.265  1.00  0.00     0.134 A 
ATOM     80  F   UNL     1       8.105 -10.715  -0.774  1.00  0.00    -0.206 F 
ATOM     81  C   UNL     1       9.286 -12.506  -1.729  1.00  0.00     0.040 A 
ATOM     82  C   UNL     1      11.490 -12.149  -2.634  1.00  0.00     0.040 A 
ATOM     83  F   UNL     1      12.468 -10.019  -2.539  1.00  0.00    -0.206 F 
ATOM     84  C   UNL     1      10.424 -13.005  -2.360  1.00  0.00     0.006 A 
ENDBRANCH  60  77
ENDBRANCH  34  35
ENDBRANCH  26  29
ENDBRANCH  24  25
ENDBRANCH  23  24
ENDBRANCH  22  23
ENDBRANCH   1  22
TORSDOF 15
