REMARK SMILES O=C(NCCCCCCNC(=O)c1ccc(-c2c3nc(c(-c4c(F)cccc4F)c4ccc([nH]4)c(-c4c(F)cccc4F)c4nc(c(-c5c(F)cccc5F)c5ccc2[nH]5)C=C4)C=C3)cc1)C1=Cc2cc(Cl)cc(-c3ccc(CO)cc3)c2O[C@@H]1C(F)(F)F
REMARK SMILES IDX 6 1 5 2 4 3 3 4 1 5 2 6 67 8 68 9 85 10 69 11 84 12 70 13
REMARK SMILES IDX 83 14 71 15 74 16 72 17 73 18 86 19 87 20 88 21 89 22 75 23
REMARK SMILES IDX 76 24 82 25 77 26 81 27 78 28 79 29 80 30 7 32 8 33 9 34
REMARK SMILES IDX 10 35 11 36 12 38 13 39 14 40 66 41 15 42 65 43 16 44 17 45
REMARK SMILES IDX 18 46 59 47 19 48 64 49 58 50 60 51 20 52 63 53 57 54 56 55
REMARK SMILES IDX 21 57 47 58 30 59 46 60 31 61 34 62 45 63 61 64 32 65 33 66
REMARK SMILES IDX 44 68 62 69 35 70 22 71 23 72 28 73 24 74 25 75 27 76 29 77
REMARK SMILES IDX 26 78 48 79 49 80 54 81 50 82 51 83 53 84 55 85 52 86 36 87
REMARK SMILES IDX 37 88 42 89 38 90 39 91 41 92 43 93 40 94
REMARK H PARENT 3 7 80 31 10 37 60 56 34 67
REMARK Flexibility Score: inf
ROOT
ATOM      1  C   UNL     1       3.751   1.917   4.281  1.00  0.00     0.002 C 
ENDROOT
BRANCH   1   2
ATOM      2  C   UNL     1       4.144   2.267   2.842  1.00  0.00     0.021 C 
BRANCH   2   3
ATOM      3  C   UNL     1       3.904   1.194   1.775  1.00  0.00     0.116 C 
BRANCH   3   4
ATOM      4  N   UNL     1       2.632   1.301   1.068  1.00  0.00    -0.352 N 
ATOM      5  O   UNL     1       1.069   0.874  -0.494  1.00  0.00    -0.270 OA
ATOM      6  C   UNL     1       2.250   0.813  -0.160  1.00  0.00     0.251 C 
ATOM      7  H   UNL     1       1.934   1.804   1.547  1.00  0.00     0.163 HD
BRANCH   6   8
ATOM      8  C   UNL     1       3.207   0.055  -1.018  1.00  0.00     0.067 C 
ATOM      9  C   UNL     1       4.461   0.452  -1.265  1.00  0.00     0.025 C 
ATOM     10  C   UNL     1       2.946  -1.423  -1.074  1.00  0.00     0.314 C 
ATOM     11  C   UNL     1       5.494  -0.406  -0.677  1.00  0.00     0.019 A 
ATOM     12  O   UNL     1       3.841  -2.137  -0.188  1.00  0.00    -0.475 OA
ATOM     13  C   UNL     1       6.763   0.142  -0.453  1.00  0.00     0.032 A 
ATOM     14  C   UNL     1       5.103  -1.604  -0.034  1.00  0.00     0.135 A 
ATOM     15  C   UNL     1       7.620  -0.477   0.448  1.00  0.00     0.042 A 
ATOM     16  C   UNL     1       5.946  -2.197   0.920  1.00  0.00     0.026 A 
ATOM     17  Cl  UNL     1       9.114   0.273   0.859  1.00  0.00    -0.084 Cl
ATOM     18  C   UNL     1       7.220  -1.626   1.128  1.00  0.00     0.033 A 
BRANCH  10  19
ATOM     19  C   UNL     1       3.026  -1.925  -2.537  1.00  0.00     0.429 C 
ATOM     20  F   UNL     1       2.672  -3.227  -2.636  1.00  0.00    -0.167 F 
ATOM     21  F   UNL     1       2.191  -1.229  -3.350  1.00  0.00    -0.167 F 
ATOM     22  F   UNL     1       4.268  -1.811  -3.068  1.00  0.00    -0.167 F 
ENDBRANCH  10  19
BRANCH  16  23
ATOM     23  C   UNL     1       5.480  -3.208   1.885  1.00  0.00    -0.015 A 
ATOM     24  C   UNL     1       5.300  -2.810   3.219  1.00  0.00     0.009 A 
ATOM     25  C   UNL     1       5.263  -4.550   1.575  1.00  0.00     0.009 A 
ATOM     26  C   UNL     1       4.995  -3.713   4.232  1.00  0.00     0.007 A 
ATOM     27  C   UNL     1       4.952  -5.472   2.590  1.00  0.00     0.007 A 
ATOM     28  C   UNL     1       4.848  -5.065   3.929  1.00  0.00    -0.023 A 
BRANCH  28  29
ATOM     29  C   UNL     1       4.606  -6.045   5.046  1.00  0.00     0.191 C 
BRANCH  29  30
ATOM     30  O   UNL     1       5.692  -6.030   5.967  1.00  0.00    -0.392 OA
ATOM     31  H   UNL     1       6.510  -6.280   5.508  1.00  0.00     0.211 HD
ENDBRANCH  29  30
ENDBRANCH  28  29
ENDBRANCH  16  23
ENDBRANCH   6   8
ENDBRANCH   3   4
ENDBRANCH   2   3
ENDBRANCH   1   2
BRANCH   1  32
ATOM     32  C   UNL     1       4.350   0.636   4.875  1.00  0.00     0.002 C 
BRANCH  32  33
ATOM     33  C   UNL     1       5.863   0.450   4.721  1.00  0.00     0.021 C 
BRANCH  33  34
ATOM     34  C   UNL     1       6.743   1.462   5.437  1.00  0.00     0.116 C 
BRANCH  34  35
ATOM     35  N   UNL     1       6.654   1.328   6.881  1.00  0.00    -0.352 N 
ATOM     36  C   UNL     1       7.595   0.975   7.819  1.00  0.00     0.251 C 
ATOM     37  H   UNL     1       5.763   1.525   7.253  1.00  0.00     0.163 HD
ATOM     38  O   UNL     1       7.225   0.703   8.955  1.00  0.00    -0.269 OA
BRANCH  36  39
ATOM     39  C   UNL     1       9.043   0.914   7.491  1.00  0.00     0.039 A 
ATOM     40  C   UNL     1       9.845  -0.008   8.177  1.00  0.00     0.014 A 
ATOM     41  C   UNL     1       9.640   1.798   6.590  1.00  0.00     0.014 A 
ATOM     42  C   UNL     1      11.222  -0.063   7.936  1.00  0.00     0.010 A 
ATOM     43  C   UNL     1      10.994   1.680   6.280  1.00  0.00     0.010 A 
ATOM     44  C   UNL     1      11.806   0.767   6.968  1.00  0.00    -0.014 A 
BRANCH  44  45
ATOM     45  C   UNL     1      13.267   0.736   6.693  1.00  0.00     0.031 A 
ATOM     46  C   UNL     1      14.107   1.961   6.942  1.00  0.00     0.074 A 
ATOM     47  C   UNL     1      13.829  -0.367   6.163  1.00  0.00     0.049 A 
ATOM     48  N   UNL     1      15.373   2.169   6.676  1.00  0.00    -0.248 NA
ATOM     49  C   UNL     1      13.425   3.120   7.540  1.00  0.00     0.031 C 
ATOM     50  C   UNL     1      13.120  -1.603   5.831  1.00  0.00     0.029 A 
ATOM     51  N   UNL     1      15.127  -0.620   5.795  1.00  0.00    -0.354 N 
ATOM     52  C   UNL     1      15.628   3.483   7.050  1.00  0.00     0.074 A 
ATOM     53  C   UNL     1      14.375   4.042   7.509  1.00  0.00     0.031 C 
ATOM     54  C   UNL     1      13.992  -2.489   5.325  1.00  0.00     0.029 A 
ATOM     55  C   UNL     1      15.314  -1.872   5.262  1.00  0.00     0.049 A 
ATOM     56  H   UNL     1      15.855   0.033   5.904  1.00  0.00     0.167 HD
ATOM     57  C   UNL     1      16.803   4.157   7.039  1.00  0.00     0.037 A 
ATOM     58  C   UNL     1      16.423  -2.455   4.769  1.00  0.00     0.037 A 
ATOM     59  C   UNL     1      18.056   3.588   6.616  1.00  0.00     0.049 A 
ATOM     60  C   UNL     1      17.720  -1.695   4.780  1.00  0.00     0.074 A 
ATOM     61  C   UNL     1      19.312   4.168   6.619  1.00  0.00     0.029 A 
ATOM     62  N   UNL     1      18.208   2.303   6.117  1.00  0.00    -0.354 N 
ATOM     63  N   UNL     1      17.957  -0.471   5.188  1.00  0.00    -0.248 NA
ATOM     64  C   UNL     1      18.905  -2.398   4.271  1.00  0.00     0.031 C 
ATOM     65  C   UNL     1      20.220   3.244   6.089  1.00  0.00     0.029 A 
ATOM     66  C   UNL     1      19.536   2.076   5.795  1.00  0.00     0.049 A 
ATOM     67  H   UNL     1      17.480   1.649   6.007  1.00  0.00     0.167 HD
ATOM     68  C   UNL     1      19.318  -0.266   5.006  1.00  0.00     0.074 A 
ATOM     69  C   UNL     1      19.858  -1.497   4.466  1.00  0.00     0.031 C 
ATOM     70  C   UNL     1      20.055   0.842   5.263  1.00  0.00     0.037 A 
BRANCH  57  71
ATOM     71  C   UNL     1      16.785   5.583   7.509  1.00  0.00     0.057 A 
ATOM     72  C   UNL     1      16.574   5.915   8.854  1.00  0.00     0.134 A 
ATOM     73  C   UNL     1      16.997   6.638   6.611  1.00  0.00     0.134 A 
ATOM     74  F   UNL     1      16.352   4.955   9.764  1.00  0.00    -0.206 F 
ATOM     75  C   UNL     1      16.540   7.244   9.284  1.00  0.00     0.040 A 
ATOM     76  C   UNL     1      16.994   7.968   7.034  1.00  0.00     0.040 A 
ATOM     77  F   UNL     1      17.213   6.393   5.310  1.00  0.00    -0.206 F 
ATOM     78  C   UNL     1      16.756   8.275   8.372  1.00  0.00     0.006 A 
ENDBRANCH  57  71
BRANCH  58  79
ATOM     79  C   UNL     1      16.358  -3.842   4.244  1.00  0.00     0.057 A 
ATOM     80  C   UNL     1      16.943  -4.905   4.940  1.00  0.00     0.134 A 
ATOM     81  C   UNL     1      15.702  -4.139   3.044  1.00  0.00     0.134 A 
ATOM     82  F   UNL     1      17.600  -4.681   6.088  1.00  0.00    -0.206 F 
ATOM     83  C   UNL     1      16.892  -6.213   4.455  1.00  0.00     0.040 A 
ATOM     84  C   UNL     1      15.623  -5.445   2.558  1.00  0.00     0.040 A 
ATOM     85  F   UNL     1      15.114  -3.165   2.334  1.00  0.00    -0.206 F 
ATOM     86  C   UNL     1      16.225  -6.486   3.263  1.00  0.00     0.006 A 
ENDBRANCH  58  79
BRANCH  70  87
ATOM     87  C   UNL     1      21.528   0.763   4.989  1.00  0.00     0.057 A 
ATOM     88  C   UNL     1      22.038   0.770   3.684  1.00  0.00     0.134 A 
ATOM     89  C   UNL     1      22.448   0.721   6.044  1.00  0.00     0.134 A 
ATOM     90  F   UNL     1      21.208   0.797   2.630  1.00  0.00    -0.206 F 
ATOM     91  C   UNL     1      23.411   0.716   3.439  1.00  0.00     0.040 A 
ATOM     92  C   UNL     1      23.823   0.691   5.812  1.00  0.00     0.040 A 
ATOM     93  F   UNL     1      22.024   0.720   7.317  1.00  0.00    -0.206 F 
ATOM     94  C   UNL     1      24.308   0.683   4.506  1.00  0.00     0.006 A 
ENDBRANCH  70  87
ENDBRANCH  44  45
ENDBRANCH  36  39
ENDBRANCH  34  35
ENDBRANCH  33  34
ENDBRANCH  32  33
ENDBRANCH   1  32
TORSDOF 17
