REMARK SMILES Cc1cc(F)cc(N[C@](C)(C(=O)NCCCCCCNC(=O)c2ccc(-c3c4nc(c(-c5c(F)cccc5F)c5ccc([nH]5)c(-c5c(F)cccc5F)c5nc(c(-c6c(F)cccc6F)c6ccc3[nH]6)C=C5)C=C4)cc2)c2cccc(F)c2)c1
REMARK SMILES IDX 16 1 15 2 14 3 13 4 11 5 12 6 9 8 10 9 8 10 7 12 1 13 2 14
REMARK SMILES IDX 3 15 84 16 4 17 5 18 6 19 77 20 78 21 83 22 79 23 81 24
REMARK SMILES IDX 80 25 82 26 17 27 18 28 19 29 20 30 21 31 22 33 23 34 24 35
REMARK SMILES IDX 76 36 25 37 75 38 26 39 27 40 28 41 69 42 29 43 74 44 68 45
REMARK SMILES IDX 70 46 30 47 73 48 67 49 66 50 31 52 57 53 40 54 56 55 41 56
REMARK SMILES IDX 44 57 55 58 71 59 42 60 43 61 54 63 72 64 45 65 32 66 33 67
REMARK SMILES IDX 38 68 34 69 35 70 37 71 39 72 36 73 58 74 59 75 64 76 60 77
REMARK SMILES IDX 61 78 63 79 65 80 62 81 46 82 47 83 52 84 48 85 49 86 51 87
REMARK SMILES IDX 53 88 50 89
REMARK H PARENT 13 7 8 11 20 32 70 51 44 62
REMARK Flexibility Score: inf
ROOT
ATOM      1  C   UNL     1      -4.628  -6.417   2.894  1.00  0.00     0.002 C 
ENDROOT
BRANCH   1   2
ATOM      2  C   UNL     1      -3.757  -6.400   1.633  1.00  0.00     0.021 C 
BRANCH   2   3
ATOM      3  C   UNL     1      -3.737  -5.042   0.925  1.00  0.00     0.116 C 
BRANCH   3   4
ATOM      4  N   UNL     1      -2.773  -4.171   1.551  1.00  0.00    -0.354 N 
ATOM      5  C   UNL     1      -1.454  -3.970   1.282  1.00  0.00     0.250 C 
ATOM      6  O   UNL     1      -0.780  -3.613   2.261  1.00  0.00    -0.272 OA
ATOM      7  H   UNL     1      -3.127  -3.634   2.297  1.00  0.00     0.163 HD
BRANCH   5   8
ATOM      8  C   UNL     1      -0.779  -4.163  -0.151  1.00  0.00     0.139 C 
ATOM      9  C   UNL     1      -1.645  -3.892  -1.408  1.00  0.00     0.051 C 
BRANCH   8  10
ATOM     10  N   UNL     1       0.334  -3.154  -0.217  1.00  0.00    -0.368 N 
ATOM     11  H   UNL     1       1.241  -3.509  -0.359  1.00  0.00     0.161 HD
BRANCH  10  12
ATOM     12  C   UNL     1       0.218  -1.767  -0.098  1.00  0.00     0.038 A 
ATOM     13  C   UNL     1       2.677   1.181  -0.065  1.00  0.00     0.044 C 
ATOM     14  C   UNL     1       1.399   0.398  -0.050  1.00  0.00    -0.046 A 
ATOM     15  C   UNL     1       0.180   1.064   0.072  1.00  0.00     0.042 A 
ATOM     16  C   UNL     1       1.402  -1.005  -0.153  1.00  0.00     0.029 A 
ATOM     17  C   UNL     1      -0.994   0.328   0.108  1.00  0.00     0.125 A 
ATOM     18  F   UNL     1      -2.166   0.966   0.233  1.00  0.00    -0.207 F 
ATOM     19  C   UNL     1      -0.982  -1.063   0.027  1.00  0.00     0.065 A 
ENDBRANCH  10  12
ENDBRANCH   8  10
BRANCH   8  20
ATOM     20  C   UNL     1      -0.215  -5.623  -0.212  1.00  0.00    -0.011 A 
ATOM     21  C   UNL     1       1.106  -5.967   0.138  1.00  0.00     0.007 A 
ATOM     22  C   UNL     1      -1.063  -6.705  -0.538  1.00  0.00     0.046 A 
ATOM     23  C   UNL     1       1.542  -7.303   0.172  1.00  0.00     0.003 A 
ATOM     24  C   UNL     1      -0.633  -8.029  -0.474  1.00  0.00     0.123 A 
ATOM     25  C   UNL     1       0.664  -8.340  -0.120  1.00  0.00     0.039 A 
ATOM     26  F   UNL     1      -1.505  -9.011  -0.740  1.00  0.00    -0.207 F 
ENDBRANCH   8  20
ENDBRANCH   5   8
ENDBRANCH   3   4
ENDBRANCH   2   3
ENDBRANCH   1   2
BRANCH   1  27
ATOM     27  C   UNL     1      -6.114  -6.128   2.648  1.00  0.00     0.002 C 
BRANCH  27  28
ATOM     28  C   UNL     1      -6.769  -7.004   1.578  1.00  0.00     0.021 C 
BRANCH  28  29
ATOM     29  C   UNL     1      -6.731  -8.495   1.891  1.00  0.00     0.116 C 
BRANCH  29  30
ATOM     30  N   UNL     1      -7.526  -8.816   3.067  1.00  0.00    -0.352 N 
ATOM     31  C   UNL     1      -8.609  -9.656   3.172  1.00  0.00     0.251 C 
ATOM     32  H   UNL     1      -7.251  -8.370   3.901  1.00  0.00     0.163 HD
ATOM     33  O   UNL     1      -9.319  -9.648   4.165  1.00  0.00    -0.269 OA
BRANCH  31  34
ATOM     34  C   UNL     1      -8.906 -10.568   2.049  1.00  0.00     0.039 A 
ATOM     35  C   UNL     1     -10.205 -10.627   1.538  1.00  0.00     0.014 A 
ATOM     36  C   UNL     1      -7.883 -11.335   1.488  1.00  0.00     0.014 A 
ATOM     37  C   UNL     1     -10.462 -11.409   0.410  1.00  0.00     0.010 A 
ATOM     38  C   UNL     1      -8.124 -12.052   0.325  1.00  0.00     0.010 A 
ATOM     39  C   UNL     1      -9.415 -12.097  -0.225  1.00  0.00    -0.014 A 
BRANCH  39  40
ATOM     40  C   UNL     1      -9.628 -12.876  -1.469  1.00  0.00     0.031 A 
ATOM     41  C   UNL     1      -9.388 -14.358  -1.467  1.00  0.00     0.074 A 
ATOM     42  C   UNL     1      -9.928 -12.238  -2.615  1.00  0.00     0.049 A 
ATOM     43  N   UNL     1      -9.371 -15.197  -2.471  1.00  0.00    -0.248 NA
ATOM     44  C   UNL     1      -9.094 -14.972  -0.163  1.00  0.00     0.031 C 
ATOM     45  C   UNL     1     -10.159 -10.799  -2.751  1.00  0.00     0.029 A 
ATOM     46  N   UNL     1     -10.071 -12.719  -3.892  1.00  0.00    -0.354 N 
ATOM     47  C   UNL     1      -9.036 -16.429  -1.924  1.00  0.00     0.074 A 
ATOM     48  C   UNL     1      -8.812 -16.218  -0.510  1.00  0.00     0.031 C 
ATOM     49  C   UNL     1     -10.437 -10.518  -4.034  1.00  0.00     0.029 A 
ATOM     50  C   UNL     1     -10.355 -11.746  -4.818  1.00  0.00     0.049 A 
ATOM     51  H   UNL     1      -9.978 -13.672  -4.122  1.00  0.00     0.167 HD
ATOM     52  C   UNL     1      -8.941 -17.631  -2.542  1.00  0.00     0.037 A 
ATOM     53  C   UNL     1     -10.518 -11.835  -6.152  1.00  0.00     0.037 A 
ATOM     54  C   UNL     1      -9.186 -17.835  -3.946  1.00  0.00     0.049 A 
ATOM     55  C   UNL     1     -10.374 -13.173  -6.822  1.00  0.00     0.074 A 
ATOM     56  C   UNL     1      -9.179 -19.020  -4.659  1.00  0.00     0.029 A 
ATOM     57  N   UNL     1      -9.475 -16.824  -4.851  1.00  0.00    -0.354 N 
ATOM     58  N   UNL     1     -10.115 -14.342  -6.288  1.00  0.00    -0.248 NA
ATOM     59  C   UNL     1     -10.543 -13.202  -8.281  1.00  0.00     0.031 C 
ATOM     60  C   UNL     1      -9.413 -18.720  -6.006  1.00  0.00     0.029 A 
ATOM     61  C   UNL     1      -9.621 -17.355  -6.122  1.00  0.00     0.049 A 
ATOM     62  H   UNL     1      -9.564 -15.870  -4.624  1.00  0.00     0.167 HD
ATOM     63  C   UNL     1     -10.130 -15.251  -7.338  1.00  0.00     0.074 A 
ATOM     64  C   UNL     1     -10.422 -14.497  -8.539  1.00  0.00     0.031 C 
ATOM     65  C   UNL     1      -9.926 -16.591  -7.307  1.00  0.00     0.037 A 
BRANCH  52  66
ATOM     66  C   UNL     1      -8.539 -18.806  -1.699  1.00  0.00     0.057 A 
ATOM     67  C   UNL     1      -9.373 -19.326  -0.699  1.00  0.00     0.134 A 
ATOM     68  C   UNL     1      -7.297 -19.426  -1.886  1.00  0.00     0.134 A 
ATOM     69  F   UNL     1     -10.572 -18.772  -0.458  1.00  0.00    -0.206 F 
ATOM     70  C   UNL     1      -8.969 -20.388   0.112  1.00  0.00     0.040 A 
ATOM     71  C   UNL     1      -6.895 -20.510  -1.103  1.00  0.00     0.040 A 
ATOM     72  F   UNL     1      -6.450 -18.987  -2.830  1.00  0.00    -0.206 F 
ATOM     73  C   UNL     1      -7.728 -20.986  -0.092  1.00  0.00     0.006 A 
ENDBRANCH  52  66
BRANCH  53  74
ATOM     74  C   UNL     1     -10.874 -10.626  -6.937  1.00  0.00     0.057 A 
ATOM     75  C   UNL     1     -12.153 -10.486  -7.487  1.00  0.00     0.134 A 
ATOM     76  C   UNL     1      -9.962  -9.586  -7.150  1.00  0.00     0.134 A 
ATOM     77  F   UNL     1     -13.064 -11.458  -7.331  1.00  0.00    -0.206 F 
ATOM     78  C   UNL     1     -12.510  -9.362  -8.233  1.00  0.00     0.040 A 
ATOM     79  C   UNL     1     -10.312  -8.445  -7.875  1.00  0.00     0.040 A 
ATOM     80  F   UNL     1      -8.723  -9.656  -6.643  1.00  0.00    -0.206 F 
ATOM     81  C   UNL     1     -11.589  -8.334  -8.423  1.00  0.00     0.006 A 
ENDBRANCH  53  74
BRANCH  65  82
ATOM     82  C   UNL     1     -10.067 -17.340  -8.601  1.00  0.00     0.057 A 
ATOM     83  C   UNL     1      -9.110 -17.253  -9.619  1.00  0.00     0.134 A 
ATOM     84  C   UNL     1     -11.154 -18.200  -8.806  1.00  0.00     0.134 A 
ATOM     85  F   UNL     1      -8.053 -16.436  -9.492  1.00  0.00    -0.206 F 
ATOM     86  C   UNL     1      -9.239 -17.981 -10.803  1.00  0.00     0.040 A 
ATOM     87  C   UNL     1     -11.280 -18.953  -9.973  1.00  0.00     0.040 A 
ATOM     88  F   UNL     1     -12.102 -18.335  -7.866  1.00  0.00    -0.206 F 
ATOM     89  C   UNL     1     -10.322 -18.841 -10.978  1.00  0.00     0.006 A 
ENDBRANCH  65  82
ENDBRANCH  39  40
ENDBRANCH  31  34
ENDBRANCH  29  30
ENDBRANCH  28  29
ENDBRANCH  27  28
ENDBRANCH   1  27
TORSDOF 16
