REMARK SMILES Cc1ccc(-c2cc(Cl)cc3c2O[C@@H](C(F)(F)F)C(C(=O)NCCCCCCNC(=O)c2ccc(-c4c5nc(c(-c6c(F)cccc6F)c6ccc([nH]6)c(-c6c(F)cccc6F)c6nc(c(-c7c(F)cccc7F)c7ccc4[nH]7)C=C6)C=C5)cc2)=C3)cc1
REMARK SMILES IDX 26 1 25 2 24 3 23 4 22 5 20 6 21 7 19 9 6 10 7 11 12 12 8 13
REMARK SMILES IDX 11 14 13 15 9 16 10 17 86 18 14 19 5 20 1 21 2 22 3 23 88 24
REMARK SMILES IDX 4 25 87 26 15 27 16 28 17 29 18 30 27 31 28 32 29 33 30 34
REMARK SMILES IDX 31 36 32 37 33 38 85 39 34 40 84 41 35 42 36 43 37 44 78 45
REMARK SMILES IDX 38 46 83 47 77 48 79 49 39 50 82 51 76 52 75 53 40 55 66 56
REMARK SMILES IDX 49 57 65 58 50 59 53 60 64 61 80 62 51 63 52 64 63 66 81 67
REMARK SMILES IDX 54 68 41 69 42 70 47 71 43 72 44 73 46 74 48 75 45 76 67 77
REMARK SMILES IDX 68 78 73 79 69 80 70 81 72 82 74 83 71 84 55 85 56 86 61 87
REMARK SMILES IDX 57 88 58 89 60 90 62 91 59 92
REMARK H PARENT 22 8 29 35 79 54 53 65
REMARK Flexibility Score: inf
ROOT
ATOM      1  C   UNL     1      -1.319  -3.078   7.176  1.00  0.00     0.002 C 
ENDROOT
BRANCH   1   2
ATOM      2  C   UNL     1      -1.430  -3.868   5.872  1.00  0.00     0.002 C 
BRANCH   2   3
ATOM      3  C   UNL     1      -2.775  -3.930   5.152  1.00  0.00     0.021 C 
BRANCH   3   4
ATOM      4  C   UNL     1      -3.721  -2.731   5.130  1.00  0.00     0.116 C 
BRANCH   4   5
ATOM      5  N   UNL     1      -3.278  -1.470   4.583  1.00  0.00    -0.352 N 
ATOM      6  C   UNL     1      -3.978  -0.361   4.174  1.00  0.00     0.251 C 
ATOM      7  O   UNL     1      -3.341   0.697   4.129  1.00  0.00    -0.270 OA
ATOM      8  H   UNL     1      -2.301  -1.391   4.488  1.00  0.00     0.163 HD
BRANCH   6   9
ATOM      9  C   UNL     1      -5.450  -0.360   3.717  1.00  0.00     0.067 C 
ATOM     10  C   UNL     1      -3.889  -1.172   0.147  1.00  0.00     0.026 A 
ATOM     11  C   UNL     1      -4.356  -0.542  -1.025  1.00  0.00     0.033 A 
ATOM     12  C   UNL     1      -4.697  -1.004   1.269  1.00  0.00     0.135 A 
ATOM     13  C   UNL     1      -5.314   0.476  -0.945  1.00  0.00     0.042 A 
ATOM     14  C   UNL     1      -5.389   0.222   1.437  1.00  0.00     0.019 A 
ATOM     15  O   UNL     1      -4.924  -2.066   2.174  1.00  0.00    -0.475 OA
ATOM     16  Cl  UNL     1      -5.813   1.284  -2.379  1.00  0.00    -0.084 Cl
ATOM     17  C   UNL     1      -5.754   0.933   0.299  1.00  0.00     0.032 A 
ATOM     18  C   UNL     1      -5.720   0.650   2.845  1.00  0.00     0.025 C 
ATOM     19  C   UNL     1      -5.977  -1.641   3.100  1.00  0.00     0.314 C 
BRANCH  10  20
ATOM     20  C   UNL     1      -2.407  -1.086   0.314  1.00  0.00    -0.015 A 
ATOM     21  C   UNL     1       1.878  -0.397   0.174  1.00  0.00     0.044 C 
ATOM     22  C   UNL     1       0.401  -0.642   0.281  1.00  0.00    -0.051 A 
ATOM     23  C   UNL     1      -0.135  -1.936   0.165  1.00  0.00     0.004 A 
ATOM     24  C   UNL     1      -0.468   0.425   0.483  1.00  0.00     0.004 A 
ATOM     25  C   UNL     1      -1.527  -2.158   0.177  1.00  0.00     0.009 A 
ATOM     26  C   UNL     1      -1.844   0.201   0.508  1.00  0.00     0.009 A 
ENDBRANCH  10  20
BRANCH  19  27
ATOM     27  C   UNL     1      -6.709  -2.586   4.072  1.00  0.00     0.429 C 
ATOM     28  F   UNL     1      -8.052  -2.364   4.011  1.00  0.00    -0.167 F 
ATOM     29  F   UNL     1      -6.518  -3.889   3.780  1.00  0.00    -0.167 F 
ATOM     30  F   UNL     1      -6.375  -2.393   5.370  1.00  0.00    -0.167 F 
ENDBRANCH  19  27
ENDBRANCH   6   9
ENDBRANCH   4   5
ENDBRANCH   3   4
ENDBRANCH   2   3
ENDBRANCH   1   2
BRANCH   1  31
ATOM     31  C   UNL     1      -2.340  -3.370   8.272  1.00  0.00     0.021 C 
BRANCH  31  32
ATOM     32  C   UNL     1      -2.262  -4.749   8.912  1.00  0.00     0.116 C 
BRANCH  32  33
ATOM     33  N   UNL     1      -1.358  -4.838  10.051  1.00  0.00    -0.352 N 
ATOM     34  C   UNL     1      -1.041  -5.934  10.842  1.00  0.00     0.251 C 
ATOM     35  H   UNL     1      -0.907  -3.998  10.296  1.00  0.00     0.163 HD
ATOM     36  O   UNL     1      -0.252  -5.816  11.761  1.00  0.00    -0.269 OA
BRANCH  34  37
ATOM     37  C   UNL     1      -1.563  -7.279  10.477  1.00  0.00     0.039 A 
ATOM     38  C   UNL     1      -0.666  -8.353  10.489  1.00  0.00     0.014 A 
ATOM     39  C   UNL     1      -2.844  -7.452   9.961  1.00  0.00     0.014 A 
ATOM     40  C   UNL     1      -0.958  -9.498   9.750  1.00  0.00     0.010 A 
ATOM     41  C   UNL     1      -3.102  -8.543   9.153  1.00  0.00     0.010 A 
ATOM     42  C   UNL     1      -2.128  -9.530   8.991  1.00  0.00    -0.014 A 
BRANCH  42  43
ATOM     43  C   UNL     1      -2.330 -10.465   7.892  1.00  0.00     0.031 A 
ATOM     44  C   UNL     1      -3.227 -11.626   8.024  1.00  0.00     0.074 A 
ATOM     45  C   UNL     1      -1.713 -10.238   6.711  1.00  0.00     0.049 A 
ATOM     46  N   UNL     1      -3.041 -12.745   7.406  1.00  0.00    -0.248 NA
ATOM     47  C   UNL     1      -4.407 -11.622   8.881  1.00  0.00     0.031 C 
ATOM     48  C   UNL     1      -1.951 -10.921   5.443  1.00  0.00     0.029 A 
ATOM     49  N   UNL     1      -0.576  -9.455   6.479  1.00  0.00    -0.354 N 
ATOM     50  C   UNL     1      -4.186 -13.490   7.555  1.00  0.00     0.074 A 
ATOM     51  C   UNL     1      -4.977 -12.782   8.538  1.00  0.00     0.031 C 
ATOM     52  C   UNL     1      -0.871 -10.768   4.661  1.00  0.00     0.029 A 
ATOM     53  C   UNL     1       0.144 -10.092   5.449  1.00  0.00     0.049 A 
ATOM     54  H   UNL     1      -0.329  -8.623   6.943  1.00  0.00     0.167 HD
ATOM     55  C   UNL     1      -4.427 -14.547   6.729  1.00  0.00     0.037 A 
ATOM     56  C   UNL     1       1.415 -10.545   5.645  1.00  0.00     0.037 A 
ATOM     57  C   UNL     1      -3.369 -14.719   5.741  1.00  0.00     0.049 A 
ATOM     58  C   UNL     1       1.574 -12.033   5.441  1.00  0.00     0.074 A 
ATOM     59  C   UNL     1      -3.255 -14.305   4.423  1.00  0.00     0.029 A 
ATOM     60  N   UNL     1      -2.095 -15.107   6.141  1.00  0.00    -0.354 N 
ATOM     61  N   UNL     1       0.579 -12.874   5.427  1.00  0.00    -0.248 NA
ATOM     62  C   UNL     1       2.864 -12.695   5.266  1.00  0.00     0.031 C 
ATOM     63  C   UNL     1      -1.899 -14.412   4.039  1.00  0.00     0.029 A 
ATOM     64  C   UNL     1      -1.187 -14.903   5.119  1.00  0.00     0.049 A 
ATOM     65  H   UNL     1      -1.871 -15.474   7.027  1.00  0.00     0.167 HD
ATOM     66  C   UNL     1       1.057 -14.152   5.280  1.00  0.00     0.074 A 
ATOM     67  C   UNL     1       2.492 -13.983   5.157  1.00  0.00     0.031 C 
ATOM     68  C   UNL     1       0.221 -15.232   5.282  1.00  0.00     0.037 A 
BRANCH  55  69
ATOM     69  C   UNL     1      -5.785 -15.193   6.644  1.00  0.00     0.057 A 
ATOM     70  C   UNL     1      -6.351 -15.568   5.411  1.00  0.00     0.134 A 
ATOM     71  C   UNL     1      -6.602 -15.424   7.763  1.00  0.00     0.134 A 
ATOM     72  F   UNL     1      -5.664 -15.495   4.265  1.00  0.00    -0.206 F 
ATOM     73  C   UNL     1      -7.670 -16.023   5.290  1.00  0.00     0.040 A 
ATOM     74  C   UNL     1      -7.938 -15.834   7.653  1.00  0.00     0.040 A 
ATOM     75  F   UNL     1      -6.128 -15.268   9.008  1.00  0.00    -0.206 F 
ATOM     76  C   UNL     1      -8.482 -16.120   6.408  1.00  0.00     0.006 A 
ENDBRANCH  55  69
BRANCH  56  77
ATOM     77  C   UNL     1       2.189  -9.724   6.610  1.00  0.00     0.057 A 
ATOM     78  C   UNL     1       2.511  -8.402   6.256  1.00  0.00     0.134 A 
ATOM     79  C   UNL     1       2.272 -10.059   7.964  1.00  0.00     0.134 A 
ATOM     80  F   UNL     1       2.449  -8.015   4.971  1.00  0.00    -0.206 F 
ATOM     81  C   UNL     1       2.791  -7.426   7.215  1.00  0.00     0.040 A 
ATOM     82  C   UNL     1       2.562  -9.092   8.934  1.00  0.00     0.040 A 
ATOM     83  F   UNL     1       1.959 -11.294   8.382  1.00  0.00    -0.206 F 
ATOM     84  C   UNL     1       2.782  -7.765   8.565  1.00  0.00     0.006 A 
ENDBRANCH  56  77
BRANCH  68  85
ATOM     85  C   UNL     1       0.621 -16.689   5.330  1.00  0.00     0.057 A 
ATOM     86  C   UNL     1       1.812 -17.169   5.892  1.00  0.00     0.134 A 
ATOM     87  C   UNL     1      -0.289 -17.694   4.919  1.00  0.00     0.134 A 
ATOM     88  F   UNL     1       2.721 -16.343   6.426  1.00  0.00    -0.206 F 
ATOM     89  C   UNL     1       2.101 -18.539   5.988  1.00  0.00     0.040 A 
ATOM     90  C   UNL     1      -0.034 -19.061   5.059  1.00  0.00     0.040 A 
ATOM     91  F   UNL     1      -1.480 -17.392   4.382  1.00  0.00    -0.206 F 
ATOM     92  C   UNL     1       1.174 -19.490   5.583  1.00  0.00     0.006 A 
ENDBRANCH  68  85
ENDBRANCH  42  43
ENDBRANCH  34  37
ENDBRANCH  32  33
ENDBRANCH  31  32
ENDBRANCH   1  31
TORSDOF 15
