REMARK SMILES C[C@H]1[C@H](C(=O)NCCCCCCNC(=O)c2ccc(-c3c4nc(c(-c5c(F)cccc5F)c5ccc([nH]5)c(-c5c(F)cccc5F)c5nc(c(-c6c(F)cccc6F)c6ccc3[nH]6)C=C5)C=C4)cc2)CCN1C(=O)[C@](C)([NH3+])C1CC1
REMARK SMILES IDX 9 1 8 2 7 3 6 4 4 5 5 6 3 8 1 9 2 10 72 11 70 12 71 13 73 14
REMARK SMILES IDX 74 15 75 16 76 17 77 18 78 22 79 23 80 24 10 25 11 26 12 27
REMARK SMILES IDX 13 28 14 29 15 31 16 32 17 33 69 34 18 35 68 36 19 37 20 38
REMARK SMILES IDX 21 39 62 40 22 41 67 42 61 43 63 44 23 45 66 46 60 47 59 48
REMARK SMILES IDX 24 50 50 51 33 52 49 53 34 54 37 55 48 56 64 57 35 58 36 59
REMARK SMILES IDX 47 61 65 62 38 63 25 64 26 65 31 66 27 67 28 68 30 69 32 70
REMARK SMILES IDX 29 71 51 72 52 73 57 74 53 75 54 76 56 77 58 78 55 79 39 80
REMARK SMILES IDX 40 81 45 82 41 83 42 84 44 85 46 86 43 87
REMARK H PARENT 6 7 77 19 77 20 77 21 13 30 63 49 37 60
REMARK Flexibility Score: inf
ROOT
ATOM      1  C   UNL     1       5.941  -4.989   4.513  1.00  0.00     0.002 C 
ENDROOT
BRANCH   1   2
ATOM      2  C   UNL     1       5.126  -4.411   3.354  1.00  0.00     0.021 C 
BRANCH   2   3
ATOM      3  C   UNL     1       5.888  -4.308   2.037  1.00  0.00     0.116 C 
BRANCH   3   4
ATOM      4  N   UNL     1       6.149  -5.615   1.470  1.00  0.00    -0.356 N 
ATOM      5  C   UNL     1       5.857  -6.140   0.253  1.00  0.00     0.225 C 
ATOM      6  O   UNL     1       6.193  -7.311   0.050  1.00  0.00    -0.275 OA
ATOM      7  H   UNL     1       6.623  -6.232   2.074  1.00  0.00     0.163 HD
BRANCH   5   8
ATOM      8  C   UNL     1       5.139  -5.360  -0.838  1.00  0.00     0.102 C 
ATOM      9  C   UNL     1       2.736  -5.517  -1.544  1.00  0.00     0.032 C 
ATOM     10  C   UNL     1       3.688  -4.991  -0.466  1.00  0.00     0.094 C 
ATOM     11  N   UNL     1       3.665  -3.532  -0.434  1.00  0.00    -0.334 N 
ATOM     12  C   UNL     1       5.833  -4.061  -1.246  1.00  0.00     0.037 C 
ATOM     13  C   UNL     1       4.731  -3.016  -1.283  1.00  0.00     0.121 C 
BRANCH  11  14
ATOM     14  C   UNL     1       2.882  -2.652   0.274  1.00  0.00     0.284 C 
ATOM     15  O   UNL     1       3.164  -1.439   0.196  1.00  0.00    -0.268 OA
BRANCH  14  16
ATOM     16  C   UNL     1       1.621  -3.015   1.156  1.00  0.00     0.174 C 
ATOM     17  C   UNL     1       0.371  -2.628   0.352  1.00  0.00     0.090 C 
BRANCH  16  18
ATOM     18  N   UNL     1       1.667  -2.034   2.300  1.00  0.00    -0.345 N 
ATOM     19  H   UNL     1       0.877  -2.202   2.924  1.00  0.00     0.345 HD
ATOM     20  H   UNL     1       1.615  -1.083   1.935  1.00  0.00     0.345 HD
ATOM     21  H   UNL     1       2.539  -2.153   2.816  1.00  0.00     0.345 HD
ENDBRANCH  16  18
BRANCH  16  22
ATOM     22  C   UNL     1       1.506  -4.333   1.914  1.00  0.00     0.060 C 
ATOM     23  C   UNL     1       0.131  -4.952   2.171  1.00  0.00     0.011 C 
ATOM     24  C   UNL     1       1.146  -5.708   1.386  1.00  0.00     0.011 C 
ENDBRANCH  16  22
ENDBRANCH  14  16
ENDBRANCH  11  14
ENDBRANCH   5   8
ENDBRANCH   3   4
ENDBRANCH   2   3
ENDBRANCH   1   2
BRANCH   1  25
ATOM     25  C   UNL     1       7.256  -4.262   4.810  1.00  0.00     0.002 C 
BRANCH  25  26
ATOM     26  C   UNL     1       7.127  -2.755   5.039  1.00  0.00     0.021 C 
BRANCH  26  27
ATOM     27  C   UNL     1       6.197  -2.362   6.182  1.00  0.00     0.116 C 
BRANCH  27  28
ATOM     28  N   UNL     1       6.666  -2.862   7.464  1.00  0.00    -0.352 N 
ATOM     29  C   UNL     1       6.932  -2.177   8.623  1.00  0.00     0.251 C 
ATOM     30  H   UNL     1       6.814  -3.834   7.507  1.00  0.00     0.163 HD
ATOM     31  O   UNL     1       7.512  -2.733   9.548  1.00  0.00    -0.269 OA
BRANCH  29  32
ATOM     32  C   UNL     1       6.535  -0.759   8.748  1.00  0.00     0.039 A 
ATOM     33  C   UNL     1       7.441   0.149   9.303  1.00  0.00     0.014 A 
ATOM     34  C   UNL     1       5.272  -0.327   8.331  1.00  0.00     0.014 A 
ATOM     35  C   UNL     1       7.102   1.501   9.385  1.00  0.00     0.010 A 
ATOM     36  C   UNL     1       4.965   1.031   8.345  1.00  0.00     0.010 A 
ATOM     37  C   UNL     1       5.875   1.958   8.876  1.00  0.00    -0.014 A 
BRANCH  37  38
ATOM     38  C   UNL     1       5.530   3.402   8.889  1.00  0.00     0.031 A 
ATOM     39  C   UNL     1       4.365   3.896   9.701  1.00  0.00     0.074 A 
ATOM     40  C   UNL     1       6.231   4.260   8.123  1.00  0.00     0.049 A 
ATOM     41  N   UNL     1       3.877   5.107   9.795  1.00  0.00    -0.248 NA
ATOM     42  C   UNL     1       3.636   2.892  10.492  1.00  0.00     0.031 C 
ATOM     43  C   UNL     1       7.354   3.897   7.256  1.00  0.00     0.029 A 
ATOM     44  N   UNL     1       6.095   5.613   7.942  1.00  0.00    -0.354 N 
ATOM     45  C   UNL     1       2.782   5.008  10.644  1.00  0.00     0.074 A 
ATOM     46  C   UNL     1       2.643   3.611  10.993  1.00  0.00     0.031 C 
ATOM     47  C   UNL     1       7.820   5.003   6.655  1.00  0.00     0.029 A 
ATOM     48  C   UNL     1       7.006   6.145   7.061  1.00  0.00     0.049 A 
ATOM     49  H   UNL     1       5.410   6.152   8.399  1.00  0.00     0.167 HD
ATOM     50  C   UNL     1       1.979   5.995  11.109  1.00  0.00     0.037 A 
ATOM     51  C   UNL     1       7.163   7.409   6.625  1.00  0.00     0.037 A 
ATOM     52  C   UNL     1       2.130   7.386  10.772  1.00  0.00     0.049 A 
ATOM     53  C   UNL     1       6.246   8.483   7.140  1.00  0.00     0.074 A 
ATOM     54  C   UNL     1       1.404   8.469  11.236  1.00  0.00     0.029 A 
ATOM     55  N   UNL     1       3.067   7.886   9.880  1.00  0.00    -0.354 N 
ATOM     56  N   UNL     1       5.260   8.387   7.999  1.00  0.00    -0.248 NA
ATOM     57  C   UNL     1       6.467   9.843   6.628  1.00  0.00     0.031 C 
ATOM     58  C   UNL     1       1.869   9.618  10.588  1.00  0.00     0.029 A 
ATOM     59  C   UNL     1       2.921   9.259   9.760  1.00  0.00     0.049 A 
ATOM     60  H   UNL     1       3.738   7.346   9.403  1.00  0.00     0.167 HD
ATOM     61  C   UNL     1       4.761   9.674   8.150  1.00  0.00     0.074 A 
ATOM     62  C   UNL     1       5.564  10.536   7.308  1.00  0.00     0.031 C 
ATOM     63  C   UNL     1       3.730  10.104   8.919  1.00  0.00     0.037 A 
BRANCH  50  64
ATOM     64  C   UNL     1       0.864   5.601  12.035  1.00  0.00     0.057 A 
ATOM     65  C   UNL     1       1.111   5.147  13.338  1.00  0.00     0.134 A 
ATOM     66  C   UNL     1      -0.473   5.704  11.631  1.00  0.00     0.134 A 
ATOM     67  F   UNL     1       2.369   5.015  13.785  1.00  0.00    -0.206 F 
ATOM     68  C   UNL     1       0.070   4.782  14.194  1.00  0.00     0.040 A 
ATOM     69  C   UNL     1      -1.523   5.369  12.488  1.00  0.00     0.040 A 
ATOM     70  F   UNL     1      -0.782   6.138  10.399  1.00  0.00    -0.206 F 
ATOM     71  C   UNL     1      -1.252   4.899  13.771  1.00  0.00     0.006 A 
ENDBRANCH  50  64
BRANCH  51  72
ATOM     72  C   UNL     1       8.244   7.733   5.660  1.00  0.00     0.057 A 
ATOM     73  C   UNL     1       9.348   8.502   6.046  1.00  0.00     0.134 A 
ATOM     74  C   UNL     1       8.198   7.292   4.332  1.00  0.00     0.134 A 
ATOM     75  F   UNL     1       9.440   8.969   7.300  1.00  0.00    -0.206 F 
ATOM     76  C   UNL     1      10.358   8.837   5.143  1.00  0.00     0.040 A 
ATOM     77  C   UNL     1       9.214   7.598   3.425  1.00  0.00     0.040 A 
ATOM     78  F   UNL     1       7.171   6.545   3.901  1.00  0.00    -0.206 F 
ATOM     79  C   UNL     1      10.295   8.380   3.828  1.00  0.00     0.006 A 
ENDBRANCH  51  72
BRANCH  63  80
ATOM     80  C   UNL     1       3.432  11.575   8.908  1.00  0.00     0.057 A 
ATOM     81  C   UNL     1       2.854  12.206   7.798  1.00  0.00     0.134 A 
ATOM     82  C   UNL     1       3.693  12.364  10.036  1.00  0.00     0.134 A 
ATOM     83  F   UNL     1       2.592  11.510   6.681  1.00  0.00    -0.206 F 
ATOM     84  C   UNL     1       2.568  13.572   7.803  1.00  0.00     0.040 A 
ATOM     85  C   UNL     1       3.385  13.724  10.063  1.00  0.00     0.040 A 
ATOM     86  F   UNL     1       4.237  11.821  11.136  1.00  0.00    -0.206 F 
ATOM     87  C   UNL     1       2.826  14.334   8.941  1.00  0.00     0.006 A 
ENDBRANCH  63  80
ENDBRANCH  37  38
ENDBRANCH  29  32
ENDBRANCH  27  28
ENDBRANCH  26  27
ENDBRANCH  25  26
ENDBRANCH   1  25
TORSDOF 17
