REMARK SMILES COc1ccc2c(CC(=O)NCCCCCCNC(=O)c3ccc(-c4c5nc(c(-c6c(F)cccc6F)c6ccc([nH]6)c(-c6c(F)cccc6F)c6nc(c(-c7c(F)cccc7F)c7ccc4[nH]7)C=C6)C=C5)cc3)c(C(=O)c3cc(C)ccn3)[nH]c2c1
REMARK SMILES IDX 14 1 13 2 12 3 11 4 9 5 10 6 8 8 7 9 3 10 4 11 87 12 5 13
REMARK SMILES IDX 86 14 6 15 85 16 75 17 2 19 1 20 76 21 77 22 78 23 79 24
REMARK SMILES IDX 84 25 80 26 83 27 81 28 82 29 15 30 16 31 17 32 18 33 19 34
REMARK SMILES IDX 20 36 21 37 22 38 74 39 23 40 73 41 24 42 25 43 26 44 67 45
REMARK SMILES IDX 27 46 72 47 66 48 68 49 28 50 71 51 65 52 64 53 29 55 55 56
REMARK SMILES IDX 38 57 54 58 39 59 42 60 53 61 69 62 40 63 41 64 52 66 70 67
REMARK SMILES IDX 43 68 30 69 31 70 36 71 32 72 33 73 35 74 37 75 34 76 56 77
REMARK SMILES IDX 57 78 62 79 58 80 59 81 61 82 63 83 60 84 44 85 45 86 50 87
REMARK SMILES IDX 46 88 47 89 49 90 51 91 48 92
REMARK H PARENT 11 7 85 18 18 35 68 54 42 65
REMARK Flexibility Score: inf
ROOT
ATOM      1  C   UNL     1       2.546  -5.743   6.433  1.00  0.00     0.002 C 
ENDROOT
BRANCH   1   2
ATOM      2  C   UNL     1       2.379  -5.241   4.992  1.00  0.00     0.021 C 
BRANCH   2   3
ATOM      3  C   UNL     1       3.514  -5.637   4.050  1.00  0.00     0.116 C 
BRANCH   3   4
ATOM      4  N   UNL     1       3.533  -7.058   3.783  1.00  0.00    -0.356 N 
ATOM      5  C   UNL     1       3.235  -7.742   2.640  1.00  0.00     0.224 C 
ATOM      6  O   UNL     1       3.511  -8.945   2.627  1.00  0.00    -0.275 OA
ATOM      7  H   UNL     1       3.802  -7.620   4.544  1.00  0.00     0.163 HD
BRANCH   5   8
ATOM      8  C   UNL     1       2.735  -7.032   1.387  1.00  0.00     0.138 C 
BRANCH   8   9
ATOM      9  C   UNL     1       1.507  -6.176   1.557  1.00  0.00    -0.002 A 
ATOM     10  C   UNL     1       0.703  -2.054   1.119  1.00  0.00     0.120 A 
ATOM     11  C   UNL     1       1.996  -2.448   0.787  1.00  0.00     0.047 A 
ATOM     12  C   UNL     1      -0.228  -2.992   1.582  1.00  0.00     0.073 A 
ATOM     13  C   UNL     1       2.377  -3.793   0.882  1.00  0.00     0.014 A 
ATOM     14  C   UNL     1       0.167  -4.333   1.656  1.00  0.00     0.050 A 
ATOM     15  C   UNL     1       1.447  -4.759   1.323  1.00  0.00     0.004 A 
ATOM     16  N   UNL     1      -0.539  -5.446   2.042  1.00  0.00    -0.351 N 
ATOM     17  C   UNL     1       0.218  -6.591   1.898  1.00  0.00     0.093 A 
ATOM     18  H   UNL     1      -1.464  -5.429   2.378  1.00  0.00     0.167 HD
BRANCH  10  19
ATOM     19  O   UNL     1       0.244  -0.764   1.066  1.00  0.00    -0.497 OA
ATOM     20  C   UNL     1       0.850   0.057   0.071  1.00  0.00     0.278 C 
ENDBRANCH  10  19
BRANCH  17  21
ATOM     21  C   UNL     1      -0.272  -7.952   2.097  1.00  0.00     0.227 C 
ATOM     22  O   UNL     1       0.434  -8.949   1.962  1.00  0.00    -0.285 OA
BRANCH  21  23
ATOM     23  C   UNL     1      -1.709  -8.167   2.417  1.00  0.00     0.113 A 
ATOM     24  C   UNL     1      -2.685  -7.836   1.480  1.00  0.00     0.036 A 
ATOM     25  N   UNL     1      -1.978  -8.707   3.631  1.00  0.00    -0.253 NA
ATOM     26  C   UNL     1      -4.022  -8.074   1.804  1.00  0.00    -0.047 A 
ATOM     27  C   UNL     1      -3.274  -8.959   3.904  1.00  0.00     0.112 A 
ATOM     28  C   UNL     1      -5.128  -7.745   0.847  1.00  0.00     0.044 C 
ATOM     29  C   UNL     1      -4.316  -8.660   3.039  1.00  0.00     0.023 A 
ENDBRANCH  21  23
ENDBRANCH  17  21
ENDBRANCH   8   9
ENDBRANCH   5   8
ENDBRANCH   3   4
ENDBRANCH   2   3
ENDBRANCH   1   2
BRANCH   1  30
ATOM     30  C   UNL     1       3.838  -5.318   7.139  1.00  0.00     0.002 C 
BRANCH  30  31
ATOM     31  C   UNL     1       4.116  -3.812   7.158  1.00  0.00     0.021 C 
BRANCH  31  32
ATOM     32  C   UNL     1       3.054  -2.968   7.857  1.00  0.00     0.116 C 
BRANCH  32  33
ATOM     33  N   UNL     1       2.963  -3.259   9.280  1.00  0.00    -0.352 N 
ATOM     34  C   UNL     1       2.996  -2.403  10.352  1.00  0.00     0.251 C 
ATOM     35  H   UNL     1       2.864  -4.211   9.507  1.00  0.00     0.163 HD
ATOM     36  O   UNL     1       3.073  -2.849  11.494  1.00  0.00    -0.269 OA
BRANCH  34  37
ATOM     37  C   UNL     1       2.960  -0.939  10.142  1.00  0.00     0.039 A 
ATOM     38  C   UNL     1       3.837  -0.133  10.874  1.00  0.00     0.014 A 
ATOM     39  C   UNL     1       2.052  -0.357   9.253  1.00  0.00     0.014 A 
ATOM     40  C   UNL     1       3.845   1.250  10.672  1.00  0.00     0.010 A 
ATOM     41  C   UNL     1       2.099   1.014   9.011  1.00  0.00     0.010 A 
ATOM     42  C   UNL     1       2.996   1.830   9.717  1.00  0.00    -0.014 A 
BRANCH  42  43
ATOM     43  C   UNL     1       3.034   3.288   9.438  1.00  0.00     0.031 A 
ATOM     44  C   UNL     1       1.855   4.155   9.776  1.00  0.00     0.074 A 
ATOM     45  C   UNL     1       4.105   3.818   8.817  1.00  0.00     0.049 A 
ATOM     46  N   UNL     1       1.668   5.428   9.531  1.00  0.00    -0.248 NA
ATOM     47  C   UNL     1       0.728   3.501  10.459  1.00  0.00     0.031 C 
ATOM     48  C   UNL     1       5.296   3.076   8.401  1.00  0.00     0.029 A 
ATOM     49  N   UNL     1       4.358   5.106   8.415  1.00  0.00    -0.354 N 
ATOM     50  C   UNL     1       0.398   5.722  10.011  1.00  0.00     0.074 A 
ATOM     51  C   UNL     1      -0.155   4.487  10.527  1.00  0.00     0.031 C 
ATOM     52  C   UNL     1       6.158   3.922   7.814  1.00  0.00     0.029 A 
ATOM     53  C   UNL     1       5.568   5.257   7.784  1.00  0.00     0.049 A 
ATOM     54  H   UNL     1       3.731   5.850   8.565  1.00  0.00     0.167 HD
ATOM     55  C   UNL     1      -0.242   6.915  10.034  1.00  0.00     0.037 A 
ATOM     56  C   UNL     1       6.136   6.348   7.236  1.00  0.00     0.037 A 
ATOM     57  C   UNL     1       0.318   8.148   9.549  1.00  0.00     0.049 A 
ATOM     58  C   UNL     1       5.408   7.662   7.282  1.00  0.00     0.074 A 
ATOM     59  C   UNL     1      -0.230   9.419   9.586  1.00  0.00     0.029 A 
ATOM     60  N   UNL     1       1.558   8.265   8.939  1.00  0.00    -0.354 N 
ATOM     61  N   UNL     1       4.230   7.936   7.787  1.00  0.00    -0.248 NA
ATOM     62  C   UNL     1       6.091   8.819   6.686  1.00  0.00     0.031 C 
ATOM     63  C   UNL     1       0.666  10.300   8.971  1.00  0.00     0.029 A 
ATOM     64  C   UNL     1       1.786   9.584   8.581  1.00  0.00     0.049 A 
ATOM     65  H   UNL     1       2.183   7.521   8.783  1.00  0.00     0.167 HD
ATOM     66  C   UNL     1       4.040   9.297   7.591  1.00  0.00     0.074 A 
ATOM     67  C   UNL     1       5.228   9.795   6.930  1.00  0.00     0.031 C 
ATOM     68  C   UNL     1       2.975  10.064   7.928  1.00  0.00     0.037 A 
BRANCH  55  69
ATOM     69  C   UNL     1      -1.627   6.942  10.610  1.00  0.00     0.057 A 
ATOM     70  C   UNL     1      -1.854   6.820  11.987  1.00  0.00     0.134 A 
ATOM     71  C   UNL     1      -2.742   7.125   9.784  1.00  0.00     0.134 A 
ATOM     72  F   UNL     1      -0.828   6.631  12.831  1.00  0.00    -0.206 F 
ATOM     73  C   UNL     1      -3.143   6.854  12.520  1.00  0.00     0.040 A 
ATOM     74  C   UNL     1      -4.035   7.184  10.307  1.00  0.00     0.040 A 
ATOM     75  F   UNL     1      -2.594   7.254   8.457  1.00  0.00    -0.206 F 
ATOM     76  C   UNL     1      -4.239   7.043  11.678  1.00  0.00     0.006 A 
ENDBRANCH  55  69
BRANCH  56  77
ATOM     77  C   UNL     1       7.478   6.249   6.614  1.00  0.00     0.057 A 
ATOM     78  C   UNL     1       8.602   6.801   7.240  1.00  0.00     0.134 A 
ATOM     79  C   UNL     1       7.670   5.606   5.386  1.00  0.00     0.134 A 
ATOM     80  F   UNL     1       8.474   7.446   8.409  1.00  0.00    -0.206 F 
ATOM     81  C   UNL     1       9.869   6.729   6.660  1.00  0.00     0.040 A 
ATOM     82  C   UNL     1       8.935   5.509   4.804  1.00  0.00     0.040 A 
ATOM     83  F   UNL     1       6.633   5.054   4.741  1.00  0.00    -0.206 F 
ATOM     84  C   UNL     1      10.038   6.077   5.440  1.00  0.00     0.006 A 
ENDBRANCH  56  77
BRANCH  68  85
ATOM     85  C   UNL     1       3.061  11.527   7.613  1.00  0.00     0.057 A 
ATOM     86  C   UNL     1       2.912  12.008   6.306  1.00  0.00     0.134 A 
ATOM     87  C   UNL     1       3.260  12.466   8.632  1.00  0.00     0.134 A 
ATOM     88  F   UNL     1       2.733  11.157   5.285  1.00  0.00    -0.206 F 
ATOM     89  C   UNL     1       2.976  13.373   6.022  1.00  0.00     0.040 A 
ATOM     90  C   UNL     1       3.305  13.834   8.364  1.00  0.00     0.040 A 
ATOM     91  F   UNL     1       3.404  12.069   9.906  1.00  0.00    -0.206 F 
ATOM     92  C   UNL     1       3.167  14.291   7.054  1.00  0.00     0.006 A 
ENDBRANCH  68  85
ENDBRANCH  42  43
ENDBRANCH  34  37
ENDBRANCH  32  33
ENDBRANCH  31  32
ENDBRANCH  30  31
ENDBRANCH   1  30
TORSDOF 17
