REMARK SMILES O=C(NCCCCCCNC(=O)c1cncc(OCCCc2ccccc2)n1)c1ccc(-c2c3nc(c(-c4c(F)cccc4F)c4ccc([nH]4)c(-c4c(F)cccc4F)c4nc(c(-c5c(F)cccc5F)c5ccc2[nH]5)C=C4)C=C3)cc1
REMARK SMILES IDX 8 1 7 2 6 3 5 4 4 5 3 6 1 7 2 8 29 10 30 11 82 12 31 13
REMARK SMILES IDX 81 14 32 15 33 16 34 17 75 18 35 19 80 20 74 21 76 22 36 23
REMARK SMILES IDX 79 24 73 25 72 26 37 28 63 29 46 30 62 31 47 32 50 33 61 34
REMARK SMILES IDX 77 35 48 36 49 37 60 39 78 40 51 41 38 42 39 43 44 44 40 45
REMARK SMILES IDX 41 46 43 47 45 48 42 49 64 50 65 51 70 52 66 53 67 54 69 55
REMARK SMILES IDX 71 56 68 57 52 58 53 59 58 60 54 61 55 62 57 63 59 64 56 65
REMARK SMILES IDX 9 66 10 67 11 68 12 70 13 71 14 72 28 73 15 74 17 75 16 76
REMARK SMILES IDX 18 77 19 78 20 79 21 80 22 81 23 82 27 83 24 84 26 85 25 86
REMARK H PARENT 3 9 76 27 50 38 10 69
REMARK Flexibility Score: inf
ROOT
ATOM      1  C   UNL     1       6.378  -1.937   3.938  1.00  0.00     0.021 C 
ENDROOT
BRANCH   1   2
ATOM      2  C   UNL     1       4.856  -1.802   4.071  1.00  0.00     0.002 C 
BRANCH   2   3
ATOM      3  C   UNL     1       4.276  -0.401   3.861  1.00  0.00     0.002 C 
BRANCH   3   4
ATOM      4  C   UNL     1       4.694   0.307   2.572  1.00  0.00     0.021 C 
BRANCH   4   5
ATOM      5  C   UNL     1       4.398  -0.459   1.291  1.00  0.00     0.116 C 
BRANCH   5   6
ATOM      6  N   UNL     1       2.973  -0.596   1.044  1.00  0.00    -0.352 N 
ATOM      7  O   UNL     1       1.001  -0.190   0.024  1.00  0.00    -0.269 OA
ATOM      8  C   UNL     1       2.230  -0.144  -0.017  1.00  0.00     0.251 C 
ATOM      9  H   UNL     1       2.469  -1.082   1.736  1.00  0.00     0.163 HD
BRANCH   8  10
ATOM     10  C   UNL     1       2.904   0.418  -1.206  1.00  0.00     0.039 A 
ATOM     11  C   UNL     1       4.011  -0.223  -1.771  1.00  0.00     0.014 A 
ATOM     12  C   UNL     1       2.405   1.591  -1.778  1.00  0.00     0.014 A 
ATOM     13  C   UNL     1       4.693   0.373  -2.826  1.00  0.00     0.010 A 
ATOM     14  C   UNL     1       3.041   2.144  -2.891  1.00  0.00     0.010 A 
ATOM     15  C   UNL     1       4.203   1.551  -3.411  1.00  0.00    -0.014 A 
BRANCH  15  16
ATOM     16  C   UNL     1       4.865   2.111  -4.615  1.00  0.00     0.031 A 
ATOM     17  C   UNL     1       5.508   3.466  -4.587  1.00  0.00     0.074 A 
ATOM     18  C   UNL     1       4.851   1.392  -5.753  1.00  0.00     0.049 A 
ATOM     19  N   UNL     1       6.068   4.134  -5.563  1.00  0.00    -0.248 NA
ATOM     20  C   UNL     1       5.513   4.170  -3.296  1.00  0.00     0.031 C 
ATOM     21  C   UNL     1       4.242   0.069  -5.904  1.00  0.00     0.029 A 
ATOM     22  N   UNL     1       5.347   1.675  -7.000  1.00  0.00    -0.354 N 
ATOM     23  C   UNL     1       6.472   5.344  -5.014  1.00  0.00     0.074 A 
ATOM     24  C   UNL     1       6.069   5.328  -3.623  1.00  0.00     0.031 C 
ATOM     25  C   UNL     1       4.406  -0.349  -7.167  1.00  0.00     0.029 A 
ATOM     26  C   UNL     1       5.072   0.702  -7.928  1.00  0.00     0.049 A 
ATOM     27  H   UNL     1       5.851   2.494  -7.208  1.00  0.00     0.167 HD
ATOM     28  C   UNL     1       7.122   6.369  -5.617  1.00  0.00     0.037 A 
ATOM     29  C   UNL     1       5.292   0.670  -9.255  1.00  0.00     0.037 A 
ATOM     30  C   UNL     1       7.515   6.372  -7.004  1.00  0.00     0.049 A 
ATOM     31  C   UNL     1       5.976   1.832  -9.911  1.00  0.00     0.074 A 
ATOM     32  C   UNL     1       8.222   7.339  -7.697  1.00  0.00     0.029 A 
ATOM     33  N   UNL     1       7.217   5.367  -7.914  1.00  0.00    -0.354 N 
ATOM     34  N   UNL     1       6.404   2.947  -9.370  1.00  0.00    -0.248 NA
ATOM     35  C   UNL     1       6.209   1.736 -11.357  1.00  0.00     0.031 C 
ATOM     36  C   UNL     1       8.296   6.950  -9.039  1.00  0.00     0.029 A 
ATOM     37  C   UNL     1       7.693   5.708  -9.170  1.00  0.00     0.049 A 
ATOM     38  H   UNL     1       6.737   4.535  -7.699  1.00  0.00     0.167 HD
ATOM     39  C   UNL     1       6.976   3.676 -10.403  1.00  0.00     0.074 A 
ATOM     40  C   UNL     1       6.848   2.873 -11.602  1.00  0.00     0.031 C 
ATOM     41  C   UNL     1       7.559   4.899 -10.357  1.00  0.00     0.037 A 
BRANCH  28  42
ATOM     42  C   UNL     1       7.412   7.589  -4.787  1.00  0.00     0.057 A 
ATOM     43  C   UNL     1       8.339   7.575  -3.737  1.00  0.00     0.134 A 
ATOM     44  C   UNL     1       6.764   8.802  -5.056  1.00  0.00     0.134 A 
ATOM     45  F   UNL     1       8.992   6.447  -3.420  1.00  0.00    -0.206 F 
ATOM     46  C   UNL     1       8.581   8.710  -2.959  1.00  0.00     0.040 A 
ATOM     47  C   UNL     1       7.019   9.951  -4.305  1.00  0.00     0.040 A 
ATOM     48  F   UNL     1       5.872   8.892  -6.054  1.00  0.00    -0.206 F 
ATOM     49  C   UNL     1       7.922   9.904  -3.246  1.00  0.00     0.006 A 
ENDBRANCH  28  42
BRANCH  29  50
ATOM     50  C   UNL     1       4.830  -0.503 -10.036  1.00  0.00     0.057 A 
ATOM     51  C   UNL     1       5.736  -1.427 -10.566  1.00  0.00     0.134 A 
ATOM     52  C   UNL     1       3.464  -0.757 -10.221  1.00  0.00     0.134 A 
ATOM     53  F   UNL     1       7.056  -1.231 -10.431  1.00  0.00    -0.206 F 
ATOM     54  C   UNL     1       5.302  -2.560 -11.256  1.00  0.00     0.040 A 
ATOM     55  C   UNL     1       3.016  -1.899 -10.884  1.00  0.00     0.040 A 
ATOM     56  F   UNL     1       2.546   0.085  -9.724  1.00  0.00    -0.206 F 
ATOM     57  C   UNL     1       3.937  -2.804 -11.407  1.00  0.00     0.006 A 
ENDBRANCH  29  50
BRANCH  41  58
ATOM     58  C   UNL     1       8.137   5.437 -11.634  1.00  0.00     0.057 A 
ATOM     59  C   UNL     1       7.327   5.906 -12.675  1.00  0.00     0.134 A 
ATOM     60  C   UNL     1       9.525   5.545 -11.793  1.00  0.00     0.134 A 
ATOM     61  F   UNL     1       5.991   5.816 -12.593  1.00  0.00    -0.206 F 
ATOM     62  C   UNL     1       7.878   6.456 -13.835  1.00  0.00     0.040 A 
ATOM     63  C   UNL     1      10.086   6.118 -12.935  1.00  0.00     0.040 A 
ATOM     64  F   UNL     1      10.356   5.119 -10.830  1.00  0.00    -0.206 F 
ATOM     65  C   UNL     1       9.261   6.574 -13.961  1.00  0.00     0.006 A 
ENDBRANCH  41  58
ENDBRANCH  15  16
ENDBRANCH   8  10
ENDBRANCH   5   6
ENDBRANCH   4   5
ENDBRANCH   3   4
ENDBRANCH   2   3
ENDBRANCH   1   2
BRANCH   1  66
ATOM     66  C   UNL     1       7.216  -0.942   4.737  1.00  0.00     0.116 C 
BRANCH  66  67
ATOM     67  N   UNL     1       6.934  -0.959   6.157  1.00  0.00    -0.351 N 
ATOM     68  C   UNL     1       7.824  -0.975   7.205  1.00  0.00     0.271 C 
ATOM     69  H   UNL     1       5.981  -0.960   6.404  1.00  0.00     0.163 HD
ATOM     70  O   UNL     1       7.413  -0.896   8.359  1.00  0.00    -0.267 OA
BRANCH  68  71
ATOM     71  C   UNL     1       9.273  -1.085   6.941  1.00  0.00     0.150 A 
ATOM     72  C   UNL     1       9.966   0.010   6.449  1.00  0.00     0.145 A 
ATOM     73  N   UNL     1       9.873  -2.261   7.256  1.00  0.00    -0.205 NA
ATOM     74  N   UNL     1      11.302  -0.028   6.223  1.00  0.00    -0.257 NA
ATOM     75  C   UNL     1      11.206  -2.288   7.073  1.00  0.00     0.233 A 
ATOM     76  C   UNL     1      11.904  -1.198   6.564  1.00  0.00     0.179 A 
BRANCH  75  77
ATOM     77  O   UNL     1      11.940  -3.376   7.484  1.00  0.00    -0.477 OA
BRANCH  77  78
ATOM     78  C   UNL     1      11.194  -4.588   7.638  1.00  0.00     0.232 C 
BRANCH  78  79
ATOM     79  C   UNL     1      10.690  -4.804   9.072  1.00  0.00     0.046 C 
BRANCH  79  80
ATOM     80  C   UNL     1       9.193  -4.531   9.301  1.00  0.00     0.039 C 
BRANCH  80  81
ATOM     81  C   UNL     1       8.250  -5.179   8.311  1.00  0.00    -0.048 A 
ATOM     82  C   UNL     1       7.190  -4.432   7.780  1.00  0.00     0.004 A 
ATOM     83  C   UNL     1       8.403  -6.507   7.896  1.00  0.00     0.004 A 
ATOM     84  C   UNL     1       6.358  -4.963   6.795  1.00  0.00     0.000 A 
ATOM     85  C   UNL     1       7.567  -7.043   6.913  1.00  0.00     0.000 A 
ATOM     86  C   UNL     1       6.556  -6.266   6.350  1.00  0.00     0.000 A 
ENDBRANCH  80  81
ENDBRANCH  79  80
ENDBRANCH  78  79
ENDBRANCH  77  78
ENDBRANCH  75  77
ENDBRANCH  68  71
ENDBRANCH  66  67
ENDBRANCH   1  66
TORSDOF 18
