REMARK SMILES CCOC(=O)c1cccc(Nc2c(-c3ccc(C(=O)NCCCCCCNC(=O)c4ccc(-c5c6nc(c(-c7c(F)cccc7F)c7ccc([nH]7)c(-c7c(F)cccc7F)c7nc(c(-c8c(F)cccc8F)c8ccc5[nH]8)C=C7)C=C6)cc4)cc3)nc3cnccn23)c1
REMARK SMILES IDX 21 1 20 2 18 3 19 4 17 6 14 7 15 8 85 9 16 10 84 11 13 12
REMARK SMILES IDX 12 13 92 14 86 15 87 16 91 17 88 18 90 19 89 20 11 21 10 23
REMARK SMILES IDX 6 24 7 25 93 26 8 27 9 28 4 29 5 30 3 31 2 32 1 33 22 34
REMARK SMILES IDX 23 35 24 36 25 37 26 38 27 39 28 40 29 42 30 43 31 44 83 45
REMARK SMILES IDX 32 46 82 47 33 48 34 49 35 50 76 51 36 52 81 53 75 54 77 55
REMARK SMILES IDX 37 56 80 57 74 58 73 59 38 61 64 62 47 63 63 64 48 65 51 66
REMARK SMILES IDX 62 67 78 68 49 69 50 70 61 72 79 73 52 74 39 75 40 76 45 77
REMARK SMILES IDX 41 78 42 79 44 80 46 81 43 82 65 83 66 84 71 85 67 86 68 87
REMARK SMILES IDX 70 88 72 89 69 90 53 91 54 92 59 93 55 94 56 95 58 96 60 97
REMARK SMILES IDX 57 98
REMARK H PARENT 20 5 11 22 27 41 77 60 51 71
REMARK Flexibility Score: inf
ROOT
ATOM      1  C   UNL     1       2.932  -6.448 -11.983  1.00  0.00     0.116 C 
ENDROOT
BRANCH   1   2
ATOM      2  N   UNL     1       3.486  -5.198 -11.498  1.00  0.00    -0.352 N 
ATOM      3  C   UNL     1       3.790  -4.760 -10.235  1.00  0.00     0.251 C 
ATOM      4  O   UNL     1       4.281  -3.638 -10.113  1.00  0.00    -0.269 OA
ATOM      5  H   UNL     1       3.680  -4.543 -12.207  1.00  0.00     0.163 HD
BRANCH   3   6
ATOM      6  C   UNL     1       3.604  -5.602  -9.024  1.00  0.00     0.039 A 
ATOM      7  C   UNL     1       3.430  -7.156  -6.691  1.00  0.00     0.004 A 
ATOM      8  C   UNL     1       4.450  -6.211  -6.825  1.00  0.00     0.011 A 
ATOM      9  C   UNL     1       2.477  -7.297  -7.702  1.00  0.00     0.011 A 
ATOM     10  C   UNL     1       4.537  -5.442  -7.988  1.00  0.00     0.014 A 
ATOM     11  C   UNL     1       2.545  -6.498  -8.848  1.00  0.00     0.014 A 
BRANCH   7  12
ATOM     12  C   UNL     1       3.340  -7.977  -5.507  1.00  0.00     0.114 A 
ATOM     13  C   UNL     1       2.905  -7.533  -4.266  1.00  0.00     0.143 A 
ATOM     14  N   UNL     1       2.935  -8.665  -3.477  1.00  0.00    -0.283 N 
ATOM     15  N   UNL     1       3.700  -9.304  -5.487  1.00  0.00    -0.225 NA
ATOM     16  C   UNL     1       3.460  -9.673  -4.250  1.00  0.00     0.157 A 
ATOM     17  C   UNL     1       2.531  -8.938  -2.179  1.00  0.00     0.115 A 
ATOM     18  C   UNL     1       3.638 -10.969  -3.658  1.00  0.00     0.158 A 
ATOM     19  C   UNL     1       2.710 -10.183  -1.703  1.00  0.00     0.129 A 
ATOM     20  N   UNL     1       3.281 -11.219  -2.425  1.00  0.00    -0.259 NA
BRANCH  13  21
ATOM     21  N   UNL     1       2.444  -6.317  -3.862  1.00  0.00    -0.339 N 
ATOM     22  H   UNL     1       1.623  -5.985  -4.292  1.00  0.00     0.168 HD
BRANCH  21  23
ATOM     23  C   UNL     1       3.037  -5.487  -2.878  1.00  0.00     0.040 A 
ATOM     24  C   UNL     1       3.061  -3.345  -1.719  1.00  0.00     0.062 A 
ATOM     25  C   UNL     1       4.186  -3.735  -0.990  1.00  0.00     0.016 A 
ATOM     26  C   UNL     1       2.474  -4.222  -2.641  1.00  0.00     0.041 A 
ATOM     27  C   UNL     1       4.718  -5.006  -1.175  1.00  0.00     0.003 A 
ATOM     28  C   UNL     1       4.149  -5.871  -2.115  1.00  0.00     0.026 A 
BRANCH  24  29
ATOM     29  C   UNL     1       2.570  -1.962  -1.555  1.00  0.00     0.338 C 
ATOM     30  O   UNL     1       3.312  -1.000  -1.462  1.00  0.00    -0.246 OA
BRANCH  29  31
ATOM     31  O   UNL     1       1.217  -1.960  -1.471  1.00  0.00    -0.462 OA
BRANCH  31  32
ATOM     32  C   UNL     1       0.621  -0.665  -1.291  1.00  0.00     0.230 C 
ATOM     33  C   UNL     1       0.786  -0.163   0.134  1.00  0.00     0.049 C 
ENDBRANCH  31  32
ENDBRANCH  29  31
ENDBRANCH  24  29
ENDBRANCH  21  23
ENDBRANCH  13  21
ENDBRANCH   7  12
ENDBRANCH   3   6
ENDBRANCH   1   2
BRANCH   1  34
ATOM     34  C   UNL     1       1.462  -6.260 -12.365  1.00  0.00     0.021 C 
BRANCH  34  35
ATOM     35  C   UNL     1       1.268  -5.571 -13.723  1.00  0.00     0.002 C 
BRANCH  35  36
ATOM     36  C   UNL     1       1.756  -6.380 -14.931  1.00  0.00     0.002 C 
BRANCH  36  37
ATOM     37  C   UNL     1       1.155  -7.782 -15.061  1.00  0.00     0.021 C 
BRANCH  37  38
ATOM     38  C   UNL     1      -0.364  -7.811 -15.204  1.00  0.00     0.116 C 
BRANCH  38  39
ATOM     39  N   UNL     1      -0.801  -7.210 -16.453  1.00  0.00    -0.352 N 
ATOM     40  C   UNL     1      -1.624  -7.727 -17.422  1.00  0.00     0.251 C 
ATOM     41  H   UNL     1      -0.457  -6.305 -16.630  1.00  0.00     0.163 HD
ATOM     42  O   UNL     1      -1.724  -7.170 -18.510  1.00  0.00    -0.269 OA
BRANCH  40  43
ATOM     43  C   UNL     1      -2.389  -8.964 -17.157  1.00  0.00     0.039 A 
ATOM     44  C   UNL     1      -2.435  -9.954 -18.143  1.00  0.00     0.014 A 
ATOM     45  C   UNL     1      -3.086  -9.132 -15.957  1.00  0.00     0.014 A 
ATOM     46  C   UNL     1      -3.148 -11.132 -17.909  1.00  0.00     0.010 A 
ATOM     47  C   UNL     1      -3.748 -10.330 -15.702  1.00  0.00     0.010 A 
ATOM     48  C   UNL     1      -3.795 -11.336 -16.680  1.00  0.00    -0.014 A 
BRANCH  48  49
ATOM     49  C   UNL     1      -4.550 -12.583 -16.407  1.00  0.00     0.031 A 
ATOM     50  C   UNL     1      -6.043 -12.533 -16.237  1.00  0.00     0.074 A 
ATOM     51  C   UNL     1      -3.890 -13.745 -16.250  1.00  0.00     0.049 A 
ATOM     52  N   UNL     1      -6.872 -13.493 -15.913  1.00  0.00    -0.248 NA
ATOM     53  C   UNL     1      -6.686 -11.223 -16.431  1.00  0.00     0.031 C 
ATOM     54  C   UNL     1      -2.440 -13.916 -16.350  1.00  0.00     0.029 A 
ATOM     55  N   UNL     1      -4.355 -15.003 -15.960  1.00  0.00    -0.354 N 
ATOM     56  C   UNL     1      -8.126 -12.900 -15.842  1.00  0.00     0.074 A 
ATOM     57  C   UNL     1      -7.945 -11.491 -16.116  1.00  0.00     0.031 C 
ATOM     58  C   UNL     1      -2.135 -15.207 -16.139  1.00  0.00     0.029 A 
ATOM     59  C   UNL     1      -3.362 -15.947 -15.861  1.00  0.00     0.049 A 
ATOM     60  H   UNL     1      -5.309 -15.210 -15.835  1.00  0.00     0.167 HD
ATOM     61  C   UNL     1      -9.323 -13.481 -15.592  1.00  0.00     0.037 A 
ATOM     62  C   UNL     1      -3.435 -17.260 -15.574  1.00  0.00     0.037 A 
ATOM     63  C   UNL     1      -9.507 -14.889 -15.357  1.00  0.00     0.049 A 
ATOM     64  C   UNL     1      -4.778 -17.885 -15.320  1.00  0.00     0.074 A 
ATOM     65  C   UNL     1     -10.687 -15.583 -15.153  1.00  0.00     0.029 A 
ATOM     66  N   UNL     1      -8.480 -15.818 -15.300  1.00  0.00    -0.354 N 
ATOM     67  N   UNL     1      -5.962 -17.323 -15.310  1.00  0.00    -0.248 NA
ATOM     68  C   UNL     1      -4.795 -19.329 -15.044  1.00  0.00     0.031 C 
ATOM     69  C   UNL     1     -10.371 -16.930 -14.944  1.00  0.00     0.029 A 
ATOM     70  C   UNL     1      -8.998 -17.079 -15.053  1.00  0.00     0.049 A 
ATOM     71  H   UNL     1      -7.524 -15.613 -15.417  1.00  0.00     0.167 HD
ATOM     72  C   UNL     1      -6.866 -18.346 -15.055  1.00  0.00     0.074 A 
ATOM     73  C   UNL     1      -6.094 -19.565 -14.926  1.00  0.00     0.031 C 
ATOM     74  C   UNL     1      -8.214 -18.282 -14.939  1.00  0.00     0.037 A 
BRANCH  61  75
ATOM     75  C   UNL     1     -10.529 -12.590 -15.566  1.00  0.00     0.057 A 
ATOM     76  C   UNL     1     -11.058 -12.030 -16.736  1.00  0.00     0.134 A 
ATOM     77  C   UNL     1     -11.185 -12.309 -14.361  1.00  0.00     0.134 A 
ATOM     78  F   UNL     1     -10.469 -12.251 -17.921  1.00  0.00    -0.206 F 
ATOM     79  C   UNL     1     -12.181 -11.202 -16.706  1.00  0.00     0.040 A 
ATOM     80  C   UNL     1     -12.323 -11.501 -14.321  1.00  0.00     0.040 A 
ATOM     81  F   UNL     1     -10.733 -12.816 -13.204  1.00  0.00    -0.206 F 
ATOM     82  C   UNL     1     -12.820 -10.940 -15.496  1.00  0.00     0.006 A 
ENDBRANCH  61  75
BRANCH  62  83
ATOM     83  C   UNL     1      -2.200 -18.080 -15.540  1.00  0.00     0.057 A 
ATOM     84  C   UNL     1      -1.923 -19.005 -16.553  1.00  0.00     0.134 A 
ATOM     85  C   UNL     1      -1.271 -17.962 -14.500  1.00  0.00     0.134 A 
ATOM     86  F   UNL     1      -2.785 -19.173 -17.566  1.00  0.00    -0.206 F 
ATOM     87  C   UNL     1      -0.774 -19.796 -16.526  1.00  0.00     0.040 A 
ATOM     88  C   UNL     1      -0.107 -18.733 -14.470  1.00  0.00     0.040 A 
ATOM     89  F   UNL     1      -1.477 -17.089 -13.503  1.00  0.00    -0.206 F 
ATOM     90  C   UNL     1       0.140 -19.657 -15.483  1.00  0.00     0.006 A 
ENDBRANCH  62  83
BRANCH  74  91
ATOM     91  C   UNL     1      -8.943 -19.569 -14.694  1.00  0.00     0.057 A 
ATOM     92  C   UNL     1      -8.927 -20.198 -13.444  1.00  0.00     0.134 A 
ATOM     93  C   UNL     1      -9.699 -20.163 -15.712  1.00  0.00     0.134 A 
ATOM     94  F   UNL     1      -8.210 -19.685 -12.433  1.00  0.00    -0.206 F 
ATOM     95  C   UNL     1      -9.626 -21.385 -13.219  1.00  0.00     0.040 A 
ATOM     96  C   UNL     1     -10.419 -21.337 -15.494  1.00  0.00     0.040 A 
ATOM     97  F   UNL     1      -9.759 -19.604 -16.931  1.00  0.00    -0.206 F 
ATOM     98  C   UNL     1     -10.380 -21.954 -14.245  1.00  0.00     0.006 A 
ENDBRANCH  74  91
ENDBRANCH  48  49
ENDBRANCH  40  43
ENDBRANCH  38  39
ENDBRANCH  37  38
ENDBRANCH  36  37
ENDBRANCH  35  36
ENDBRANCH  34  35
ENDBRANCH   1  34
TORSDOF 19
