REMARK SMILES COc1cc(/C=C/C(=O)NCCCCCCNC(=O)c2ccc(-c3c4nc(c(-c5c(F)cccc5F)c5ccc([nH]5)c(-c5c(F)cccc5F)c5nc(c(-c6c(F)cccc6F)c6ccc3[nH]6)C=C5)C=C4)cc2)cc(OC)c1O
REMARK SMILES IDX 13 1 12 2 11 3 10 4 8 5 9 6 7 8 6 9 5 10 3 11 4 12 78 13
REMARK SMILES IDX 75 14 74 15 2 16 1 17 79 18 76 20 77 21 14 22 15 23 16 24
REMARK SMILES IDX 17 25 18 26 19 28 20 29 21 30 73 31 22 32 72 33 23 34 24 35
REMARK SMILES IDX 25 36 66 37 26 38 71 39 65 40 67 41 27 42 70 43 64 44 63 45
REMARK SMILES IDX 28 47 54 48 37 49 53 50 38 51 41 52 52 53 68 54 39 55 40 56
REMARK SMILES IDX 51 58 69 59 42 60 29 61 30 62 35 63 31 64 32 65 34 66 36 67
REMARK SMILES IDX 33 68 55 69 56 70 61 71 57 72 58 73 60 74 62 75 59 76 43 77
REMARK SMILES IDX 44 78 49 79 45 80 46 81 48 82 50 83 47 84
REMARK H PARENT 10 7 79 19 17 27 67 46 41 57
REMARK Flexibility Score: inf
ROOT
ATOM      1  C   UNL     1       0.434  -7.362   8.118  1.00  0.00     0.002 C 
ENDROOT
BRANCH   1   2
ATOM      2  C   UNL     1       0.653  -6.633   6.785  1.00  0.00     0.021 C 
BRANCH   2   3
ATOM      3  C   UNL     1      -0.626  -6.015   6.219  1.00  0.00     0.116 C 
BRANCH   3   4
ATOM      4  N   UNL     1      -0.929  -4.780   6.916  1.00  0.00    -0.353 N 
ATOM      5  C   UNL     1      -0.914  -3.488   6.507  1.00  0.00     0.243 C 
ATOM      6  O   UNL     1      -1.235  -2.604   7.299  1.00  0.00    -0.270 OA
ATOM      7  H   UNL     1      -1.192  -4.903   7.857  1.00  0.00     0.163 HD
BRANCH   5   8
ATOM      8  C   UNL     1      -0.626  -3.120   5.102  1.00  0.00     0.072 C 
ATOM      9  C   UNL     1       0.344  -3.632   4.330  1.00  0.00     0.014 C 
BRANCH   9  10
ATOM     10  C   UNL     1       0.574  -3.225   2.936  1.00  0.00    -0.018 A 
ATOM     11  C   UNL     1       0.762  -1.515   1.202  1.00  0.00     0.165 A 
ATOM     12  C   UNL     1       0.465  -1.898   2.518  1.00  0.00     0.058 A 
ATOM     13  C   UNL     1       1.189  -2.490   0.286  1.00  0.00     0.200 A 
ATOM     14  C   UNL     1       1.288  -3.834   0.680  1.00  0.00     0.165 A 
ATOM     15  C   UNL     1       0.981  -4.183   2.004  1.00  0.00     0.058 A 
BRANCH  11  16
ATOM     16  O   UNL     1       0.597  -0.169   1.018  1.00  0.00    -0.493 OA
ATOM     17  C   UNL     1       0.786   0.406  -0.263  1.00  0.00     0.278 C 
ENDBRANCH  11  16
BRANCH  13  18
ATOM     18  O   UNL     1       1.555  -2.132  -0.981  1.00  0.00    -0.502 OA
ATOM     19  H   UNL     1       1.493  -1.237  -1.251  1.00  0.00     0.293 HD
ENDBRANCH  13  18
BRANCH  14  20
ATOM     20  O   UNL     1       1.686  -4.918  -0.059  1.00  0.00    -0.493 OA
ATOM     21  C   UNL     1       2.122  -4.722  -1.395  1.00  0.00     0.278 C 
ENDBRANCH  14  20
ENDBRANCH   9  10
ENDBRANCH   5   8
ENDBRANCH   3   4
ENDBRANCH   2   3
ENDBRANCH   1   2
BRANCH   1  22
ATOM     22  C   UNL     1      -0.534  -8.550   8.048  1.00  0.00     0.002 C 
BRANCH  22  23
ATOM     23  C   UNL     1      -0.185  -9.599   6.989  1.00  0.00     0.021 C 
BRANCH  23  24
ATOM     24  C   UNL     1       1.178 -10.253   7.191  1.00  0.00     0.116 C 
BRANCH  24  25
ATOM     25  N   UNL     1       1.226 -11.021   8.427  1.00  0.00    -0.352 N 
ATOM     26  C   UNL     1       1.417 -12.369   8.605  1.00  0.00     0.251 C 
ATOM     27  H   UNL     1       1.104 -10.499   9.253  1.00  0.00     0.163 HD
ATOM     28  O   UNL     1       1.185 -12.896   9.685  1.00  0.00    -0.269 OA
BRANCH  26  29
ATOM     29  C   UNL     1       1.892 -13.184   7.469  1.00  0.00     0.039 A 
ATOM     30  C   UNL     1       1.239 -14.381   7.169  1.00  0.00     0.014 A 
ATOM     31  C   UNL     1       2.969 -12.749   6.692  1.00  0.00     0.014 A 
ATOM     32  C   UNL     1       1.614 -15.104   6.035  1.00  0.00     0.010 A 
ATOM     33  C   UNL     1       3.295 -13.432   5.526  1.00  0.00     0.010 A 
ATOM     34  C   UNL     1       2.612 -14.608   5.180  1.00  0.00    -0.014 A 
BRANCH  34  35
ATOM     35  C   UNL     1       2.933 -15.275   3.894  1.00  0.00     0.031 A 
ATOM     36  C   UNL     1       4.298 -15.854   3.661  1.00  0.00     0.074 A 
ATOM     37  C   UNL     1       2.018 -15.274   2.904  1.00  0.00     0.049 A 
ATOM     38  N   UNL     1       4.803 -16.367   2.568  1.00  0.00    -0.248 NA
ATOM     39  C   UNL     1       5.228 -15.830   4.801  1.00  0.00     0.031 C 
ATOM     40  C   UNL     1       0.670 -14.710   2.999  1.00  0.00     0.029 A 
ATOM     41  N   UNL     1       2.092 -15.742   1.617  1.00  0.00    -0.354 N 
ATOM     42  C   UNL     1       6.108 -16.718   2.885  1.00  0.00     0.074 A 
ATOM     43  C   UNL     1       6.335 -16.314   4.256  1.00  0.00     0.031 C 
ATOM     44  C   UNL     1       0.040 -14.878   1.826  1.00  0.00     0.029 A 
ATOM     45  C   UNL     1       0.954 -15.512   0.882  1.00  0.00     0.049 A 
ATOM     46  H   UNL     1       2.885 -16.200   1.254  1.00  0.00     0.167 HD
ATOM     47  C   UNL     1       7.028 -17.337   2.106  1.00  0.00     0.037 A 
ATOM     48  C   UNL     1       0.685 -15.762  -0.414  1.00  0.00     0.037 A 
ATOM     49  C   UNL     1       6.791 -17.742   0.745  1.00  0.00     0.049 A 
ATOM     50  C   UNL     1       1.741 -16.404  -1.271  1.00  0.00     0.074 A 
ATOM     51  C   UNL     1       7.638 -18.427  -0.108  1.00  0.00     0.029 A 
ATOM     52  N   UNL     1       5.627 -17.489   0.035  1.00  0.00    -0.354 N 
ATOM     53  N   UNL     1       2.948 -16.794  -0.941  1.00  0.00    -0.248 NA
ATOM     54  C   UNL     1       1.400 -16.635  -2.682  1.00  0.00     0.031 C 
ATOM     55  C   UNL     1       7.010 -18.536  -1.353  1.00  0.00     0.029 A 
ATOM     56  C   UNL     1       5.749 -17.971  -1.258  1.00  0.00     0.049 A 
ATOM     57  H   UNL     1       4.832 -17.035   0.396  1.00  0.00     0.167 HD
ATOM     58  C   UNL     1       3.501 -17.338  -2.093  1.00  0.00     0.074 A 
ATOM     59  C   UNL     1       2.491 -17.242  -3.127  1.00  0.00     0.031 C 
ATOM     60  C   UNL     1       4.734 -17.869  -2.277  1.00  0.00     0.037 A 
BRANCH  47  61
ATOM     61  C   UNL     1       8.377 -17.607   2.706  1.00  0.00     0.057 A 
ATOM     62  C   UNL     1       8.560 -18.555   3.721  1.00  0.00     0.134 A 
ATOM     63  C   UNL     1       9.515 -16.939   2.235  1.00  0.00     0.134 A 
ATOM     64  F   UNL     1       7.512 -19.224   4.224  1.00  0.00    -0.206 F 
ATOM     65  C   UNL     1       9.821 -18.811   4.264  1.00  0.00     0.040 A 
ATOM     66  C   UNL     1      10.785 -17.207   2.749  1.00  0.00     0.040 A 
ATOM     67  F   UNL     1       9.414 -16.024   1.259  1.00  0.00    -0.206 F 
ATOM     68  C   UNL     1      10.939 -18.140   3.772  1.00  0.00     0.006 A 
ENDBRANCH  47  61
BRANCH  48  69
ATOM     69  C   UNL     1      -0.639 -15.402  -0.982  1.00  0.00     0.057 A 
ATOM     70  C   UNL     1      -1.548 -16.390  -1.378  1.00  0.00     0.134 A 
ATOM     71  C   UNL     1      -1.027 -14.066  -1.148  1.00  0.00     0.134 A 
ATOM     72  F   UNL     1      -1.227 -17.687  -1.261  1.00  0.00    -0.206 F 
ATOM     73  C   UNL     1      -2.785 -16.065  -1.936  1.00  0.00     0.040 A 
ATOM     74  C   UNL     1      -2.273 -13.727  -1.679  1.00  0.00     0.040 A 
ATOM     75  F   UNL     1      -0.206 -13.071  -0.782  1.00  0.00    -0.206 F 
ATOM     76  C   UNL     1      -3.153 -14.729  -2.082  1.00  0.00     0.006 A 
ENDBRANCH  48  69
BRANCH  60  77
ATOM     77  C   UNL     1       5.058 -18.408  -3.640  1.00  0.00     0.057 A 
ATOM     78  C   UNL     1       5.286 -17.562  -4.733  1.00  0.00     0.134 A 
ATOM     79  C   UNL     1       5.204 -19.786  -3.846  1.00  0.00     0.134 A 
ATOM     80  F   UNL     1       5.148 -16.234  -4.606  1.00  0.00    -0.206 F 
ATOM     81  C   UNL     1       5.634 -18.070  -5.986  1.00  0.00     0.040 A 
ATOM     82  C   UNL     1       5.579 -20.303  -5.087  1.00  0.00     0.040 A 
ATOM     83  F   UNL     1       5.008 -20.650  -2.839  1.00  0.00    -0.206 F 
ATOM     84  C   UNL     1       5.792 -19.443  -6.162  1.00  0.00     0.006 A 
ENDBRANCH  60  77
ENDBRANCH  34  35
ENDBRANCH  26  29
ENDBRANCH  24  25
ENDBRANCH  23  24
ENDBRANCH  22  23
ENDBRANCH   1  22
TORSDOF 17
