REMARK SMILES CC(=O)N[C@H]1[C@@H](Oc2ccc(C)c(C)c2)O[C@H]2CO[C@H](c3ccco3)O[C@@H]2[C@H]1OCC(=O)NCCCCCCNC(=O)c1ccc(-c2c3nc(c(-c4c(F)cccc4F)c4ccc([nH]4)c(-c4c(F)cccc4F)c4nc(c(-c5c(F)cccc5F)c5ccc2[nH]5)C=C4)C=C3)cc1
REMARK SMILES IDX 35 1 34 2 33 3 31 4 32 5 30 7 29 8 28 9 5 10 6 11 16 12
REMARK SMILES IDX 27 13 17 14 26 15 18 16 20 17 19 18 4 19 1 20 2 21 3 22 7 24
REMARK SMILES IDX 8 25 9 26 15 27 10 28 13 29 11 30 14 31 12 32 21 33 22 34
REMARK SMILES IDX 25 35 23 36 24 37 36 38 37 39 38 40 39 41 40 42 41 43 42 45
REMARK SMILES IDX 43 46 44 47 96 48 45 49 95 50 46 51 47 52 48 53 89 54 49 55
REMARK SMILES IDX 94 56 88 57 90 58 50 59 93 60 87 61 86 62 51 64 77 65 60 66
REMARK SMILES IDX 76 67 61 68 64 69 75 70 91 71 62 72 63 73 74 75 92 76 65 77
REMARK SMILES IDX 52 78 53 79 58 80 54 81 55 82 57 83 59 84 56 85 78 86 79 87
REMARK SMILES IDX 84 88 80 89 81 90 83 91 85 92 82 93 66 94 67 95 72 96 68 97
REMARK SMILES IDX 69 98 71 99 73 100 70 101
REMARK H PARENT 33 6 4 23 40 44 90 63 64 74
REMARK Flexibility Score: inf
ROOT
ATOM      1  C   UNL     1       1.592   4.091   5.646  1.00  0.00     0.021 C 
ENDROOT
BRANCH   1   2
ATOM      2  C   UNL     1       1.379   5.390   4.869  1.00  0.00     0.116 C 
BRANCH   2   3
ATOM      3  N   UNL     1       2.643   6.050   4.628  1.00  0.00    -0.354 N 
ATOM      4  C   UNL     1       3.319   6.253   3.464  1.00  0.00     0.246 C 
ATOM      5  O   UNL     1       4.390   6.858   3.526  1.00  0.00    -0.272 OA
ATOM      6  H   UNL     1       3.083   6.410   5.432  1.00  0.00     0.163 HD
BRANCH   4   7
ATOM      7  C   UNL     1       2.680   5.876   2.118  1.00  0.00     0.260 C 
BRANCH   7   8
ATOM      8  O   UNL     1       1.960   4.687   1.896  1.00  0.00    -0.363 OA
BRANCH   8   9
ATOM      9  C   UNL     1       2.637   3.423   1.938  1.00  0.00     0.179 C 
ATOM     10  C   UNL     1       1.688   2.484   1.109  1.00  0.00     0.182 C 
ATOM     11  C   UNL     1       2.091   1.023   1.318  1.00  0.00     0.333 C 
ATOM     12  O   UNL     1       3.467   0.830   0.862  1.00  0.00    -0.332 OA
ATOM     13  C   UNL     1       3.977   3.302   1.215  1.00  0.00     0.184 C 
ATOM     14  C   UNL     1       4.454   1.832   1.255  1.00  0.00     0.180 C 
ATOM     15  O   UNL     1       5.034   4.198   1.550  1.00  0.00    -0.337 OA
ATOM     16  C   UNL     1       5.694   1.769   0.322  1.00  0.00     0.199 C 
ATOM     17  C   UNL     1       5.961   4.095   0.449  1.00  0.00     0.319 C 
ATOM     18  O   UNL     1       6.633   2.839   0.534  1.00  0.00    -0.343 OA
BRANCH  10  19
ATOM     19  N   UNL     1       1.762   3.011  -0.309  1.00  0.00    -0.345 N 
ATOM     20  C   UNL     1       2.794   1.217  -1.810  1.00  0.00     0.114 C 
ATOM     21  C   UNL     1       2.412   2.640  -1.460  1.00  0.00     0.217 C 
ATOM     22  O   UNL     1       2.645   3.541  -2.271  1.00  0.00    -0.275 OA
ATOM     23  H   UNL     1       1.208   3.816  -0.437  1.00  0.00     0.164 HD
ENDBRANCH  10  19
BRANCH  11  24
ATOM     24  O   UNL     1       1.110  -0.018   0.921  1.00  0.00    -0.463 OA
BRANCH  24  25
ATOM     25  C   UNL     1       0.060   0.006   0.032  1.00  0.00     0.123 A 
ATOM     26  C   UNL     1      -0.215   0.964  -0.923  1.00  0.00     0.047 A 
ATOM     27  C   UNL     1      -0.830  -1.081   0.002  1.00  0.00     0.050 A 
ATOM     28  C   UNL     1      -1.171   0.857  -1.932  1.00  0.00     0.007 A 
ATOM     29  C   UNL     1      -1.882  -1.195  -0.976  1.00  0.00    -0.045 A 
ATOM     30  C   UNL     1      -2.027  -0.219  -1.977  1.00  0.00    -0.048 A 
ATOM     31  C   UNL     1      -2.809  -2.379  -0.932  1.00  0.00     0.045 C 
ATOM     32  C   UNL     1      -3.032  -0.247  -3.094  1.00  0.00     0.044 C 
ENDBRANCH  24  25
ENDBRANCH  11  24
BRANCH  17  33
ATOM     33  C   UNL     1       6.924   5.226   0.372  1.00  0.00     0.159 A 
ATOM     34  C   UNL     1       7.770   5.615  -0.654  1.00  0.00     0.051 A 
ATOM     35  O   UNL     1       6.915   6.184   1.343  1.00  0.00    -0.464 OA
ATOM     36  C   UNL     1       8.315   6.865  -0.282  1.00  0.00     0.042 A 
ATOM     37  C   UNL     1       7.763   7.168   0.940  1.00  0.00     0.195 A 
ENDBRANCH  17  33
ENDBRANCH   8   9
ENDBRANCH   7   8
ENDBRANCH   4   7
ENDBRANCH   2   3
ENDBRANCH   1   2
BRANCH   1  38
ATOM     38  C   UNL     1       2.200   4.289   7.041  1.00  0.00     0.002 C 
BRANCH  38  39
ATOM     39  C   UNL     1       1.386   5.189   7.974  1.00  0.00     0.002 C 
BRANCH  39  40
ATOM     40  C   UNL     1      -0.060   4.739   8.191  1.00  0.00     0.021 C 
BRANCH  40  41
ATOM     41  C   UNL     1      -0.203   3.325   8.745  1.00  0.00     0.116 C 
BRANCH  41  42
ATOM     42  N   UNL     1       0.417   3.189  10.052  1.00  0.00    -0.352 N 
ATOM     43  C   UNL     1      -0.117   2.734  11.231  1.00  0.00     0.251 C 
ATOM     44  H   UNL     1       1.362   3.464  10.098  1.00  0.00     0.163 HD
ATOM     45  O   UNL     1       0.491   2.892  12.281  1.00  0.00    -0.269 OA
BRANCH  43  46
ATOM     46  C   UNL     1      -1.435   2.063  11.235  1.00  0.00     0.039 A 
ATOM     47  C   UNL     1      -2.334   2.358  12.262  1.00  0.00     0.014 A 
ATOM     48  C   UNL     1      -1.774   1.126  10.254  1.00  0.00     0.014 A 
ATOM     49  C   UNL     1      -3.587   1.746  12.282  1.00  0.00     0.010 A 
ATOM     50  C   UNL     1      -3.054   0.576  10.230  1.00  0.00     0.010 A 
ATOM     51  C   UNL     1      -3.969   0.870  11.252  1.00  0.00    -0.014 A 
BRANCH  51  52
ATOM     52  C   UNL     1      -5.316   0.245  11.244  1.00  0.00     0.031 A 
ATOM     53  C   UNL     1      -5.461  -1.247  11.373  1.00  0.00     0.074 A 
ATOM     54  C   UNL     1      -6.407   1.020  11.091  1.00  0.00     0.049 A 
ATOM     55  N   UNL     1      -6.550  -1.974  11.366  1.00  0.00    -0.248 NA
ATOM     56  C   UNL     1      -4.221  -2.027  11.504  1.00  0.00     0.031 C 
ATOM     57  C   UNL     1      -6.395   2.474  10.917  1.00  0.00     0.029 A 
ATOM     58  N   UNL     1      -7.739   0.693  11.058  1.00  0.00    -0.354 N 
ATOM     59  C   UNL     1      -6.126  -3.291  11.490  1.00  0.00     0.074 A 
ATOM     60  C   UNL     1      -4.680  -3.270  11.504  1.00  0.00     0.031 C 
ATOM     61  C   UNL     1      -7.660   2.917  10.831  1.00  0.00     0.029 A 
ATOM     62  C   UNL     1      -8.569   1.778  10.901  1.00  0.00     0.049 A 
ATOM     63  H   UNL     1      -8.070  -0.231  11.139  1.00  0.00     0.167 HD
ATOM     64  C   UNL     1      -6.873  -4.415  11.611  1.00  0.00     0.037 A 
ATOM     65  C   UNL     1      -9.911   1.844  10.819  1.00  0.00     0.037 A 
ATOM     66  C   UNL     1      -8.312  -4.432  11.611  1.00  0.00     0.049 A 
ATOM     67  C   UNL     1     -10.715   0.577  10.922  1.00  0.00     0.074 A 
ATOM     68  C   UNL     1      -9.161  -5.513  11.768  1.00  0.00     0.029 A 
ATOM     69  N   UNL     1      -9.116  -3.314  11.443  1.00  0.00    -0.354 N 
ATOM     70  N   UNL     1     -10.302  -0.654  11.104  1.00  0.00    -0.248 NA
ATOM     71  C   UNL     1     -12.175   0.710  10.813  1.00  0.00     0.031 C 
ATOM     72  C   UNL     1     -10.477  -5.058  11.644  1.00  0.00     0.029 A 
ATOM     73  C   UNL     1     -10.450  -3.684  11.467  1.00  0.00     0.049 A 
ATOM     74  H   UNL     1      -8.786  -2.394  11.323  1.00  0.00     0.167 HD
ATOM     75  C   UNL     1     -11.449  -1.435  11.166  1.00  0.00     0.074 A 
ATOM     76  C   UNL     1     -12.575  -0.536  11.018  1.00  0.00     0.031 C 
ATOM     77  C   UNL     1     -11.561  -2.776  11.330  1.00  0.00     0.037 A 
BRANCH  64  78
ATOM     78  C   UNL     1      -6.144  -5.720  11.763  1.00  0.00     0.057 A 
ATOM     79  C   UNL     1      -5.428  -6.035  12.925  1.00  0.00     0.134 A 
ATOM     80  C   UNL     1      -6.193  -6.690  10.754  1.00  0.00     0.134 A 
ATOM     81  F   UNL     1      -5.331  -5.146  13.926  1.00  0.00    -0.206 F 
ATOM     82  C   UNL     1      -4.765  -7.255  13.069  1.00  0.00     0.040 A 
ATOM     83  C   UNL     1      -5.559  -7.926  10.898  1.00  0.00     0.040 A 
ATOM     84  F   UNL     1      -6.866  -6.459   9.617  1.00  0.00    -0.206 F 
ATOM     85  C   UNL     1      -4.837  -8.208  12.056  1.00  0.00     0.006 A 
ENDBRANCH  64  78
BRANCH  65  86
ATOM     86  C   UNL     1     -10.587   3.156  10.649  1.00  0.00     0.057 A 
ATOM     87  C   UNL     1     -11.387   3.694  11.665  1.00  0.00     0.134 A 
ATOM     88  C   UNL     1     -10.476   3.890   9.462  1.00  0.00     0.134 A 
ATOM     89  F   UNL     1     -11.548   3.031  12.819  1.00  0.00    -0.206 F 
ATOM     90  C   UNL     1     -12.074   4.897  11.496  1.00  0.00     0.040 A 
ATOM     91  C   UNL     1     -11.133   5.109   9.291  1.00  0.00     0.040 A 
ATOM     92  F   UNL     1      -9.718   3.435   8.453  1.00  0.00    -0.206 F 
ATOM     93  C   UNL     1     -11.944   5.611  10.307  1.00  0.00     0.006 A 
ENDBRANCH  65  86
BRANCH  77  94
ATOM     94  C   UNL     1     -12.948  -3.347  11.400  1.00  0.00     0.057 A 
ATOM     95  C   UNL     1     -13.782  -3.412  10.277  1.00  0.00     0.134 A 
ATOM     96  C   UNL     1     -13.441  -3.870  12.602  1.00  0.00     0.134 A 
ATOM     97  F   UNL     1     -13.376  -2.917   9.098  1.00  0.00    -0.206 F 
ATOM     98  C   UNL     1     -15.068  -3.951  10.353  1.00  0.00     0.040 A 
ATOM     99  C   UNL     1     -14.713  -4.440  12.684  1.00  0.00     0.040 A 
ATOM    100  F   UNL     1     -12.691  -3.849  13.714  1.00  0.00    -0.206 F 
ATOM    101  C   UNL     1     -15.533  -4.474  11.558  1.00  0.00     0.006 A 
ENDBRANCH  77  94
ENDBRANCH  51  52
ENDBRANCH  43  46
ENDBRANCH  41  42
ENDBRANCH  40  41
ENDBRANCH  39  40
ENDBRANCH  38  39
ENDBRANCH   1  38
TORSDOF 19
