REMARK SMILES Cc1ccc(NC(=O)NC2(C(=O)NCCCCCCNC(=O)c3ccc(-c4c5nc(c(-c6c(F)cccc6F)c6ccc([nH]6)c(-c6c(F)cccc6F)c6nc(c(-c7c(F)cccc7F)c7ccc4[nH]7)C=C6)C=C5)cc3)CC2)c(C)n1
REMARK SMILES IDX 16 1 15 2 14 3 13 4 11 5 12 6 10 8 77 9 78 10 9 11 6 12 7 13
REMARK SMILES IDX 8 15 5 17 1 18 2 19 3 20 81 21 4 22 79 23 80 24 17 25 18 26
REMARK SMILES IDX 19 27 20 28 21 29 22 31 23 32 24 33 76 34 25 35 75 36 26 37
REMARK SMILES IDX 27 38 28 39 69 40 29 41 74 42 68 43 70 44 30 45 73 46 67 47
REMARK SMILES IDX 66 48 31 50 57 51 40 52 56 53 41 54 44 55 55 56 71 57 42 58
REMARK SMILES IDX 43 59 54 61 72 62 45 63 32 64 33 65 38 66 34 67 35 68 37 69
REMARK SMILES IDX 39 70 36 71 58 72 59 73 64 74 60 75 61 76 63 77 65 78 62 79
REMARK SMILES IDX 46 80 47 81 52 82 48 83 49 84 51 85 53 86 50 87
REMARK H PARENT 13 7 6 14 9 16 20 30 70 49 44 60
REMARK Flexibility Score: inf
ROOT
ATOM      1  C   UNL     1      -0.966   1.111   4.189  1.00  0.00     0.002 C 
ENDROOT
BRANCH   1   2
ATOM      2  C   UNL     1      -0.168   0.922   2.889  1.00  0.00     0.021 C 
BRANCH   2   3
ATOM      3  C   UNL     1       1.237   1.574   2.838  1.00  0.00     0.116 C 
BRANCH   3   4
ATOM      4  N   UNL     1       2.142   0.900   1.893  1.00  0.00    -0.354 N 
ATOM      5  C   UNL     1       3.134   1.548   1.167  1.00  0.00     0.245 C 
ATOM      6  O   UNL     1       3.639   2.612   1.543  1.00  0.00    -0.272 OA
ATOM      7  H   UNL     1       2.038  -0.071   1.768  1.00  0.00     0.163 HD
BRANCH   5   8
ATOM      8  C   UNL     1       3.574   0.912  -0.190  1.00  0.00     0.120 C 
ATOM      9  C   UNL     1       4.259   1.930  -1.120  1.00  0.00     0.041 C 
ATOM     10  C   UNL     1       3.150   1.145  -1.669  1.00  0.00     0.041 C 
BRANCH   8  11
ATOM     11  N   UNL     1       3.892  -0.451  -0.074  1.00  0.00    -0.323 N 
ATOM     12  N   UNL     1       1.669  -1.327  -0.182  1.00  0.00    -0.306 N 
ATOM     13  C   UNL     1       3.005  -1.442  -0.096  1.00  0.00     0.320 C 
ATOM     14  H   UNL     1       1.346  -2.254  -0.102  1.00  0.00     0.171 HD
ATOM     15  O   UNL     1       3.444  -2.596  -0.004  1.00  0.00    -0.248 OA
ATOM     16  H   UNL     1       4.841  -0.691   0.031  1.00  0.00     0.166 HD
BRANCH  12  17
ATOM     17  C   UNL     1       0.462  -0.551  -0.331  1.00  0.00     0.064 A 
ATOM     18  C   UNL     1      -3.630   0.780  -0.691  1.00  0.00     0.067 C 
ATOM     19  C   UNL     1      -2.261   0.213  -0.582  1.00  0.00     0.038 A 
ATOM     20  C   UNL     1      -1.976  -1.107  -0.404  1.00  0.00     0.025 A 
ATOM     21  N   UNL     1      -1.284   1.113  -0.625  1.00  0.00    -0.256 NA
ATOM     22  C   UNL     1      -0.634  -1.468  -0.296  1.00  0.00     0.030 A 
ATOM     23  C   UNL     1       0.043   0.798  -0.471  1.00  0.00     0.061 A 
ATOM     24  C   UNL     1       0.643   2.164  -0.465  1.00  0.00     0.069 C 
ENDBRANCH  12  17
ENDBRANCH   8  11
ENDBRANCH   5   8
ENDBRANCH   3   4
ENDBRANCH   2   3
ENDBRANCH   1   2
BRANCH   1  25
ATOM     25  C   UNL     1      -1.379   2.540   4.553  1.00  0.00     0.002 C 
BRANCH  25  26
ATOM     26  C   UNL     1      -2.470   3.195   3.694  1.00  0.00     0.021 C 
BRANCH  26  27
ATOM     27  C   UNL     1      -3.835   2.498   3.644  1.00  0.00     0.116 C 
BRANCH  27  28
ATOM     28  N   UNL     1      -4.423   2.273   4.959  1.00  0.00    -0.352 N 
ATOM     29  C   UNL     1      -5.594   2.726   5.518  1.00  0.00     0.251 C 
ATOM     30  H   UNL     1      -3.888   1.696   5.550  1.00  0.00     0.163 HD
ATOM     31  O   UNL     1      -5.813   2.524   6.712  1.00  0.00    -0.269 OA
BRANCH  29  32
ATOM     32  C   UNL     1      -6.595   3.468   4.719  1.00  0.00     0.039 A 
ATOM     33  C   UNL     1      -7.197   4.602   5.279  1.00  0.00     0.014 A 
ATOM     34  C   UNL     1      -6.981   3.036   3.449  1.00  0.00     0.014 A 
ATOM     35  C   UNL     1      -8.115   5.348   4.533  1.00  0.00     0.010 A 
ATOM     36  C   UNL     1      -7.852   3.813   2.683  1.00  0.00     0.010 A 
ATOM     37  C   UNL     1      -8.414   4.987   3.209  1.00  0.00    -0.014 A 
BRANCH  37  38
ATOM     38  C   UNL     1      -9.260   5.854   2.346  1.00  0.00     0.031 A 
ATOM     39  C   UNL     1     -10.579   5.362   1.816  1.00  0.00     0.074 A 
ATOM     40  C   UNL     1      -8.797   7.064   1.973  1.00  0.00     0.049 A 
ATOM     41  N   UNL     1     -11.403   5.945   0.982  1.00  0.00    -0.248 NA
ATOM     42  C   UNL     1     -11.018   4.033   2.266  1.00  0.00     0.031 C 
ATOM     43  C   UNL     1      -7.516   7.641   2.387  1.00  0.00     0.029 A 
ATOM     44  N   UNL     1      -9.340   8.020   1.151  1.00  0.00    -0.354 N 
ATOM     45  C   UNL     1     -12.454   5.054   0.801  1.00  0.00     0.074 A 
ATOM     46  C   UNL     1     -12.138   3.871   1.574  1.00  0.00     0.031 C 
ATOM     47  C   UNL     1      -7.380   8.855   1.832  1.00  0.00     0.029 A 
ATOM     48  C   UNL     1      -8.538   9.124   0.985  1.00  0.00     0.049 A 
ATOM     49  H   UNL     1     -10.220   7.925   0.721  1.00  0.00     0.167 HD
ATOM     50  C   UNL     1     -13.585   5.215   0.072  1.00  0.00     0.037 A 
ATOM     51  C   UNL     1      -8.703  10.222   0.223  1.00  0.00     0.037 A 
ATOM     52  C   UNL     1     -13.898   6.397  -0.689  1.00  0.00     0.049 A 
ATOM     53  C   UNL     1      -9.947  10.355  -0.612  1.00  0.00     0.074 A 
ATOM     54  C   UNL     1     -15.046   6.678  -1.410  1.00  0.00     0.029 A 
ATOM     55  N   UNL     1     -13.057   7.490  -0.837  1.00  0.00    -0.354 N 
ATOM     56  N   UNL     1     -10.965   9.536  -0.715  1.00  0.00    -0.248 NA
ATOM     57  C   UNL     1     -10.063  11.565  -1.440  1.00  0.00     0.031 C 
ATOM     58  C   UNL     1     -14.875   7.914  -2.042  1.00  0.00     0.029 A 
ATOM     59  C   UNL     1     -13.644   8.430  -1.670  1.00  0.00     0.049 A 
ATOM     60  H   UNL     1     -12.173   7.584  -0.413  1.00  0.00     0.167 HD
ATOM     61  C   UNL     1     -11.850  10.138  -1.600  1.00  0.00     0.074 A 
ATOM     62  C   UNL     1     -11.258  11.402  -1.989  1.00  0.00     0.031 C 
ATOM     63  C   UNL     1     -13.043   9.683  -2.052  1.00  0.00     0.037 A 
BRANCH  50  64
ATOM     64  C   UNL     1     -14.570   4.080   0.056  1.00  0.00     0.057 A 
ATOM     65  C   UNL     1     -15.324   3.739   1.188  1.00  0.00     0.134 A 
ATOM     66  C   UNL     1     -14.805   3.351  -1.117  1.00  0.00     0.134 A 
ATOM     67  F   UNL     1     -15.145   4.392   2.346  1.00  0.00    -0.206 F 
ATOM     68  C   UNL     1     -16.253   2.698   1.160  1.00  0.00     0.040 A 
ATOM     69  C   UNL     1     -15.752   2.327  -1.164  1.00  0.00     0.040 A 
ATOM     70  F   UNL     1     -14.127   3.631  -2.240  1.00  0.00    -0.206 F 
ATOM     71  C   UNL     1     -16.475   1.993  -0.021  1.00  0.00     0.006 A 
ENDBRANCH  50  64
BRANCH  51  72
ATOM     72  C   UNL     1      -7.665  11.284   0.211  1.00  0.00     0.057 A 
ATOM     73  C   UNL     1      -7.916  12.546   0.763  1.00  0.00     0.134 A 
ATOM     74  C   UNL     1      -6.403  11.069  -0.356  1.00  0.00     0.134 A 
ATOM     75  F   UNL     1      -9.112  12.820   1.303  1.00  0.00    -0.206 F 
ATOM     76  C   UNL     1      -6.958  13.561   0.735  1.00  0.00     0.040 A 
ATOM     77  C   UNL     1      -5.425  12.066  -0.366  1.00  0.00     0.040 A 
ATOM     78  F   UNL     1      -6.096   9.881  -0.897  1.00  0.00    -0.206 F 
ATOM     79  C   UNL     1      -5.705  13.319   0.174  1.00  0.00     0.006 A 
ENDBRANCH  51  72
BRANCH  63  80
ATOM     80  C   UNL     1     -13.799  10.561  -3.007  1.00  0.00     0.057 A 
ATOM     81  C   UNL     1     -13.380  10.743  -4.331  1.00  0.00     0.134 A 
ATOM     82  C   UNL     1     -14.984  11.195  -2.612  1.00  0.00     0.134 A 
ATOM     83  F   UNL     1     -12.245  10.176  -4.769  1.00  0.00    -0.206 F 
ATOM     84  C   UNL     1     -14.103  11.537  -5.223  1.00  0.00     0.040 A 
ATOM     85  C   UNL     1     -15.731  11.968  -3.502  1.00  0.00     0.040 A 
ATOM     86  F   UNL     1     -15.446  11.057  -1.360  1.00  0.00    -0.206 F 
ATOM     87  C   UNL     1     -15.287  12.145  -4.811  1.00  0.00     0.006 A 
ENDBRANCH  63  80
ENDBRANCH  37  38
ENDBRANCH  29  32
ENDBRANCH  27  28
ENDBRANCH  26  27
ENDBRANCH  25  26
ENDBRANCH   1  25
TORSDOF 15
