REMARK SMILES O=C(NCCCCCCNC(=O)c1c(F)cccc1N1CC[C@@H]([NH+]2CCCCC2)C1)c1ccc(-c2c3nc(c(-c4c(F)cccc4F)c4ccc([nH]4)c(-c4c(F)cccc4F)c4nc(c(-c5c(F)cccc5F)c5ccc2[nH]5)C=C4)C=C3)cc1
REMARK SMILES IDX 6 1 5 2 4 3 3 4 1 5 2 6 31 8 32 9 84 10 33 11 83 12 34 13
REMARK SMILES IDX 35 14 36 15 77 16 37 17 82 18 76 19 78 20 38 21 81 22 75 23
REMARK SMILES IDX 74 24 39 26 65 27 48 28 64 29 49 30 52 31 63 32 79 33 50 34
REMARK SMILES IDX 51 35 62 37 80 38 53 39 40 40 41 41 46 42 42 43 43 44 45 45
REMARK SMILES IDX 47 46 44 47 66 48 67 49 72 50 68 51 69 52 71 53 73 54 70 55
REMARK SMILES IDX 54 56 55 57 60 58 56 59 57 60 59 61 61 62 58 63 7 64 8 65
REMARK SMILES IDX 9 66 10 67 11 68 12 70 13 71 14 72 19 73 15 74 16 75 18 76
REMARK SMILES IDX 17 77 20 78 21 79 30 80 22 81 23 82 24 83 25 84 29 85 26 87
REMARK SMILES IDX 28 88 27 89
REMARK H PARENT 3 7 78 25 52 36 10 69 24 86
REMARK Flexibility Score: inf
ROOT
ATOM      1  C   UNL     1       4.258   0.181   3.942  1.00  0.00     0.002 C 
ENDROOT
BRANCH   1   2
ATOM      2  C   UNL     1       4.723   0.722   2.590  1.00  0.00     0.021 C 
BRANCH   2   3
ATOM      3  C   UNL     1       4.444  -0.189   1.403  1.00  0.00     0.116 C 
BRANCH   3   4
ATOM      4  N   UNL     1       3.022  -0.375   1.163  1.00  0.00    -0.352 N 
ATOM      5  O   UNL     1       1.069  -0.191   0.046  1.00  0.00    -0.269 OA
ATOM      6  C   UNL     1       2.295  -0.130   0.025  1.00  0.00     0.251 C 
ATOM      7  H   UNL     1       2.508  -0.726   1.925  1.00  0.00     0.163 HD
BRANCH   6   8
ATOM      8  C   UNL     1       2.992   0.228  -1.229  1.00  0.00     0.039 A 
ATOM      9  C   UNL     1       4.120  -0.483  -1.646  1.00  0.00     0.014 A 
ATOM     10  C   UNL     1       2.499   1.282  -2.004  1.00  0.00     0.014 A 
ATOM     11  C   UNL     1       4.829  -0.061  -2.764  1.00  0.00     0.010 A 
ATOM     12  C   UNL     1       3.164   1.650  -3.176  1.00  0.00     0.010 A 
ATOM     13  C   UNL     1       4.347   0.996  -3.553  1.00  0.00    -0.014 A 
BRANCH  13  14
ATOM     14  C   UNL     1       5.043   1.341  -4.817  1.00  0.00     0.031 A 
ATOM     15  C   UNL     1       5.698   2.677  -5.010  1.00  0.00     0.074 A 
ATOM     16  C   UNL     1       5.072   0.423  -5.803  1.00  0.00     0.049 A 
ATOM     17  N   UNL     1       6.328   3.138  -6.060  1.00  0.00    -0.248 NA
ATOM     18  C   UNL     1       5.635   3.622  -3.885  1.00  0.00     0.031 C 
ATOM     19  C   UNL     1       4.458  -0.904  -5.731  1.00  0.00     0.029 A 
ATOM     20  N   UNL     1       5.641   0.460  -7.050  1.00  0.00    -0.354 N 
ATOM     21  C   UNL     1       6.716   4.431  -5.735  1.00  0.00     0.074 A 
ATOM     22  C   UNL     1       6.234   4.690  -4.395  1.00  0.00     0.031 C 
ATOM     23  C   UNL     1       4.712  -1.568  -6.867  1.00  0.00     0.029 A 
ATOM     24  C   UNL     1       5.447  -0.691  -7.772  1.00  0.00     0.049 A 
ATOM     25  H   UNL     1       6.141   1.236  -7.393  1.00  0.00     0.167 HD
ATOM     26  C   UNL     1       7.415   5.313  -6.488  1.00  0.00     0.037 A 
ATOM     27  C   UNL     1       5.794  -1.005  -9.034  1.00  0.00     0.037 A 
ATOM     28  C   UNL     1       7.903   5.036  -7.816  1.00  0.00     0.049 A 
ATOM     29  C   UNL     1       6.539   0.001  -9.858  1.00  0.00     0.074 A 
ATOM     30  C   UNL     1       8.675   5.845  -8.632  1.00  0.00     0.029 A 
ATOM     31  N   UNL     1       7.657   3.870  -8.526  1.00  0.00    -0.354 N 
ATOM     32  N   UNL     1       6.940   1.202  -9.522  1.00  0.00    -0.248 NA
ATOM     33  C   UNL     1       6.875  -0.385 -11.235  1.00  0.00     0.031 C 
ATOM     34  C   UNL     1       8.842   5.195  -9.858  1.00  0.00     0.029 A 
ATOM     35  C   UNL     1       8.230   3.954  -9.785  1.00  0.00     0.049 A 
ATOM     36  H   UNL     1       7.151   3.097  -8.185  1.00  0.00     0.167 HD
ATOM     37  C   UNL     1       7.585   1.715 -10.638  1.00  0.00     0.074 A 
ATOM     38  C   UNL     1       7.534   0.687 -11.658  1.00  0.00     0.031 C 
ATOM     39  C   UNL     1       8.167   2.928 -10.797  1.00  0.00     0.037 A 
BRANCH  26  40
ATOM     40  C   UNL     1       7.682   6.675  -5.913  1.00  0.00     0.057 A 
ATOM     41  C   UNL     1       7.071   7.810  -6.463  1.00  0.00     0.134 A 
ATOM     42  C   UNL     1       8.593   6.877  -4.869  1.00  0.00     0.134 A 
ATOM     43  F   UNL     1       6.195   7.691  -7.473  1.00  0.00    -0.206 F 
ATOM     44  C   UNL     1       7.365   9.095  -6.004  1.00  0.00     0.040 A 
ATOM     45  C   UNL     1       8.875   8.155  -4.382  1.00  0.00     0.040 A 
ATOM     46  F   UNL     1       9.208   5.833  -4.291  1.00  0.00    -0.206 F 
ATOM     47  C   UNL     1       8.267   9.270  -4.957  1.00  0.00     0.006 A 
ENDBRANCH  26  40
BRANCH  27  48
ATOM     48  C   UNL     1       5.426  -2.338  -9.568  1.00  0.00     0.057 A 
ATOM     49  C   UNL     1       4.089  -2.677  -9.817  1.00  0.00     0.134 A 
ATOM     50  C   UNL     1       6.390  -3.333  -9.754  1.00  0.00     0.134 A 
ATOM     51  F   UNL     1       3.117  -1.769  -9.642  1.00  0.00    -0.206 F 
ATOM     52  C   UNL     1       3.721  -3.967 -10.197  1.00  0.00     0.040 A 
ATOM     53  C   UNL     1       6.039  -4.622 -10.159  1.00  0.00     0.040 A 
ATOM     54  F   UNL     1       7.687  -3.064  -9.543  1.00  0.00    -0.206 F 
ATOM     55  C   UNL     1       4.699  -4.945 -10.369  1.00  0.00     0.006 A 
ENDBRANCH  27  48
BRANCH  39  56
ATOM     56  C   UNL     1       8.810   3.223 -12.120  1.00  0.00     0.057 A 
ATOM     57  C   UNL     1      10.203   3.322 -12.229  1.00  0.00     0.134 A 
ATOM     58  C   UNL     1       8.049   3.500 -13.261  1.00  0.00     0.134 A 
ATOM     59  F   UNL     1      10.989   3.078 -11.168  1.00  0.00    -0.206 F 
ATOM     60  C   UNL     1      10.816   3.710 -13.420  1.00  0.00     0.040 A 
ATOM     61  C   UNL     1       8.652   3.864 -14.467  1.00  0.00     0.040 A 
ATOM     62  F   UNL     1       6.711   3.410 -13.226  1.00  0.00    -0.206 F 
ATOM     63  C   UNL     1      10.039   3.983 -14.544  1.00  0.00     0.006 A 
ENDBRANCH  39  56
ENDBRANCH  13  14
ENDBRANCH   6   8
ENDBRANCH   3   4
ENDBRANCH   2   3
ENDBRANCH   1   2
BRANCH   1  64
ATOM     64  C   UNL     1       4.799  -1.199   4.323  1.00  0.00     0.002 C 
BRANCH  64  65
ATOM     65  C   UNL     1       6.322  -1.355   4.278  1.00  0.00     0.021 C 
BRANCH  65  66
ATOM     66  C   UNL     1       7.111  -0.323   5.081  1.00  0.00     0.116 C 
BRANCH  66  67
ATOM     67  N   UNL     1       6.777  -0.338   6.493  1.00  0.00    -0.352 N 
ATOM     68  C   UNL     1       7.624  -0.422   7.575  1.00  0.00     0.256 C 
ATOM     69  H   UNL     1       5.818  -0.279   6.705  1.00  0.00     0.163 HD
ATOM     70  O   UNL     1       7.165  -0.414   8.714  1.00  0.00    -0.269 OA
BRANCH  68  71
ATOM     71  C   UNL     1       9.075  -0.549   7.353  1.00  0.00     0.098 A 
ATOM     72  C   UNL     1       9.728   0.555   6.789  1.00  0.00     0.138 A 
ATOM     73  C   UNL     1       9.803  -1.686   7.759  1.00  0.00     0.053 A 
ATOM     74  F   UNL     1       9.036   1.645   6.420  1.00  0.00    -0.206 F 
ATOM     75  C   UNL     1      11.099   0.545   6.568  1.00  0.00     0.040 A 
ATOM     76  C   UNL     1      11.197  -1.653   7.557  1.00  0.00     0.027 A 
ATOM     77  C   UNL     1      11.839  -0.564   6.955  1.00  0.00     0.005 A 
BRANCH  73  78
ATOM     78  N   UNL     1       9.267  -2.823   8.327  1.00  0.00    -0.365 N 
ATOM     79  C   UNL     1       8.068  -3.495   7.856  1.00  0.00     0.123 C 
ATOM     80  C   UNL     1       9.527  -3.115   9.743  1.00  0.00     0.181 C 
ATOM     81  C   UNL     1       7.344  -3.914   9.128  1.00  0.00     0.088 C 
ATOM     82  C   UNL     1       8.447  -4.160  10.162  1.00  0.00     0.205 C 
BRANCH  82  83
ATOM     83  N   UNL     1       8.960  -5.531  10.340  1.00  0.00    -0.331 N 
ATOM     84  C   UNL     1       9.526  -6.223   9.186  1.00  0.00     0.262 C 
ATOM     85  C   UNL     1       8.125  -6.404  11.169  1.00  0.00     0.262 C 
ATOM     86  H   UNL     1       9.795  -5.311  10.884  1.00  0.00     0.348 HD
ATOM     87  C   UNL     1       8.520  -7.030   8.360  1.00  0.00     0.062 C 
ATOM     88  C   UNL     1       7.065  -7.196  10.405  1.00  0.00     0.062 C 
ATOM     89  C   UNL     1       7.671  -7.951   9.228  1.00  0.00     0.012 C 
ENDBRANCH  82  83
ENDBRANCH  73  78
ENDBRANCH  68  71
ENDBRANCH  66  67
ENDBRANCH  65  66
ENDBRANCH  64  65
ENDBRANCH   1  64
TORSDOF 15
