REMARK SMILES C[C@H](Nc1cccc(C(=O)NCCCCCCNC(=O)c2ccc(-c3c4nc(c(-c5c(F)cccc5F)c5ccc([nH]5)c(-c5c(F)cccc5F)c5nc(c(-c6c(F)cccc6F)c6ccc3[nH]6)C=C5)C=C4)cc2)c1)C1CC[NH+](C)CC1
REMARK SMILES IDX 14 1 13 2 12 3 11 4 9 5 10 6 8 8 4 9 5 10 75 11 6 12 7 13
REMARK SMILES IDX 3 14 2 16 1 17 76 18 77 19 82 20 78 21 81 22 79 23 80 24
REMARK SMILES IDX 15 26 16 27 17 28 18 29 19 30 20 32 21 33 22 34 74 35 23 36
REMARK SMILES IDX 73 37 24 38 25 39 26 40 67 41 27 42 72 43 66 44 68 45 28 46
REMARK SMILES IDX 71 47 65 48 64 49 29 51 55 52 38 53 54 54 39 55 42 56 53 57
REMARK SMILES IDX 69 58 40 59 41 60 52 62 70 63 43 64 30 65 31 66 36 67 32 68
REMARK SMILES IDX 33 69 35 70 37 71 34 72 56 73 57 74 62 75 58 76 59 77 61 78
REMARK SMILES IDX 63 79 60 80 44 81 45 82 50 83 46 84 47 85 49 86 51 87 48 88
REMARK H PARENT 11 7 3 15 79 25 18 31 68 50 42 61
REMARK Flexibility Score: inf
ROOT
ATOM      1  C   UNL     1      -1.222   0.409   6.489  1.00  0.00     0.002 C 
ENDROOT
BRANCH   1   2
ATOM      2  C   UNL     1      -0.453   0.343   5.162  1.00  0.00     0.021 C 
BRANCH   2   3
ATOM      3  C   UNL     1       0.441   1.560   4.891  1.00  0.00     0.116 C 
BRANCH   3   4
ATOM      4  N   UNL     1       1.810   1.293   5.301  1.00  0.00    -0.352 N 
ATOM      5  C   UNL     1       2.981   1.031   4.634  1.00  0.00     0.251 C 
ATOM      6  O   UNL     1       3.990   0.902   5.331  1.00  0.00    -0.269 OA
ATOM      7  H   UNL     1       1.923   1.303   6.279  1.00  0.00     0.163 HD
BRANCH   5   8
ATOM      8  C   UNL     1       3.126   0.927   3.151  1.00  0.00     0.041 A 
ATOM      9  C   UNL     1       2.306   0.546   0.879  1.00  0.00     0.035 A 
ATOM     10  C   UNL     1       3.601   0.722   0.387  1.00  0.00     0.026 A 
ATOM     11  C   UNL     1       2.093   0.616   2.264  1.00  0.00     0.039 A 
ATOM     12  C   UNL     1       4.657   0.989   1.255  1.00  0.00     0.003 A 
ATOM     13  C   UNL     1       4.417   1.102   2.625  1.00  0.00     0.014 A 
BRANCH   9  14
ATOM     14  N   UNL     1       1.234   0.380  -0.003  1.00  0.00    -0.382 N 
ATOM     15  H   UNL     1       1.000  -0.507  -0.358  1.00  0.00     0.160 HD
BRANCH  14  16
ATOM     16  C   UNL     1       0.467   1.576  -0.382  1.00  0.00     0.079 C 
ATOM     17  C   UNL     1       1.072   2.158  -1.670  1.00  0.00     0.031 C 
BRANCH  16  18
ATOM     18  C   UNL     1      -1.050   1.285  -0.615  1.00  0.00     0.022 C 
ATOM     19  C   UNL     1      -1.911   1.616   0.610  1.00  0.00     0.067 C 
ATOM     20  C   UNL     1      -1.408  -0.131  -1.095  1.00  0.00     0.067 C 
ATOM     21  C   UNL     1      -1.837   0.539   1.679  1.00  0.00     0.262 C 
ATOM     22  C   UNL     1      -1.402  -1.184   0.020  1.00  0.00     0.262 C 
ATOM     23  N   UNL     1      -2.202  -0.792   1.190  1.00  0.00    -0.337 N 
ATOM     24  C   UNL     1      -2.017  -1.780   2.258  1.00  0.00     0.332 C 
ATOM     25  H   UNL     1      -3.181  -0.758   0.906  1.00  0.00     0.347 HD
ENDBRANCH  16  18
ENDBRANCH  14  16
ENDBRANCH   9  14
ENDBRANCH   5   8
ENDBRANCH   3   4
ENDBRANCH   2   3
ENDBRANCH   1   2
BRANCH   1  26
ATOM     26  C   UNL     1      -2.406   1.388   6.517  1.00  0.00     0.002 C 
BRANCH  26  27
ATOM     27  C   UNL     1      -3.518   1.155   5.485  1.00  0.00     0.021 C 
BRANCH  27  28
ATOM     28  C   UNL     1      -4.175  -0.227   5.498  1.00  0.00     0.116 C 
BRANCH  28  29
ATOM     29  N   UNL     1      -4.944  -0.457   6.709  1.00  0.00    -0.352 N 
ATOM     30  C   UNL     1      -6.285  -0.682   6.890  1.00  0.00     0.251 C 
ATOM     31  H   UNL     1      -4.414  -0.450   7.538  1.00  0.00     0.163 HD
ATOM     32  O   UNL     1      -6.745  -0.649   8.033  1.00  0.00    -0.269 OA
BRANCH  30  33
ATOM     33  C   UNL     1      -7.201  -0.954   5.756  1.00  0.00     0.039 A 
ATOM     34  C   UNL     1      -8.487  -0.403   5.798  1.00  0.00     0.014 A 
ATOM     35  C   UNL     1      -6.855  -1.808   4.704  1.00  0.00     0.014 A 
ATOM     36  C   UNL     1      -9.404  -0.669   4.775  1.00  0.00     0.010 A 
ATOM     37  C   UNL     1      -7.755  -2.033   3.655  1.00  0.00     0.010 A 
ATOM     38  C   UNL     1      -9.041  -1.470   3.682  1.00  0.00    -0.014 A 
BRANCH  38  39
ATOM     39  C   UNL     1     -10.000  -1.711   2.569  1.00  0.00     0.031 A 
ATOM     40  C   UNL     1     -10.578  -3.079   2.327  1.00  0.00     0.074 A 
ATOM     41  C   UNL     1     -10.338  -0.694   1.752  1.00  0.00     0.049 A 
ATOM     42  N   UNL     1     -11.427  -3.467   1.406  1.00  0.00    -0.248 NA
ATOM     43  C   UNL     1     -10.134  -4.155   3.224  1.00  0.00     0.031 C 
ATOM     44  C   UNL     1      -9.821   0.672   1.845  1.00  0.00     0.029 A 
ATOM     45  N   UNL     1     -11.195  -0.653   0.680  1.00  0.00    -0.354 N 
ATOM     46  C   UNL     1     -11.611  -4.829   1.606  1.00  0.00     0.074 A 
ATOM     47  C   UNL     1     -10.754  -5.209   2.711  1.00  0.00     0.031 C 
ATOM     48  C   UNL     1     -10.387   1.422   0.887  1.00  0.00     0.029 A 
ATOM     49  C   UNL     1     -11.287   0.587   0.096  1.00  0.00     0.049 A 
ATOM     50  H   UNL     1     -11.697  -1.438   0.360  1.00  0.00     0.167 HD
ATOM     51  C   UNL     1     -12.430  -5.683   0.945  1.00  0.00     0.037 A 
ATOM     52  C   UNL     1     -12.014   1.008  -0.956  1.00  0.00     0.037 A 
ATOM     53  C   UNL     1     -13.301  -5.308  -0.139  1.00  0.00     0.049 A 
ATOM     54  C   UNL     1     -12.921   0.043  -1.667  1.00  0.00     0.074 A 
ATOM     55  C   UNL     1     -14.209  -6.095  -0.829  1.00  0.00     0.029 A 
ATOM     56  N   UNL     1     -13.370  -4.041  -0.695  1.00  0.00    -0.354 N 
ATOM     57  N   UNL     1     -13.131  -1.227  -1.423  1.00  0.00    -0.248 NA
ATOM     58  C   UNL     1     -13.697   0.575  -2.797  1.00  0.00     0.031 C 
ATOM     59  C   UNL     1     -14.803  -5.311  -1.825  1.00  0.00     0.029 A 
ATOM     60  C   UNL     1     -14.292  -4.027  -1.731  1.00  0.00     0.049 A 
ATOM     61  H   UNL     1     -12.843  -3.264  -0.399  1.00  0.00     0.167 HD
ATOM     62  C   UNL     1     -14.077  -1.640  -2.352  1.00  0.00     0.074 A 
ATOM     63  C   UNL     1     -14.412  -0.482  -3.153  1.00  0.00     0.031 C 
ATOM     64  C   UNL     1     -14.617  -2.871  -2.525  1.00  0.00     0.037 A 
BRANCH  51  65
ATOM     65  C   UNL     1     -12.428  -7.119   1.383  1.00  0.00     0.057 A 
ATOM     66  C   UNL     1     -13.019  -7.522   2.588  1.00  0.00     0.134 A 
ATOM     67  C   UNL     1     -11.869  -8.115   0.573  1.00  0.00     0.134 A 
ATOM     68  F   UNL     1     -13.565  -6.616   3.413  1.00  0.00    -0.206 F 
ATOM     69  C   UNL     1     -13.032  -8.861   2.982  1.00  0.00     0.040 A 
ATOM     70  C   UNL     1     -11.896  -9.460   0.945  1.00  0.00     0.040 A 
ATOM     71  F   UNL     1     -11.295  -7.799  -0.598  1.00  0.00    -0.206 F 
ATOM     72  C   UNL     1     -12.475  -9.835   2.156  1.00  0.00     0.006 A 
ENDBRANCH  51  65
BRANCH  52  73
ATOM     73  C   UNL     1     -11.937   2.425  -1.388  1.00  0.00     0.057 A 
ATOM     74  C   UNL     1     -13.003   3.304  -1.165  1.00  0.00     0.134 A 
ATOM     75  C   UNL     1     -10.805   2.930  -2.036  1.00  0.00     0.134 A 
ATOM     76  F   UNL     1     -14.122   2.870  -0.567  1.00  0.00    -0.206 F 
ATOM     77  C   UNL     1     -12.952   4.634  -1.585  1.00  0.00     0.040 A 
ATOM     78  C   UNL     1     -10.732   4.263  -2.443  1.00  0.00     0.040 A 
ATOM     79  F   UNL     1      -9.750   2.137  -2.275  1.00  0.00    -0.206 F 
ATOM     80  C   UNL     1     -11.811   5.118  -2.222  1.00  0.00     0.006 A 
ENDBRANCH  52  73
BRANCH  64  81
ATOM     81  C   UNL     1     -15.642  -3.019  -3.610  1.00  0.00     0.057 A 
ATOM     82  C   UNL     1     -15.285  -3.022  -4.965  1.00  0.00     0.134 A 
ATOM     83  C   UNL     1     -16.997  -3.177  -3.298  1.00  0.00     0.134 A 
ATOM     84  F   UNL     1     -14.004  -2.860  -5.330  1.00  0.00    -0.206 F 
ATOM     85  C   UNL     1     -16.244  -3.150  -5.971  1.00  0.00     0.040 A 
ATOM     86  C   UNL     1     -17.963  -3.329  -4.294  1.00  0.00     0.040 A 
ATOM     87  F   UNL     1     -17.405  -3.190  -2.020  1.00  0.00    -0.206 F 
ATOM     88  C   UNL     1     -17.587  -3.309  -5.636  1.00  0.00     0.006 A 
ENDBRANCH  64  81
ENDBRANCH  38  39
ENDBRANCH  30  33
ENDBRANCH  28  29
ENDBRANCH  27  28
ENDBRANCH  26  27
ENDBRANCH   1  26
TORSDOF 16
