REMARK SMILES O=C1C[C@H](C(=O)NCCCCCCNC(=O)c2ccc(-c3c4nc(c(-c5c(F)cccc5F)c5ccc([nH]5)c(-c5c(F)cccc5F)c5nc(c(-c6c(F)cccc6F)c6ccc3[nH]6)C=C5)C=C4)cc2)c2c(nc(Nc3ccc(Oc4ccccc4)cc3)[nH]c2=O)N1
REMARK SMILES IDX 9 1 8 2 7 3 5 4 6 5 4 7 1 8 2 9 3 10 92 11 72 12 71 14 73 15
REMARK SMILES IDX 90 16 74 17 89 18 91 19 75 21 76 23 77 24 88 25 78 26 87 27
REMARK SMILES IDX 79 28 80 29 81 30 82 31 86 32 83 33 85 34 84 35 10 36 11 37
REMARK SMILES IDX 12 38 13 39 14 40 15 41 16 43 17 44 18 45 70 46 19 47 69 48
REMARK SMILES IDX 20 49 21 50 22 51 63 52 23 53 68 54 62 55 64 56 24 57 67 58
REMARK SMILES IDX 61 59 60 60 25 62 51 63 34 64 50 65 35 66 38 67 49 68 65 69
REMARK SMILES IDX 36 70 37 71 48 73 66 74 39 75 26 76 27 77 32 78 28 79 29 80
REMARK SMILES IDX 31 81 33 82 30 83 52 84 53 85 58 86 54 87 55 88 57 89 59 90
REMARK SMILES IDX 56 91 40 92 41 93 46 94 42 95 43 96 45 97 47 98 44 99
REMARK H PARENT 7 6 92 13 89 20 75 22 14 42 64 61 38 72
REMARK Flexibility Score: inf
ROOT
ATOM      1  C   UNL     1       6.165  -1.557   2.321  1.00  0.00     0.021 C 
ENDROOT
BRANCH   1   2
ATOM      2  C   UNL     1       6.067  -1.220   0.836  1.00  0.00     0.116 C 
BRANCH   2   3
ATOM      3  N   UNL     1       5.802  -2.410   0.051  1.00  0.00    -0.356 N 
ATOM      4  C   UNL     1       4.794  -2.709  -0.814  1.00  0.00     0.228 C 
ATOM      5  O   UNL     1       4.718  -3.872  -1.219  1.00  0.00    -0.274 OA
ATOM      6  H   UNL     1       6.467  -3.127   0.162  1.00  0.00     0.163 HD
BRANCH   4   7
ATOM      7  C   UNL     1       3.752  -1.672  -1.233  1.00  0.00     0.127 C 
ATOM      8  O   UNL     1       1.474   0.345   0.896  1.00  0.00    -0.275 OA
ATOM      9  C   UNL     1       2.380   0.034   0.125  1.00  0.00     0.226 C 
ATOM     10  C   UNL     1       2.792  -1.407  -0.068  1.00  0.00     0.119 C 
ATOM     11  N   UNL     1       3.092   0.988  -0.533  1.00  0.00    -0.310 N 
ATOM     12  C   UNL     1       4.077   0.781  -1.443  1.00  0.00     0.146 A 
ATOM     13  H   UNL     1       2.871   1.925  -0.327  1.00  0.00     0.171 HD
ATOM     14  C   UNL     1       4.401  -0.457  -1.818  1.00  0.00     0.073 A 
ATOM     15  N   UNL     1       4.648   1.920  -1.907  1.00  0.00    -0.196 NA
ATOM     16  C   UNL     1       5.437  -0.566  -2.861  1.00  0.00     0.258 A 
ATOM     17  C   UNL     1       5.570   1.833  -2.816  1.00  0.00     0.209 A 
ATOM     18  N   UNL     1       5.968   0.615  -3.292  1.00  0.00    -0.292 N 
ATOM     19  O   UNL     1       5.804  -1.637  -3.325  1.00  0.00    -0.269 OA
ATOM     20  H   UNL     1       6.672   0.588  -3.979  1.00  0.00     0.173 HD
BRANCH  17  21
ATOM     21  N   UNL     1       6.176   2.929  -3.377  1.00  0.00    -0.326 N 
ATOM     22  H   UNL     1       6.795   2.792  -4.129  1.00  0.00     0.170 HD
BRANCH  21  23
ATOM     23  C   UNL     1       5.951   4.240  -2.922  1.00  0.00     0.041 A 
ATOM     24  C   UNL     1       5.415   5.198  -3.788  1.00  0.00     0.030 A 
ATOM     25  C   UNL     1       6.105   4.568  -1.569  1.00  0.00     0.030 A 
ATOM     26  C   UNL     1       5.010   6.444  -3.300  1.00  0.00     0.049 A 
ATOM     27  C   UNL     1       5.721   5.819  -1.082  1.00  0.00     0.049 A 
ATOM     28  C   UNL     1       5.152   6.757  -1.945  1.00  0.00     0.127 A 
BRANCH  28  29
ATOM     29  O   UNL     1       4.662   7.991  -1.569  1.00  0.00    -0.457 OA
BRANCH  29  30
ATOM     30  C   UNL     1       4.888   8.392  -0.277  1.00  0.00     0.127 A 
ATOM     31  C   UNL     1       3.898   8.201   0.688  1.00  0.00     0.047 A 
ATOM     32  C   UNL     1       6.087   9.023   0.044  1.00  0.00     0.047 A 
ATOM     33  C   UNL     1       4.138   8.593   2.005  1.00  0.00     0.004 A 
ATOM     34  C   UNL     1       6.313   9.426   1.358  1.00  0.00     0.004 A 
ATOM     35  C   UNL     1       5.350   9.197   2.341  1.00  0.00     0.000 A 
ENDBRANCH  29  30
ENDBRANCH  28  29
ENDBRANCH  21  23
ENDBRANCH  17  21
ENDBRANCH   4   7
ENDBRANCH   2   3
ENDBRANCH   1   2
BRANCH   1  36
ATOM     36  C   UNL     1       7.375  -2.421   2.694  1.00  0.00     0.002 C 
BRANCH  36  37
ATOM     37  C   UNL     1       8.740  -1.806   2.368  1.00  0.00     0.002 C 
BRANCH  37  38
ATOM     38  C   UNL     1       8.971  -0.405   2.937  1.00  0.00     0.021 C 
BRANCH  38  39
ATOM     39  C   UNL     1       8.772  -0.296   4.444  1.00  0.00     0.116 C 
BRANCH  39  40
ATOM     40  N   UNL     1       9.754  -1.075   5.183  1.00  0.00    -0.352 N 
ATOM     41  C   UNL     1      10.672  -0.640   6.104  1.00  0.00     0.251 C 
ATOM     42  H   UNL     1       9.759  -2.042   4.996  1.00  0.00     0.163 HD
ATOM     43  O   UNL     1      11.558  -1.383   6.514  1.00  0.00    -0.269 OA
BRANCH  41  44
ATOM     44  C   UNL     1      10.593   0.752   6.585  1.00  0.00     0.039 A 
ATOM     45  C   UNL     1      11.726   1.562   6.501  1.00  0.00     0.014 A 
ATOM     46  C   UNL     1       9.387   1.255   7.086  1.00  0.00     0.014 A 
ATOM     47  C   UNL     1      11.637   2.902   6.876  1.00  0.00     0.010 A 
ATOM     48  C   UNL     1       9.285   2.606   7.402  1.00  0.00     0.010 A 
ATOM     49  C   UNL     1      10.411   3.437   7.306  1.00  0.00    -0.014 A 
BRANCH  49  50
ATOM     50  C   UNL     1      10.306   4.863   7.696  1.00  0.00     0.031 A 
ATOM     51  C   UNL     1      10.114   5.226   9.139  1.00  0.00     0.074 A 
ATOM     52  C   UNL     1      10.383   5.822   6.755  1.00  0.00     0.049 A 
ATOM     53  N   UNL     1      10.033   6.409   9.689  1.00  0.00    -0.248 NA
ATOM     54  C   UNL     1       9.991   4.108  10.088  1.00  0.00     0.031 C 
ATOM     55  C   UNL     1      10.575   5.583   5.325  1.00  0.00     0.029 A 
ATOM     56  N   UNL     1      10.326   7.188   6.862  1.00  0.00    -0.354 N 
ATOM     57  C   UNL     1       9.873   6.179  11.048  1.00  0.00     0.074 A 
ATOM     58  C   UNL     1       9.788   4.746  11.230  1.00  0.00     0.031 C 
ATOM     59  C   UNL     1      10.675   6.765   4.695  1.00  0.00     0.029 A 
ATOM     60  C   UNL     1      10.505   7.842   5.666  1.00  0.00     0.049 A 
ATOM     61  H   UNL     1      10.173   7.657   7.714  1.00  0.00     0.167 HD
ATOM     62  C   UNL     1       9.838   7.078  12.060  1.00  0.00     0.037 A 
ATOM     63  C   UNL     1      10.531   9.161   5.393  1.00  0.00     0.037 A 
ATOM     64  C   UNL     1       9.912   8.502  11.875  1.00  0.00     0.049 A 
ATOM     65  C   UNL     1      10.339  10.138   6.524  1.00  0.00     0.074 A 
ATOM     66  C   UNL     1       9.909   9.500  12.832  1.00  0.00     0.029 A 
ATOM     67  N   UNL     1       9.991   9.130  10.640  1.00  0.00    -0.354 N 
ATOM     68  N   UNL     1      10.254   9.909   7.812  1.00  0.00    -0.248 NA
ATOM     69  C   UNL     1      10.237  11.559   6.160  1.00  0.00     0.031 C 
ATOM     70  C   UNL     1       9.942  10.735  12.173  1.00  0.00     0.029 A 
ATOM     71  C   UNL     1      10.006  10.504  10.808  1.00  0.00     0.049 A 
ATOM     72  H   UNL     1      10.030   8.666   9.773  1.00  0.00     0.167 HD
ATOM     73  C   UNL     1      10.154  11.156   8.416  1.00  0.00     0.074 A 
ATOM     74  C   UNL     1      10.178  12.138   7.351  1.00  0.00     0.031 C 
ATOM     75  C   UNL     1      10.061  11.464   9.734  1.00  0.00     0.037 A 
BRANCH  62  76
ATOM     76  C   UNL     1       9.718   6.526  13.450  1.00  0.00     0.057 A 
ATOM     77  C   UNL     1       8.534   6.669  14.182  1.00  0.00     0.134 A 
ATOM     78  C   UNL     1      10.774   5.832  14.056  1.00  0.00     0.134 A 
ATOM     79  F   UNL     1       7.485   7.323  13.662  1.00  0.00    -0.206 F 
ATOM     80  C   UNL     1       8.402   6.131  15.464  1.00  0.00     0.040 A 
ATOM     81  C   UNL     1      10.645   5.267  15.325  1.00  0.00     0.040 A 
ATOM     82  F   UNL     1      11.930   5.645  13.399  1.00  0.00    -0.206 F 
ATOM     83  C   UNL     1       9.455   5.418  16.034  1.00  0.00     0.006 A 
ENDBRANCH  62  76
BRANCH  63  84
ATOM     84  C   UNL     1      10.789   9.642   4.007  1.00  0.00     0.057 A 
ATOM     85  C   UNL     1       9.917   9.360   2.950  1.00  0.00     0.134 A 
ATOM     86  C   UNL     1      11.921  10.411   3.708  1.00  0.00     0.134 A 
ATOM     87  F   UNL     1       8.812   8.631   3.163  1.00  0.00    -0.206 F 
ATOM     88  C   UNL     1      10.167   9.805   1.650  1.00  0.00     0.040 A 
ATOM     89  C   UNL     1      12.162  10.898   2.422  1.00  0.00     0.040 A 
ATOM     90  F   UNL     1      12.795  10.729   4.674  1.00  0.00    -0.206 F 
ATOM     91  C   UNL     1      11.285  10.590   1.385  1.00  0.00     0.006 A 
ENDBRANCH  63  84
BRANCH  75  92
ATOM     92  C   UNL     1      10.053  12.921  10.096  1.00  0.00     0.057 A 
ATOM     93  C   UNL     1      11.170  13.504  10.710  1.00  0.00     0.134 A 
ATOM     94  C   UNL     1       8.942  13.739   9.863  1.00  0.00     0.134 A 
ATOM     95  F   UNL     1      12.265  12.773  10.969  1.00  0.00    -0.206 F 
ATOM     96  C   UNL     1      11.181  14.850  11.079  1.00  0.00     0.040 A 
ATOM     97  C   UNL     1       8.950  15.093  10.204  1.00  0.00     0.040 A 
ATOM     98  F   UNL     1       7.847  13.245   9.264  1.00  0.00    -0.206 F 
ATOM     99  C   UNL     1      10.070  15.650  10.819  1.00  0.00     0.006 A 
ENDBRANCH  75  92
ENDBRANCH  49  50
ENDBRANCH  41  44
ENDBRANCH  39  40
ENDBRANCH  38  39
ENDBRANCH  37  38
ENDBRANCH  36  37
ENDBRANCH   1  36
TORSDOF 17
