REMARK SMILES C[C@@H](NC(=O)c1ccc(S(=O)(=O)N(C)C)o1)C(=O)NCCCCCCNC(=O)c1ccc(-c2c3nc(c(-c4c(F)cccc4F)c4ccc([nH]4)c(-c4c(F)cccc4F)c4nc(c(-c5c(F)cccc5F)c5ccc2[nH]5)C=C4)C=C3)cc1
REMARK SMILES IDX 21 1 20 2 19 3 17 4 18 5 2 7 1 8 3 9 4 10 5 12 6 13 7 14
REMARK SMILES IDX 16 15 8 16 9 17 10 18 11 19 12 20 13 21 14 22 15 23 22 24
REMARK SMILES IDX 23 25 24 26 25 27 26 28 27 29 28 31 29 32 30 33 82 34 31 35
REMARK SMILES IDX 81 36 32 37 33 38 34 39 75 40 35 41 80 42 74 43 76 44 36 45
REMARK SMILES IDX 79 46 73 47 72 48 37 50 63 51 46 52 62 53 47 54 50 55 61 56
REMARK SMILES IDX 77 57 48 58 49 59 60 61 78 62 51 63 38 64 39 65 44 66 40 67
REMARK SMILES IDX 41 68 43 69 45 70 42 71 64 72 65 73 70 74 66 75 67 76 69 77
REMARK SMILES IDX 71 78 68 79 52 80 53 81 58 82 54 83 55 84 57 85 59 86 56 87
REMARK H PARENT 19 6 3 11 26 30 76 49 50 60
REMARK Flexibility Score: inf
ROOT
ATOM      1  C   UNL     1      -1.397   2.639  -1.120  1.00  0.00     0.021 C 
ENDROOT
BRANCH   1   2
ATOM      2  C   UNL     1      -0.841   1.877   0.076  1.00  0.00     0.116 C 
BRANCH   2   3
ATOM      3  N   UNL     1      -1.335   0.514   0.087  1.00  0.00    -0.354 N 
ATOM      4  C   UNL     1      -0.792  -0.598   0.647  1.00  0.00     0.242 C 
ATOM      5  O   UNL     1      -1.332  -1.684   0.418  1.00  0.00    -0.273 OA
ATOM      6  H   UNL     1      -2.190   0.374  -0.380  1.00  0.00     0.163 HD
BRANCH   4   7
ATOM      7  C   UNL     1       0.531  -0.537   1.434  1.00  0.00     0.168 C 
ATOM      8  C   UNL     1       1.674  -0.582   0.414  1.00  0.00     0.041 C 
BRANCH   7   9
ATOM      9  N   UNL     1       0.705   0.599   2.343  1.00  0.00    -0.338 N 
ATOM     10  C   UNL     1      -0.111   1.047   3.362  1.00  0.00     0.287 C 
ATOM     11  H   UNL     1       1.528   1.121   2.206  1.00  0.00     0.164 HD
ATOM     12  O   UNL     1       0.361   1.901   4.112  1.00  0.00    -0.266 OA
BRANCH  10  13
ATOM     13  C   UNL     1      -1.486   0.597   3.433  1.00  0.00     0.193 A 
ATOM     14  C   UNL     1      -2.085  -0.644   3.417  1.00  0.00     0.058 A 
ATOM     15  O   UNL     1      -2.461   1.559   3.479  1.00  0.00    -0.438 OA
ATOM     16  C   UNL     1      -3.481  -0.420   3.336  1.00  0.00     0.065 A 
ATOM     17  C   UNL     1      -3.701   0.951   3.398  1.00  0.00     0.234 A 
BRANCH  17  18
ATOM     18  S   UNL     1      -5.216   1.926   3.364  1.00  0.00     0.275 S 
ATOM     19  O   UNL     1      -5.429   2.369   4.719  1.00  0.00    -0.204 OA
ATOM     20  O   UNL     1      -5.024   2.864   2.276  1.00  0.00    -0.204 OA
BRANCH  18  21
ATOM     21  N   UNL     1      -6.523   0.908   2.918  1.00  0.00    -0.201 NA
ATOM     22  C   UNL     1      -6.984   0.009   3.996  1.00  0.00     0.124 C 
ATOM     23  C   UNL     1      -7.657   1.659   2.321  1.00  0.00     0.124 C 
ENDBRANCH  18  21
ENDBRANCH  17  18
ENDBRANCH  10  13
ENDBRANCH   7   9
ENDBRANCH   4   7
ENDBRANCH   2   3
ENDBRANCH   1   2
BRANCH   1  24
ATOM     24  C   UNL     1      -2.886   2.970  -0.987  1.00  0.00     0.002 C 
BRANCH  24  25
ATOM     25  C   UNL     1      -3.215   3.913   0.170  1.00  0.00     0.002 C 
BRANCH  25  26
ATOM     26  C   UNL     1      -2.529   5.272   0.134  1.00  0.00     0.021 C 
BRANCH  26  27
ATOM     27  C   UNL     1      -2.744   6.033  -1.161  1.00  0.00     0.116 C 
BRANCH  27  28
ATOM     28  N   UNL     1      -4.152   6.261  -1.455  1.00  0.00    -0.352 N 
ATOM     29  C   UNL     1      -4.763   7.419  -1.868  1.00  0.00     0.251 C 
ATOM     30  H   UNL     1      -4.744   5.482  -1.343  1.00  0.00     0.163 HD
ATOM     31  O   UNL     1      -5.983   7.503  -1.947  1.00  0.00    -0.269 OA
BRANCH  29  32
ATOM     32  C   UNL     1      -3.913   8.579  -2.189  1.00  0.00     0.039 A 
ATOM     33  C   UNL     1      -4.202   9.815  -1.608  1.00  0.00     0.014 A 
ATOM     34  C   UNL     1      -2.787   8.414  -3.000  1.00  0.00     0.014 A 
ATOM     35  C   UNL     1      -3.317  10.877  -1.792  1.00  0.00     0.010 A 
ATOM     36  C   UNL     1      -1.861   9.440  -3.098  1.00  0.00     0.010 A 
ATOM     37  C   UNL     1      -2.123  10.685  -2.507  1.00  0.00    -0.014 A 
BRANCH  37  38
ATOM     38  C   UNL     1      -1.140  11.780  -2.681  1.00  0.00     0.031 A 
ATOM     39  C   UNL     1      -0.822  12.273  -4.065  1.00  0.00     0.074 A 
ATOM     40  C   UNL     1      -0.485  12.271  -1.612  1.00  0.00     0.049 A 
ATOM     41  N   UNL     1       0.074  13.146  -4.447  1.00  0.00    -0.248 NA
ATOM     42  C   UNL     1      -1.586  11.673  -5.172  1.00  0.00     0.031 C 
ATOM     43  C   UNL     1      -0.668  11.831  -0.227  1.00  0.00     0.029 A 
ATOM     44  N   UNL     1       0.480  13.242  -1.527  1.00  0.00    -0.354 N 
ATOM     45  C   UNL     1      -0.005  13.181  -5.833  1.00  0.00     0.074 A 
ATOM     46  C   UNL     1      -0.988  12.198  -6.230  1.00  0.00     0.031 C 
ATOM     47  C   UNL     1       0.137  12.550   0.572  1.00  0.00     0.029 A 
ATOM     48  C   UNL     1       0.920  13.471  -0.245  1.00  0.00     0.049 A 
ATOM     49  H   UNL     1       0.825  13.729  -2.310  1.00  0.00     0.167 HD
ATOM     50  C   UNL     1       0.660  13.982  -6.697  1.00  0.00     0.037 A 
ATOM     51  C   UNL     1       1.853  14.326   0.212  1.00  0.00     0.037 A 
ATOM     52  C   UNL     1       1.606  14.986  -6.291  1.00  0.00     0.049 A 
ATOM     53  C   UNL     1       2.569  15.216  -0.766  1.00  0.00     0.074 A 
ATOM     54  C   UNL     1       2.287  15.897  -7.078  1.00  0.00     0.029 A 
ATOM     55  N   UNL     1       2.000  15.212  -4.981  1.00  0.00    -0.354 N 
ATOM     56  N   UNL     1       2.437  15.287  -2.069  1.00  0.00    -0.248 NA
ATOM     57  C   UNL     1       3.559  16.149  -0.210  1.00  0.00     0.031 C 
ATOM     58  C   UNL     1       3.124  16.649  -6.247  1.00  0.00     0.029 A 
ATOM     59  C   UNL     1       2.928  16.238  -4.938  1.00  0.00     0.049 A 
ATOM     60  H   UNL     1       1.669  14.716  -4.197  1.00  0.00     0.167 HD
ATOM     61  C   UNL     1       3.302  16.291  -2.485  1.00  0.00     0.074 A 
ATOM     62  C   UNL     1       3.944  16.808  -1.294  1.00  0.00     0.031 C 
ATOM     63  C   UNL     1       3.544  16.744  -3.739  1.00  0.00     0.037 A 
BRANCH  50  64
ATOM     64  C   UNL     1       0.375  13.809  -8.160  1.00  0.00     0.057 A 
ATOM     65  C   UNL     1      -0.857  14.172  -8.721  1.00  0.00     0.134 A 
ATOM     66  C   UNL     1       1.349  13.291  -9.022  1.00  0.00     0.134 A 
ATOM     67  F   UNL     1      -1.839  14.660  -7.948  1.00  0.00    -0.206 F 
ATOM     68  C   UNL     1      -1.120  13.999 -10.081  1.00  0.00     0.040 A 
ATOM     69  C   UNL     1       1.107  13.140 -10.389  1.00  0.00     0.040 A 
ATOM     70  F   UNL     1       2.551  12.925  -8.553  1.00  0.00    -0.206 F 
ATOM     71  C   UNL     1      -0.133  13.488 -10.920  1.00  0.00     0.006 A 
ENDBRANCH  50  64
BRANCH  51  72
ATOM     72  C   UNL     1       2.144  14.404   1.666  1.00  0.00     0.057 A 
ATOM     73  C   UNL     1       1.775  15.528   2.415  1.00  0.00     0.134 A 
ATOM     74  C   UNL     1       2.801  13.368   2.341  1.00  0.00     0.134 A 
ATOM     75  F   UNL     1       1.158  16.561   1.822  1.00  0.00    -0.206 F 
ATOM     76  C   UNL     1       2.067  15.630   3.776  1.00  0.00     0.040 A 
ATOM     77  C   UNL     1       3.078  13.445   3.707  1.00  0.00     0.040 A 
ATOM     78  F   UNL     1       3.174  12.261   1.682  1.00  0.00    -0.206 F 
ATOM     79  C   UNL     1       2.717  14.583   4.427  1.00  0.00     0.006 A 
ENDBRANCH  51  72
BRANCH  63  80
ATOM     80  C   UNL     1       4.512  17.881  -3.881  1.00  0.00     0.057 A 
ATOM     81  C   UNL     1       5.891  17.704  -3.713  1.00  0.00     0.134 A 
ATOM     82  C   UNL     1       4.061  19.158  -4.239  1.00  0.00     0.134 A 
ATOM     83  F   UNL     1       6.385  16.508  -3.359  1.00  0.00    -0.206 F 
ATOM     84  C   UNL     1       6.785  18.763  -3.874  1.00  0.00     0.040 A 
ATOM     85  C   UNL     1       4.947  20.217  -4.429  1.00  0.00     0.040 A 
ATOM     86  F   UNL     1       2.752  19.390  -4.425  1.00  0.00    -0.206 F 
ATOM     87  C   UNL     1       6.314  20.023  -4.240  1.00  0.00     0.006 A 
ENDBRANCH  63  80
ENDBRANCH  37  38
ENDBRANCH  29  32
ENDBRANCH  27  28
ENDBRANCH  26  27
ENDBRANCH  25  26
ENDBRANCH  24  25
ENDBRANCH   1  24
TORSDOF 17
