REMARK SMILES CCn1ncc(Br)c1C(=O)N[C@H]1C(=O)N2C(C(=O)NCCCCCCNC(=O)c3ccc(-c4c5nc(c(-c6c(F)cccc6F)c6ccc([nH]6)c(-c6c(F)cccc6F)c6nc(c(-c7c(F)cccc7F)c7ccc4[nH]7)C=C6)C=C5)cc3)=C(C)CS[C@H]12
REMARK SMILES IDX 22 1 21 2 20 3 19 4 17 5 18 6 16 8 12 9 13 10 87 11 14 12
REMARK SMILES IDX 15 13 86 14 85 15 83 16 84 17 11 18 9 19 10 20 8 22 3 23
REMARK SMILES IDX 4 24 5 25 6 26 7 27 2 28 1 29 23 30 24 31 25 32 26 33 27 34
REMARK SMILES IDX 28 36 29 37 30 38 82 39 31 40 81 41 32 42 33 43 34 44 75 45
REMARK SMILES IDX 35 46 80 47 74 48 76 49 36 50 79 51 73 52 72 53 37 55 63 56
REMARK SMILES IDX 46 57 62 58 47 59 50 60 61 61 77 62 48 63 49 64 60 66 78 67
REMARK SMILES IDX 51 68 38 69 39 70 44 71 40 72 41 73 43 74 45 75 42 76 64 77
REMARK SMILES IDX 65 78 70 79 66 80 67 81 69 82 71 83 68 84 52 85 53 86 58 87
REMARK SMILES IDX 54 88 55 89 57 90 59 91 56 92
REMARK H PARENT 19 7 11 21 26 35 76 54 50 65
REMARK Flexibility Score: inf
ROOT
ATOM      1  C   UNL     1      -2.466   7.061   3.223  1.00  0.00     0.002 C 
ENDROOT
BRANCH   1   2
ATOM      2  C   UNL     1      -2.514   5.579   3.605  1.00  0.00     0.021 C 
BRANCH   2   3
ATOM      3  C   UNL     1      -2.390   4.562   2.479  1.00  0.00     0.116 C 
BRANCH   3   4
ATOM      4  N   UNL     1      -1.115   4.548   1.810  1.00  0.00    -0.351 N 
ATOM      5  C   UNL     1      -0.394   3.545   1.241  1.00  0.00     0.268 C 
ATOM      6  O   UNL     1       0.621   3.892   0.636  1.00  0.00    -0.268 OA
ATOM      7  H   UNL     1      -0.683   5.431   1.754  1.00  0.00     0.163 HD
BRANCH   5   8
ATOM      8  C   UNL     1      -0.717   2.067   1.394  1.00  0.00     0.110 C 
ATOM      9  C   UNL     1       1.767  -0.112   0.654  1.00  0.00     0.206 C 
ATOM     10  C   UNL     1       1.704   1.299   1.264  1.00  0.00     0.253 C 
ATOM     11  C   UNL     1       0.265  -0.174   0.987  1.00  0.00     0.181 C 
ATOM     12  O   UNL     1       2.532   2.107   1.661  1.00  0.00    -0.272 OA
ATOM     13  N   UNL     1       0.364   1.244   1.236  1.00  0.00    -0.290 N 
ATOM     14  S   UNL     1      -0.511  -0.825   2.468  1.00  0.00    -0.129 SA
ATOM     15  C   UNL     1      -2.099   0.001   1.961  1.00  0.00     0.104 C 
ATOM     16  C   UNL     1      -1.923   1.449   1.466  1.00  0.00    -0.034 C 
ATOM     17  C   UNL     1      -3.202   2.050   0.945  1.00  0.00     0.043 C 
BRANCH   9  18
ATOM     18  N   UNL     1       2.057  -0.247  -0.827  1.00  0.00    -0.336 N 
ATOM     19  C   UNL     1       1.930   0.528  -1.975  1.00  0.00     0.271 C 
ATOM     20  O   UNL     1       2.184  -0.092  -3.013  1.00  0.00    -0.267 OA
ATOM     21  H   UNL     1       2.443  -1.129  -1.035  1.00  0.00     0.164 HD
BRANCH  19  22
ATOM     22  C   UNL     1       1.592   1.934  -2.045  1.00  0.00     0.140 A 
ATOM     23  N   UNL     1       0.353   2.549  -2.201  1.00  0.00    -0.259 N 
ATOM     24  N   UNL     1       0.425   3.887  -2.421  1.00  0.00    -0.180 NA
ATOM     25  C   UNL     1       1.718   4.111  -2.623  1.00  0.00     0.151 A 
ATOM     26  C   UNL     1       2.458   2.938  -2.464  1.00  0.00     0.069 A 
ATOM     27  Br  UNL     1       4.264   2.815  -2.957  1.00  0.00    -0.047 Br
BRANCH  23  28
ATOM     28  C   UNL     1      -0.988   2.026  -2.383  1.00  0.00     0.142 C 
ATOM     29  C   UNL     1      -1.208   0.557  -2.175  1.00  0.00     0.029 C 
ENDBRANCH  23  28
ENDBRANCH  19  22
ENDBRANCH   9  18
ENDBRANCH   5   8
ENDBRANCH   3   4
ENDBRANCH   2   3
ENDBRANCH   1   2
BRANCH   1  30
ATOM     30  C   UNL     1      -3.418   7.564   2.130  1.00  0.00     0.002 C 
BRANCH  30  31
ATOM     31  C   UNL     1      -4.903   7.193   2.222  1.00  0.00     0.021 C 
BRANCH  31  32
ATOM     32  C   UNL     1      -5.599   7.516   3.538  1.00  0.00     0.116 C 
BRANCH  32  33
ATOM     33  N   UNL     1      -5.609   8.936   3.863  1.00  0.00    -0.352 N 
ATOM     34  C   UNL     1      -6.060   9.540   5.019  1.00  0.00     0.251 C 
ATOM     35  H   UNL     1      -5.250   9.539   3.173  1.00  0.00     0.163 HD
ATOM     36  O   UNL     1      -6.362  10.729   5.025  1.00  0.00    -0.269 OA
BRANCH  34  37
ATOM     37  C   UNL     1      -6.193   8.743   6.255  1.00  0.00     0.039 A 
ATOM     38  C   UNL     1      -7.295   8.922   7.097  1.00  0.00     0.014 A 
ATOM     39  C   UNL     1      -5.208   7.809   6.571  1.00  0.00     0.014 A 
ATOM     40  C   UNL     1      -7.444   8.092   8.206  1.00  0.00     0.010 A 
ATOM     41  C   UNL     1      -5.411   6.917   7.602  1.00  0.00     0.010 A 
ATOM     42  C   UNL     1      -6.513   7.068   8.441  1.00  0.00    -0.014 A 
BRANCH  42  43
ATOM     43  C   UNL     1      -6.784   6.053   9.463  1.00  0.00     0.031 A 
ATOM     44  C   UNL     1      -8.088   5.343   9.298  1.00  0.00     0.074 A 
ATOM     45  C   UNL     1      -5.853   5.598  10.329  1.00  0.00     0.049 A 
ATOM     46  N   UNL     1      -9.082   5.286  10.123  1.00  0.00    -0.248 NA
ATOM     47  C   UNL     1      -8.361   4.702   7.999  1.00  0.00     0.031 C 
ATOM     48  C   UNL     1      -4.432   5.957  10.390  1.00  0.00     0.029 A 
ATOM     49  N   UNL     1      -5.953   4.616  11.272  1.00  0.00    -0.354 N 
ATOM     50  C   UNL     1     -10.025   4.442   9.535  1.00  0.00     0.074 A 
ATOM     51  C   UNL     1      -9.607   4.261   8.171  1.00  0.00     0.031 C 
ATOM     52  C   UNL     1      -3.768   5.053  11.143  1.00  0.00     0.029 A 
ATOM     53  C   UNL     1      -4.730   4.152  11.749  1.00  0.00     0.049 A 
ATOM     54  H   UNL     1      -6.817   4.265  11.588  1.00  0.00     0.167 HD
ATOM     55  C   UNL     1     -10.933   3.763  10.291  1.00  0.00     0.037 A 
ATOM     56  C   UNL     1      -4.518   3.087  12.562  1.00  0.00     0.037 A 
ATOM     57  C   UNL     1     -11.062   4.361  11.597  1.00  0.00     0.049 A 
ATOM     58  C   UNL     1      -5.806   2.763  13.212  1.00  0.00     0.074 A 
ATOM     59  C   UNL     1     -11.425   5.602  12.081  1.00  0.00     0.029 A 
ATOM     60  N   UNL     1     -10.449   3.719  12.643  1.00  0.00    -0.354 N 
ATOM     61  N   UNL     1      -6.381   3.504  14.114  1.00  0.00    -0.248 NA
ATOM     62  C   UNL     1      -6.663   1.775  12.576  1.00  0.00     0.031 C 
ATOM     63  C   UNL     1     -10.601   5.809  13.228  1.00  0.00     0.029 A 
ATOM     64  C   UNL     1      -9.827   4.663  13.412  1.00  0.00     0.049 A 
ATOM     65  H   UNL     1     -10.455   2.749  12.810  1.00  0.00     0.167 HD
ATOM     66  C   UNL     1      -7.734   3.394  13.843  1.00  0.00     0.074 A 
ATOM     67  C   UNL     1      -7.854   2.221  12.984  1.00  0.00     0.031 C 
ATOM     68  C   UNL     1      -8.581   4.433  14.105  1.00  0.00     0.037 A 
BRANCH  55  69
ATOM     69  C   UNL     1     -11.379   2.335  10.021  1.00  0.00     0.057 A 
ATOM     70  C   UNL     1     -12.316   1.740  10.892  1.00  0.00     0.134 A 
ATOM     71  C   UNL     1     -10.714   1.430   9.169  1.00  0.00     0.134 A 
ATOM     72  F   UNL     1     -13.028   2.484  11.752  1.00  0.00    -0.206 F 
ATOM     73  C   UNL     1     -12.486   0.353  10.988  1.00  0.00     0.040 A 
ATOM     74  C   UNL     1     -10.915   0.046   9.222  1.00  0.00     0.040 A 
ATOM     75  F   UNL     1      -9.768   1.808   8.303  1.00  0.00    -0.206 F 
ATOM     76  C   UNL     1     -11.772  -0.501  10.161  1.00  0.00     0.006 A 
ENDBRANCH  55  69
BRANCH  56  77
ATOM     77  C   UNL     1      -3.350   2.184  12.676  1.00  0.00     0.057 A 
ATOM     78  C   UNL     1      -3.199   1.340  13.788  1.00  0.00     0.134 A 
ATOM     79  C   UNL     1      -2.514   1.914  11.580  1.00  0.00     0.134 A 
ATOM     80  F   UNL     1      -3.970   1.497  14.873  1.00  0.00    -0.206 F 
ATOM     81  C   UNL     1      -2.305   0.262  13.792  1.00  0.00     0.040 A 
ATOM     82  C   UNL     1      -1.608   0.847  11.576  1.00  0.00     0.040 A 
ATOM     83  F   UNL     1      -2.614   2.616  10.443  1.00  0.00    -0.206 F 
ATOM     84  C   UNL     1      -1.516   0.004  12.677  1.00  0.00     0.006 A 
ENDBRANCH  56  77
BRANCH  68  85
ATOM     85  C   UNL     1      -8.082   5.537  14.993  1.00  0.00     0.057 A 
ATOM     86  C   UNL     1      -6.995   6.372  14.693  1.00  0.00     0.134 A 
ATOM     87  C   UNL     1      -8.815   5.846  16.145  1.00  0.00     0.134 A 
ATOM     88  F   UNL     1      -6.290   6.219  13.564  1.00  0.00    -0.206 F 
ATOM     89  C   UNL     1      -6.628   7.433  15.527  1.00  0.00     0.040 A 
ATOM     90  C   UNL     1      -8.483   6.925  16.965  1.00  0.00     0.040 A 
ATOM     91  F   UNL     1      -9.899   5.123  16.469  1.00  0.00    -0.206 F 
ATOM     92  C   UNL     1      -7.378   7.716  16.664  1.00  0.00     0.006 A 
ENDBRANCH  68  85
ENDBRANCH  42  43
ENDBRANCH  34  37
ENDBRANCH  32  33
ENDBRANCH  31  32
ENDBRANCH  30  31
ENDBRANCH   1  30
TORSDOF 16
