REMARK SMILES [NH3+][C@](CCC[P@TB4](=O)([O-])[O-])(Cc1ccccc1)C(=O)NCCCCCCNC(=O)c1ccc(-c2c3nc(c(-c4c(F)cccc4F)c4ccc([nH]4)c(-c4c(F)cccc4F)c4nc(c(-c5c(F)cccc5F)c5ccc2[nH]5)C=C4)C=C3)cc1
REMARK SMILES IDX 21 1 20 2 19 3 17 4 18 5 2 7 1 8 10 12 11 13 12 14 16 15
REMARK SMILES IDX 13 16 15 17 14 18 3 19 4 20 5 21 6 22 7 23 8 24 9 25 22 26
REMARK SMILES IDX 23 27 24 28 25 29 26 30 27 31 28 33 29 34 30 35 82 36 31 37
REMARK SMILES IDX 81 38 32 39 33 40 34 41 75 42 35 43 80 44 74 45 76 46 36 47
REMARK SMILES IDX 79 48 73 49 72 50 37 52 63 53 46 54 62 55 47 56 50 57 61 58
REMARK SMILES IDX 77 59 48 60 49 61 60 63 78 64 51 65 38 66 39 67 44 68 40 69
REMARK SMILES IDX 41 70 43 71 45 72 42 73 64 74 65 75 70 76 66 77 67 78 69 79
REMARK SMILES IDX 71 80 68 81 52 82 53 83 58 84 54 85 55 86 57 87 59 88 56 89
REMARK H PARENT 19 6 1 9 1 10 1 11 26 32 76 51 50 62
REMARK Flexibility Score: inf
ROOT
ATOM      1  C   UNL     1      -1.504   4.997  -1.552  1.00  0.00       nan C 
ENDROOT
BRANCH   1   2
ATOM      2  C   UNL     1      -0.430   4.209  -2.308  1.00  0.00       nan C 
BRANCH   2   3
ATOM      3  N   UNL     1       0.553   3.700  -1.385  1.00  0.00       nan N 
ATOM      4  C   UNL     1       0.209   2.695  -0.525  1.00  0.00       nan C 
ATOM      5  O   UNL     1       0.190   3.001   0.667  1.00  0.00       nan OA
ATOM      6  H   UNL     1       1.465   4.073  -1.375  1.00  0.00       nan HD
BRANCH   4   7
ATOM      7  C   UNL     1      -0.075   1.261  -1.088  1.00  0.00       nan C 
BRANCH   7   8
ATOM      8  N   UNL     1       0.165   1.257  -2.567  1.00  0.00       nan N 
ATOM      9  H   UNL     1      -0.438   1.950  -3.011  1.00  0.00       nan HD
ATOM     10  H   UNL     1      -0.045   0.333  -2.943  1.00  0.00       nan HD
ATOM     11  H   UNL     1       1.141   1.486  -2.754  1.00  0.00       nan HD
ENDBRANCH   7   8
BRANCH   7  12
ATOM     12  C   UNL     1      -1.579   0.918  -0.824  1.00  0.00       nan C 
BRANCH  12  13
ATOM     13  C   UNL     1      -2.014   0.838   0.633  1.00  0.00       nan A 
ATOM     14  C   UNL     1      -2.376   1.994   1.343  1.00  0.00       nan A 
ATOM     15  C   UNL     1      -1.982  -0.379   1.327  1.00  0.00       nan A 
ATOM     16  C   UNL     1      -2.589   1.957   2.723  1.00  0.00       nan A 
ATOM     17  C   UNL     1      -2.218  -0.421   2.705  1.00  0.00       nan A 
ATOM     18  C   UNL     1      -2.498   0.750   3.406  1.00  0.00       nan A 
ENDBRANCH  12  13
ENDBRANCH   7  12
BRANCH   7  19
ATOM     19  C   UNL     1       0.889   0.177  -0.521  1.00  0.00       nan C 
BRANCH  19  20
ATOM     20  C   UNL     1       2.392   0.505  -0.427  1.00  0.00       nan C 
BRANCH  20  21
ATOM     21  C   UNL     1       2.824   1.667   0.475  1.00  0.00       nan C 
BRANCH  21  22
ATOM     22  P   UNL     1       2.462   1.480   2.259  1.00  0.00       nan P 
ATOM     23  O   UNL     1       2.646   2.986   2.439  1.00  0.00       nan OA
ATOM     24  O   UNL     1       0.888   1.203   2.060  1.00  0.00       nan OA
ATOM     25  O   UNL     1       2.120   1.304   3.946  1.00  0.00       nan OA
ENDBRANCH  21  22
ENDBRANCH  20  21
ENDBRANCH  19  20
ENDBRANCH   7  19
ENDBRANCH   4   7
ENDBRANCH   2   3
ENDBRANCH   1   2
BRANCH   1  26
ATOM     26  C   UNL     1      -0.970   6.203  -0.767  1.00  0.00       nan C 
BRANCH  26  27
ATOM     27  C   UNL     1      -0.147   7.189  -1.600  1.00  0.00       nan C 
BRANCH  27  28
ATOM     28  C   UNL     1      -0.799   7.590  -2.922  1.00  0.00       nan C 
BRANCH  28  29
ATOM     29  C   UNL     1      -2.210   8.135  -2.773  1.00  0.00       inf C 
BRANCH  29  30
ATOM     30  N   UNL     1      -2.218   9.426  -2.111  1.00  0.00    -0.352 N 
ATOM     31  C   UNL     1      -2.769  10.597  -2.561  1.00  0.00     0.251 C 
ATOM     32  H   UNL     1      -1.774   9.465  -1.234  1.00  0.00     0.163 HD
ATOM     33  O   UNL     1      -2.511  11.665  -2.013  1.00  0.00    -0.269 OA
BRANCH  31  34
ATOM     34  C   UNL     1      -3.661  10.559  -3.737  1.00  0.00     0.039 A 
ATOM     35  C   UNL     1      -3.453  11.471  -4.772  1.00  0.00     0.014 A 
ATOM     36  C   UNL     1      -4.674   9.598  -3.827  1.00  0.00     0.014 A 
ATOM     37  C   UNL     1      -4.239  11.392  -5.922  1.00  0.00     0.010 A 
ATOM     38  C   UNL     1      -5.397   9.468  -5.007  1.00  0.00     0.010 A 
ATOM     39  C   UNL     1      -5.196  10.372  -6.061  1.00  0.00    -0.014 A 
BRANCH  39  40
ATOM     40  C   UNL     1      -6.006  10.248  -7.298  1.00  0.00     0.031 A 
ATOM     41  C   UNL     1      -7.499  10.419  -7.240  1.00  0.00     0.074 A 
ATOM     42  C   UNL     1      -5.404   9.933  -8.461  1.00  0.00     0.049 A 
ATOM     43  N   UNL     1      -8.382  10.305  -8.199  1.00  0.00    -0.248 NA
ATOM     44  C   UNL     1      -8.079  10.736  -5.925  1.00  0.00     0.031 C 
ATOM     45  C   UNL     1      -3.970   9.698  -8.636  1.00  0.00     0.029 A 
ATOM     46  N   UNL     1      -5.926   9.750  -9.716  1.00  0.00    -0.354 N 
ATOM     47  C   UNL     1      -9.617  10.524  -7.603  1.00  0.00     0.074 A 
ATOM     48  C   UNL     1      -9.377  10.717  -6.189  1.00  0.00     0.031 C 
ATOM     49  C   UNL     1      -3.723   9.432  -9.928  1.00  0.00     0.029 A 
ATOM     50  C   UNL     1      -4.984   9.434 -10.664  1.00  0.00     0.049 A 
ATOM     51  H   UNL     1      -6.886   9.838  -9.919  1.00  0.00     0.167 HD
ATOM     52  C   UNL     1     -10.838  10.586  -8.184  1.00  0.00     0.037 A 
ATOM     53  C   UNL     1      -5.122   9.167 -11.976  1.00  0.00     0.037 A 
ATOM     54  C   UNL     1     -11.070  10.409  -9.593  1.00  0.00     0.049 A 
ATOM     55  C   UNL     1      -6.492   9.218 -12.594  1.00  0.00     0.074 A 
ATOM     56  C   UNL     1     -12.262  10.505 -10.289  1.00  0.00     0.029 A 
ATOM     57  N   UNL     1     -10.089  10.092 -10.521  1.00  0.00    -0.354 N 
ATOM     58  N   UNL     1      -7.644   9.496 -12.032  1.00  0.00    -0.248 NA
ATOM     59  C   UNL     1      -6.582   8.923 -14.031  1.00  0.00     0.031 C 
ATOM     60  C   UNL     1     -12.012  10.190 -11.628  1.00  0.00     0.029 A 
ATOM     61  C   UNL     1     -10.654   9.960 -11.779  1.00  0.00     0.049 A 
ATOM     62  H   UNL     1      -9.133   9.977 -10.316  1.00  0.00     0.167 HD
ATOM     63  C   UNL     1      -8.588   9.441 -13.049  1.00  0.00     0.074 A 
ATOM     64  C   UNL     1      -7.872   9.117 -14.265  1.00  0.00     0.031 C 
ATOM     65  C   UNL     1      -9.927   9.642 -12.982  1.00  0.00     0.037 A 
BRANCH  52  66
ATOM     66  C   UNL     1     -12.017  10.855  -7.292  1.00  0.00     0.057 A 
ATOM     67  C   UNL     1     -12.206  12.095  -6.666  1.00  0.00     0.134 A 
ATOM     68  C   UNL     1     -12.991   9.872  -7.078  1.00  0.00     0.134 A 
ATOM     69  F   UNL     1     -11.305  13.078  -6.818  1.00  0.00    -0.206 F 
ATOM     70  C   UNL     1     -13.302  12.337  -5.836  1.00  0.00     0.040 A 
ATOM     71  C   UNL     1     -14.108  10.112  -6.276  1.00  0.00     0.040 A 
ATOM     72  F   UNL     1     -12.878   8.664  -7.650  1.00  0.00    -0.206 F 
ATOM     73  C   UNL     1     -14.261  11.345  -5.645  1.00  0.00     0.006 A 
ENDBRANCH  52  66
BRANCH  53  74
ATOM     74  C   UNL     1      -3.928   8.846 -12.800  1.00  0.00     0.057 A 
ATOM     75  C   UNL     1      -3.473   9.728 -13.788  1.00  0.00     0.134 A 
ATOM     76  C   UNL     1      -3.220   7.651 -12.629  1.00  0.00     0.134 A 
ATOM     77  F   UNL     1      -4.119  10.882 -14.013  1.00  0.00    -0.206 F 
ATOM     78  C   UNL     1      -2.372   9.424 -14.591  1.00  0.00     0.040 A 
ATOM     79  C   UNL     1      -2.100   7.346 -13.405  1.00  0.00     0.040 A 
ATOM     80  F   UNL     1      -3.599   6.767 -11.694  1.00  0.00    -0.206 F 
ATOM     81  C   UNL     1      -1.679   8.230 -14.396  1.00  0.00     0.006 A 
ENDBRANCH  53  74
BRANCH  65  82
ATOM     82  C   UNL     1     -10.701   9.557 -14.267  1.00  0.00     0.057 A 
ATOM     83  C   UNL     1     -10.916   8.340 -14.925  1.00  0.00     0.134 A 
ATOM     84  C   UNL     1     -11.272  10.706 -14.829  1.00  0.00     0.134 A 
ATOM     85  F   UNL     1     -10.386   7.204 -14.447  1.00  0.00    -0.206 F 
ATOM     86  C   UNL     1     -11.650   8.272 -16.111  1.00  0.00     0.040 A 
ATOM     87  C   UNL     1     -12.034  10.646 -15.997  1.00  0.00     0.040 A 
ATOM     88  F   UNL     1     -11.113  11.903 -14.245  1.00  0.00    -0.206 F 
ATOM     89  C   UNL     1     -12.219   9.427 -16.645  1.00  0.00     0.006 A 
ENDBRANCH  65  82
ENDBRANCH  39  40
ENDBRANCH  31  34
ENDBRANCH  29  30
ENDBRANCH  28  29
ENDBRANCH  27  28
ENDBRANCH  26  27
ENDBRANCH   1  26
TORSDOF 20
