REMARK SMILES COC(=O)N/N=C/c1ccc(-c2cccc(C(=O)NCCCCCCNC(=O)c3ccc(-c4c5nc(c(-c6c(F)cccc6F)c6ccc([nH]6)c(-c6c(F)cccc6F)c6nc(c(-c7c(F)cccc7F)c7ccc4[nH]7)C=C6)C=C5)cc3)c2)o1
REMARK SMILES IDX 21 1 20 2 19 3 17 4 18 5 16 7 12 8 13 9 83 10 14 11 15 12
REMARK SMILES IDX 11 13 8 14 9 15 84 16 10 17 7 18 6 19 5 20 3 21 4 22 2 24
REMARK SMILES IDX 1 25 22 26 23 27 24 28 25 29 26 30 27 31 28 33 29 34 30 35
REMARK SMILES IDX 82 36 31 37 81 38 32 39 33 40 34 41 75 42 35 43 80 44 74 45
REMARK SMILES IDX 76 46 36 47 79 48 73 49 72 50 37 52 63 53 46 54 62 55 47 56
REMARK SMILES IDX 50 57 61 58 77 59 48 60 49 61 60 63 78 64 51 65 38 66 39 67
REMARK SMILES IDX 44 68 40 69 41 70 43 71 45 72 42 73 64 74 65 75 70 76 66 77
REMARK SMILES IDX 67 78 69 79 71 80 68 81 52 82 53 83 58 84 54 85 55 86 57 87
REMARK SMILES IDX 59 88 56 89
REMARK H PARENT 19 6 5 23 26 32 76 51 50 62
REMARK Flexibility Score: inf
ROOT
ATOM      1  C   UNL     1      -1.302  -2.387   8.284  1.00  0.00     0.021 C 
ENDROOT
BRANCH   1   2
ATOM      2  C   UNL     1      -2.488  -3.210   7.800  1.00  0.00     0.116 C 
BRANCH   2   3
ATOM      3  N   UNL     1      -3.749  -2.911   8.460  1.00  0.00    -0.352 N 
ATOM      4  C   UNL     1      -5.028  -2.773   7.958  1.00  0.00     0.251 C 
ATOM      5  O   UNL     1      -5.939  -2.493   8.735  1.00  0.00    -0.269 OA
ATOM      6  H   UNL     1      -3.679  -2.787   9.434  1.00  0.00     0.163 HD
BRANCH   4   7
ATOM      7  C   UNL     1      -5.322  -2.878   6.501  1.00  0.00     0.040 A 
ATOM      8  C   UNL     1      -4.628  -3.514   4.264  1.00  0.00     0.018 A 
ATOM      9  C   UNL     1      -5.617  -2.686   3.726  1.00  0.00     0.012 A 
ATOM     10  C   UNL     1      -4.582  -3.697   5.650  1.00  0.00     0.025 A 
ATOM     11  C   UNL     1      -6.502  -2.008   4.571  1.00  0.00     0.002 A 
ATOM     12  C   UNL     1      -6.329  -2.074   5.956  1.00  0.00     0.014 A 
BRANCH   8  13
ATOM     13  C   UNL     1      -3.550  -4.073   3.459  1.00  0.00     0.134 A 
ATOM     14  C   UNL     1      -1.955  -3.880   1.949  1.00  0.00     0.147 A 
ATOM     15  C   UNL     1      -1.737  -5.074   2.607  1.00  0.00     0.053 A 
ATOM     16  O   UNL     1      -3.065  -3.269   2.464  1.00  0.00    -0.455 OA
ATOM     17  C   UNL     1      -2.760  -5.199   3.574  1.00  0.00     0.051 A 
BRANCH  14  18
ATOM     18  C   UNL     1      -1.245  -3.243   0.872  1.00  0.00     0.180 C 
ATOM     19  N   UNL     1      -0.330  -3.910   0.243  1.00  0.00    -0.175 NA
BRANCH  19  20
ATOM     20  N   UNL     1       0.341  -3.332  -0.798  1.00  0.00    -0.212 N 
ATOM     21  C   UNL     1       0.784  -2.038  -0.968  1.00  0.00     0.427 C 
ATOM     22  O   UNL     1       1.393  -1.708  -1.978  1.00  0.00    -0.223 OA
ATOM     23  H   UNL     1       0.541  -3.938  -1.548  1.00  0.00     0.197 HD
BRANCH  21  24
ATOM     24  O   UNL     1       0.522  -1.204   0.076  1.00  0.00    -0.452 OA
ATOM     25  C   UNL     1       1.047   0.112  -0.107  1.00  0.00     0.284 C 
ENDBRANCH  21  24
ENDBRANCH  19  20
ENDBRANCH  14  18
ENDBRANCH   8  13
ENDBRANCH   4   7
ENDBRANCH   2   3
ENDBRANCH   1   2
BRANCH   1  26
ATOM     26  C   UNL     1      -0.858  -2.620   9.726  1.00  0.00     0.002 C 
BRANCH  26  27
ATOM     27  C   UNL     1      -0.558  -4.070  10.115  1.00  0.00     0.002 C 
BRANCH  27  28
ATOM     28  C   UNL     1       0.409  -4.827   9.203  1.00  0.00     0.021 C 
BRANCH  28  29
ATOM     29  C   UNL     1       1.761  -4.158   8.981  1.00  0.00     0.116 C 
BRANCH  29  30
ATOM     30  N   UNL     1       2.519  -4.003  10.211  1.00  0.00    -0.352 N 
ATOM     31  C   UNL     1       3.805  -4.395  10.494  1.00  0.00     0.251 C 
ATOM     32  H   UNL     1       2.044  -3.553  10.946  1.00  0.00     0.163 HD
ATOM     33  O   UNL     1       4.235  -4.334  11.641  1.00  0.00    -0.269 OA
BRANCH  31  34
ATOM     34  C   UNL     1       4.665  -4.918   9.411  1.00  0.00     0.039 A 
ATOM     35  C   UNL     1       5.394  -6.090   9.630  1.00  0.00     0.014 A 
ATOM     36  C   UNL     1       4.739  -4.262   8.180  1.00  0.00     0.014 A 
ATOM     37  C   UNL     1       6.144  -6.641   8.588  1.00  0.00     0.010 A 
ATOM     38  C   UNL     1       5.421  -4.854   7.122  1.00  0.00     0.010 A 
ATOM     39  C   UNL     1       6.131  -6.050   7.314  1.00  0.00    -0.014 A 
BRANCH  39  40
ATOM     40  C   UNL     1       6.845  -6.665   6.166  1.00  0.00     0.031 A 
ATOM     41  C   UNL     1       7.962  -5.924   5.487  1.00  0.00     0.074 A 
ATOM     42  C   UNL     1       6.433  -7.854   5.684  1.00  0.00     0.049 A 
ATOM     43  N   UNL     1       8.639  -6.248   4.414  1.00  0.00    -0.248 NA
ATOM     44  C   UNL     1       8.349  -4.631   6.073  1.00  0.00     0.031 C 
ATOM     45  C   UNL     1       5.332  -8.653   6.227  1.00  0.00     0.029 A 
ATOM     46  N   UNL     1       6.882  -8.591   4.617  1.00  0.00    -0.354 N 
ATOM     47  C   UNL     1       9.516  -5.195   4.189  1.00  0.00     0.074 A 
ATOM     48  C   UNL     1       9.247  -4.197   5.202  1.00  0.00     0.031 C 
ATOM     49  C   UNL     1       5.204  -9.775   5.501  1.00  0.00     0.029 A 
ATOM     50  C   UNL     1       6.179  -9.755   4.416  1.00  0.00     0.049 A 
ATOM     51  H   UNL     1       7.637  -8.313   4.049  1.00  0.00     0.167 HD
ATOM     52  C   UNL     1      10.472  -5.078   3.236  1.00  0.00     0.037 A 
ATOM     53  C   UNL     1       6.296 -10.692   3.456  1.00  0.00     0.037 A 
ATOM     54  C   UNL     1      10.745  -6.081   2.240  1.00  0.00     0.049 A 
ATOM     55  C   UNL     1       7.353 -10.533   2.398  1.00  0.00     0.074 A 
ATOM     56  C   UNL     1      11.732  -6.085   1.270  1.00  0.00     0.029 A 
ATOM     57  N   UNL     1      10.022  -7.254   2.080  1.00  0.00    -0.354 N 
ATOM     58  N   UNL     1       8.223  -9.565   2.238  1.00  0.00    -0.248 NA
ATOM     59  C   UNL     1       7.450 -11.599   1.392  1.00  0.00     0.031 C 
ATOM     60  C   UNL     1      11.569  -7.231   0.485  1.00  0.00     0.029 A 
ATOM     61  C   UNL     1      10.523  -7.975   1.008  1.00  0.00     0.049 A 
ATOM     62  H   UNL     1       9.266  -7.533   2.644  1.00  0.00     0.167 HD
ATOM     63  C   UNL     1       8.990  -9.920   1.136  1.00  0.00     0.074 A 
ATOM     64  C   UNL     1       8.489 -11.198   0.674  1.00  0.00     0.031 C 
ATOM     65  C   UNL     1      10.020  -9.250   0.562  1.00  0.00     0.037 A 
BRANCH  52  66
ATOM     66  C   UNL     1      11.286  -3.814   3.222  1.00  0.00     0.057 A 
ATOM     67  C   UNL     1      12.196  -3.504   4.242  1.00  0.00     0.134 A 
ATOM     68  C   UNL     1      11.176  -2.907   2.160  1.00  0.00     0.134 A 
ATOM     69  F   UNL     1      12.344  -4.323   5.294  1.00  0.00    -0.206 F 
ATOM     70  C   UNL     1      12.941  -2.323   4.223  1.00  0.00     0.040 A 
ATOM     71  C   UNL     1      11.940  -1.740   2.114  1.00  0.00     0.040 A 
ATOM     72  F   UNL     1      10.331  -3.143   1.145  1.00  0.00    -0.206 F 
ATOM     73  C   UNL     1      12.819  -1.440   3.153  1.00  0.00     0.006 A 
ENDBRANCH  52  66
BRANCH  53  74
ATOM     74  C   UNL     1       5.394 -11.873   3.460  1.00  0.00     0.057 A 
ATOM     75  C   UNL     1       5.882 -13.154   3.746  1.00  0.00     0.134 A 
ATOM     76  C   UNL     1       4.028 -11.752   3.180  1.00  0.00     0.134 A 
ATOM     77  F   UNL     1       7.185 -13.338   4.005  1.00  0.00    -0.206 F 
ATOM     78  C   UNL     1       5.048 -14.274   3.734  1.00  0.00     0.040 A 
ATOM     79  C   UNL     1       3.177 -12.859   3.193  1.00  0.00     0.040 A 
ATOM     80  F   UNL     1       3.495 -10.552   2.908  1.00  0.00    -0.206 F 
ATOM     81  C   UNL     1       3.689 -14.126   3.463  1.00  0.00     0.006 A 
ENDBRANCH  53  74
BRANCH  65  82
ATOM     82  C   UNL     1      10.707  -9.905  -0.603  1.00  0.00     0.057 A 
ATOM     83  C   UNL     1      10.094 -10.030  -1.856  1.00  0.00     0.134 A 
ATOM     84  C   UNL     1      12.021 -10.375  -0.477  1.00  0.00     0.134 A 
ATOM     85  F   UNL     1       8.833  -9.612  -2.042  1.00  0.00    -0.206 F 
ATOM     86  C   UNL     1      10.755 -10.620  -2.935  1.00  0.00     0.040 A 
ATOM     87  C   UNL     1      12.703 -10.937  -1.556  1.00  0.00     0.040 A 
ATOM     88  F   UNL     1      12.671 -10.278   0.693  1.00  0.00    -0.206 F 
ATOM     89  C   UNL     1      12.067 -11.067  -2.789  1.00  0.00     0.006 A 
ENDBRANCH  65  82
ENDBRANCH  39  40
ENDBRANCH  31  34
ENDBRANCH  29  30
ENDBRANCH  28  29
ENDBRANCH  27  28
ENDBRANCH  26  27
ENDBRANCH   1  26
TORSDOF 17
