REMARK SMILES COc1cc(OC(F)(F)F)cc2c1O[C@@H](C(F)(F)F)C(C(=O)NCCCCCCNC(=O)c1ccc(-c3c4nc(c(-c5c(F)cccc5F)c5ccc([nH]5)c(-c5c(F)cccc5F)c5nc(c(-c6c(F)cccc6F)c6ccc3[nH]6)C=C5)C=C4)cc1)=C2
REMARK SMILES IDX 26 1 25 2 24 3 23 4 21 5 22 6 20 8 3 9 4 10 13 11 5 12 12 13
REMARK SMILES IDX 14 14 11 15 87 16 15 17 2 18 1 19 6 20 7 21 8 22 9 23 10 24
REMARK SMILES IDX 16 25 17 26 18 27 19 28 27 29 28 30 29 31 30 32 31 33 32 35
REMARK SMILES IDX 33 36 34 37 86 38 35 39 85 40 36 41 37 42 38 43 79 44 39 45
REMARK SMILES IDX 84 46 78 47 80 48 40 49 83 50 77 51 76 52 41 54 67 55 50 56
REMARK SMILES IDX 66 57 51 58 54 59 65 60 81 61 52 62 53 63 64 65 82 66 55 67
REMARK SMILES IDX 42 68 43 69 48 70 44 71 45 72 47 73 49 74 46 75 68 76 69 77
REMARK SMILES IDX 74 78 70 79 71 80 73 81 75 82 72 83 56 84 57 85 62 86 58 87
REMARK SMILES IDX 59 88 61 89 63 90 60 91
REMARK H PARENT 23 7 30 34 80 53 54 64
REMARK Flexibility Score: inf
ROOT
ATOM      1  C   UNL     1       7.107  -7.715   2.221  1.00  0.00     0.002 C 
ENDROOT
BRANCH   1   2
ATOM      2  C   UNL     1       5.779  -6.946   2.296  1.00  0.00     0.021 C 
BRANCH   2   3
ATOM      3  C   UNL     1       5.950  -5.497   2.769  1.00  0.00     0.116 C 
BRANCH   3   4
ATOM      4  N   UNL     1       6.461  -4.694   1.672  1.00  0.00    -0.352 N 
ATOM      5  C   UNL     1       5.851  -3.938   0.724  1.00  0.00     0.251 C 
ATOM      6  O   UNL     1       6.519  -3.573  -0.241  1.00  0.00    -0.270 OA
ATOM      7  H   UNL     1       7.443  -4.699   1.602  1.00  0.00     0.163 HD
BRANCH   5   8
ATOM      8  C   UNL     1       4.451  -3.461   0.854  1.00  0.00     0.067 C 
ATOM      9  C   UNL     1       0.679  -1.710   1.483  1.00  0.00     0.165 A 
ATOM     10  C   UNL     1      -0.337  -2.464   2.084  1.00  0.00     0.097 A 
ATOM     11  C   UNL     1       1.932  -2.286   1.233  1.00  0.00     0.170 A 
ATOM     12  C   UNL     1      -0.127  -3.805   2.400  1.00  0.00     0.134 A 
ATOM     13  C   UNL     1       2.141  -3.633   1.528  1.00  0.00     0.025 A 
ATOM     14  O   UNL     1       2.949  -1.480   0.814  1.00  0.00    -0.471 OA
ATOM     15  C   UNL     1       1.110  -4.386   2.105  1.00  0.00     0.059 A 
ATOM     16  C   UNL     1       3.462  -4.222   1.345  1.00  0.00     0.026 C 
ATOM     17  C   UNL     1       4.143  -2.094   0.256  1.00  0.00     0.314 C 
BRANCH   9  18
ATOM     18  O   UNL     1       0.355  -0.396   1.253  1.00  0.00    -0.493 OA
ATOM     19  C   UNL     1       0.761   0.097  -0.022  1.00  0.00     0.278 C 
ENDBRANCH   9  18
BRANCH  12  20
ATOM     20  O   UNL     1      -1.013  -4.647   3.008  1.00  0.00    -0.406 OA
BRANCH  20  21
ATOM     21  C   UNL     1      -2.302  -4.143   3.319  1.00  0.00     0.573 C 
ATOM     22  F   UNL     1      -2.227  -3.102   4.175  1.00  0.00    -0.132 F 
ATOM     23  F   UNL     1      -2.955  -3.766   2.200  1.00  0.00    -0.132 F 
ATOM     24  F   UNL     1      -3.016  -5.124   3.914  1.00  0.00    -0.132 F 
ENDBRANCH  20  21
ENDBRANCH  12  20
BRANCH  17  25
ATOM     25  C   UNL     1       5.261  -1.026   0.312  1.00  0.00     0.429 C 
ATOM     26  F   UNL     1       6.151  -1.144  -0.698  1.00  0.00    -0.167 F 
ATOM     27  F   UNL     1       4.737   0.224   0.183  1.00  0.00    -0.167 F 
ATOM     28  F   UNL     1       5.938  -1.046   1.483  1.00  0.00    -0.167 F 
ENDBRANCH  17  25
ENDBRANCH   5   8
ENDBRANCH   3   4
ENDBRANCH   2   3
ENDBRANCH   1   2
BRANCH   1  29
ATOM     29  C   UNL     1       7.802  -7.925   3.571  1.00  0.00     0.002 C 
BRANCH  29  30
ATOM     30  C   UNL     1       6.944  -8.612   4.636  1.00  0.00     0.021 C 
BRANCH  30  31
ATOM     31  C   UNL     1       6.483 -10.016   4.259  1.00  0.00     0.116 C 
BRANCH  31  32
ATOM     32  N   UNL     1       7.601 -10.939   4.161  1.00  0.00    -0.352 N 
ATOM     33  C   UNL     1       7.790 -12.140   4.797  1.00  0.00     0.251 C 
ATOM     34  H   UNL     1       8.325 -10.664   3.553  1.00  0.00     0.163 HD
ATOM     35  O   UNL     1       8.890 -12.682   4.780  1.00  0.00    -0.269 OA
BRANCH  33  36
ATOM     36  C   UNL     1       6.665 -12.778   5.512  1.00  0.00     0.039 A 
ATOM     37  C   UNL     1       6.894 -13.343   6.769  1.00  0.00     0.014 A 
ATOM     38  C   UNL     1       5.395 -12.846   4.931  1.00  0.00     0.014 A 
ATOM     39  C   UNL     1       5.840 -13.941   7.462  1.00  0.00     0.010 A 
ATOM     40  C   UNL     1       4.331 -13.382   5.650  1.00  0.00     0.010 A 
ATOM     41  C   UNL     1       4.546 -13.948   6.916  1.00  0.00    -0.014 A 
BRANCH  41  42
ATOM     42  C   UNL     1       3.410 -14.567   7.642  1.00  0.00     0.031 A 
ATOM     43  C   UNL     1       2.727 -15.781   7.075  1.00  0.00     0.074 A 
ATOM     44  C   UNL     1       2.957 -14.005   8.780  1.00  0.00     0.049 A 
ATOM     45  N   UNL     1       1.683 -16.430   7.524  1.00  0.00    -0.248 NA
ATOM     46  C   UNL     1       3.274 -16.324   5.820  1.00  0.00     0.031 C 
ATOM     47  C   UNL     1       3.508 -12.803   9.409  1.00  0.00     0.029 A 
ATOM     48  N   UNL     1       1.924 -14.368   9.606  1.00  0.00    -0.354 N 
ATOM     49  C   UNL     1       1.436 -17.437   6.600  1.00  0.00     0.074 A 
ATOM     50  C   UNL     1       2.410 -17.288   5.541  1.00  0.00     0.031 C 
ATOM     51  C   UNL     1       2.824 -12.544  10.535  1.00  0.00     0.029 A 
ATOM     52  C   UNL     1       1.766 -13.538  10.689  1.00  0.00     0.049 A 
ATOM     53  H   UNL     1       1.349 -15.150   9.438  1.00  0.00     0.167 HD
ATOM     54  C   UNL     1       0.497 -18.411   6.641  1.00  0.00     0.037 A 
ATOM     55  C   UNL     1       0.868 -13.575  11.691  1.00  0.00     0.037 A 
ATOM     56  C   UNL     1      -0.444 -18.582   7.716  1.00  0.00     0.049 A 
ATOM     57  C   UNL     1      -0.160 -14.673  11.715  1.00  0.00     0.074 A 
ATOM     58  C   UNL     1      -1.388 -19.580   7.886  1.00  0.00     0.029 A 
ATOM     59  N   UNL     1      -0.558 -17.733   8.807  1.00  0.00    -0.354 N 
ATOM     60  N   UNL     1      -0.336 -15.661  10.871  1.00  0.00    -0.248 NA
ATOM     61  C   UNL     1      -1.109 -14.666  12.837  1.00  0.00     0.031 C 
ATOM     62  C   UNL     1      -2.101 -19.312   9.059  1.00  0.00     0.029 A 
ATOM     63  C   UNL     1      -1.569 -18.174   9.644  1.00  0.00     0.049 A 
ATOM     64  H   UNL     1      -0.002 -16.935   8.963  1.00  0.00     0.167 HD
ATOM     65  C   UNL     1      -1.388 -16.412  11.379  1.00  0.00     0.074 A 
ATOM     66  C   UNL     1      -1.805 -15.770  12.608  1.00  0.00     0.031 C 
ATOM     67  C   UNL     1      -1.957 -17.534  10.874  1.00  0.00     0.037 A 
BRANCH  54  68
ATOM     68  C   UNL     1       0.441 -19.373   5.490  1.00  0.00     0.057 A 
ATOM     69  C   UNL     1       1.433 -20.341   5.285  1.00  0.00     0.134 A 
ATOM     70  C   UNL     1      -0.641 -19.360   4.600  1.00  0.00     0.134 A 
ATOM     71  F   UNL     1       2.502 -20.400   6.093  1.00  0.00    -0.206 F 
ATOM     72  C   UNL     1       1.364 -21.244   4.223  1.00  0.00     0.040 A 
ATOM     73  C   UNL     1      -0.735 -20.275   3.551  1.00  0.00     0.040 A 
ATOM     74  F   UNL     1      -1.629 -18.463   4.742  1.00  0.00    -0.206 F 
ATOM     75  C   UNL     1       0.272 -21.218   3.357  1.00  0.00     0.006 A 
ENDBRANCH  54  68
BRANCH  55  76
ATOM     76  C   UNL     1       0.913 -12.563  12.775  1.00  0.00     0.057 A 
ATOM     77  C   UNL     1       1.295 -12.918  14.075  1.00  0.00     0.134 A 
ATOM     78  C   UNL     1       0.556 -11.228  12.551  1.00  0.00     0.134 A 
ATOM     79  F   UNL     1       1.631 -14.186  14.355  1.00  0.00    -0.206 F 
ATOM     80  C   UNL     1       1.295 -11.991  15.117  1.00  0.00     0.040 A 
ATOM     81  C   UNL     1       0.576 -10.284  13.579  1.00  0.00     0.040 A 
ATOM     82  F   UNL     1       0.189 -10.822  11.327  1.00  0.00    -0.206 F 
ATOM     83  C   UNL     1       0.937 -10.668  14.869  1.00  0.00     0.006 A 
ENDBRANCH  55  76
BRANCH  67  84
ATOM     84  C   UNL     1      -3.054 -18.168  11.678  1.00  0.00     0.057 A 
ATOM     85  C   UNL     1      -4.329 -17.598  11.773  1.00  0.00     0.134 A 
ATOM     86  C   UNL     1      -2.837 -19.385  12.336  1.00  0.00     0.134 A 
ATOM     87  F   UNL     1      -4.596 -16.426  11.176  1.00  0.00    -0.206 F 
ATOM     88  C   UNL     1      -5.343 -18.203  12.516  1.00  0.00     0.040 A 
ATOM     89  C   UNL     1      -3.851 -20.014  13.059  1.00  0.00     0.040 A 
ATOM     90  F   UNL     1      -1.641 -19.989  12.276  1.00  0.00    -0.206 F 
ATOM     91  C   UNL     1      -5.107 -19.419  13.156  1.00  0.00     0.006 A 
ENDBRANCH  67  84
ENDBRANCH  41  42
ENDBRANCH  33  36
ENDBRANCH  31  32
ENDBRANCH  30  31
ENDBRANCH  29  30
ENDBRANCH   1  29
TORSDOF 17
