REMARK SMILES COCCCOc1cccc(F)c1C(=O)NCCCCCCNC(=O)c1ccc(-c2c3nc(c(-c4c(F)cccc4F)c4ccc([nH]4)c(-c4c(F)cccc4F)c4nc(c(-c5c(F)cccc5F)c5ccc2[nH]5)C=C4)C=C3)cc1
REMARK SMILES IDX 18 1 17 2 16 3 14 4 15 5 13 7 7 8 8 9 9 10 11 11 10 12 12 13
REMARK SMILES IDX 6 14 5 15 4 16 3 17 2 18 1 19 19 20 20 21 21 22 22 23 23 24
REMARK SMILES IDX 24 25 25 27 26 28 27 29 79 30 28 31 78 32 29 33 30 34 31 35
REMARK SMILES IDX 72 36 32 37 77 38 71 39 73 40 33 41 76 42 70 43 69 44 34 46
REMARK SMILES IDX 60 47 43 48 59 49 44 50 47 51 58 52 74 53 45 54 46 55 57 57
REMARK SMILES IDX 75 58 48 59 35 60 36 61 41 62 37 63 38 64 40 65 42 66 39 67
REMARK SMILES IDX 61 68 62 69 67 70 63 71 64 72 66 73 68 74 65 75 49 76 50 77
REMARK SMILES IDX 55 78 51 79 52 80 54 81 56 82 53 83
REMARK H PARENT 16 6 23 26 73 45 47 56
REMARK Flexibility Score: inf
ROOT
ATOM      1  C   UNL     1       8.230   1.543  -1.004  1.00  0.00     0.021 C 
ENDROOT
BRANCH   1   2
ATOM      2  C   UNL     1       6.891   1.361  -0.296  1.00  0.00     0.116 C 
BRANCH   2   3
ATOM      3  N   UNL     1       5.740   1.813  -1.059  1.00  0.00    -0.352 N 
ATOM      4  C   UNL     1       4.494   1.238  -1.212  1.00  0.00     0.258 C 
ATOM      5  O   UNL     1       3.636   1.868  -1.829  1.00  0.00    -0.269 OA
ATOM      6  H   UNL     1       5.869   2.660  -1.542  1.00  0.00     0.163 HD
BRANCH   4   7
ATOM      7  C   UNL     1       4.199  -0.118  -0.681  1.00  0.00     0.117 A 
ATOM      8  C   UNL     1       3.603  -1.112  -1.471  1.00  0.00     0.135 A 
ATOM      9  C   UNL     1       3.600  -2.447  -1.043  1.00  0.00     0.047 A 
ATOM     10  C   UNL     1       4.030  -2.776   0.239  1.00  0.00     0.007 A 
ATOM     11  C   UNL     1       4.532  -0.450   0.633  1.00  0.00     0.139 A 
ATOM     12  C   UNL     1       4.455  -1.765   1.095  1.00  0.00     0.040 A 
ATOM     13  F   UNL     1       4.944   0.490   1.498  1.00  0.00    -0.206 F 
BRANCH   8  14
ATOM     14  O   UNL     1       3.010  -0.889  -2.684  1.00  0.00    -0.493 OA
BRANCH  14  15
ATOM     15  C   UNL     1       1.698  -0.298  -2.553  1.00  0.00     0.232 C 
BRANCH  15  16
ATOM     16  C   UNL     1       0.582  -1.318  -2.295  1.00  0.00     0.070 C 
BRANCH  16  17
ATOM     17  C   UNL     1       0.293  -1.649  -0.826  1.00  0.00     0.163 C 
BRANCH  17  18
ATOM     18  O   UNL     1      -0.436  -0.631  -0.144  1.00  0.00    -0.385 OA
ATOM     19  C   UNL     1       0.369   0.361   0.477  1.00  0.00     0.194 C 
ENDBRANCH  17  18
ENDBRANCH  16  17
ENDBRANCH  15  16
ENDBRANCH  14  15
ENDBRANCH   8  14
ENDBRANCH   4   7
ENDBRANCH   2   3
ENDBRANCH   1   2
BRANCH   1  20
ATOM     20  C   UNL     1       8.677   2.980  -1.278  1.00  0.00     0.002 C 
BRANCH  20  21
ATOM     21  C   UNL     1       8.711   3.935  -0.083  1.00  0.00     0.002 C 
BRANCH  21  22
ATOM     22  C   UNL     1       9.476   3.466   1.159  1.00  0.00     0.021 C 
BRANCH  22  23
ATOM     23  C   UNL     1      10.923   3.028   0.946  1.00  0.00     0.116 C 
BRANCH  23  24
ATOM     24  N   UNL     1      11.765   4.076   0.399  1.00  0.00    -0.352 N 
ATOM     25  C   UNL     1      13.001   4.521   0.793  1.00  0.00     0.251 C 
ATOM     26  H   UNL     1      11.388   4.543  -0.382  1.00  0.00     0.163 HD
ATOM     27  O   UNL     1      13.486   5.511   0.243  1.00  0.00    -0.269 OA
BRANCH  25  28
ATOM     28  C   UNL     1      13.756   3.858   1.884  1.00  0.00     0.039 A 
ATOM     29  C   UNL     1      14.462   4.666   2.783  1.00  0.00     0.014 A 
ATOM     30  C   UNL     1      13.825   2.467   2.008  1.00  0.00     0.014 A 
ATOM     31  C   UNL     1      15.188   4.087   3.827  1.00  0.00     0.010 A 
ATOM     32  C   UNL     1      14.499   1.891   3.090  1.00  0.00     0.010 A 
ATOM     33  C   UNL     1      15.190   2.694   4.009  1.00  0.00    -0.014 A 
BRANCH  33  34
ATOM     34  C   UNL     1      15.905   2.085   5.162  1.00  0.00     0.031 A 
ATOM     35  C   UNL     1      17.109   1.209   4.948  1.00  0.00     0.074 A 
ATOM     36  C   UNL     1      15.461   2.318   6.414  1.00  0.00     0.049 A 
ATOM     37  N   UNL     1      17.862   0.610   5.838  1.00  0.00    -0.248 NA
ATOM     38  C   UNL     1      17.514   0.959   3.556  1.00  0.00     0.031 C 
ATOM     39  C   UNL     1      14.286   3.121   6.757  1.00  0.00     0.029 A 
ATOM     40  N   UNL     1      15.952   1.914   7.631  1.00  0.00    -0.354 N 
ATOM     41  C   UNL     1      18.826  -0.082   5.116  1.00  0.00     0.074 A 
ATOM     42  C   UNL     1      18.534   0.126   3.715  1.00  0.00     0.031 C 
ATOM     43  C   UNL     1      14.172   3.186   8.093  1.00  0.00     0.029 A 
ATOM     44  C   UNL     1      15.244   2.405   8.702  1.00  0.00     0.049 A 
ATOM     45  H   UNL     1      16.737   1.327   7.728  1.00  0.00     0.167 HD
ATOM     46  C   UNL     1      19.877  -0.801   5.579  1.00  0.00     0.037 A 
ATOM     47  C   UNL     1      15.440   2.253  10.026  1.00  0.00     0.037 A 
ATOM     48  C   UNL     1      20.183  -0.991   6.973  1.00  0.00     0.049 A 
ATOM     49  C   UNL     1      16.606   1.438  10.511  1.00  0.00     0.074 A 
ATOM     50  C   UNL     1      21.247  -1.677   7.534  1.00  0.00     0.029 A 
ATOM     51  N   UNL     1      19.432  -0.490   8.025  1.00  0.00    -0.354 N 
ATOM     52  N   UNL     1      17.532   0.826   9.815  1.00  0.00    -0.248 NA
ATOM     53  C   UNL     1      16.756   1.295  11.967  1.00  0.00     0.031 C 
ATOM     54  C   UNL     1      21.120  -1.622   8.925  1.00  0.00     0.029 A 
ATOM     55  C   UNL     1      20.002  -0.864   9.231  1.00  0.00     0.049 A 
ATOM     56  H   UNL     1      18.616   0.051   7.929  1.00  0.00     0.167 HD
ATOM     57  C   UNL     1      18.386   0.247  10.744  1.00  0.00     0.074 A 
ATOM     58  C   UNL     1      17.878   0.595  12.055  1.00  0.00     0.031 C 
ATOM     59  C   UNL     1      19.491  -0.508  10.529  1.00  0.00     0.037 A 
BRANCH  46  60
ATOM     60  C   UNL     1      20.798  -1.423   4.571  1.00  0.00     0.057 A 
ATOM     61  C   UNL     1      20.849  -2.812   4.403  1.00  0.00     0.134 A 
ATOM     62  C   UNL     1      21.697  -0.648   3.828  1.00  0.00     0.134 A 
ATOM     63  F   UNL     1      20.021  -3.613   5.090  1.00  0.00    -0.206 F 
ATOM     64  C   UNL     1      21.772  -3.409   3.542  1.00  0.00     0.040 A 
ATOM     65  C   UNL     1      22.609  -1.232   2.947  1.00  0.00     0.040 A 
ATOM     66  F   UNL     1      21.693   0.689   3.936  1.00  0.00    -0.206 F 
ATOM     67  C   UNL     1      22.655  -2.618   2.811  1.00  0.00     0.006 A 
ENDBRANCH  46  60
BRANCH  47  68
ATOM     68  C   UNL     1      14.534   2.924  10.991  1.00  0.00     0.057 A 
ATOM     69  C   UNL     1      13.208   2.510  11.164  1.00  0.00     0.134 A 
ATOM     70  C   UNL     1      14.979   4.004  11.763  1.00  0.00     0.134 A 
ATOM     71  F   UNL     1      12.720   1.485  10.450  1.00  0.00    -0.206 F 
ATOM     72  C   UNL     1      12.354   3.152  12.062  1.00  0.00     0.040 A 
ATOM     73  C   UNL     1      14.143   4.640  12.682  1.00  0.00     0.040 A 
ATOM     74  F   UNL     1      16.244   4.434  11.656  1.00  0.00    -0.206 F 
ATOM     75  C   UNL     1      12.823   4.218  12.828  1.00  0.00     0.006 A 
ENDBRANCH  47  68
BRANCH  59  76
ATOM     76  C   UNL     1      20.240  -0.996  11.733  1.00  0.00     0.057 A 
ATOM     77  C   UNL     1      21.500  -0.473  12.051  1.00  0.00     0.134 A 
ATOM     78  C   UNL     1      19.741  -2.022  12.545  1.00  0.00     0.134 A 
ATOM     79  F   UNL     1      22.040   0.504  11.307  1.00  0.00    -0.206 F 
ATOM     80  C   UNL     1      22.241  -0.959  13.129  1.00  0.00     0.040 A 
ATOM     81  C   UNL     1      20.461  -2.499  13.641  1.00  0.00     0.040 A 
ATOM     82  F   UNL     1      18.535  -2.557  12.300  1.00  0.00    -0.206 F 
ATOM     83  C   UNL     1      21.719  -1.973  13.931  1.00  0.00     0.006 A 
ENDBRANCH  59  76
ENDBRANCH  33  34
ENDBRANCH  25  28
ENDBRANCH  23  24
ENDBRANCH  22  23
ENDBRANCH  21  22
ENDBRANCH  20  21
ENDBRANCH   1  20
TORSDOF 18
