REMARK SMILES O=C(NCCCCCCNC(=O)c1ccc(-c2c3nc(c(-c4c(F)cccc4F)c4ccc([nH]4)c(-c4c(F)cccc4F)c4nc(c(-c5c(F)cccc5F)c5ccc2[nH]5)C=C4)C=C3)cc1)C1=Cc2cc(S(F)(F)(F)(F)F)ccc2O[C@@H]1C(F)(F)F
REMARK SMILES IDX 7 1 6 2 5 3 4 4 3 5 1 6 2 7 67 9 68 10 82 11 69 12 81 13
REMARK SMILES IDX 70 14 80 15 71 16 79 17 78 18 83 19 84 20 85 21 86 22 72 23
REMARK SMILES IDX 73 24 74 25 75 26 76 27 77 28 8 29 9 30 10 31 11 32 12 34
REMARK SMILES IDX 13 35 14 36 66 37 15 38 65 39 16 40 17 41 18 42 59 43 19 44
REMARK SMILES IDX 64 45 58 46 60 47 20 48 63 49 57 50 56 51 21 53 47 54 30 55
REMARK SMILES IDX 46 56 31 57 34 58 45 59 61 60 32 61 33 62 44 64 62 65 35 66
REMARK SMILES IDX 22 67 23 68 28 69 24 70 25 71 27 72 29 73 26 74 48 75 49 76
REMARK SMILES IDX 54 77 50 78 51 79 53 80 55 81 52 82 36 83 37 84 42 85 38 86
REMARK SMILES IDX 39 87 41 88 43 89 40 90
REMARK H PARENT 3 8 10 33 60 52 34 63
REMARK Flexibility Score: inf
ROOT
ATOM      1  C   UNL     1       5.032   2.544  -3.272  1.00  0.00     0.002 C 
ENDROOT
BRANCH   1   2
ATOM      2  C   UNL     1       4.525   1.120  -3.438  1.00  0.00     0.002 C 
BRANCH   2   3
ATOM      3  C   UNL     1       5.031   0.265  -2.288  1.00  0.00     0.021 C 
BRANCH   3   4
ATOM      4  C   UNL     1       4.525   0.833  -0.973  1.00  0.00     0.116 C 
BRANCH   4   5
ATOM      5  N   UNL     1       3.055   0.833  -0.973  1.00  0.00    -0.352 N 
ATOM      6  O   UNL     1       1.049   0.072   0.049  1.00  0.00    -0.270 OA
ATOM      7  C   UNL     1       2.320   0.072   0.049  1.00  0.00     0.251 C 
ATOM      8  H   UNL     1       2.562   1.341  -1.657  1.00  0.00     0.163 HD
BRANCH   7   9
ATOM      9  C   UNL     1       3.080  -0.714   1.105  1.00  0.00     0.067 C 
ATOM     10  C   UNL     1       4.440  -0.714   1.105  1.00  0.00     0.025 C 
ATOM     11  C   UNL     1       2.320  -1.499   2.161  1.00  0.00     0.314 C 
ATOM     12  C   UNL     1       5.200   0.072   0.049  1.00  0.00     0.019 A 
ATOM     13  O   UNL     1       3.619   1.790   0.493  1.00  0.00    -0.475 OA
ATOM     14  C   UNL     1       6.214  -0.491  -0.709  1.00  0.00     0.036 A 
ATOM     15  C   UNL     1       4.763   1.303  -0.193  1.00  0.00     0.128 A 
ATOM     16  C   UNL     1       6.907   0.438  -1.521  1.00  0.00     0.107 A 
ATOM     17  C   UNL     1       5.407   2.109  -1.100  1.00  0.00     0.048 A 
ATOM     18  C   UNL     1       6.454   1.636  -1.841  1.00  0.00     0.028 A 
BRANCH  11  19
ATOM     19  C   UNL     1       2.687  -0.980   3.541  1.00  0.00     0.429 C 
ATOM     20  F   UNL     1       2.366   0.308   3.630  1.00  0.00    -0.167 F 
ATOM     21  F   UNL     1       2.022  -1.667   4.465  1.00  0.00    -0.167 F 
ATOM     22  F   UNL     1       3.995  -1.125   3.736  1.00  0.00    -0.167 F 
ENDBRANCH  11  19
BRANCH  16  23
ATOM     23  S   UNL     1       8.525  -0.052  -2.166  1.00  0.00     0.310 S 
ATOM     24  F   UNL     1       9.171  -0.108  -0.719  1.00  0.00    -0.094 F 
ATOM     25  F   UNL     1       8.944   1.466  -2.219  1.00  0.00    -0.094 F 
ATOM     26  F   UNL     1       9.908  -0.481  -2.733  1.00  0.00    -0.094 F 
ATOM     27  F   UNL     1       8.141  -1.571  -1.974  1.00  0.00    -0.094 F 
ATOM     28  F   UNL     1       7.161   0.364  -1.485  1.00  0.00    -0.094 F 
ENDBRANCH  16  23
ENDBRANCH   7   9
ENDBRANCH   4   5
ENDBRANCH   3   4
ENDBRANCH   2   3
ENDBRANCH   1   2
BRANCH   1  29
ATOM     29  C   UNL     1       6.551   2.544  -3.272  1.00  0.00     0.021 C 
BRANCH  29  30
ATOM     30  C   UNL     1       7.058   1.976  -4.588  1.00  0.00     0.116 C 
BRANCH  30  31
ATOM     31  N   UNL     1       6.568   2.803  -5.699  1.00  0.00    -0.352 N 
ATOM     32  C   UNL     1       7.523   3.470  -6.596  1.00  0.00     0.251 C 
ATOM     33  H   UNL     1       5.600   2.911  -5.844  1.00  0.00     0.163 HD
ATOM     34  O   UNL     1       7.100   4.186  -7.557  1.00  0.00    -0.269 OA
BRANCH  32  35
ATOM     35  C   UNL     1       9.018   3.304  -6.373  1.00  0.00     0.039 A 
ATOM     36  C   UNL     1       9.842   4.416  -6.438  1.00  0.00     0.014 A 
ATOM     37  C   UNL     1       9.509   2.097  -6.121  1.00  0.00     0.014 A 
ATOM     38  C   UNL     1      11.220   4.105  -6.507  1.00  0.00     0.010 A 
ATOM     39  C   UNL     1      10.866   1.891  -6.069  1.00  0.00     0.010 A 
ATOM     40  C   UNL     1      11.741   2.935  -6.184  1.00  0.00    -0.014 A 
BRANCH  40  41
ATOM     41  C   UNL     1      13.233   2.760  -5.952  1.00  0.00     0.031 A 
ATOM     42  C   UNL     1      13.922   1.860  -6.766  1.00  0.00     0.074 A 
ATOM     43  C   UNL     1      13.825   3.503  -4.946  1.00  0.00     0.049 A 
ATOM     44  N   UNL     1      15.227   1.585  -6.753  1.00  0.00    -0.248 NA
ATOM     45  C   UNL     1      13.289   1.044  -7.813  1.00  0.00     0.031 C 
ATOM     46  C   UNL     1      13.139   4.419  -4.125  1.00  0.00     0.029 A 
ATOM     47  N   UNL     1      15.147   3.499  -4.558  1.00  0.00    -0.354 N 
ATOM     48  C   UNL     1      15.519   0.684  -7.694  1.00  0.00     0.074 A 
ATOM     49  C   UNL     1      14.275   0.319  -8.385  1.00  0.00     0.031 C 
ATOM     50  C   UNL     1      14.031   4.951  -3.248  1.00  0.00     0.029 A 
ATOM     51  C   UNL     1      15.290   4.377  -3.506  1.00  0.00     0.049 A 
ATOM     52  H   UNL     1      15.866   2.961  -4.962  1.00  0.00     0.167 HD
ATOM     53  C   UNL     1      16.773   0.155  -8.003  1.00  0.00     0.037 A 
ATOM     54  C   UNL     1      16.444   4.672  -2.797  1.00  0.00     0.037 A 
ATOM     55  C   UNL     1      17.935   0.483  -7.323  1.00  0.00     0.049 A 
ATOM     56  C   UNL     1      17.688   4.098  -3.069  1.00  0.00     0.074 A 
ATOM     57  C   UNL     1      19.208  -0.035  -7.627  1.00  0.00     0.029 A 
ATOM     58  N   UNL     1      18.073   1.342  -6.255  1.00  0.00    -0.354 N 
ATOM     59  N   UNL     1      17.986   3.228  -4.035  1.00  0.00    -0.248 NA
ATOM     60  C   UNL     1      18.911   4.379  -2.305  1.00  0.00     0.031 C 
ATOM     61  C   UNL     1      20.100   0.497  -6.750  1.00  0.00     0.029 A 
ATOM     62  C   UNL     1      19.399   1.355  -5.882  1.00  0.00     0.049 A 
ATOM     63  H   UNL     1      17.349   1.858  -5.832  1.00  0.00     0.167 HD
ATOM     64  C   UNL     1      19.285   2.922  -3.994  1.00  0.00     0.074 A 
ATOM     65  C   UNL     1      19.896   3.653  -2.875  1.00  0.00     0.031 C 
ATOM     66  C   UNL     1      19.984   2.067  -4.846  1.00  0.00     0.037 A 
BRANCH  53  67
ATOM     67  C   UNL     1      16.870  -0.836  -9.152  1.00  0.00     0.057 A 
ATOM     68  C   UNL     1      16.512  -0.378 -10.409  1.00  0.00     0.134 A 
ATOM     69  C   UNL     1      17.313  -2.074  -8.970  1.00  0.00     0.134 A 
ATOM     70  F   UNL     1      16.308   0.908 -10.681  1.00  0.00    -0.206 F 
ATOM     71  C   UNL     1      16.384  -1.401 -11.377  1.00  0.00     0.040 A 
ATOM     72  C   UNL     1      17.285  -2.985  -9.999  1.00  0.00     0.040 A 
ATOM     73  F   UNL     1      17.789  -2.437  -7.782  1.00  0.00    -0.206 F 
ATOM     74  C   UNL     1      16.887  -2.616 -11.254  1.00  0.00     0.006 A 
ENDBRANCH  53  67
BRANCH  54  75
ATOM     75  C   UNL     1      16.350   5.676  -1.660  1.00  0.00     0.057 A 
ATOM     76  C   UNL     1      17.124   6.824  -1.645  1.00  0.00     0.134 A 
ATOM     77  C   UNL     1      15.528   5.385  -0.658  1.00  0.00     0.134 A 
ATOM     78  F   UNL     1      17.760   7.284  -2.718  1.00  0.00    -0.206 F 
ATOM     79  C   UNL     1      17.176   7.464  -0.384  1.00  0.00     0.040 A 
ATOM     80  C   UNL     1      15.537   6.136   0.493  1.00  0.00     0.040 A 
ATOM     81  F   UNL     1      14.691   4.358  -0.769  1.00  0.00    -0.206 F 
ATOM     82  C   UNL     1      16.321   7.250   0.600  1.00  0.00     0.006 A 
ENDBRANCH  54  75
BRANCH  66  83
ATOM     83  C   UNL     1      21.480   1.905  -4.625  1.00  0.00     0.057 A 
ATOM     84  C   UNL     1      21.938   1.420  -3.412  1.00  0.00     0.134 A 
ATOM     85  C   UNL     1      22.321   2.231  -5.599  1.00  0.00     0.134 A 
ATOM     86  F   UNL     1      21.143   0.849  -2.511  1.00  0.00    -0.206 F 
ATOM     87  C   UNL     1      23.330   1.589  -3.216  1.00  0.00     0.040 A 
ATOM     88  C   UNL     1      23.677   2.243  -5.377  1.00  0.00     0.040 A 
ATOM     89  F   UNL     1      21.847   2.549  -6.801  1.00  0.00    -0.206 F 
ATOM     90  C   UNL     1      24.197   1.833  -4.181  1.00  0.00     0.006 A 
ENDBRANCH  66  83
ENDBRANCH  40  41
ENDBRANCH  32  35
ENDBRANCH  30  31
ENDBRANCH  29  30
ENDBRANCH   1  29
TORSDOF 15
