REMARK SMILES O=C(NCCCCCCNC(=O)[C@@]1([NH2+]C2CC2)CCC[C@@H](n2cncn2)C1)c1ccc(-c2c3nc(c(-c4c(F)cccc4F)c4ccc([nH]4)c(-c4c(F)cccc4F)c4nc(c(-c5c(F)cccc5F)c5ccc2[nH]5)C=C4)C=C3)cc1
REMARK SMILES IDX 6 1 5 2 4 3 3 4 1 5 2 6 28 8 29 9 81 10 30 11 80 12 31 13
REMARK SMILES IDX 32 14 33 15 74 16 34 17 79 18 73 19 75 20 35 21 78 22 72 23
REMARK SMILES IDX 71 24 36 26 62 27 45 28 61 29 46 30 49 31 60 32 76 33 47 34
REMARK SMILES IDX 48 35 59 37 77 38 50 39 37 40 38 41 43 42 39 43 40 44 42 45
REMARK SMILES IDX 44 46 41 47 63 48 64 49 69 50 65 51 66 52 68 53 70 54 67 55
REMARK SMILES IDX 51 56 52 57 57 58 53 59 54 60 56 61 58 62 55 63 7 64 8 65
REMARK SMILES IDX 9 66 10 67 11 68 12 70 13 71 18 72 27 73 19 74 21 75 20 76
REMARK SMILES IDX 14 77 15 80 16 81 17 82 22 83 23 84 26 85 24 86 25 87
REMARK H PARENT 3 7 75 25 49 36 10 69 14 78 14 79
REMARK Flexibility Score: inf
ROOT
ATOM      1  C   UNL     1       3.986  -2.820  -2.073  1.00  0.00     0.002 C 
ENDROOT
BRANCH   1   2
ATOM      2  C   UNL     1       4.530  -2.085  -0.844  1.00  0.00     0.021 C 
BRANCH   2   3
ATOM      3  C   UNL     1       4.523  -0.563  -0.989  1.00  0.00     0.116 C 
BRANCH   3   4
ATOM      4  N   UNL     1       3.199  -0.017  -1.198  1.00  0.00    -0.352 N 
ATOM      5  O   UNL     1       1.148   0.755  -0.915  1.00  0.00    -0.269 OA
ATOM      6  C   UNL     1       2.134   0.233  -0.382  1.00  0.00     0.251 C 
ATOM      7  H   UNL     1       3.030   0.229  -2.136  1.00  0.00     0.163 HD
BRANCH   6   8
ATOM      8  C   UNL     1       2.055  -0.137   1.057  1.00  0.00     0.039 A 
ATOM      9  C   UNL     1       3.111  -0.609   1.840  1.00  0.00     0.014 A 
ATOM     10  C   UNL     1       0.782  -0.025   1.646  1.00  0.00     0.014 A 
ATOM     11  C   UNL     1       2.884  -1.067   3.132  1.00  0.00     0.010 A 
ATOM     12  C   UNL     1       0.553  -0.451   2.947  1.00  0.00     0.010 A 
ATOM     13  C   UNL     1       1.599  -1.015   3.670  1.00  0.00    -0.014 A 
BRANCH  13  14
ATOM     14  C   UNL     1       1.418  -1.441   5.052  1.00  0.00     0.031 A 
ATOM     15  C   UNL     1       2.111  -0.590   6.063  1.00  0.00     0.074 A 
ATOM     16  C   UNL     1       0.569  -2.426   5.404  1.00  0.00     0.049 A 
ATOM     17  N   UNL     1       3.000  -0.936   6.938  1.00  0.00    -0.248 NA
ATOM     18  C   UNL     1       1.850   0.859   6.021  1.00  0.00     0.031 C 
ATOM     19  C   UNL     1      -0.390  -3.137   4.555  1.00  0.00     0.029 A 
ATOM     20  N   UNL     1       0.309  -2.927   6.643  1.00  0.00    -0.354 N 
ATOM     21  C   UNL     1       3.276   0.213   7.680  1.00  0.00     0.074 A 
ATOM     22  C   UNL     1       2.655   1.307   6.983  1.00  0.00     0.031 C 
ATOM     23  C   UNL     1      -1.274  -3.797   5.337  1.00  0.00     0.029 A 
ATOM     24  C   UNL     1      -0.866  -3.663   6.726  1.00  0.00     0.049 A 
ATOM     25  H   UNL     1       0.903  -2.781   7.415  1.00  0.00     0.167 HD
ATOM     26  C   UNL     1       3.807   0.146   8.933  1.00  0.00     0.037 A 
ATOM     27  C   UNL     1      -1.491  -4.064   7.861  1.00  0.00     0.037 A 
ATOM     28  C   UNL     1       4.457  -1.118   9.160  1.00  0.00     0.049 A 
ATOM     29  C   UNL     1      -0.507  -3.991   8.969  1.00  0.00     0.074 A 
ATOM     30  C   UNL     1       5.511  -1.796   8.580  1.00  0.00     0.029 A 
ATOM     31  N   UNL     1       3.807  -2.048   9.932  1.00  0.00    -0.354 N 
ATOM     32  N   UNL     1       0.524  -4.780   9.081  1.00  0.00    -0.248 NA
ATOM     33  C   UNL     1      -0.427  -2.747   9.718  1.00  0.00     0.031 C 
ATOM     34  C   UNL     1       5.136  -3.171   8.628  1.00  0.00     0.029 A 
ATOM     35  C   UNL     1       3.904  -3.247   9.277  1.00  0.00     0.049 A 
ATOM     36  H   UNL     1       3.357  -1.885  10.793  1.00  0.00     0.167 HD
ATOM     37  C   UNL     1       1.543  -3.963   9.546  1.00  0.00     0.074 A 
ATOM     38  C   UNL     1       0.877  -2.745  10.004  1.00  0.00     0.031 C 
ATOM     39  C   UNL     1       2.850  -4.231   9.258  1.00  0.00     0.037 A 
BRANCH  26  40
ATOM     40  C   UNL     1       3.399   1.051  10.077  1.00  0.00     0.057 A 
ATOM     41  C   UNL     1       4.046   0.912  11.321  1.00  0.00     0.134 A 
ATOM     42  C   UNL     1       2.208   1.804  10.109  1.00  0.00     0.134 A 
ATOM     43  F   UNL     1       5.195   0.227  11.428  1.00  0.00    -0.206 F 
ATOM     44  C   UNL     1       3.489   1.381  12.516  1.00  0.00     0.040 A 
ATOM     45  C   UNL     1       1.669   2.320  11.291  1.00  0.00     0.040 A 
ATOM     46  F   UNL     1       1.446   1.999   9.027  1.00  0.00    -0.206 F 
ATOM     47  C   UNL     1       2.286   2.074  12.506  1.00  0.00     0.006 A 
ENDBRANCH  26  40
BRANCH  27  48
ATOM     48  C   UNL     1      -2.946  -4.186   8.109  1.00  0.00     0.057 A 
ATOM     49  C   UNL     1      -3.441  -4.913   9.200  1.00  0.00     0.134 A 
ATOM     50  C   UNL     1      -3.874  -3.368   7.441  1.00  0.00     0.134 A 
ATOM     51  F   UNL     1      -2.624  -5.685   9.931  1.00  0.00    -0.206 F 
ATOM     52  C   UNL     1      -4.778  -4.818   9.614  1.00  0.00     0.040 A 
ATOM     53  C   UNL     1      -5.211  -3.269   7.838  1.00  0.00     0.040 A 
ATOM     54  F   UNL     1      -3.492  -2.565   6.437  1.00  0.00    -0.206 F 
ATOM     55  C   UNL     1      -5.665  -3.987   8.937  1.00  0.00     0.006 A 
ENDBRANCH  27  48
BRANCH  39  56
ATOM     56  C   UNL     1       3.173  -5.556   8.630  1.00  0.00     0.057 A 
ATOM     57  C   UNL     1       2.725  -5.949   7.359  1.00  0.00     0.134 A 
ATOM     58  C   UNL     1       4.092  -6.397   9.264  1.00  0.00     0.134 A 
ATOM     59  F   UNL     1       1.927  -5.160   6.630  1.00  0.00    -0.206 F 
ATOM     60  C   UNL     1       3.136  -7.148   6.770  1.00  0.00     0.040 A 
ATOM     61  C   UNL     1       4.538  -7.581   8.672  1.00  0.00     0.040 A 
ATOM     62  F   UNL     1       4.612  -6.056  10.454  1.00  0.00    -0.206 F 
ATOM     63  C   UNL     1       4.052  -7.966   7.425  1.00  0.00     0.006 A 
ENDBRANCH  39  56
ENDBRANCH  13  14
ENDBRANCH   6   8
ENDBRANCH   3   4
ENDBRANCH   2   3
ENDBRANCH   1   2
BRANCH   1  64
ATOM     64  C   UNL     1       4.761  -2.555  -3.369  1.00  0.00     0.002 C 
BRANCH  64  65
ATOM     65  C   UNL     1       6.269  -2.816  -3.268  1.00  0.00     0.021 C 
BRANCH  65  66
ATOM     66  C   UNL     1       6.596  -4.283  -2.989  1.00  0.00     0.116 C 
BRANCH  66  67
ATOM     67  N   UNL     1       6.564  -5.048  -4.212  1.00  0.00    -0.351 N 
ATOM     68  C   UNL     1       7.511  -5.348  -5.136  1.00  0.00     0.281 C 
ATOM     69  H   UNL     1       5.679  -5.428  -4.416  1.00  0.00     0.163 HD
ATOM     70  O   UNL     1       7.096  -6.047  -6.072  1.00  0.00    -0.268 OA
BRANCH  68  71
ATOM     71  C   UNL     1       9.043  -4.990  -4.987  1.00  0.00     0.177 C 
ATOM     72  C   UNL     1       9.467  -3.678  -4.290  1.00  0.00     0.079 C 
ATOM     73  C   UNL     1       9.604  -6.182  -4.159  1.00  0.00     0.106 C 
ATOM     74  C   UNL     1      10.981  -3.572  -4.086  1.00  0.00     0.009 C 
ATOM     75  C   UNL     1      11.101  -6.110  -3.817  1.00  0.00     0.116 C 
ATOM     76  C   UNL     1      11.483  -4.734  -3.238  1.00  0.00     0.028 C 
BRANCH  71  77
ATOM     77  N   UNL     1       9.658  -5.014  -6.344  1.00  0.00    -0.331 N 
ATOM     78  H   UNL     1       9.656  -5.988  -6.647  1.00  0.00     0.347 HD
ATOM     79  H   UNL     1      10.560  -4.562  -6.192  1.00  0.00     0.347 HD
BRANCH  77  80
ATOM     80  C   UNL     1       9.080  -4.229  -7.447  1.00  0.00     0.183 C 
ATOM     81  C   UNL     1       7.989  -3.202  -7.334  1.00  0.00     0.071 C 
ATOM     82  C   UNL     1       9.399  -2.761  -7.582  1.00  0.00     0.071 C 
ENDBRANCH  77  80
ENDBRANCH  71  77
BRANCH  75  83
ATOM     83  N   UNL     1      11.482  -7.213  -2.931  1.00  0.00    -0.250 N 
ATOM     84  C   UNL     1      11.365  -8.550  -3.171  1.00  0.00     0.220 A 
ATOM     85  N   UNL     1      12.041  -6.999  -1.723  1.00  0.00    -0.160 NA
ATOM     86  N   UNL     1      11.836  -9.227  -2.149  1.00  0.00    -0.224 NA
ATOM     87  C   UNL     1      12.244  -8.246  -1.294  1.00  0.00     0.246 A 
ENDBRANCH  75  83
ENDBRANCH  68  71
ENDBRANCH  66  67
ENDBRANCH  65  66
ENDBRANCH  64  65
ENDBRANCH   1  64
TORSDOF 16
