REMARK SMILES CCC[N@@H+]1CC2(CCN(c3nccnc3C)CC2)C[C@H]1C(=O)NCCCCCCNC(=O)c1ccc(-c2c3nc(c(-c4c(F)cccc4F)c4ccc([nH]4)c(-c4c(F)cccc4F)c4nc(c(-c5c(F)cccc5F)c5ccc2[nH]5)C=C4)C=C3)cc1
REMARK SMILES IDX 26 1 25 2 24 3 23 4 21 5 22 6 20 8 4 9 5 10 6 12 19 13 7 14
REMARK SMILES IDX 18 15 8 16 17 17 9 18 3 19 2 20 1 21 10 22 11 23 15 24 12 25
REMARK SMILES IDX 14 26 16 27 13 28 27 29 28 30 29 31 30 32 31 33 32 35 33 36
REMARK SMILES IDX 34 37 86 38 35 39 85 40 36 41 37 42 38 43 79 44 39 45 84 46
REMARK SMILES IDX 78 47 80 48 40 49 83 50 77 51 76 52 41 54 67 55 50 56 66 57
REMARK SMILES IDX 51 58 54 59 65 60 81 61 52 62 53 63 64 65 82 66 55 67 42 68
REMARK SMILES IDX 43 69 48 70 44 71 45 72 47 73 49 74 46 75 68 76 69 77 74 78
REMARK SMILES IDX 70 79 71 80 73 81 75 82 72 83 56 84 57 85 62 86 58 87 59 88
REMARK SMILES IDX 61 89 63 90 60 91
REMARK H PARENT 23 7 4 11 30 34 80 53 54 64
REMARK Flexibility Score: inf
ROOT
ATOM      1  C   UNL     1      -0.052   2.084  -7.275  1.00  0.00     0.002 C 
ENDROOT
BRANCH   1   2
ATOM      2  C   UNL     1       0.213   2.323  -5.789  1.00  0.00     0.021 C 
BRANCH   2   3
ATOM      3  C   UNL     1      -0.868   1.765  -4.873  1.00  0.00     0.116 C 
BRANCH   3   4
ATOM      4  N   UNL     1      -0.567   0.513  -4.248  1.00  0.00    -0.351 N 
ATOM      5  C   UNL     1      -0.586   0.155  -2.936  1.00  0.00     0.278 C 
ATOM      6  O   UNL     1      -0.488  -1.066  -2.735  1.00  0.00    -0.268 OA
ATOM      7  H   UNL     1      -0.303  -0.205  -4.868  1.00  0.00     0.163 HD
BRANCH   5   8
ATOM      8  C   UNL     1      -0.728   1.114  -1.706  1.00  0.00     0.274 C 
ATOM      9  N   UNL     1       0.352   2.117  -1.618  1.00  0.00    -0.324 N 
ATOM     10  C   UNL     1      -0.243   3.428  -1.990  1.00  0.00     0.270 C 
ATOM     11  H   UNL     1       1.094   1.828  -2.256  1.00  0.00     0.348 HD
ATOM     12  C   UNL     1      -1.766   3.354  -1.708  1.00  0.00     0.029 C 
ATOM     13  C   UNL     1      -2.029   1.855  -1.454  1.00  0.00     0.088 C 
ATOM     14  C   UNL     1      -2.743   3.785  -2.836  1.00  0.00     0.034 C 
ATOM     15  C   UNL     1      -2.087   4.255  -0.471  1.00  0.00     0.034 C 
ATOM     16  C   UNL     1      -2.669   5.264  -3.162  1.00  0.00     0.119 C 
ATOM     17  C   UNL     1      -2.103   5.764  -0.826  1.00  0.00     0.119 C 
ATOM     18  N   UNL     1      -3.028   5.945  -1.936  1.00  0.00    -0.355 N 
BRANCH   9  19
ATOM     19  C   UNL     1       1.043   2.201  -0.306  1.00  0.00     0.262 C 
BRANCH  19  20
ATOM     20  C   UNL     1       0.909   1.093   0.758  1.00  0.00     0.058 C 
ATOM     21  C   UNL     1       1.563  -0.233   0.401  1.00  0.00     0.010 C 
ENDBRANCH  19  20
ENDBRANCH   9  19
BRANCH  18  22
ATOM     22  C   UNL     1      -3.790   7.090  -2.030  1.00  0.00     0.150 A 
ATOM     23  N   UNL     1      -3.203   8.265  -1.704  1.00  0.00    -0.236 NA
ATOM     24  C   UNL     1      -5.147   7.064  -2.439  1.00  0.00     0.080 A 
ATOM     25  C   UNL     1      -3.967   9.377  -1.808  1.00  0.00     0.133 A 
ATOM     26  N   UNL     1      -5.907   8.193  -2.531  1.00  0.00    -0.256 NA
ATOM     27  C   UNL     1      -5.912   5.791  -2.656  1.00  0.00     0.071 C 
ATOM     28  C   UNL     1      -5.287   9.342  -2.210  1.00  0.00     0.131 A 
ENDBRANCH  18  22
ENDBRANCH   5   8
ENDBRANCH   3   4
ENDBRANCH   2   3
ENDBRANCH   1   2
BRANCH   1  29
ATOM     29  C   UNL     1      -1.383   2.636  -7.809  1.00  0.00     0.002 C 
BRANCH  29  30
ATOM     30  C   UNL     1      -1.630   4.131  -7.579  1.00  0.00     0.021 C 
BRANCH  30  31
ATOM     31  C   UNL     1      -0.574   5.058  -8.175  1.00  0.00     0.116 C 
BRANCH  31  32
ATOM     32  N   UNL     1      -0.392   4.832  -9.601  1.00  0.00    -0.352 N 
ATOM     33  C   UNL     1      -0.482   5.706 -10.648  1.00  0.00     0.251 C 
ATOM     34  H   UNL     1      -0.169   3.905  -9.851  1.00  0.00     0.163 HD
ATOM     35  O   UNL     1      -0.511   5.277 -11.805  1.00  0.00    -0.269 OA
BRANCH  33  36
ATOM     36  C   UNL     1      -0.548   7.160 -10.407  1.00  0.00     0.039 A 
ATOM     37  C   UNL     1      -1.423   7.934 -11.173  1.00  0.00     0.014 A 
ATOM     38  C   UNL     1       0.279   7.766  -9.457  1.00  0.00     0.014 A 
ATOM     39  C   UNL     1      -1.503   9.310 -10.954  1.00  0.00     0.010 A 
ATOM     40  C   UNL     1       0.146   9.125  -9.189  1.00  0.00     0.010 A 
ATOM     41  C   UNL     1      -0.738   9.912  -9.942  1.00  0.00    -0.014 A 
BRANCH  41  42
ATOM     42  C   UNL     1      -0.843  11.366  -9.666  1.00  0.00     0.031 A 
ATOM     43  C   UNL     1       0.342  12.265  -9.886  1.00  0.00     0.074 A 
ATOM     44  C   UNL     1      -1.989  11.864  -9.165  1.00  0.00     0.049 A 
ATOM     45  N   UNL     1       0.460  13.548  -9.655  1.00  0.00    -0.248 NA
ATOM     46  C   UNL     1       1.565  11.635 -10.407  1.00  0.00     0.031 C 
ATOM     47  C   UNL     1      -3.191  11.083  -8.864  1.00  0.00     0.029 A 
ATOM     48  N   UNL     1      -2.329  13.146  -8.813  1.00  0.00    -0.354 N 
ATOM     49  C   UNL     1       1.768  13.874  -9.990  1.00  0.00     0.074 A 
ATOM     50  C   UNL     1       2.422  12.646 -10.386  1.00  0.00     0.031 C 
ATOM     51  C   UNL     1      -4.143  11.905  -8.397  1.00  0.00     0.029 A 
ATOM     52  C   UNL     1      -3.610  13.262  -8.330  1.00  0.00     0.049 A 
ATOM     53  H   UNL     1      -1.714  13.909  -8.898  1.00  0.00     0.167 HD
ATOM     54  C   UNL     1       2.364  15.090  -9.990  1.00  0.00     0.037 A 
ATOM     55  C   UNL     1      -4.277  14.342  -7.881  1.00  0.00     0.037 A 
ATOM     56  C   UNL     1       1.702  16.312  -9.616  1.00  0.00     0.049 A 
ATOM     57  C   UNL     1      -3.593  15.681  -7.891  1.00  0.00     0.074 A 
ATOM     58  C   UNL     1       2.199  17.604  -9.637  1.00  0.00     0.029 A 
ATOM     59  N   UNL     1       0.398  16.392  -9.151  1.00  0.00    -0.354 N 
ATOM     60  N   UNL     1      -2.377  15.985  -8.276  1.00  0.00    -0.248 NA
ATOM     61  C   UNL     1      -4.377  16.828  -7.412  1.00  0.00     0.031 C 
ATOM     62  C   UNL     1       1.211  18.460  -9.140  1.00  0.00     0.029 A 
ATOM     63  C   UNL     1       0.080  17.709  -8.860  1.00  0.00     0.049 A 
ATOM     64  H   UNL     1      -0.212  15.627  -9.043  1.00  0.00     0.167 HD
ATOM     65  C   UNL     1      -2.260  17.360  -8.116  1.00  0.00     0.074 A 
ATOM     66  C   UNL     1      -3.534  17.831  -7.611  1.00  0.00     0.031 C 
ATOM     67  C   UNL     1      -1.195  18.161  -8.365  1.00  0.00     0.037 A 
BRANCH  54  68
ATOM     68  C   UNL     1       3.804  15.157 -10.412  1.00  0.00     0.057 A 
ATOM     69  C   UNL     1       4.198  14.934 -11.739  1.00  0.00     0.134 A 
ATOM     70  C   UNL     1       4.806  15.481  -9.489  1.00  0.00     0.134 A 
ATOM     71  F   UNL     1       3.290  14.608 -12.671  1.00  0.00    -0.206 F 
ATOM     72  C   UNL     1       5.538  15.002 -12.125  1.00  0.00     0.040 A 
ATOM     73  C   UNL     1       6.146  15.581  -9.869  1.00  0.00     0.040 A 
ATOM     74  F   UNL     1       4.500  15.714  -8.204  1.00  0.00    -0.206 F 
ATOM     75  C   UNL     1       6.516  15.334 -11.190  1.00  0.00     0.006 A 
ENDBRANCH  54  68
BRANCH  55  76
ATOM     76  C   UNL     1      -5.680  14.207  -7.414  1.00  0.00     0.057 A 
ATOM     77  C   UNL     1      -6.740  14.754  -8.147  1.00  0.00     0.134 A 
ATOM     78  C   UNL     1      -5.997  13.535  -6.227  1.00  0.00     0.134 A 
ATOM     79  F   UNL     1      -6.498  15.424  -9.284  1.00  0.00    -0.206 F 
ATOM     80  C   UNL     1      -8.061  14.658  -7.707  1.00  0.00     0.040 A 
ATOM     81  C   UNL     1      -7.316  13.407  -5.790  1.00  0.00     0.040 A 
ATOM     82  F   UNL     1      -5.029  12.981  -5.482  1.00  0.00    -0.206 F 
ATOM     83  C   UNL     1      -8.352  13.977  -6.527  1.00  0.00     0.006 A 
ENDBRANCH  55  76
BRANCH  67  84
ATOM     84  C   UNL     1      -1.374  19.633  -8.131  1.00  0.00     0.057 A 
ATOM     85  C   UNL     1      -1.462  20.174  -6.843  1.00  0.00     0.134 A 
ATOM     86  C   UNL     1      -1.419  20.523  -9.212  1.00  0.00     0.134 A 
ATOM     87  F   UNL     1      -1.439  19.374  -5.766  1.00  0.00    -0.206 F 
ATOM     88  C   UNL     1      -1.614  21.546  -6.638  1.00  0.00     0.040 A 
ATOM     89  C   UNL     1      -1.541  21.899  -9.019  1.00  0.00     0.040 A 
ATOM     90  F   UNL     1      -1.330  20.071 -10.472  1.00  0.00    -0.206 F 
ATOM     91  C   UNL     1      -1.646  22.414  -7.728  1.00  0.00     0.006 A 
ENDBRANCH  67  84
ENDBRANCH  41  42
ENDBRANCH  33  36
ENDBRANCH  31  32
ENDBRANCH  30  31
ENDBRANCH  29  30
ENDBRANCH   1  29
TORSDOF 16
