REMARK SMILES [NH3+][C@H](CCC(=O)NCCCCCCNC(=O)c1ccc(-c2c3nc(c(-c4c(F)cccc4F)c4ccc([nH]4)c(-c4c(F)cccc4F)c4nc(c(-c5c(F)cccc5F)c5ccc2[nH]5)C=C4)C=C3)cc1)c1nccc2[nH]ccc12
REMARK SMILES IDX 10 1 9 2 8 3 7 4 5 5 6 6 4 8 3 9 2 10 1 11 71 15 72 16 79 17
REMARK SMILES IDX 73 18 75 19 78 20 74 21 76 22 77 23 11 25 12 26 13 27 14 28
REMARK SMILES IDX 15 29 16 31 17 32 18 33 70 34 19 35 69 36 20 37 21 38 22 39
REMARK SMILES IDX 63 40 23 41 68 42 62 43 64 44 24 45 67 46 61 47 60 48 25 50
REMARK SMILES IDX 51 51 34 52 50 53 35 54 38 55 49 56 65 57 36 58 37 59 48 61
REMARK SMILES IDX 66 62 39 63 26 64 27 65 32 66 28 67 29 68 31 69 33 70 30 71
REMARK SMILES IDX 52 72 53 73 58 74 54 75 55 76 57 77 59 78 56 79 40 80 41 81
REMARK SMILES IDX 46 82 42 83 43 84 45 85 47 86 44 87
REMARK H PARENT 7 7 1 12 1 13 1 14 76 24 14 30 64 49 38 60
REMARK Flexibility Score: inf
ROOT
ATOM      1  C   UNL     1       2.301  -4.770  -1.123  1.00  0.00     0.002 C 
ENDROOT
BRANCH   1   2
ATOM      2  C   UNL     1       1.415  -3.538  -0.926  1.00  0.00     0.021 C 
BRANCH   2   3
ATOM      3  C   UNL     1       1.016  -3.316   0.533  1.00  0.00     0.116 C 
BRANCH   3   4
ATOM      4  N   UNL     1       1.965  -2.449   1.191  1.00  0.00    -0.356 N 
ATOM      5  C   UNL     1       1.801  -1.163   1.610  1.00  0.00     0.220 C 
ATOM      6  O   UNL     1       2.811  -0.518   1.901  1.00  0.00    -0.275 OA
ATOM      7  H   UNL     1       2.852  -2.840   1.360  1.00  0.00     0.163 HD
BRANCH   5   8
ATOM      8  C   UNL     1       0.414  -0.564   1.788  1.00  0.00     0.106 C 
BRANCH   8   9
ATOM      9  C   UNL     1       0.002   0.492   0.755  1.00  0.00     0.082 C 
BRANCH   9  10
ATOM     10  C   UNL     1      -1.050   0.145  -0.330  1.00  0.00     0.232 C 
BRANCH  10  11
ATOM     11  N   UNL     1      -0.393  -0.567  -1.458  1.00  0.00    -0.350 N 
ATOM     12  H   UNL     1      -1.089  -0.793  -2.169  1.00  0.00     0.345 HD
ATOM     13  H   UNL     1       0.034  -1.427  -1.114  1.00  0.00     0.345 HD
ATOM     14  H   UNL     1       0.327   0.031  -1.865  1.00  0.00     0.345 HD
ENDBRANCH  10  11
BRANCH  10  15
ATOM     15  C   UNL     1      -2.299  -0.663   0.094  1.00  0.00     0.107 A 
ATOM     16  N   UNL     1      -2.008  -1.973   0.401  1.00  0.00    -0.254 NA
ATOM     17  C   UNL     1      -3.577  -0.457  -0.490  1.00  0.00     0.027 A 
ATOM     18  C   UNL     1      -2.643  -2.973  -0.240  1.00  0.00     0.114 A 
ATOM     19  C   UNL     1      -4.117  -1.506  -1.241  1.00  0.00     0.049 A 
ATOM     20  C   UNL     1      -4.595   0.542  -0.441  1.00  0.00     0.030 A 
ATOM     21  C   UNL     1      -3.587  -2.788  -1.225  1.00  0.00     0.047 A 
ATOM     22  N   UNL     1      -5.204  -1.001  -1.912  1.00  0.00    -0.361 N 
ATOM     23  C   UNL     1      -5.620   0.138  -1.274  1.00  0.00     0.083 A 
ATOM     24  H   UNL     1      -5.615  -1.393  -2.716  1.00  0.00     0.166 HD
ENDBRANCH  10  15
ENDBRANCH   9  10
ENDBRANCH   8   9
ENDBRANCH   5   8
ENDBRANCH   3   4
ENDBRANCH   2   3
ENDBRANCH   1   2
BRANCH   1  25
ATOM     25  C   UNL     1       1.573  -6.109  -0.943  1.00  0.00     0.002 C 
BRANCH  25  26
ATOM     26  C   UNL     1       0.352  -6.318  -1.844  1.00  0.00     0.021 C 
BRANCH  26  27
ATOM     27  C   UNL     1       0.644  -6.222  -3.338  1.00  0.00     0.116 C 
BRANCH  27  28
ATOM     28  N   UNL     1       1.513  -7.300  -3.783  1.00  0.00    -0.352 N 
ATOM     29  C   UNL     1       1.261  -8.296  -4.695  1.00  0.00     0.251 C 
ATOM     30  H   UNL     1       2.408  -7.319  -3.372  1.00  0.00     0.163 HD
ATOM     31  O   UNL     1       1.997  -9.271  -4.770  1.00  0.00    -0.269 OA
BRANCH  29  32
ATOM     32  C   UNL     1       0.088  -8.184  -5.588  1.00  0.00     0.039 A 
ATOM     33  C   UNL     1      -0.727  -9.301  -5.787  1.00  0.00     0.014 A 
ATOM     34  C   UNL     1      -0.190  -6.981  -6.243  1.00  0.00     0.014 A 
ATOM     35  C   UNL     1      -1.853  -9.196  -6.606  1.00  0.00     0.010 A 
ATOM     36  C   UNL     1      -1.350  -6.859  -7.000  1.00  0.00     0.010 A 
ATOM     37  C   UNL     1      -2.188  -7.967  -7.199  1.00  0.00    -0.014 A 
BRANCH  37  38
ATOM     38  C   UNL     1      -3.394  -7.820  -8.051  1.00  0.00     0.031 A 
ATOM     39  C   UNL     1      -3.243  -7.475  -9.508  1.00  0.00     0.074 A 
ATOM     40  C   UNL     1      -4.620  -7.927  -7.503  1.00  0.00     0.049 A 
ATOM     41  N   UNL     1      -4.167  -7.207 -10.395  1.00  0.00    -0.248 NA
ATOM     42  C   UNL     1      -1.869  -7.394 -10.031  1.00  0.00     0.031 C 
ATOM     43  C   UNL     1      -4.897  -8.222  -6.096  1.00  0.00     0.029 A 
ATOM     44  N   UNL     1      -5.865  -7.784  -8.063  1.00  0.00    -0.354 N 
ATOM     45  C   UNL     1      -3.487  -6.908 -11.569  1.00  0.00     0.074 A 
ATOM     46  C   UNL     1      -2.074  -6.978 -11.271  1.00  0.00     0.031 C 
ATOM     47  C   UNL     1      -6.226  -8.253  -5.906  1.00  0.00     0.029 A 
ATOM     48  C   UNL     1      -6.895  -7.942  -7.166  1.00  0.00     0.049 A 
ATOM     49  H   UNL     1      -6.008  -7.588  -9.017  1.00  0.00     0.167 HD
ATOM     50  C   UNL     1      -3.996  -6.622 -12.791  1.00  0.00     0.037 A 
ATOM     51  C   UNL     1      -8.226  -7.834  -7.339  1.00  0.00     0.037 A 
ATOM     52  C   UNL     1      -5.403  -6.584 -13.091  1.00  0.00     0.049 A 
ATOM     53  C   UNL     1      -8.764  -7.507  -8.706  1.00  0.00     0.074 A 
ATOM     54  C   UNL     1      -6.018  -6.362 -14.310  1.00  0.00     0.029 A 
ATOM     55  N   UNL     1      -6.413  -6.775 -12.161  1.00  0.00    -0.354 N 
ATOM     56  N   UNL     1      -8.110  -7.288  -9.821  1.00  0.00    -0.248 NA
ATOM     57  C   UNL     1     -10.225  -7.418  -8.841  1.00  0.00     0.031 C 
ATOM     58  C   UNL     1      -7.401  -6.371 -14.109  1.00  0.00     0.029 A 
ATOM     59  C   UNL     1      -7.648  -6.655 -12.775  1.00  0.00     0.049 A 
ATOM     60  H   UNL     1      -6.273  -6.968 -11.205  1.00  0.00     0.167 HD
ATOM     61  C   UNL     1      -9.078  -7.075 -10.795  1.00  0.00     0.074 A 
ATOM     62  C   UNL     1     -10.363  -7.200 -10.141  1.00  0.00     0.031 C 
ATOM     63  C   UNL     1      -8.918  -6.803 -12.113  1.00  0.00     0.037 A 
BRANCH  50  64
ATOM     64  C   UNL     1      -3.027  -6.334 -13.902  1.00  0.00     0.057 A 
ATOM     65  C   UNL     1      -2.224  -7.336 -14.461  1.00  0.00     0.134 A 
ATOM     66  C   UNL     1      -2.935  -5.050 -14.454  1.00  0.00     0.134 A 
ATOM     67  F   UNL     1      -2.255  -8.585 -13.972  1.00  0.00    -0.206 F 
ATOM     68  C   UNL     1      -1.349  -7.067 -15.516  1.00  0.00     0.040 A 
ATOM     69  C   UNL     1      -2.086  -4.775 -15.527  1.00  0.00     0.040 A 
ATOM     70  F   UNL     1      -3.681  -4.045 -13.970  1.00  0.00    -0.206 F 
ATOM     71  C   UNL     1      -1.286  -5.785 -16.058  1.00  0.00     0.006 A 
ENDBRANCH  50  64
BRANCH  51  72
ATOM     72  C   UNL     1      -9.151  -8.047  -6.196  1.00  0.00     0.057 A 
ATOM     73  C   UNL     1     -10.010  -9.153  -6.158  1.00  0.00     0.134 A 
ATOM     74  C   UNL     1      -9.224  -7.141  -5.132  1.00  0.00     0.134 A 
ATOM     75  F   UNL     1     -10.000 -10.049  -7.157  1.00  0.00    -0.206 F 
ATOM     76  C   UNL     1     -10.927  -9.333  -5.122  1.00  0.00     0.040 A 
ATOM     77  C   UNL     1     -10.117  -7.323  -4.074  1.00  0.00     0.040 A 
ATOM     78  F   UNL     1      -8.422  -6.065  -5.101  1.00  0.00    -0.206 F 
ATOM     79  C   UNL     1     -10.980  -8.417  -4.074  1.00  0.00     0.006 A 
ENDBRANCH  51  72
BRANCH  63  80
ATOM     80  C   UNL     1     -10.158  -6.676 -12.948  1.00  0.00     0.057 A 
ATOM     81  C   UNL     1     -11.011  -5.571 -12.850  1.00  0.00     0.134 A 
ATOM     82  C   UNL     1     -10.472  -7.654 -13.902  1.00  0.00     0.134 A 
ATOM     83  F   UNL     1     -10.773  -4.606 -11.948  1.00  0.00    -0.206 F 
ATOM     84  C   UNL     1     -12.144  -5.452 -13.655  1.00  0.00     0.040 A 
ATOM     85  C   UNL     1     -11.585  -7.532 -14.733  1.00  0.00     0.040 A 
ATOM     86  F   UNL     1      -9.690  -8.733 -14.055  1.00  0.00    -0.206 F 
ATOM     87  C   UNL     1     -12.429  -6.430 -14.607  1.00  0.00     0.006 A 
ENDBRANCH  63  80
ENDBRANCH  37  38
ENDBRANCH  29  32
ENDBRANCH  27  28
ENDBRANCH  26  27
ENDBRANCH  25  26
ENDBRANCH   1  25
TORSDOF 17
