REMARK SMILES CN(CC(C)(C)O)C(=O)NC[C@@H](C(=O)NCCCCCCNC(=O)c1ccc(-c2c3nc(c(-c4c(F)cccc4F)c4ccc([nH]4)c(-c4c(F)cccc4F)c4nc(c(-c5c(F)cccc5F)c5ccc2[nH]5)C=C4)C=C3)cc1)c1ccccc1
REMARK SMILES IDX 16 1 15 2 13 3 14 4 12 6 11 7 10 8 8 9 9 10 2 12 1 13 3 14
REMARK SMILES IDX 4 15 5 16 6 17 7 18 79 20 80 21 84 22 81 23 83 24 82 25
REMARK SMILES IDX 17 26 18 27 19 28 20 29 21 30 22 31 23 32 24 34 25 35 26 36
REMARK SMILES IDX 78 37 27 38 77 39 28 40 29 41 30 42 71 43 31 44 76 45 70 46
REMARK SMILES IDX 72 47 32 48 75 49 69 50 68 51 33 53 59 54 42 55 58 56 43 57
REMARK SMILES IDX 46 58 57 59 73 60 44 61 45 62 56 64 74 65 47 66 34 67 35 68
REMARK SMILES IDX 40 69 36 70 37 71 39 72 41 73 38 74 60 75 61 76 66 77 62 78
REMARK SMILES IDX 63 79 65 80 67 81 64 82 48 83 49 84 54 85 50 86 51 87 53 88
REMARK SMILES IDX 55 89 52 90
REMARK H PARENT 15 5 10 11 7 19 22 33 72 52 46 63
REMARK Flexibility Score: inf
ROOT
ATOM      1  C   UNL     1      -0.393   5.551  -1.735  1.00  0.00     0.116 C 
ENDROOT
BRANCH   1   2
ATOM      2  N   UNL     1      -0.792   5.831  -3.103  1.00  0.00    -0.356 N 
ATOM      3  C   UNL     1      -0.939   4.969  -4.154  1.00  0.00     0.229 C 
ATOM      4  O   UNL     1      -0.897   5.454  -5.287  1.00  0.00    -0.274 OA
ATOM      5  H   UNL     1      -0.984   6.776  -3.303  1.00  0.00     0.163 HD
BRANCH   3   6
ATOM      6  C   UNL     1      -1.199   3.467  -3.904  1.00  0.00     0.128 C 
BRANCH   6   7
ATOM      7  C   UNL     1       0.153   2.713  -3.950  1.00  0.00     0.136 C 
BRANCH   7   8
ATOM      8  N   UNL     1       0.878   2.695  -2.679  1.00  0.00    -0.337 N 
ATOM      9  C   UNL     1       0.980   1.984  -1.550  1.00  0.00     0.317 C 
ATOM     10  O   UNL     1       1.759   2.486  -0.729  1.00  0.00    -0.249 OA
ATOM     11  H   UNL     1       1.495   3.461  -2.642  1.00  0.00     0.165 HD
BRANCH   9  12
ATOM     12  N   UNL     1       0.324   0.822  -1.281  1.00  0.00    -0.325 N 
ATOM     13  C   UNL     1       0.672   0.191  -0.006  1.00  0.00     0.148 C 
BRANCH  12  14
ATOM     14  C   UNL     1      -0.686   0.097  -2.063  1.00  0.00     0.155 C 
BRANCH  14  15
ATOM     15  C   UNL     1      -2.128   0.085  -1.476  1.00  0.00     0.077 C 
ATOM     16  C   UNL     1      -2.715   1.486  -1.327  1.00  0.00     0.043 C 
ATOM     17  C   UNL     1      -3.029  -0.762  -2.386  1.00  0.00     0.043 C 
BRANCH  15  18
ATOM     18  O   UNL     1      -2.135  -0.538  -0.185  1.00  0.00    -0.389 OA
ATOM     19  H   UNL     1      -1.574  -0.030   0.422  1.00  0.00     0.211 HD
ENDBRANCH  15  18
ENDBRANCH  14  15
ENDBRANCH  12  14
ENDBRANCH   9  12
ENDBRANCH   7   8
ENDBRANCH   6   7
BRANCH   6  20
ATOM     20  C   UNL     1      -2.311   2.935  -4.834  1.00  0.00    -0.034 A 
ATOM     21  C   UNL     1      -3.456   3.724  -5.075  1.00  0.00     0.004 A 
ATOM     22  C   UNL     1      -2.300   1.647  -5.393  1.00  0.00     0.004 A 
ATOM     23  C   UNL     1      -4.516   3.260  -5.862  1.00  0.00     0.000 A 
ATOM     24  C   UNL     1      -3.369   1.174  -6.164  1.00  0.00     0.000 A 
ATOM     25  C   UNL     1      -4.474   1.981  -6.403  1.00  0.00     0.000 A 
ENDBRANCH   6  20
ENDBRANCH   3   6
ENDBRANCH   1   2
BRANCH   1  26
ATOM     26  C   UNL     1       1.106   5.815  -1.580  1.00  0.00     0.021 C 
BRANCH  26  27
ATOM     27  C   UNL     1       1.461   7.292  -1.405  1.00  0.00     0.002 C 
BRANCH  27  28
ATOM     28  C   UNL     1       1.032   7.894  -0.065  1.00  0.00     0.002 C 
BRANCH  28  29
ATOM     29  C   UNL     1       1.566   7.172   1.177  1.00  0.00     0.021 C 
BRANCH  29  30
ATOM     30  C   UNL     1       3.078   6.956   1.206  1.00  0.00     0.116 C 
BRANCH  30  31
ATOM     31  N   UNL     1       3.810   8.203   1.062  1.00  0.00    -0.352 N 
ATOM     32  C   UNL     1       4.770   8.765   1.861  1.00  0.00     0.251 C 
ATOM     33  H   UNL     1       3.579   8.728   0.261  1.00  0.00     0.163 HD
ATOM     34  O   UNL     1       5.120   9.925   1.665  1.00  0.00    -0.269 OA
BRANCH  32  35
ATOM     35  C   UNL     1       5.381   7.992   2.964  1.00  0.00     0.039 A 
ATOM     36  C   UNL     1       5.630   8.648   4.173  1.00  0.00     0.014 A 
ATOM     37  C   UNL     1       5.758   6.656   2.803  1.00  0.00     0.014 A 
ATOM     38  C   UNL     1       6.221   7.955   5.229  1.00  0.00     0.010 A 
ATOM     39  C   UNL     1       6.286   5.945   3.880  1.00  0.00     0.010 A 
ATOM     40  C   UNL     1       6.534   6.591   5.099  1.00  0.00    -0.014 A 
BRANCH  40  41
ATOM     41  C   UNL     1       7.119   5.848   6.243  1.00  0.00     0.031 A 
ATOM     42  C   UNL     1       8.523   5.316   6.177  1.00  0.00     0.074 A 
ATOM     43  C   UNL     1       6.370   5.640   7.343  1.00  0.00     0.049 A 
ATOM     44  N   UNL     1       9.212   4.689   7.097  1.00  0.00    -0.248 NA
ATOM     45  C   UNL     1       9.243   5.491   4.906  1.00  0.00     0.031 C 
ATOM     46  C   UNL     1       4.974   6.052   7.504  1.00  0.00     0.029 A 
ATOM     47  N   UNL     1       6.678   5.038   8.536  1.00  0.00    -0.354 N 
ATOM     48  C   UNL     1      10.439   4.393   6.517  1.00  0.00     0.074 A 
ATOM     49  C   UNL     1      10.382   4.859   5.149  1.00  0.00     0.031 C 
ATOM     50  C   UNL     1       4.559   5.725   8.738  1.00  0.00     0.029 A 
ATOM     51  C   UNL     1       5.649   5.060   9.444  1.00  0.00     0.049 A 
ATOM     52  H   UNL     1       7.554   4.629   8.723  1.00  0.00     0.167 HD
ATOM     53  C   UNL     1      11.524   3.809   7.081  1.00  0.00     0.037 A 
ATOM     54  C   UNL     1       5.593   4.605  10.710  1.00  0.00     0.037 A 
ATOM     55  C   UNL     1      11.584   3.361   8.448  1.00  0.00     0.049 A 
ATOM     56  C   UNL     1       6.817   3.979  11.318  1.00  0.00     0.074 A 
ATOM     57  C   UNL     1      12.655   2.808   9.130  1.00  0.00     0.029 A 
ATOM     58  N   UNL     1      10.525   3.410   9.341  1.00  0.00    -0.354 N 
ATOM     59  N   UNL     1       7.997   3.780  10.783  1.00  0.00    -0.248 NA
ATOM     60  C   UNL     1       6.703   3.527  12.711  1.00  0.00     0.031 C 
ATOM     61  C   UNL     1      12.231   2.486  10.424  1.00  0.00     0.029 A 
ATOM     62  C   UNL     1      10.910   2.881  10.563  1.00  0.00     0.049 A 
ATOM     63  H   UNL     1       9.630   3.768   9.138  1.00  0.00     0.167 HD
ATOM     64  C   UNL     1       8.773   3.202  11.779  1.00  0.00     0.074 A 
ATOM     65  C   UNL     1       7.935   3.105  12.957  1.00  0.00     0.031 C 
ATOM     66  C   UNL     1      10.062   2.787  11.724  1.00  0.00     0.037 A 
BRANCH  53  67
ATOM     67  C   UNL     1      12.740   3.630   6.217  1.00  0.00     0.057 A 
ATOM     68  C   UNL     1      13.521   4.719   5.806  1.00  0.00     0.134 A 
ATOM     69  C   UNL     1      13.156   2.353   5.819  1.00  0.00     0.134 A 
ATOM     70  F   UNL     1      13.172   5.970   6.143  1.00  0.00    -0.206 F 
ATOM     71  C   UNL     1      14.655   4.547   5.011  1.00  0.00     0.040 A 
ATOM     72  C   UNL     1      14.303   2.166   5.046  1.00  0.00     0.040 A 
ATOM     73  F   UNL     1      12.459   1.265   6.182  1.00  0.00    -0.206 F 
ATOM     74  C   UNL     1      15.053   3.266   4.634  1.00  0.00     0.006 A 
ENDBRANCH  53  67
BRANCH  54  75
ATOM     75  C   UNL     1       4.348   4.763  11.501  1.00  0.00     0.057 A 
ATOM     76  C   UNL     1       4.282   5.663  12.571  1.00  0.00     0.134 A 
ATOM     77  C   UNL     1       3.198   4.020  11.211  1.00  0.00     0.134 A 
ATOM     78  F   UNL     1       5.357   6.392  12.908  1.00  0.00    -0.206 F 
ATOM     79  C   UNL     1       3.125   5.804  13.338  1.00  0.00     0.040 A 
ATOM     80  C   UNL     1       2.026   4.168  11.954  1.00  0.00     0.040 A 
ATOM     81  F   UNL     1       3.195   3.147  10.193  1.00  0.00    -0.206 F 
ATOM     82  C   UNL     1       1.990   5.057  13.027  1.00  0.00     0.006 A 
ENDBRANCH  54  75
BRANCH  66  83
ATOM     83  C   UNL     1      10.644   2.212  12.982  1.00  0.00     0.057 A 
ATOM     84  C   UNL     1      10.255   0.958  13.471  1.00  0.00     0.134 A 
ATOM     85  C   UNL     1      11.611   2.918  13.709  1.00  0.00     0.134 A 
ATOM     86  F   UNL     1       9.323   0.237  12.829  1.00  0.00    -0.206 F 
ATOM     87  C   UNL     1      10.781   0.442  14.657  1.00  0.00     0.040 A 
ATOM     88  C   UNL     1      12.165   2.400  14.880  1.00  0.00     0.040 A 
ATOM     89  F   UNL     1      12.035   4.120  13.291  1.00  0.00    -0.206 F 
ATOM     90  C   UNL     1      11.742   1.163  15.363  1.00  0.00     0.006 A 
ENDBRANCH  66  83
ENDBRANCH  40  41
ENDBRANCH  32  35
ENDBRANCH  30  31
ENDBRANCH  29  30
ENDBRANCH  28  29
ENDBRANCH  27  28
ENDBRANCH  26  27
ENDBRANCH   1  26
TORSDOF 20
