REMARK SMILES O=C(NCCCCCCNC(=O)[C@@H]1C=C[C@H](NC(=O)c2ccc(Br)cc2)C1)c1ccc(-c2c3nc(c(-c4c(F)cccc4F)c4ccc([nH]4)c(-c4c(F)cccc4F)c4nc(c(-c5c(F)cccc5F)c5ccc2[nH]5)C=C4)C=C3)cc1
REMARK SMILES IDX 6 1 5 2 4 3 3 4 1 5 2 6 28 8 29 9 81 10 30 11 80 12 31 13
REMARK SMILES IDX 32 14 33 15 74 16 34 17 79 18 73 19 75 20 35 21 78 22 72 23
REMARK SMILES IDX 71 24 36 26 62 27 45 28 61 29 46 30 49 31 60 32 76 33 47 34
REMARK SMILES IDX 48 35 59 37 77 38 50 39 37 40 38 41 43 42 39 43 40 44 42 45
REMARK SMILES IDX 44 46 41 47 63 48 64 49 69 50 65 51 66 52 68 53 70 54 67 55
REMARK SMILES IDX 51 56 52 57 57 58 53 59 54 60 56 61 58 62 55 63 7 64 8 65
REMARK SMILES IDX 9 66 10 67 11 68 12 70 13 71 14 72 27 73 15 74 16 75 17 76
REMARK SMILES IDX 18 77 19 79 20 80 21 81 26 82 22 83 25 84 23 85 24 86
REMARK H PARENT 3 7 75 25 49 36 10 69 17 78
REMARK Flexibility Score: inf
ROOT
ATOM      1  C   UNL     1       8.030  10.686  -2.975  1.00  0.00     0.002 C 
ENDROOT
BRANCH   1   2
ATOM      2  C   UNL     1       7.298  12.008  -2.781  1.00  0.00     0.021 C 
BRANCH   2   3
ATOM      3  C   UNL     1       8.180  13.238  -2.920  1.00  0.00     0.116 C 
BRANCH   3   4
ATOM      4  N   UNL     1       8.630  13.462  -4.286  1.00  0.00    -0.352 N 
ATOM      5  O   UNL     1       8.896  14.683  -6.181  1.00  0.00    -0.269 OA
ATOM      6  C   UNL     1       8.613  14.644  -4.990  1.00  0.00     0.251 C 
ATOM      7  H   UNL     1       8.986  12.677  -4.761  1.00  0.00     0.163 HD
BRANCH   6   8
ATOM      8  C   UNL     1       8.217  15.873  -4.276  1.00  0.00     0.039 A 
ATOM      9  C   UNL     1       8.836  16.197  -3.065  1.00  0.00     0.014 A 
ATOM     10  C   UNL     1       7.183  16.663  -4.784  1.00  0.00     0.014 A 
ATOM     11  C   UNL     1       8.335  17.239  -2.299  1.00  0.00     0.010 A 
ATOM     12  C   UNL     1       6.736  17.764  -4.049  1.00  0.00     0.010 A 
ATOM     13  C   UNL     1       7.297  18.048  -2.794  1.00  0.00    -0.014 A 
BRANCH  13  14
ATOM     14  C   UNL     1       6.898  19.251  -2.025  1.00  0.00     0.031 A 
ATOM     15  C   UNL     1       5.535  19.381  -1.411  1.00  0.00     0.074 A 
ATOM     16  C   UNL     1       7.813  20.229  -1.876  1.00  0.00     0.049 A 
ATOM     17  N   UNL     1       5.042  20.374  -0.715  1.00  0.00    -0.248 NA
ATOM     18  C   UNL     1       4.599  18.262  -1.605  1.00  0.00     0.031 C 
ATOM     19  C   UNL     1       9.163  20.210  -2.447  1.00  0.00     0.029 A 
ATOM     20  N   UNL     1       7.758  21.415  -1.194  1.00  0.00    -0.354 N 
ATOM     21  C   UNL     1       3.736  20.015  -0.407  1.00  0.00     0.074 A 
ATOM     22  C   UNL     1       3.507  18.714  -1.000  1.00  0.00     0.031 C 
ATOM     23  C   UNL     1       9.822  21.309  -2.058  1.00  0.00     0.029 A 
ATOM     24  C   UNL     1       8.922  22.141  -1.270  1.00  0.00     0.049 A 
ATOM     25  H   UNL     1       6.964  21.718  -0.699  1.00  0.00     0.167 HD
ATOM     26  C   UNL     1       2.820  20.712   0.306  1.00  0.00     0.037 A 
ATOM     27  C   UNL     1       9.225  23.357  -0.782  1.00  0.00     0.037 A 
ATOM     28  C   UNL     1       3.068  21.998   0.909  1.00  0.00     0.049 A 
ATOM     29  C   UNL     1       8.184  24.105  -0.009  1.00  0.00     0.074 A 
ATOM     30  C   UNL     1       2.219  22.760   1.694  1.00  0.00     0.029 A 
ATOM     31  N   UNL     1       4.250  22.713   0.790  1.00  0.00    -0.354 N 
ATOM     32  N   UNL     1       6.966  23.735   0.305  1.00  0.00    -0.248 NA
ATOM     33  C   UNL     1       8.552  25.444   0.469  1.00  0.00     0.031 C 
ATOM     34  C   UNL     1       2.873  23.954   2.015  1.00  0.00     0.029 A 
ATOM     35  C   UNL     1       4.144  23.919   1.465  1.00  0.00     0.049 A 
ATOM     36  H   UNL     1       5.047  22.410   0.299  1.00  0.00     0.167 HD
ATOM     37  C   UNL     1       6.424  24.790   1.022  1.00  0.00     0.074 A 
ATOM     38  C   UNL     1       7.455  25.803   1.121  1.00  0.00     0.031 C 
ATOM     39  C   UNL     1       5.180  24.915   1.544  1.00  0.00     0.037 A 
BRANCH  26  40
ATOM     40  C   UNL     1       1.451  20.119   0.469  1.00  0.00     0.057 A 
ATOM     41  C   UNL     1       1.202  19.062   1.353  1.00  0.00     0.134 A 
ATOM     42  C   UNL     1       0.352  20.674  -0.201  1.00  0.00     0.134 A 
ATOM     43  F   UNL     1       2.212  18.482   2.020  1.00  0.00    -0.206 F 
ATOM     44  C   UNL     1      -0.090  18.575   1.562  1.00  0.00     0.040 A 
ATOM     45  C   UNL     1      -0.946  20.208   0.014  1.00  0.00     0.040 A 
ATOM     46  F   UNL     1       0.520  21.693  -1.056  1.00  0.00    -0.206 F 
ATOM     47  C   UNL     1      -1.170  19.155   0.898  1.00  0.00     0.006 A 
ENDBRANCH  26  40
BRANCH  27  48
ATOM     48  C   UNL     1      10.563  23.942  -1.041  1.00  0.00     0.057 A 
ATOM     49  C   UNL     1      11.491  24.114  -0.009  1.00  0.00     0.134 A 
ATOM     50  C   UNL     1      10.947  24.333  -2.329  1.00  0.00     0.134 A 
ATOM     51  F   UNL     1      11.174  23.772   1.249  1.00  0.00    -0.206 F 
ATOM     52  C   UNL     1      12.750  24.668  -0.246  1.00  0.00     0.040 A 
ATOM     53  C   UNL     1      12.212  24.861  -2.586  1.00  0.00     0.040 A 
ATOM     54  F   UNL     1      10.105  24.183  -3.362  1.00  0.00    -0.206 F 
ATOM     55  C   UNL     1      13.115  25.037  -1.540  1.00  0.00     0.006 A 
ENDBRANCH  27  48
BRANCH  39  56
ATOM     56  C   UNL     1       4.883  26.188   2.276  1.00  0.00     0.057 A 
ATOM     57  C   UNL     1       4.683  27.395   1.594  1.00  0.00     0.134 A 
ATOM     58  C   UNL     1       4.787  26.205   3.672  1.00  0.00     0.134 A 
ATOM     59  F   UNL     1       4.780  27.445   0.257  1.00  0.00    -0.206 F 
ATOM     60  C   UNL     1       4.422  28.582   2.279  1.00  0.00     0.040 A 
ATOM     61  C   UNL     1       4.503  27.381   4.367  1.00  0.00     0.040 A 
ATOM     62  F   UNL     1       4.964  25.080   4.381  1.00  0.00    -0.206 F 
ATOM     63  C   UNL     1       4.326  28.575   3.670  1.00  0.00     0.006 A 
ENDBRANCH  39  56
ENDBRANCH  13  14
ENDBRANCH   6   8
ENDBRANCH   3   4
ENDBRANCH   2   3
ENDBRANCH   1   2
BRANCH   1  64
ATOM     64  C   UNL     1       9.196  10.447  -2.016  1.00  0.00     0.002 C 
BRANCH  64  65
ATOM     65  C   UNL     1       8.872  10.500  -0.517  1.00  0.00     0.021 C 
BRANCH  65  66
ATOM     66  C   UNL     1       7.767   9.543  -0.062  1.00  0.00     0.116 C 
BRANCH  66  67
ATOM     67  N   UNL     1       8.037   8.175  -0.448  1.00  0.00    -0.356 N 
ATOM     68  C   UNL     1       8.463   7.097   0.263  1.00  0.00     0.227 C 
ATOM     69  H   UNL     1       7.884   7.990  -1.403  1.00  0.00     0.163 HD
ATOM     70  O   UNL     1       8.490   6.023  -0.345  1.00  0.00    -0.274 OA
BRANCH  68  71
ATOM     71  C   UNL     1       8.758   7.184   1.770  1.00  0.00     0.103 C 
ATOM     72  C   UNL     1       9.712   8.255   2.217  1.00  0.00    -0.016 C 
ATOM     73  C   UNL     1       9.438   5.885   2.281  1.00  0.00     0.047 C 
ATOM     74  C   UNL     1      10.751   7.779   2.908  1.00  0.00    -0.006 C 
ATOM     75  C   UNL     1      10.688   6.307   3.058  1.00  0.00     0.106 C 
BRANCH  75  76
ATOM     76  N   UNL     1      11.951   5.698   2.696  1.00  0.00    -0.346 N 
ATOM     77  C   UNL     1      12.613   5.495   1.517  1.00  0.00     0.251 C 
ATOM     78  H   UNL     1      12.444   5.353   3.474  1.00  0.00     0.164 HD
ATOM     79  O   UNL     1      13.683   4.891   1.523  1.00  0.00    -0.269 OA
BRANCH  77  80
ATOM     80  C   UNL     1      12.083   5.955   0.226  1.00  0.00     0.039 A 
ATOM     81  C   UNL     1      12.098   7.308  -0.116  1.00  0.00     0.015 A 
ATOM     82  C   UNL     1      11.719   4.990  -0.721  1.00  0.00     0.015 A 
ATOM     83  C   UNL     1      11.698   7.700  -1.396  1.00  0.00     0.016 A 
ATOM     84  C   UNL     1      11.307   5.385  -1.996  1.00  0.00     0.016 A 
ATOM     85  C   UNL     1      11.292   6.739  -2.325  1.00  0.00     0.018 A 
ATOM     86  Br  UNL     1      10.734   7.267  -4.054  1.00  0.00    -0.051 Br
ENDBRANCH  77  80
ENDBRANCH  75  76
ENDBRANCH  68  71
ENDBRANCH  66  67
ENDBRANCH  65  66
ENDBRANCH  64  65
ENDBRANCH   1  64
TORSDOF 15
