REMARK SMILES C[C@H](CN(C)C(=O)CCc1nc2ccccc2o1)C(=O)NCCCCCCNC(=O)c1ccc(-c2c3nc(c(-c4c(F)cccc4F)c4ccc([nH]4)c(-c4c(F)cccc4F)c4nc(c(-c5c(F)cccc5F)c5ccc2[nH]5)C=C4)C=C3)cc1
REMARK SMILES IDX 22 1 21 2 19 3 20 4 2 6 1 7 3 8 4 9 5 10 6 11 7 12 8 13 9 14
REMARK SMILES IDX 10 15 11 16 18 17 12 18 17 19 13 20 16 21 14 22 15 23 23 24
REMARK SMILES IDX 24 25 25 26 26 27 27 28 28 29 29 30 30 32 31 33 32 34 84 35
REMARK SMILES IDX 33 36 83 37 34 38 35 39 36 40 77 41 37 42 82 43 76 44 78 45
REMARK SMILES IDX 38 46 81 47 75 48 74 49 39 51 65 52 48 53 64 54 49 55 52 56
REMARK SMILES IDX 63 57 79 58 50 59 51 60 62 62 80 63 53 64 40 65 41 66 46 67
REMARK SMILES IDX 42 68 43 69 45 70 47 71 44 72 66 73 67 74 72 75 68 76 69 77
REMARK SMILES IDX 71 78 73 79 70 80 54 81 55 82 60 83 56 84 57 85 59 86 61 87
REMARK SMILES IDX 58 88
REMARK H PARENT 21 5 28 31 78 50 52 61
REMARK Flexibility Score: inf
ROOT
ATOM      1  C   UNL     1      -1.714  -0.773   1.902  1.00  0.00     0.116 C 
ENDROOT
BRANCH   1   2
ATOM      2  N   UNL     1      -1.983  -1.121   0.524  1.00  0.00    -0.356 N 
ATOM      3  C   UNL     1      -1.109  -1.372  -0.489  1.00  0.00     0.224 C 
ATOM      4  O   UNL     1      -1.577  -1.581  -1.612  1.00  0.00    -0.275 OA
ATOM      5  H   UNL     1      -2.936  -1.185   0.284  1.00  0.00     0.163 HD
BRANCH   3   6
ATOM      6  C   UNL     1       0.399  -1.450  -0.252  1.00  0.00     0.095 C 
ATOM      7  C   UNL     1       0.745  -2.704   0.548  1.00  0.00     0.020 C 
BRANCH   6   8
ATOM      8  C   UNL     1       0.986  -0.109   0.230  1.00  0.00     0.132 C 
BRANCH   8   9
ATOM      9  N   UNL     1       2.243  -0.192   0.987  1.00  0.00    -0.345 N 
ATOM     10  C   UNL     1       3.433   0.190   0.252  1.00  0.00     0.146 C 
BRANCH   9  11
ATOM     11  C   UNL     1       2.212  -0.387   2.361  1.00  0.00     0.222 C 
ATOM     12  O   UNL     1       1.180  -0.207   3.015  1.00  0.00    -0.275 OA
BRANCH  11  13
ATOM     13  C   UNL     1       3.445  -0.877   3.108  1.00  0.00     0.110 C 
BRANCH  13  14
ATOM     14  C   UNL     1       3.808  -2.338   2.814  1.00  0.00     0.107 C 
BRANCH  14  15
ATOM     15  C   UNL     1       4.751  -2.441   1.672  1.00  0.00     0.195 A 
ATOM     16  N   UNL     1       5.708  -1.594   1.347  1.00  0.00    -0.214 NA
ATOM     17  O   UNL     1       4.499  -3.412   0.737  1.00  0.00    -0.441 OA
ATOM     18  C   UNL     1       5.969  -1.898   0.039  1.00  0.00     0.109 A 
ATOM     19  C   UNL     1       5.263  -3.031  -0.331  1.00  0.00     0.154 A 
ATOM     20  C   UNL     1       6.695  -1.193  -0.927  1.00  0.00     0.032 A 
ATOM     21  C   UNL     1       5.270  -3.580  -1.605  1.00  0.00     0.049 A 
ATOM     22  C   UNL     1       6.663  -1.671  -2.243  1.00  0.00     0.003 A 
ATOM     23  C   UNL     1       5.980  -2.851  -2.569  1.00  0.00     0.004 A 
ENDBRANCH  14  15
ENDBRANCH  13  14
ENDBRANCH  11  13
ENDBRANCH   9  11
ENDBRANCH   8   9
ENDBRANCH   6   8
ENDBRANCH   3   6
ENDBRANCH   1   2
BRANCH   1  24
ATOM     24  C   UNL     1      -2.000   0.706   2.166  1.00  0.00     0.021 C 
BRANCH  24  25
ATOM     25  C   UNL     1      -3.445   0.963   2.589  1.00  0.00     0.002 C 
BRANCH  25  26
ATOM     26  C   UNL     1      -3.848   0.263   3.892  1.00  0.00     0.002 C 
BRANCH  26  27
ATOM     27  C   UNL     1      -2.964   0.593   5.099  1.00  0.00     0.021 C 
BRANCH  27  28
ATOM     28  C   UNL     1      -2.920   2.076   5.452  1.00  0.00     0.116 C 
BRANCH  28  29
ATOM     29  N   UNL     1      -4.253   2.600   5.712  1.00  0.00    -0.352 N 
ATOM     30  C   UNL     1      -4.756   3.191   6.840  1.00  0.00     0.251 C 
ATOM     31  H   UNL     1      -4.888   2.517   4.964  1.00  0.00     0.163 HD
ATOM     32  O   UNL     1      -5.966   3.330   6.976  1.00  0.00    -0.269 OA
BRANCH  30  33
ATOM     33  C   UNL     1      -3.836   3.666   7.892  1.00  0.00     0.039 A 
ATOM     34  C   UNL     1      -4.178   3.464   9.231  1.00  0.00     0.014 A 
ATOM     35  C   UNL     1      -2.661   4.347   7.558  1.00  0.00     0.014 A 
ATOM     36  C   UNL     1      -3.323   3.915  10.236  1.00  0.00     0.010 A 
ATOM     37  C   UNL     1      -1.774   4.729   8.559  1.00  0.00     0.010 A 
ATOM     38  C   UNL     1      -2.105   4.532   9.907  1.00  0.00    -0.014 A 
BRANCH  38  39
ATOM     39  C   UNL     1      -1.179   5.005  10.964  1.00  0.00     0.031 A 
ATOM     40  C   UNL     1      -0.891   6.474  11.110  1.00  0.00     0.074 A 
ATOM     41  C   UNL     1      -0.566   4.109  11.761  1.00  0.00     0.049 A 
ATOM     42  N   UNL     1      -0.075   7.078  11.936  1.00  0.00    -0.248 NA
ATOM     43  C   UNL     1      -1.594   7.382  10.190  1.00  0.00     0.031 C 
ATOM     44  C   UNL     1      -0.730   2.656  11.684  1.00  0.00     0.029 A 
ATOM     45  N   UNL     1       0.324   4.290  12.788  1.00  0.00    -0.354 N 
ATOM     46  C   UNL     1      -0.166   8.431  11.633  1.00  0.00     0.074 A 
ATOM     47  C   UNL     1      -1.063   8.554  10.505  1.00  0.00     0.031 C 
ATOM     48  C   UNL     1       0.019   2.079  12.638  1.00  0.00     0.029 A 
ATOM     49  C   UNL     1       0.740   3.116  13.368  1.00  0.00     0.049 A 
ATOM     50  H   UNL     1       0.636   5.176  13.082  1.00  0.00     0.167 HD
ATOM     51  C   UNL     1       0.422   9.480  12.257  1.00  0.00     0.037 A 
ATOM     52  C   UNL     1       1.611   2.903  14.372  1.00  0.00     0.037 A 
ATOM     53  C   UNL     1       1.305   9.355  13.386  1.00  0.00     0.049 A 
ATOM     54  C   UNL     1       2.259   4.085  15.040  1.00  0.00     0.074 A 
ATOM     55  C   UNL     1       1.934  10.355  14.106  1.00  0.00     0.029 A 
ATOM     56  N   UNL     1       1.682   8.150  13.962  1.00  0.00    -0.354 N 
ATOM     57  N   UNL     1       2.122   5.362  14.778  1.00  0.00    -0.248 NA
ATOM     58  C   UNL     1       3.174   3.795  16.153  1.00  0.00     0.031 C 
ATOM     59  C   UNL     1       2.720   9.755  15.095  1.00  0.00     0.029 A 
ATOM     60  C   UNL     1       2.542   8.383  15.023  1.00  0.00     0.049 A 
ATOM     61  H   UNL     1       1.383   7.262  13.660  1.00  0.00     0.167 HD
ATOM     62  C   UNL     1       2.904   6.028  15.714  1.00  0.00     0.074 A 
ATOM     63  C   UNL     1       3.499   5.013  16.558  1.00  0.00     0.031 C 
ATOM     64  C   UNL     1       3.111   7.360  15.862  1.00  0.00     0.037 A 
BRANCH  51  65
ATOM     65  C   UNL     1       0.113  10.854  11.736  1.00  0.00     0.057 A 
ATOM     66  C   UNL     1      -1.156  11.431  11.893  1.00  0.00     0.134 A 
ATOM     67  C   UNL     1       1.095  11.622  11.100  1.00  0.00     0.134 A 
ATOM     68  F   UNL     1      -2.147  10.744  12.481  1.00  0.00    -0.206 F 
ATOM     69  C   UNL     1      -1.442  12.709  11.412  1.00  0.00     0.040 A 
ATOM     70  C   UNL     1       0.829  12.913  10.641  1.00  0.00     0.040 A 
ATOM     71  F   UNL     1       2.333  11.135  10.922  1.00  0.00    -0.206 F 
ATOM     72  C   UNL     1      -0.445  13.457  10.790  1.00  0.00     0.006 A 
ENDBRANCH  51  65
BRANCH  52  73
ATOM     73  C   UNL     1       1.908   1.520  14.824  1.00  0.00     0.057 A 
ATOM     74  C   UNL     1       1.496   1.065  16.082  1.00  0.00     0.134 A 
ATOM     75  C   UNL     1       2.632   0.630  14.023  1.00  0.00     0.134 A 
ATOM     76  F   UNL     1       0.812   1.877  16.903  1.00  0.00    -0.206 F 
ATOM     77  C   UNL     1       1.820  -0.212  16.541  1.00  0.00     0.040 A 
ATOM     78  C   UNL     1       2.939  -0.661  14.457  1.00  0.00     0.040 A 
ATOM     79  F   UNL     1       3.047   1.000  12.802  1.00  0.00    -0.206 F 
ATOM     80  C   UNL     1       2.542  -1.081  15.725  1.00  0.00     0.006 A 
ENDBRANCH  52  73
BRANCH  64  81
ATOM     81  C   UNL     1       3.976   7.794  17.009  1.00  0.00     0.057 A 
ATOM     82  C   UNL     1       5.361   7.581  17.018  1.00  0.00     0.134 A 
ATOM     83  C   UNL     1       3.416   8.455  18.109  1.00  0.00     0.134 A 
ATOM     84  F   UNL     1       5.958   6.942  16.001  1.00  0.00    -0.206 F 
ATOM     85  C   UNL     1       6.152   7.984  18.095  1.00  0.00     0.040 A 
ATOM     86  C   UNL     1       4.201   8.889  19.178  1.00  0.00     0.040 A 
ATOM     87  F   UNL     1       2.097   8.700  18.159  1.00  0.00    -0.206 F 
ATOM     88  C   UNL     1       5.572   8.646  19.176  1.00  0.00     0.006 A 
ENDBRANCH  64  81
ENDBRANCH  38  39
ENDBRANCH  30  33
ENDBRANCH  28  29
ENDBRANCH  27  28
ENDBRANCH  26  27
ENDBRANCH  25  26
ENDBRANCH  24  25
ENDBRANCH   1  24
TORSDOF 19
