REMARK SMILES O=C(NCCCCCCNC(=O)[C@H]1CCCN(c2cc(-c3ccccn3)nc(-c3ccccc3F)n2)C1)c1ccc(-c2c3nc(c(-c4c(F)cccc4F)c4ccc([nH]4)c(-c4c(F)cccc4F)c4nc(c(-c5c(F)cccc5F)c5ccc2[nH]5)C=C4)C=C3)cc1
REMARK SMILES IDX 6 1 5 2 4 3 3 4 1 5 2 6 38 8 39 9 91 10 40 11 90 12 41 13
REMARK SMILES IDX 42 14 43 15 84 16 44 17 89 18 83 19 85 20 45 21 88 22 82 23
REMARK SMILES IDX 81 24 46 26 72 27 55 28 71 29 56 30 59 31 70 32 86 33 57 34
REMARK SMILES IDX 58 35 69 37 87 38 60 39 47 40 48 41 53 42 49 43 50 44 52 45
REMARK SMILES IDX 54 46 51 47 73 48 74 49 79 50 75 51 76 52 78 53 80 54 77 55
REMARK SMILES IDX 61 56 62 57 67 58 63 59 64 60 66 61 68 62 65 63 7 64 8 65
REMARK SMILES IDX 9 66 10 67 11 68 12 70 13 71 14 72 37 73 15 74 17 75 16 76
REMARK SMILES IDX 18 77 19 78 36 79 20 80 28 81 27 82 21 83 22 84 26 85 23 86
REMARK SMILES IDX 25 87 24 88 29 89 30 90 34 91 31 92 33 93 35 94 32 95
REMARK H PARENT 3 7 85 25 59 36 10 69
REMARK Flexibility Score: inf
ROOT
ATOM      1  C   UNL     1       5.383  -2.069   3.346  1.00  0.00     0.002 C 
ENDROOT
BRANCH   1   2
ATOM      2  C   UNL     1       4.080  -2.417   4.065  1.00  0.00     0.021 C 
BRANCH   2   3
ATOM      3  C   UNL     1       2.880  -1.597   3.614  1.00  0.00     0.116 C 
BRANCH   3   4
ATOM      4  N   UNL     1       2.504  -1.892   2.241  1.00  0.00    -0.352 N 
ATOM      5  O   UNL     1       1.193  -2.713   0.596  1.00  0.00    -0.269 OA
ATOM      6  C   UNL     1       1.295  -2.319   1.754  1.00  0.00     0.251 C 
ATOM      7  H   UNL     1       3.214  -1.769   1.570  1.00  0.00     0.163 HD
BRANCH   6   8
ATOM      8  C   UNL     1       0.114  -2.317   2.642  1.00  0.00     0.039 A 
ATOM      9  C   UNL     1      -0.156  -1.213   3.454  1.00  0.00     0.014 A 
ATOM     10  C   UNL     1      -0.735  -3.426   2.654  1.00  0.00     0.014 A 
ATOM     11  C   UNL     1      -1.200  -1.269   4.369  1.00  0.00     0.010 A 
ATOM     12  C   UNL     1      -1.836  -3.445   3.513  1.00  0.00     0.010 A 
ATOM     13  C   UNL     1      -2.065  -2.374   4.390  1.00  0.00    -0.014 A 
BRANCH  13  14
ATOM     14  C   UNL     1      -3.256  -2.344   5.273  1.00  0.00     0.031 A 
ATOM     15  C   UNL     1      -3.414  -3.311   6.409  1.00  0.00     0.074 A 
ATOM     16  C   UNL     1      -4.198  -1.409   5.040  1.00  0.00     0.049 A 
ATOM     17  N   UNL     1      -4.394  -3.409   7.272  1.00  0.00    -0.248 NA
ATOM     18  C   UNL     1      -2.342  -4.299   6.603  1.00  0.00     0.031 C 
ATOM     19  C   UNL     1      -4.153  -0.427   3.954  1.00  0.00     0.029 A 
ATOM     20  N   UNL     1      -5.362  -1.120   5.702  1.00  0.00    -0.354 N 
ATOM     21  C   UNL     1      -4.069  -4.477   8.097  1.00  0.00     0.074 A 
ATOM     22  C   UNL     1      -2.811  -5.010   7.621  1.00  0.00     0.031 C 
ATOM     23  C   UNL     1      -5.215   0.384   4.051  1.00  0.00     0.029 A 
ATOM     24  C   UNL     1      -6.049  -0.060   5.162  1.00  0.00     0.049 A 
ATOM     25  H   UNL     1      -5.676  -1.623   6.488  1.00  0.00     0.167 HD
ATOM     26  C   UNL     1      -4.760  -4.960   9.157  1.00  0.00     0.037 A 
ATOM     27  C   UNL     1      -7.229   0.485   5.506  1.00  0.00     0.037 A 
ATOM     28  C   UNL     1      -6.004  -4.409   9.633  1.00  0.00     0.049 A 
ATOM     29  C   UNL     1      -7.984  -0.084   6.669  1.00  0.00     0.074 A 
ATOM     30  C   UNL     1      -6.752  -4.798  10.731  1.00  0.00     0.029 A 
ATOM     31  N   UNL     1      -6.687  -3.358   9.037  1.00  0.00    -0.354 N 
ATOM     32  N   UNL     1      -7.648  -1.072   7.461  1.00  0.00    -0.248 NA
ATOM     33  C   UNL     1      -9.281   0.528   6.982  1.00  0.00     0.031 C 
ATOM     34  C   UNL     1      -7.912  -4.019  10.769  1.00  0.00     0.029 A 
ATOM     35  C   UNL     1      -7.862  -3.107   9.727  1.00  0.00     0.049 A 
ATOM     36  H   UNL     1      -6.382  -2.865   8.241  1.00  0.00     0.167 HD
ATOM     37  C   UNL     1      -8.686  -1.198   8.372  1.00  0.00     0.074 A 
ATOM     38  C   UNL     1      -9.655  -0.171   8.046  1.00  0.00     0.031 C 
ATOM     39  C   UNL     1      -8.822  -2.087   9.386  1.00  0.00     0.037 A 
BRANCH  26  40
ATOM     40  C   UNL     1      -4.202  -6.153   9.878  1.00  0.00     0.057 A 
ATOM     41  C   UNL     1      -4.848  -7.394   9.804  1.00  0.00     0.134 A 
ATOM     42  C   UNL     1      -3.079  -6.059  10.708  1.00  0.00     0.134 A 
ATOM     43  F   UNL     1      -5.936  -7.551   9.034  1.00  0.00    -0.206 F 
ATOM     44  C   UNL     1      -4.404  -8.495  10.539  1.00  0.00     0.040 A 
ATOM     45  C   UNL     1      -2.611  -7.159  11.430  1.00  0.00     0.040 A 
ATOM     46  F   UNL     1      -2.409  -4.902  10.817  1.00  0.00    -0.206 F 
ATOM     47  C   UNL     1      -3.281  -8.379  11.354  1.00  0.00     0.006 A 
ENDBRANCH  26  40
BRANCH  27  48
ATOM     48  C   UNL     1      -7.749   1.634   4.725  1.00  0.00     0.057 A 
ATOM     49  C   UNL     1      -8.176   1.479   3.400  1.00  0.00     0.134 A 
ATOM     50  C   UNL     1      -7.764   2.925   5.262  1.00  0.00     0.134 A 
ATOM     51  F   UNL     1      -8.172   0.267   2.825  1.00  0.00    -0.206 F 
ATOM     52  C   UNL     1      -8.570   2.570   2.627  1.00  0.00     0.040 A 
ATOM     53  C   UNL     1      -8.181   4.023   4.508  1.00  0.00     0.040 A 
ATOM     54  F   UNL     1      -7.378   3.133   6.530  1.00  0.00    -0.206 F 
ATOM     55  C   UNL     1      -8.574   3.848   3.182  1.00  0.00     0.006 A 
ENDBRANCH  27  48
BRANCH  39  56
ATOM     56  C   UNL     1     -10.060  -1.990  10.226  1.00  0.00     0.057 A 
ATOM     57  C   UNL     1      -9.993  -1.532  11.548  1.00  0.00     0.134 A 
ATOM     58  C   UNL     1     -11.305  -2.418   9.750  1.00  0.00     0.134 A 
ATOM     59  F   UNL     1      -8.827  -1.116  12.066  1.00  0.00    -0.206 F 
ATOM     60  C   UNL     1     -11.118  -1.519  12.373  1.00  0.00     0.040 A 
ATOM     61  C   UNL     1     -12.443  -2.386  10.558  1.00  0.00     0.040 A 
ATOM     62  F   UNL     1     -11.438  -2.856   8.489  1.00  0.00    -0.206 F 
ATOM     63  C   UNL     1     -12.348  -1.946  11.877  1.00  0.00     0.006 A 
ENDBRANCH  39  56
ENDBRANCH  13  14
ENDBRANCH   6   8
ENDBRANCH   3   4
ENDBRANCH   2   3
ENDBRANCH   1   2
BRANCH   1  64
ATOM     64  C   UNL     1       5.820  -0.604   3.476  1.00  0.00     0.002 C 
BRANCH  64  65
ATOM     65  C   UNL     1       5.873  -0.067   4.914  1.00  0.00     0.021 C 
BRANCH  65  66
ATOM     66  C   UNL     1       6.753  -0.897   5.847  1.00  0.00     0.116 C 
BRANCH  66  67
ATOM     67  N   UNL     1       8.145  -0.787   5.461  1.00  0.00    -0.356 N 
ATOM     68  C   UNL     1       9.128  -0.018   6.003  1.00  0.00     0.224 C 
ATOM     69  H   UNL     1       8.418  -1.347   4.698  1.00  0.00     0.163 HD
ATOM     70  O   UNL     1      10.193   0.083   5.391  1.00  0.00    -0.275 OA
BRANCH  68  71
ATOM     71  C   UNL     1       8.925   0.598   7.372  1.00  0.00     0.098 C 
ATOM     72  C   UNL     1       9.627  -0.288   8.412  1.00  0.00     0.017 C 
ATOM     73  C   UNL     1       9.496   2.010   7.386  1.00  0.00     0.131 C 
ATOM     74  C   UNL     1       9.565   0.344   9.803  1.00  0.00     0.022 C 
ATOM     75  N   UNL     1       9.465   2.544   8.743  1.00  0.00    -0.356 N 
ATOM     76  C   UNL     1      10.113   1.773   9.796  1.00  0.00     0.118 C 
BRANCH  75  77
ATOM     77  C   UNL     1       8.560   3.537   9.064  1.00  0.00     0.133 A 
ATOM     78  C   UNL     1       9.018   4.635   9.761  1.00  0.00     0.077 A 
ATOM     79  N   UNL     1       7.290   3.458   8.633  1.00  0.00    -0.211 NA
ATOM     80  C   UNL     1       8.143   5.684   9.955  1.00  0.00     0.095 A 
ATOM     81  C   UNL     1       6.486   4.508   8.910  1.00  0.00     0.165 A 
ATOM     82  N   UNL     1       6.862   5.627   9.547  1.00  0.00    -0.226 NA
BRANCH  80  83
ATOM     83  C   UNL     1       8.611   6.950  10.533  1.00  0.00     0.089 A 
ATOM     84  C   UNL     1       9.632   7.681   9.921  1.00  0.00     0.030 A 
ATOM     85  N   UNL     1       8.039   7.345  11.699  1.00  0.00    -0.255 NA
ATOM     86  C   UNL     1      10.080   8.855  10.518  1.00  0.00     0.004 A 
ATOM     87  C   UNL     1       8.486   8.495  12.249  1.00  0.00     0.112 A 
ATOM     88  C   UNL     1       9.496   9.273  11.706  1.00  0.00     0.020 A 
ENDBRANCH  80  83
BRANCH  81  89
ATOM     89  C   UNL     1       5.077   4.413   8.538  1.00  0.00     0.055 A 
ATOM     90  C   UNL     1       4.249   3.401   9.060  1.00  0.00     0.015 A 
ATOM     91  C   UNL     1       4.487   5.363   7.696  1.00  0.00     0.134 A 
ATOM     92  C   UNL     1       2.881   3.363   8.762  1.00  0.00     0.001 A 
ATOM     93  C   UNL     1       3.126   5.325   7.387  1.00  0.00     0.040 A 
ATOM     94  F   UNL     1       5.229   6.337   7.145  1.00  0.00    -0.206 F 
ATOM     95  C   UNL     1       2.319   4.327   7.927  1.00  0.00     0.003 A 
ENDBRANCH  81  89
ENDBRANCH  75  77
ENDBRANCH  68  71
ENDBRANCH  66  67
ENDBRANCH  65  66
ENDBRANCH  64  65
ENDBRANCH   1  64
TORSDOF 16
