REMARK SMILES CCc1ccsc1C(=O)N(CC(=O)NCCCCCCNC(=O)c1ccc(-c2c3nc(c(-c4c(F)cccc4F)c4ccc([nH]4)c(-c4c(F)cccc4F)c4nc(c(-c5c(F)cccc5F)c5ccc2[nH]5)C=C4)C=C3)cc1)c1ccccc1N
REMARK SMILES IDX 16 1 15 2 14 3 12 4 13 5 11 7 10 8 8 9 9 10 7 11 3 12 4 13
REMARK SMILES IDX 5 14 6 15 2 16 1 17 78 18 79 19 83 20 80 21 82 22 81 23
REMARK SMILES IDX 84 24 17 27 18 28 19 29 20 30 21 31 22 32 23 34 24 35 25 36
REMARK SMILES IDX 77 37 26 38 76 39 27 40 28 41 29 42 70 43 30 44 75 45 69 46
REMARK SMILES IDX 71 47 31 48 74 49 68 50 67 51 32 53 58 54 41 55 57 56 42 57
REMARK SMILES IDX 45 58 56 59 72 60 43 61 44 62 55 64 73 65 46 66 33 67 34 68
REMARK SMILES IDX 39 69 35 70 36 71 38 72 40 73 37 74 59 75 60 76 65 77 61 78
REMARK SMILES IDX 62 79 64 80 66 81 63 82 47 83 48 84 53 85 49 86 50 87 52 88
REMARK SMILES IDX 54 89 51 90
REMARK H PARENT 14 6 84 25 84 26 21 33 71 52 45 63
REMARK Flexibility Score: inf
ROOT
ATOM      1  C   UNL     1      -1.265   0.607   3.327  1.00  0.00     0.021 C 
ENDROOT
BRANCH   1   2
ATOM      2  C   UNL     1      -1.101  -0.011   1.950  1.00  0.00     0.116 C 
BRANCH   2   3
ATOM      3  N   UNL     1      -0.998   0.977   0.897  1.00  0.00    -0.355 N 
ATOM      4  C   UNL     1       0.058   1.376   0.140  1.00  0.00     0.240 C 
ATOM      5  O   UNL     1      -0.206   2.127  -0.807  1.00  0.00    -0.273 OA
ATOM      6  H   UNL     1      -1.841   1.442   0.694  1.00  0.00     0.163 HD
BRANCH   4   7
ATOM      7  C   UNL     1       1.488   0.833   0.300  1.00  0.00     0.226 C 
BRANCH   7   8
ATOM      8  N   UNL     1       2.015   0.541   1.619  1.00  0.00    -0.296 N 
BRANCH   8   9
ATOM      9  C   UNL     1       2.149  -0.752   2.168  1.00  0.00     0.269 C 
ATOM     10  O   UNL     1       2.514  -0.800   3.355  1.00  0.00    -0.268 OA
BRANCH   9  11
ATOM     11  C   UNL     1       1.850  -2.058   1.467  1.00  0.00     0.096 A 
ATOM     12  C   UNL     1       1.092  -2.609   0.403  1.00  0.00    -0.025 A 
ATOM     13  C   UNL     1       1.126  -4.066   0.446  1.00  0.00     0.016 A 
ATOM     14  C   UNL     1       1.863  -4.592   1.467  1.00  0.00     0.066 A 
ATOM     15  S   UNL     1       2.666  -3.385   2.318  1.00  0.00    -0.138 S 
BRANCH  12  16
ATOM     16  C   UNL     1       0.151  -2.030  -0.646  1.00  0.00     0.034 C 
ATOM     17  C   UNL     1       0.777  -1.489  -1.926  1.00  0.00     0.009 C 
ENDBRANCH  12  16
ENDBRANCH   9  11
ENDBRANCH   8   9
BRANCH   8  18
ATOM     18  C   UNL     1       2.624   1.706   2.258  1.00  0.00     0.068 A 
ATOM     19  C   UNL     1       1.930   2.934   2.224  1.00  0.00     0.028 A 
ATOM     20  C   UNL     1       3.958   1.709   2.744  1.00  0.00     0.056 A 
ATOM     21  C   UNL     1       2.545   4.139   2.569  1.00  0.00     0.002 A 
ATOM     22  C   UNL     1       4.577   2.943   3.021  1.00  0.00     0.028 A 
ATOM     23  C   UNL     1       3.880   4.147   2.939  1.00  0.00     0.002 A 
BRANCH  20  24
ATOM     24  N   UNL     1       4.771   0.567   2.766  1.00  0.00    -0.397 N 
ATOM     25  H   UNL     1       4.382  -0.318   2.579  1.00  0.00     0.156 HD
ATOM     26  H   UNL     1       5.731   0.650   2.968  1.00  0.00     0.156 HD
ENDBRANCH  20  24
ENDBRANCH   8  18
ENDBRANCH   7   8
ENDBRANCH   4   7
ENDBRANCH   2   3
ENDBRANCH   1   2
BRANCH   1  27
ATOM     27  C   UNL     1      -2.644   1.230   3.544  1.00  0.00     0.002 C 
BRANCH  27  28
ATOM     28  C   UNL     1      -3.823   0.265   3.363  1.00  0.00     0.002 C 
BRANCH  28  29
ATOM     29  C   UNL     1      -3.768  -1.004   4.220  1.00  0.00     0.021 C 
BRANCH  29  30
ATOM     30  C   UNL     1      -3.658  -0.756   5.721  1.00  0.00     0.116 C 
BRANCH  30  31
ATOM     31  N   UNL     1      -4.758   0.051   6.220  1.00  0.00    -0.352 N 
ATOM     32  C   UNL     1      -5.576  -0.143   7.302  1.00  0.00     0.251 C 
ATOM     33  H   UNL     1      -4.945   0.865   5.699  1.00  0.00     0.163 HD
ATOM     34  O   UNL     1      -6.572   0.558   7.442  1.00  0.00    -0.269 OA
BRANCH  32  35
ATOM     35  C   UNL     1      -5.274  -1.197   8.294  1.00  0.00     0.039 A 
ATOM     36  C   UNL     1      -6.340  -1.925   8.830  1.00  0.00     0.014 A 
ATOM     37  C   UNL     1      -3.970  -1.436   8.737  1.00  0.00     0.014 A 
ATOM     38  C   UNL     1      -6.094  -2.911   9.786  1.00  0.00     0.010 A 
ATOM     39  C   UNL     1      -3.718  -2.469   9.638  1.00  0.00     0.010 A 
ATOM     40  C   UNL     1      -4.780  -3.203  10.185  1.00  0.00    -0.014 A 
BRANCH  40  41
ATOM     41  C   UNL     1      -4.521  -4.276  11.176  1.00  0.00     0.031 A 
ATOM     42  C   UNL     1      -3.959  -3.950  12.531  1.00  0.00     0.074 A 
ATOM     43  C   UNL     1      -4.767  -5.555  10.839  1.00  0.00     0.049 A 
ATOM     44  N   UNL     1      -3.723  -4.751  13.540  1.00  0.00    -0.248 NA
ATOM     45  C   UNL     1      -3.584  -2.550  12.776  1.00  0.00     0.031 C 
ATOM     46  C   UNL     1      -5.234  -6.007   9.528  1.00  0.00     0.029 A 
ATOM     47  N   UNL     1      -4.657  -6.710  11.571  1.00  0.00    -0.354 N 
ATOM     48  C   UNL     1      -3.164  -3.954  14.531  1.00  0.00     0.074 A 
ATOM     49  C   UNL     1      -3.043  -2.621  13.982  1.00  0.00     0.031 C 
ATOM     50  C   UNL     1      -5.399  -7.338   9.556  1.00  0.00     0.029 A 
ATOM     51  C   UNL     1      -5.032  -7.834  10.879  1.00  0.00     0.049 A 
ATOM     52  H   UNL     1      -4.340  -6.730  12.503  1.00  0.00     0.167 HD
ATOM     53  C   UNL     1      -2.808  -4.297  15.793  1.00  0.00     0.037 A 
ATOM     54  C   UNL     1      -5.088  -9.121  11.271  1.00  0.00     0.037 A 
ATOM     55  C   UNL     1      -2.949  -5.621  16.340  1.00  0.00     0.049 A 
ATOM     56  C   UNL     1      -4.741  -9.473  12.688  1.00  0.00     0.074 A 
ATOM     57  C   UNL     1      -2.696  -6.055  17.630  1.00  0.00     0.029 A 
ATOM     58  N   UNL     1      -3.373  -6.730  15.621  1.00  0.00    -0.354 N 
ATOM     59  N   UNL     1      -4.318  -8.691  13.652  1.00  0.00    -0.248 NA
ATOM     60  C   UNL     1      -4.900 -10.880  13.079  1.00  0.00     0.031 C 
ATOM     61  C   UNL     1      -2.925  -7.436  17.679  1.00  0.00     0.029 A 
ATOM     62  C   UNL     1      -3.367  -7.853  16.434  1.00  0.00     0.049 A 
ATOM     63  H   UNL     1      -3.639  -6.720  14.674  1.00  0.00     0.167 HD
ATOM     64  C   UNL     1      -4.179  -9.505  14.769  1.00  0.00     0.074 A 
ATOM     65  C   UNL     1      -4.579 -10.838  14.365  1.00  0.00     0.031 C 
ATOM     66  C   UNL     1      -3.761  -9.175  16.016  1.00  0.00     0.037 A 
BRANCH  53  67
ATOM     67  C   UNL     1      -2.228  -3.216  16.660  1.00  0.00     0.057 A 
ATOM     68  C   UNL     1      -3.000  -2.142  17.123  1.00  0.00     0.134 A 
ATOM     69  C   UNL     1      -0.880  -3.249  17.039  1.00  0.00     0.134 A 
ATOM     70  F   UNL     1      -4.296  -2.042  16.788  1.00  0.00    -0.206 F 
ATOM     71  C   UNL     1      -2.445  -1.120  17.896  1.00  0.00     0.040 A 
ATOM     72  C   UNL     1      -0.320  -2.249  17.836  1.00  0.00     0.040 A 
ATOM     73  F   UNL     1      -0.084  -4.252  16.639  1.00  0.00    -0.206 F 
ATOM     74  C   UNL     1      -1.101  -1.175  18.258  1.00  0.00     0.006 A 
ENDBRANCH  53  67
BRANCH  54  75
ATOM     75  C   UNL     1      -5.543 -10.153  10.308  1.00  0.00     0.057 A 
ATOM     76  C   UNL     1      -6.813 -10.729  10.411  1.00  0.00     0.134 A 
ATOM     77  C   UNL     1      -4.737 -10.548   9.233  1.00  0.00     0.134 A 
ATOM     78  F   UNL     1      -7.624 -10.398  11.426  1.00  0.00    -0.206 F 
ATOM     79  C   UNL     1      -7.266 -11.669   9.483  1.00  0.00     0.040 A 
ATOM     80  C   UNL     1      -5.185 -11.470   8.286  1.00  0.00     0.040 A 
ATOM     81  F   UNL     1      -3.515 -10.021   9.073  1.00  0.00    -0.206 F 
ATOM     82  C   UNL     1      -6.453 -12.035   8.412  1.00  0.00     0.006 A 
ENDBRANCH  54  75
BRANCH  66  83
ATOM     83  C   UNL     1      -3.732 -10.272  17.040  1.00  0.00     0.057 A 
ATOM     84  C   UNL     1      -2.772 -11.291  17.005  1.00  0.00     0.134 A 
ATOM     85  C   UNL     1      -4.659 -10.291  18.090  1.00  0.00     0.134 A 
ATOM     86  F   UNL     1      -1.865 -11.338  16.018  1.00  0.00    -0.206 F 
ATOM     87  C   UNL     1      -2.749 -12.304  17.966  1.00  0.00     0.040 A 
ATOM     88  C   UNL     1      -4.630 -11.283  19.071  1.00  0.00     0.040 A 
ATOM     89  F   UNL     1      -5.599  -9.339  18.186  1.00  0.00    -0.206 F 
ATOM     90  C   UNL     1      -3.677 -12.297  19.006  1.00  0.00     0.006 A 
ENDBRANCH  66  83
ENDBRANCH  40  41
ENDBRANCH  32  35
ENDBRANCH  30  31
ENDBRANCH  29  30
ENDBRANCH  28  29
ENDBRANCH  27  28
ENDBRANCH   1  27
TORSDOF 19
