REMARK SMILES COc1ccc(-c2ccc(CCC(=O)NCCCCCCNC(=O)c3ccc(-c4c5nc(c(-c6c(F)cccc6F)c6ccc([nH]6)c(-c6c(F)cccc6F)c6nc(c(-c7c(F)cccc7F)c7ccc4[nH]7)C=C6)C=C5)cc3)n2-c2ccc(C(C)=O)cc2)cc1
REMARK SMILES IDX 17 1 16 2 15 3 13 4 14 5 12 7 11 8 10 9 7 10 8 11 79 12 9 13
REMARK SMILES IDX 6 14 3 15 4 16 90 17 5 18 89 19 2 20 1 21 80 22 81 23 88 24
REMARK SMILES IDX 82 25 87 26 83 27 84 28 85 29 86 30 18 31 19 32 20 33 21 34
REMARK SMILES IDX 22 35 23 36 24 38 25 39 26 40 78 41 27 42 77 43 28 44 29 45
REMARK SMILES IDX 30 46 71 47 31 48 76 49 70 50 72 51 32 52 75 53 69 54 68 55
REMARK SMILES IDX 33 57 59 58 42 59 58 60 43 61 46 62 57 63 73 64 44 65 45 66
REMARK SMILES IDX 56 68 74 69 47 70 34 71 35 72 40 73 36 74 37 75 39 76 41 77
REMARK SMILES IDX 38 78 60 79 61 80 66 81 62 82 63 83 65 84 67 85 64 86 48 87
REMARK SMILES IDX 49 88 54 89 50 90 51 91 53 92 55 93 52 94
REMARK H PARENT 15 6 22 37 72 56 46 67
REMARK Flexibility Score: inf
ROOT
ATOM      1  C   UNL     1       4.885   6.246   4.908  1.00  0.00     0.021 C 
ENDROOT
BRANCH   1   2
ATOM      2  C   UNL     1       5.044   5.568   6.266  1.00  0.00     0.116 C 
BRANCH   2   3
ATOM      3  N   UNL     1       5.035   6.559   7.322  1.00  0.00    -0.356 N 
ATOM      4  C   UNL     1       4.061   6.826   8.235  1.00  0.00     0.220 C 
ATOM      5  O   UNL     1       4.154   7.852   8.912  1.00  0.00    -0.275 OA
ATOM      6  H   UNL     1       5.845   7.115   7.390  1.00  0.00     0.163 HD
BRANCH   4   7
ATOM      7  C   UNL     1       2.909   5.861   8.434  1.00  0.00     0.106 C 
BRANCH   7   8
ATOM      8  C   UNL     1       1.607   6.334   7.790  1.00  0.00     0.064 C 
BRANCH   8   9
ATOM      9  C   UNL     1       1.520   6.069   6.308  1.00  0.00     0.024 A 
ATOM     10  C   UNL     1       1.449   4.877   4.385  1.00  0.00     0.053 A 
ATOM     11  C   UNL     1       1.688   6.208   4.069  1.00  0.00     0.029 A 
ATOM     12  N   UNL     1       1.119   4.859   5.742  1.00  0.00    -0.314 N 
ATOM     13  C   UNL     1       1.727   6.951   5.267  1.00  0.00     0.024 A 
BRANCH  10  14
ATOM     14  C   UNL     1       1.223   3.796   3.425  1.00  0.00    -0.001 A 
ATOM     15  C   UNL     1       0.778   1.849   1.443  1.00  0.00     0.118 A 
ATOM     16  C   UNL     1      -0.227   2.748   1.797  1.00  0.00     0.047 A 
ATOM     17  C   UNL     1       2.017   1.926   2.080  1.00  0.00     0.047 A 
ATOM     18  C   UNL     1      -0.011   3.714   2.778  1.00  0.00     0.014 A 
ATOM     19  C   UNL     1       2.238   2.899   3.069  1.00  0.00     0.014 A 
BRANCH  15  20
ATOM     20  O   UNL     1       0.431   0.984   0.444  1.00  0.00    -0.497 OA
ATOM     21  C   UNL     1       1.232  -0.175   0.272  1.00  0.00     0.278 C 
ENDBRANCH  15  20
ENDBRANCH  10  14
BRANCH  12  22
ATOM     22  C   UNL     1       0.188   3.969   6.333  1.00  0.00     0.046 A 
ATOM     23  C   UNL     1      -1.001   4.532   6.813  1.00  0.00     0.027 A 
ATOM     24  C   UNL     1       0.371   2.589   6.337  1.00  0.00     0.027 A 
ATOM     25  C   UNL     1      -2.013   3.719   7.310  1.00  0.00     0.014 A 
ATOM     26  C   UNL     1      -0.642   1.778   6.863  1.00  0.00     0.014 A 
ATOM     27  C   UNL     1      -1.845   2.333   7.344  1.00  0.00     0.017 A 
BRANCH  27  28
ATOM     28  C   UNL     1      -2.901   1.412   7.864  1.00  0.00     0.159 C 
ATOM     29  C   UNL     1      -4.256   1.935   8.281  1.00  0.00     0.093 C 
ATOM     30  O   UNL     1      -2.659   0.207   7.939  1.00  0.00    -0.295 OA
ENDBRANCH  27  28
ENDBRANCH  12  22
ENDBRANCH   8   9
ENDBRANCH   7   8
ENDBRANCH   4   7
ENDBRANCH   2   3
ENDBRANCH   1   2
BRANCH   1  31
ATOM     31  C   UNL     1       6.185   6.615   4.207  1.00  0.00     0.002 C 
BRANCH  31  32
ATOM     32  C   UNL     1       7.037   5.414   3.794  1.00  0.00     0.002 C 
BRANCH  32  33
ATOM     33  C   UNL     1       6.303   4.325   2.992  1.00  0.00     0.021 C 
BRANCH  33  34
ATOM     34  C   UNL     1       5.650   4.826   1.702  1.00  0.00     0.116 C 
BRANCH  34  35
ATOM     35  N   UNL     1       6.667   5.309   0.788  1.00  0.00    -0.352 N 
ATOM     36  C   UNL     1       6.633   5.449  -0.570  1.00  0.00     0.251 C 
ATOM     37  H   UNL     1       7.514   5.577   1.213  1.00  0.00     0.163 HD
ATOM     38  O   UNL     1       7.689   5.451  -1.191  1.00  0.00    -0.269 OA
BRANCH  36  39
ATOM     39  C   UNL     1       5.362   5.638  -1.298  1.00  0.00     0.039 A 
ATOM     40  C   UNL     1       5.303   5.173  -2.619  1.00  0.00     0.014 A 
ATOM     41  C   UNL     1       4.310   6.392  -0.766  1.00  0.00     0.014 A 
ATOM     42  C   UNL     1       4.194   5.457  -3.404  1.00  0.00     0.010 A 
ATOM     43  C   UNL     1       3.191   6.666  -1.543  1.00  0.00     0.010 A 
ATOM     44  C   UNL     1       3.138   6.198  -2.861  1.00  0.00    -0.014 A 
BRANCH  44  45
ATOM     45  C   UNL     1       1.884   6.304  -3.636  1.00  0.00     0.031 A 
ATOM     46  C   UNL     1       1.029   5.020  -3.473  1.00  0.00     0.074 A 
ATOM     47  C   UNL     1       1.702   7.462  -4.348  1.00  0.00     0.049 A 
ATOM     48  N   UNL     1       0.055   4.565  -4.200  1.00  0.00    -0.248 NA
ATOM     49  C   UNL     1       1.318   4.080  -2.346  1.00  0.00     0.031 C 
ATOM     50  C   UNL     1       2.620   8.629  -4.326  1.00  0.00     0.029 A 
ATOM     51  N   UNL     1       0.733   7.911  -5.226  1.00  0.00    -0.354 N 
ATOM     52  C   UNL     1      -0.518   3.463  -3.517  1.00  0.00     0.074 A 
ATOM     53  C   UNL     1       0.370   3.145  -2.446  1.00  0.00     0.031 C 
ATOM     54  C   UNL     1       2.221   9.585  -5.198  1.00  0.00     0.029 A 
ATOM     55  C   UNL     1       1.002   9.162  -5.860  1.00  0.00     0.049 A 
ATOM     56  H   UNL     1      -0.090   7.401  -5.403  1.00  0.00     0.167 HD
ATOM     57  C   UNL     1      -1.764   2.977  -3.799  1.00  0.00     0.037 A 
ATOM     58  C   UNL     1       0.303   9.792  -6.861  1.00  0.00     0.037 A 
ATOM     59  C   UNL     1      -2.305   3.675  -4.910  1.00  0.00     0.049 A 
ATOM     60  C   UNL     1      -0.943   9.036  -6.956  1.00  0.00     0.074 A 
ATOM     61  C   UNL     1      -1.970   3.645  -6.237  1.00  0.00     0.029 A 
ATOM     62  N   UNL     1      -3.016   4.816  -4.632  1.00  0.00    -0.354 N 
ATOM     63  N   UNL     1      -1.900   9.121  -6.086  1.00  0.00    -0.248 NA
ATOM     64  C   UNL     1      -1.130   8.095  -8.063  1.00  0.00     0.031 C 
ATOM     65  C   UNL     1      -2.030   5.002  -6.592  1.00  0.00     0.029 A 
ATOM     66  C   UNL     1      -2.679   5.734  -5.589  1.00  0.00     0.049 A 
ATOM     67  H   UNL     1      -3.647   4.948  -3.888  1.00  0.00     0.167 HD
ATOM     68  C   UNL     1      -2.605   7.975  -6.337  1.00  0.00     0.074 A 
ATOM     69  C   UNL     1      -2.317   7.605  -7.710  1.00  0.00     0.031 C 
ATOM     70  C   UNL     1      -2.862   7.135  -5.301  1.00  0.00     0.037 A 
BRANCH  57  71
ATOM     71  C   UNL     1      -2.711   2.075  -3.061  1.00  0.00     0.057 A 
ATOM     72  C   UNL     1      -3.776   1.480  -3.780  1.00  0.00     0.134 A 
ATOM     73  C   UNL     1      -2.851   2.093  -1.673  1.00  0.00     0.134 A 
ATOM     74  F   UNL     1      -3.735   1.377  -5.119  1.00  0.00    -0.206 F 
ATOM     75  C   UNL     1      -4.957   1.057  -3.165  1.00  0.00     0.040 A 
ATOM     76  C   UNL     1      -4.010   1.623  -1.039  1.00  0.00     0.040 A 
ATOM     77  F   UNL     1      -1.927   2.671  -0.898  1.00  0.00    -0.206 F 
ATOM     78  C   UNL     1      -5.084   1.147  -1.787  1.00  0.00     0.006 A 
ENDBRANCH  57  71
BRANCH  58  79
ATOM     79  C   UNL     1       0.399  10.940  -7.846  1.00  0.00     0.057 A 
ATOM     80  C   UNL     1       1.490  11.788  -8.025  1.00  0.00     0.134 A 
ATOM     81  C   UNL     1      -0.637  11.130  -8.813  1.00  0.00     0.134 A 
ATOM     82  F   UNL     1       2.502  11.810  -7.150  1.00  0.00    -0.206 F 
ATOM     83  C   UNL     1       1.593  12.657  -9.137  1.00  0.00     0.040 A 
ATOM     84  C   UNL     1      -0.523  11.937  -9.948  1.00  0.00     0.040 A 
ATOM     85  F   UNL     1      -1.825  10.515  -8.717  1.00  0.00    -0.206 F 
ATOM     86  C   UNL     1       0.611  12.696 -10.126  1.00  0.00     0.006 A 
ENDBRANCH  58  79
BRANCH  70  87
ATOM     87  C   UNL     1      -2.876   7.812  -3.934  1.00  0.00     0.057 A 
ATOM     88  C   UNL     1      -3.702   8.928  -3.715  1.00  0.00     0.134 A 
ATOM     89  C   UNL     1      -2.004   7.506  -2.877  1.00  0.00     0.134 A 
ATOM     90  F   UNL     1      -4.603   9.291  -4.642  1.00  0.00    -0.206 F 
ATOM     91  C   UNL     1      -3.622   9.715  -2.557  1.00  0.00     0.040 A 
ATOM     92  C   UNL     1      -1.916   8.277  -1.707  1.00  0.00     0.040 A 
ATOM     93  F   UNL     1      -1.201   6.446  -2.934  1.00  0.00    -0.206 F 
ATOM     94  C   UNL     1      -2.717   9.398  -1.550  1.00  0.00     0.006 A 
ENDBRANCH  70  87
ENDBRANCH  44  45
ENDBRANCH  36  39
ENDBRANCH  34  35
ENDBRANCH  33  34
ENDBRANCH  32  33
ENDBRANCH  31  32
ENDBRANCH   1  31
TORSDOF 19
