REMARK SMILES O=C(C[C@H](C(=O)NCCCCCCNC(=O)c1ccc(-c2c3nc(c(-c4c(F)cccc4F)c4ccc([nH]4)c(-c4c(F)cccc4F)c4nc(c(-c5c(F)cccc5F)c5ccc2[nH]5)C=C4)C=C3)cc1)c1ccccc1)Nc1ccc(Cl)cc1Cl
REMARK SMILES IDX 10 1 9 2 8 3 7 4 5 5 6 6 4 8 3 9 2 10 1 11 77 12 78 14 79 15
REMARK SMILES IDX 84 16 80 17 83 18 85 19 81 20 82 21 71 22 72 23 76 24 73 25
REMARK SMILES IDX 75 26 74 27 11 28 12 29 13 30 14 31 15 32 16 34 17 35 18 36
REMARK SMILES IDX 70 37 19 38 69 39 20 40 21 41 22 42 63 43 23 44 68 45 62 46
REMARK SMILES IDX 64 47 24 48 67 49 61 50 60 51 25 53 51 54 34 55 50 56 35 57
REMARK SMILES IDX 38 58 49 59 65 60 36 61 37 62 48 64 66 65 39 66 26 67 27 68
REMARK SMILES IDX 32 69 28 70 29 71 31 72 33 73 30 74 52 75 53 76 58 77 54 78
REMARK SMILES IDX 55 79 57 80 59 81 56 82 40 83 41 84 46 85 42 86 43 87 45 88
REMARK SMILES IDX 47 89 44 90
REMARK H PARENT 7 7 77 13 14 33 64 52 38 63
REMARK Flexibility Score: inf
ROOT
ATOM      1  C   UNL     1       0.917  -2.414   4.231  1.00  0.00     0.002 C 
ENDROOT
BRANCH   1   2
ATOM      2  C   UNL     1       1.844  -3.106   3.224  1.00  0.00     0.021 C 
BRANCH   2   3
ATOM      3  C   UNL     1       1.570  -2.726   1.767  1.00  0.00     0.116 C 
BRANCH   3   4
ATOM      4  N   UNL     1       1.943  -1.349   1.510  1.00  0.00    -0.356 N 
ATOM      5  C   UNL     1       3.083  -0.856   0.941  1.00  0.00     0.228 C 
ATOM      6  O   UNL     1       3.307   0.347   1.063  1.00  0.00    -0.274 OA
ATOM      7  H   UNL     1       1.282  -0.673   1.784  1.00  0.00     0.163 HD
BRANCH   5   8
ATOM      8  C   UNL     1       4.010  -1.802   0.163  1.00  0.00     0.118 C 
BRANCH   8   9
ATOM      9  C   UNL     1       4.976  -1.033  -0.750  1.00  0.00     0.118 C 
BRANCH   9  10
ATOM     10  C   UNL     1       4.277  -0.164  -1.785  1.00  0.00     0.225 C 
ATOM     11  O   UNL     1       4.372   1.059  -1.753  1.00  0.00    -0.275 OA
ATOM     12  N   UNL     1       3.536  -0.875  -2.717  1.00  0.00    -0.325 N 
ATOM     13  H   UNL     1       3.470  -1.850  -2.602  1.00  0.00     0.169 HD
BRANCH  12  14
ATOM     14  C   UNL     1       2.866  -0.295  -3.822  1.00  0.00     0.060 A 
ATOM     15  C   UNL     1       1.600  -0.826  -4.116  1.00  0.00     0.029 A 
ATOM     16  C   UNL     1       3.374   0.733  -4.640  1.00  0.00     0.066 A 
ATOM     17  C   UNL     1       0.819  -0.285  -5.141  1.00  0.00     0.023 A 
ATOM     18  C   UNL     1       2.586   1.275  -5.664  1.00  0.00     0.043 A 
ATOM     19  Cl  UNL     1       5.030   1.239  -4.613  1.00  0.00    -0.082 Cl
ATOM     20  C   UNL     1       1.309   0.774  -5.899  1.00  0.00     0.042 A 
ATOM     21  Cl  UNL     1       0.345   1.439  -7.159  1.00  0.00    -0.084 Cl
ENDBRANCH  12  14
ENDBRANCH   9  10
ENDBRANCH   8   9
BRANCH   8  22
ATOM     22  C   UNL     1       4.779  -2.734   1.095  1.00  0.00    -0.035 A 
ATOM     23  C   UNL     1       4.745  -4.123   0.886  1.00  0.00     0.004 A 
ATOM     24  C   UNL     1       5.482  -2.236   2.202  1.00  0.00     0.004 A 
ATOM     25  C   UNL     1       5.341  -4.994   1.799  1.00  0.00     0.000 A 
ATOM     26  C   UNL     1       6.083  -3.111   3.110  1.00  0.00     0.000 A 
ATOM     27  C   UNL     1       6.000  -4.488   2.916  1.00  0.00     0.000 A 
ENDBRANCH   8  22
ENDBRANCH   5   8
ENDBRANCH   3   4
ENDBRANCH   2   3
ENDBRANCH   1   2
BRANCH   1  28
ATOM     28  C   UNL     1      -0.577  -2.683   4.025  1.00  0.00     0.002 C 
BRANCH  28  29
ATOM     29  C   UNL     1      -0.969  -4.163   3.991  1.00  0.00     0.021 C 
BRANCH  29  30
ATOM     30  C   UNL     1      -0.633  -4.936   5.263  1.00  0.00     0.116 C 
BRANCH  30  31
ATOM     31  N   UNL     1      -1.382  -4.450   6.411  1.00  0.00    -0.352 N 
ATOM     32  C   UNL     1      -2.182  -5.141   7.284  1.00  0.00     0.251 C 
ATOM     33  H   UNL     1      -1.303  -3.484   6.587  1.00  0.00     0.163 HD
ATOM     34  O   UNL     1      -2.897  -4.534   8.080  1.00  0.00    -0.269 OA
BRANCH  32  35
ATOM     35  C   UNL     1      -2.203  -6.618   7.258  1.00  0.00     0.039 A 
ATOM     36  C   UNL     1      -3.433  -7.278   7.325  1.00  0.00     0.014 A 
ATOM     37  C   UNL     1      -1.015  -7.351   7.185  1.00  0.00     0.014 A 
ATOM     38  C   UNL     1      -3.475  -8.672   7.260  1.00  0.00     0.010 A 
ATOM     39  C   UNL     1      -1.063  -8.736   7.054  1.00  0.00     0.010 A 
ATOM     40  C   UNL     1      -2.293  -9.411   7.094  1.00  0.00    -0.014 A 
BRANCH  40  41
ATOM     41  C   UNL     1      -2.322 -10.888   6.960  1.00  0.00     0.031 A 
ATOM     42  C   UNL     1      -1.686 -11.757   8.009  1.00  0.00     0.074 A 
ATOM     43  C   UNL     1      -2.863 -11.446   5.859  1.00  0.00     0.049 A 
ATOM     44  N   UNL     1      -1.548 -13.058   8.033  1.00  0.00    -0.248 NA
ATOM     45  C   UNL     1      -1.106 -11.069   9.174  1.00  0.00     0.031 C 
ATOM     46  C   UNL     1      -3.473 -10.711   4.750  1.00  0.00     0.029 A 
ATOM     47  N   UNL     1      -2.978 -12.762   5.488  1.00  0.00    -0.354 N 
ATOM     48  C   UNL     1      -0.851 -13.342   9.201  1.00  0.00     0.074 A 
ATOM     49  C   UNL     1      -0.555 -12.076   9.835  1.00  0.00     0.031 C 
ATOM     50  C   UNL     1      -3.917 -11.587   3.834  1.00  0.00     0.029 A 
ATOM     51  C   UNL     1      -3.592 -12.940   4.273  1.00  0.00     0.049 A 
ATOM     52  H   UNL     1      -2.651 -13.508   6.041  1.00  0.00     0.167 HD
ATOM     53  C   UNL     1      -0.508 -14.550   9.708  1.00  0.00     0.037 A 
ATOM     54  C   UNL     1      -3.859 -14.068   3.587  1.00  0.00     0.037 A 
ATOM     55  C   UNL     1      -0.831 -15.810   9.091  1.00  0.00     0.049 A 
ATOM     56  C   UNL     1      -3.466 -15.396   4.172  1.00  0.00     0.074 A 
ATOM     57  C   UNL     1      -0.588 -17.088   9.563  1.00  0.00     0.029 A 
ATOM     58  N   UNL     1      -1.468 -15.949   7.868  1.00  0.00    -0.354 N 
ATOM     59  N   UNL     1      -2.867 -15.653   5.309  1.00  0.00    -0.248 NA
ATOM     60  C   UNL     1      -3.792 -16.590   3.380  1.00  0.00     0.031 C 
ATOM     61  C   UNL     1      -1.041 -18.001   8.604  1.00  0.00     0.029 A 
ATOM     62  C   UNL     1      -1.606 -17.292   7.557  1.00  0.00     0.049 A 
ATOM     63  H   UNL     1      -1.777 -15.204   7.303  1.00  0.00     0.167 HD
ATOM     64  C   UNL     1      -2.770 -17.036   5.383  1.00  0.00     0.074 A 
ATOM     65  C   UNL     1      -3.381 -17.564   4.181  1.00  0.00     0.031 C 
ATOM     66  C   UNL     1      -2.224 -17.801   6.360  1.00  0.00     0.037 A 
BRANCH  53  67
ATOM     67  C   UNL     1       0.258 -14.566  10.999  1.00  0.00     0.057 A 
ATOM     68  C   UNL     1      -0.341 -14.222  12.218  1.00  0.00     0.134 A 
ATOM     69  C   UNL     1       1.600 -14.965  11.029  1.00  0.00     0.134 A 
ATOM     70  F   UNL     1      -1.621 -13.820  12.257  1.00  0.00    -0.206 F 
ATOM     71  C   UNL     1       0.375 -14.248  13.416  1.00  0.00     0.040 A 
ATOM     72  C   UNL     1       2.319 -15.020  12.224  1.00  0.00     0.040 A 
ATOM     73  F   UNL     1       2.233 -15.313   9.899  1.00  0.00    -0.206 F 
ATOM     74  C   UNL     1       1.707 -14.655  13.422  1.00  0.00     0.006 A 
ENDBRANCH  53  67
BRANCH  54  75
ATOM     75  C   UNL     1      -4.558 -13.995   2.280  1.00  0.00     0.057 A 
ATOM     76  C   UNL     1      -5.879 -14.437   2.146  1.00  0.00     0.134 A 
ATOM     77  C   UNL     1      -3.926 -13.492   1.137  1.00  0.00     0.134 A 
ATOM     78  F   UNL     1      -6.530 -14.946   3.202  1.00  0.00    -0.206 F 
ATOM     79  C   UNL     1      -6.542 -14.399   0.918  1.00  0.00     0.040 A 
ATOM     80  C   UNL     1      -4.585 -13.427  -0.092  1.00  0.00     0.040 A 
ATOM     81  F   UNL     1      -2.663 -13.045   1.202  1.00  0.00    -0.206 F 
ATOM     82  C   UNL     1      -5.895 -13.889  -0.205  1.00  0.00     0.006 A 
ENDBRANCH  54  75
BRANCH  66  83
ATOM     83  C   UNL     1      -2.295 -19.289   6.186  1.00  0.00     0.057 A 
ATOM     84  C   UNL     1      -1.492 -19.964   5.258  1.00  0.00     0.134 A 
ATOM     85  C   UNL     1      -3.151 -20.059   6.983  1.00  0.00     0.134 A 
ATOM     86  F   UNL     1      -0.661 -19.282   4.455  1.00  0.00    -0.206 F 
ATOM     87  C   UNL     1      -1.553 -21.351   5.115  1.00  0.00     0.040 A 
ATOM     88  C   UNL     1      -3.202 -21.449   6.867  1.00  0.00     0.040 A 
ATOM     89  F   UNL     1      -3.941 -19.475   7.896  1.00  0.00    -0.206 F 
ATOM     90  C   UNL     1      -2.405 -22.098   5.926  1.00  0.00     0.006 A 
ENDBRANCH  66  83
ENDBRANCH  40  41
ENDBRANCH  32  35
ENDBRANCH  30  31
ENDBRANCH  29  30
ENDBRANCH  28  29
ENDBRANCH   1  28
TORSDOF 17
