REMARK SMILES CC(C)Cc1ccc(S(=O)(=O)Nc2cnc(N3CCCC3)c(C(=O)NCCCCCCNC(=O)c3ccc(-c4c5nc(c(-c6c(F)cccc6F)c6ccc([nH]6)c(-c6c(F)cccc6F)c6nc(c(-c7c(F)cccc7F)c7ccc4[nH]7)C=C6)C=C5)cc3)c2)cc1
REMARK SMILES IDX 27 1 26 2 25 3 23 4 24 5 22 7 13 8 14 9 89 10 15 11 16 12
REMARK SMILES IDX 12 13 9 15 10 16 11 17 8 18 5 19 6 20 91 21 7 22 90 23 4 24
REMARK SMILES IDX 2 25 1 26 3 27 17 28 18 29 21 30 19 31 20 32 28 33 29 34
REMARK SMILES IDX 30 35 31 36 32 37 33 38 34 40 35 41 36 42 88 43 37 44 87 45
REMARK SMILES IDX 38 46 39 47 40 48 81 49 41 50 86 51 80 52 82 53 42 54 85 55
REMARK SMILES IDX 79 56 78 57 43 59 69 60 52 61 68 62 53 63 56 64 67 65 83 66
REMARK SMILES IDX 54 67 55 68 66 70 84 71 57 72 44 73 45 74 50 75 46 76 47 77
REMARK SMILES IDX 49 78 51 79 48 80 70 81 71 82 76 83 72 84 73 85 75 86 77 87
REMARK SMILES IDX 74 88 58 89 59 90 64 91 60 92 61 93 63 94 65 95 62 96
REMARK H PARENT 25 6 12 14 32 39 82 58 56 69
REMARK Flexibility Score: inf
ROOT
ATOM      1  C   UNL     1       2.098   1.532   3.676  1.00  0.00     0.021 C 
ENDROOT
BRANCH   1   2
ATOM      2  C   UNL     1       0.778   1.224   2.978  1.00  0.00     0.116 C 
BRANCH   2   3
ATOM      3  N   UNL     1       0.427  -0.169   3.172  1.00  0.00    -0.352 N 
ATOM      4  C   UNL     1      -0.550  -0.911   3.776  1.00  0.00     0.255 C 
ATOM      5  O   UNL     1      -0.389  -2.117   3.580  1.00  0.00    -0.269 OA
ATOM      6  H   UNL     1       1.090  -0.755   2.741  1.00  0.00     0.163 HD
BRANCH   4   7
ATOM      7  C   UNL     1      -1.756  -0.367   4.500  1.00  0.00     0.084 A 
ATOM      8  C   UNL     1      -3.163   1.565   4.832  1.00  0.00     0.068 A 
ATOM      9  C   UNL     1      -4.218   0.703   5.056  1.00  0.00     0.140 A 
ATOM     10  C   UNL     1      -1.899   1.007   4.724  1.00  0.00     0.046 A 
ATOM     11  N   UNL     1      -4.094  -0.636   5.042  1.00  0.00    -0.236 NA
ATOM     12  C   UNL     1      -2.882  -1.185   4.747  1.00  0.00     0.141 A 
BRANCH   8  13
ATOM     13  N   UNL     1      -3.438   2.941   4.586  1.00  0.00    -0.278 N 
ATOM     14  H   UNL     1      -4.166   3.366   5.095  1.00  0.00     0.180 HD
BRANCH  13  15
ATOM     15  S   UNL     1      -2.593   3.884   3.476  1.00  0.00     0.261 S 
ATOM     16  O   UNL     1      -1.250   4.072   3.997  1.00  0.00    -0.201 OA
ATOM     17  O   UNL     1      -3.450   5.011   3.201  1.00  0.00    -0.201 OA
BRANCH  15  18
ATOM     18  C   UNL     1      -2.408   2.999   1.933  1.00  0.00     0.087 A 
ATOM     19  C   UNL     1      -1.708   1.566  -0.393  1.00  0.00    -0.048 A 
ATOM     20  C   UNL     1      -1.189   2.847  -0.164  1.00  0.00     0.005 A 
ATOM     21  C   UNL     1      -2.632   1.045   0.522  1.00  0.00     0.005 A 
ATOM     22  C   UNL     1      -1.522   3.552   0.997  1.00  0.00     0.022 A 
ATOM     23  C   UNL     1      -3.004   1.768   1.664  1.00  0.00     0.022 A 
BRANCH  19  24
ATOM     24  C   UNL     1      -1.294   0.766  -1.612  1.00  0.00     0.038 C 
BRANCH  24  25
ATOM     25  C   UNL     1       0.204   0.392  -1.649  1.00  0.00    -0.013 C 
ATOM     26  C   UNL     1       0.561  -0.634  -0.573  1.00  0.00     0.008 C 
ATOM     27  C   UNL     1       0.581  -0.173  -3.020  1.00  0.00     0.008 C 
ENDBRANCH  24  25
ENDBRANCH  19  24
ENDBRANCH  15  18
ENDBRANCH  13  15
ENDBRANCH   8  13
BRANCH  12  28
ATOM     28  N   UNL     1      -2.894  -2.544   4.686  1.00  0.00    -0.356 N 
ATOM     29  C   UNL     1      -2.015  -3.436   5.418  1.00  0.00     0.118 C 
ATOM     30  C   UNL     1      -3.952  -3.267   4.001  1.00  0.00     0.118 C 
ATOM     31  C   UNL     1      -2.104  -4.708   4.582  1.00  0.00     0.023 C 
ATOM     32  C   UNL     1      -3.577  -4.740   4.189  1.00  0.00     0.023 C 
ENDBRANCH  12  28
ENDBRANCH   4   7
ENDBRANCH   2   3
ENDBRANCH   1   2
BRANCH   1  33
ATOM     33  C   UNL     1       3.308   0.874   2.998  1.00  0.00     0.002 C 
BRANCH  33  34
ATOM     34  C   UNL     1       3.494   1.223   1.516  1.00  0.00     0.002 C 
BRANCH  34  35
ATOM     35  C   UNL     1       3.483   2.718   1.193  1.00  0.00     0.021 C 
BRANCH  35  36
ATOM     36  C   UNL     1       4.517   3.534   1.958  1.00  0.00     0.116 C 
BRANCH  36  37
ATOM     37  N   UNL     1       5.877   3.136   1.641  1.00  0.00    -0.352 N 
ATOM     38  C   UNL     1       6.965   3.929   1.381  1.00  0.00     0.251 C 
ATOM     39  H   UNL     1       6.040   2.165   1.608  1.00  0.00     0.163 HD
ATOM     40  O   UNL     1       8.014   3.436   0.979  1.00  0.00    -0.269 OA
BRANCH  38  41
ATOM     41  C   UNL     1       6.858   5.391   1.561  1.00  0.00     0.039 A 
ATOM     42  C   UNL     1       7.332   6.229   0.550  1.00  0.00     0.014 A 
ATOM     43  C   UNL     1       6.287   5.931   2.719  1.00  0.00     0.014 A 
ATOM     44  C   UNL     1       7.188   7.611   0.676  1.00  0.00     0.010 A 
ATOM     45  C   UNL     1       6.087   7.304   2.814  1.00  0.00     0.010 A 
ATOM     46  C   UNL     1       6.542   8.156   1.797  1.00  0.00    -0.014 A 
BRANCH  46  47
ATOM     47  C   UNL     1       6.349   9.620   1.928  1.00  0.00     0.031 A 
ATOM     48  C   UNL     1       7.062  10.379   3.010  1.00  0.00     0.074 A 
ATOM     49  C   UNL     1       5.489  10.253   1.108  1.00  0.00     0.049 A 
ATOM     50  N   UNL     1       6.988  11.649   3.314  1.00  0.00    -0.248 NA
ATOM     51  C   UNL     1       7.956   9.602   3.884  1.00  0.00     0.031 C 
ATOM     52  C   UNL     1       4.696   9.615   0.056  1.00  0.00     0.029 A 
ATOM     53  N   UNL     1       5.133  11.576   1.038  1.00  0.00    -0.354 N 
ATOM     54  C   UNL     1       7.806  11.819   4.423  1.00  0.00     0.074 A 
ATOM     55  C   UNL     1       8.333  10.517   4.766  1.00  0.00     0.031 C 
ATOM     56  C   UNL     1       3.963  10.551  -0.570  1.00  0.00     0.029 A 
ATOM     57  C   UNL     1       4.216  11.847   0.052  1.00  0.00     0.049 A 
ATOM     58  H   UNL     1       5.499  12.265   1.638  1.00  0.00     0.167 HD
ATOM     59  C   UNL     1       8.108  12.962   5.083  1.00  0.00     0.037 A 
ATOM     60  C   UNL     1       3.648  13.012  -0.309  1.00  0.00     0.037 A 
ATOM     61  C   UNL     1       7.615  14.263   4.717  1.00  0.00     0.049 A 
ATOM     62  C   UNL     1       4.026  14.271   0.416  1.00  0.00     0.074 A 
ATOM     63  C   UNL     1       7.919  15.491   5.278  1.00  0.00     0.029 A 
ATOM     64  N   UNL     1       6.714  14.502   3.690  1.00  0.00    -0.354 N 
ATOM     65  N   UNL     1       4.854  14.429   1.420  1.00  0.00    -0.248 NA
ATOM     66  C   UNL     1       3.396  15.517  -0.045  1.00  0.00     0.031 C 
ATOM     67  C   UNL     1       7.181  16.472   4.606  1.00  0.00     0.029 A 
ATOM     68  C   UNL     1       6.442  15.857   3.608  1.00  0.00     0.049 A 
ATOM     69  H   UNL     1       6.326  13.810   3.107  1.00  0.00     0.167 HD
ATOM     70  C   UNL     1       4.863  15.789   1.696  1.00  0.00     0.074 A 
ATOM     71  C   UNL     1       3.965  16.415   0.746  1.00  0.00     0.031 C 
ATOM     72  C   UNL     1       5.552  16.460   2.651  1.00  0.00     0.037 A 
BRANCH  59  73
ATOM     73  C   UNL     1       9.027  12.852   6.263  1.00  0.00     0.057 A 
ATOM     74  C   UNL     1      10.396  12.601   6.108  1.00  0.00     0.134 A 
ATOM     75  C   UNL     1       8.543  13.021   7.565  1.00  0.00     0.134 A 
ATOM     76  F   UNL     1      10.919  12.416   4.886  1.00  0.00    -0.206 F 
ATOM     77  C   UNL     1      11.248  12.498   7.208  1.00  0.00     0.040 A 
ATOM     78  C   UNL     1       9.389  12.942   8.673  1.00  0.00     0.040 A 
ATOM     79  F   UNL     1       7.242  13.268   7.783  1.00  0.00    -0.206 F 
ATOM     80  C   UNL     1      10.745  12.674   8.496  1.00  0.00     0.006 A 
ENDBRANCH  59  73
BRANCH  60  81
ATOM     81  C   UNL     1       2.690  13.047  -1.440  1.00  0.00     0.057 A 
ATOM     82  C   UNL     1       3.058  13.591  -2.676  1.00  0.00     0.134 A 
ATOM     83  C   UNL     1       1.393  12.536  -1.318  1.00  0.00     0.134 A 
ATOM     84  F   UNL     1       4.282  14.110  -2.847  1.00  0.00    -0.206 F 
ATOM     85  C   UNL     1       2.165  13.640  -3.747  1.00  0.00     0.040 A 
ATOM     86  C   UNL     1       0.496  12.561  -2.386  1.00  0.00     0.040 A 
ATOM     87  F   UNL     1       0.985  11.994  -0.161  1.00  0.00    -0.206 F 
ATOM     88  C   UNL     1       0.880  13.119  -3.604  1.00  0.00     0.006 A 
ENDBRANCH  60  81
BRANCH  72  89
ATOM     89  C   UNL     1       5.380  17.947   2.697  1.00  0.00     0.057 A 
ATOM     90  C   UNL     1       4.225  18.537   3.223  1.00  0.00     0.134 A 
ATOM     91  C   UNL     1       6.399  18.796   2.247  1.00  0.00     0.134 A 
ATOM     92  F   UNL     1       3.210  17.775   3.657  1.00  0.00    -0.206 F 
ATOM     93  C   UNL     1       4.082  19.924   3.285  1.00  0.00     0.040 A 
ATOM     94  C   UNL     1       6.275  20.183   2.322  1.00  0.00     0.040 A 
ATOM     95  F   UNL     1       7.532  18.291   1.738  1.00  0.00    -0.206 F 
ATOM     96  C   UNL     1       5.111  20.751   2.840  1.00  0.00     0.006 A 
ENDBRANCH  72  89
ENDBRANCH  46  47
ENDBRANCH  38  41
ENDBRANCH  36  37
ENDBRANCH  35  36
ENDBRANCH  34  35
ENDBRANCH  33  34
ENDBRANCH   1  33
TORSDOF 19
