REMARK SMILES Cc1cc(NC(=O)CC2(CC(=O)NCCCCCCNC(=O)c3ccc(-c4c5nc(c(-c6c(F)cccc6F)c6ccc([nH]6)c(-c6c(F)cccc6F)c6nc(c(-c7c(F)cccc7F)c7ccc4[nH]7)C=C6)C=C5)cc3)CCCC2)ccn1
REMARK SMILES IDX 15 1 14 2 13 3 11 4 12 5 10 7 9 8 77 9 80 10 78 11 79 12
REMARK SMILES IDX 8 13 6 14 5 15 7 17 4 18 1 19 2 20 3 21 83 22 82 23 81 24
REMARK SMILES IDX 16 25 17 26 18 27 19 28 20 29 21 30 22 32 23 33 24 34 76 35
REMARK SMILES IDX 25 36 75 37 26 38 27 39 28 40 69 41 29 42 74 43 68 44 70 45
REMARK SMILES IDX 30 46 73 47 67 48 66 49 31 51 57 52 40 53 56 54 41 55 44 56
REMARK SMILES IDX 55 57 71 58 42 59 43 60 54 62 72 63 45 64 32 65 33 66 38 67
REMARK SMILES IDX 34 68 35 69 37 70 39 71 36 72 58 73 59 74 64 75 60 76 61 77
REMARK SMILES IDX 63 78 65 79 62 80 46 81 47 82 52 83 48 84 49 85 51 86 53 87
REMARK SMILES IDX 50 88
REMARK H PARENT 13 6 5 16 20 31 70 50 44 61
REMARK Flexibility Score: inf
ROOT
ATOM      1  C   UNL     1      -7.026   2.204   1.292  1.00  0.00     0.021 C 
ENDROOT
BRANCH   1   2
ATOM      2  C   UNL     1      -6.747   1.369   2.542  1.00  0.00     0.116 C 
BRANCH   2   3
ATOM      3  N   UNL     1      -6.946  -0.032   2.256  1.00  0.00    -0.356 N 
ATOM      4  C   UNL     1      -6.044  -1.044   2.197  1.00  0.00     0.220 C 
ATOM      5  O   UNL     1      -6.455  -2.158   1.869  1.00  0.00    -0.275 OA
ATOM      6  H   UNL     1      -7.879  -0.292   2.076  1.00  0.00     0.163 HD
BRANCH   4   7
ATOM      7  C   UNL     1      -4.588  -0.818   2.575  1.00  0.00     0.107 C 
BRANCH   7   8
ATOM      8  C   UNL     1      -3.568  -0.374   1.478  1.00  0.00    -0.012 C 
ATOM      9  C   UNL     1      -2.167  -0.436   2.137  1.00  0.00     0.008 C 
ATOM     10  C   UNL     1      -3.605   1.135   1.150  1.00  0.00     0.008 C 
ATOM     11  C   UNL     1      -2.053   0.826   2.993  1.00  0.00     0.001 C 
ATOM     12  C   UNL     1      -2.918   1.868   2.297  1.00  0.00     0.001 C 
BRANCH   8  13
ATOM     13  C   UNL     1      -3.753  -1.178   0.156  1.00  0.00     0.108 C 
BRANCH  13  14
ATOM     14  C   UNL     1      -2.863  -2.382  -0.084  1.00  0.00     0.224 C 
ATOM     15  N   UNL     1      -1.576  -2.281  -0.525  1.00  0.00    -0.326 N 
ATOM     16  H   UNL     1      -1.133  -3.152  -0.652  1.00  0.00     0.169 HD
ATOM     17  O   UNL     1      -3.278  -3.516   0.174  1.00  0.00    -0.275 OA
BRANCH  15  18
ATOM     18  C   UNL     1      -0.755  -1.183  -0.834  1.00  0.00     0.044 A 
ATOM     19  C   UNL     1       2.814  -0.241  -0.022  1.00  0.00     0.067 C 
ATOM     20  C   UNL     1       1.414  -0.189  -0.553  1.00  0.00     0.039 A 
ATOM     21  C   UNL     1       0.591  -1.307  -0.484  1.00  0.00     0.049 A 
ATOM     22  N   UNL     1       0.973   1.010  -0.994  1.00  0.00    -0.261 NA
ATOM     23  C   UNL     1      -0.307   1.082  -1.409  1.00  0.00     0.113 A 
ATOM     24  C   UNL     1      -1.196   0.021  -1.363  1.00  0.00     0.046 A 
ENDBRANCH  15  18
ENDBRANCH  13  14
ENDBRANCH   8  13
ENDBRANCH   7   8
ENDBRANCH   4   7
ENDBRANCH   2   3
ENDBRANCH   1   2
BRANCH   1  25
ATOM     25  C   UNL     1      -8.495   2.595   1.133  1.00  0.00     0.002 C 
BRANCH  25  26
ATOM     26  C   UNL     1      -9.031   3.501   2.246  1.00  0.00     0.002 C 
BRANCH  26  27
ATOM     27  C   UNL     1      -8.199   4.758   2.515  1.00  0.00     0.021 C 
BRANCH  27  28
ATOM     28  C   UNL     1      -7.966   5.635   1.288  1.00  0.00     0.116 C 
BRANCH  28  29
ATOM     29  N   UNL     1      -9.220   6.082   0.704  1.00  0.00    -0.352 N 
ATOM     30  C   UNL     1      -9.716   7.353   0.577  1.00  0.00     0.251 C 
ATOM     31  H   UNL     1      -9.796   5.368   0.348  1.00  0.00     0.163 HD
ATOM     32  O   UNL     1     -10.895   7.533   0.293  1.00  0.00    -0.269 OA
BRANCH  30  33
ATOM     33  C   UNL     1      -8.822   8.509   0.787  1.00  0.00     0.039 A 
ATOM     34  C   UNL     1      -9.276   9.587   1.549  1.00  0.00     0.014 A 
ATOM     35  C   UNL     1      -7.550   8.537   0.207  1.00  0.00     0.014 A 
ATOM     36  C   UNL     1      -8.435  10.678   1.769  1.00  0.00     0.010 A 
ATOM     37  C   UNL     1      -6.688   9.593   0.484  1.00  0.00     0.010 A 
ATOM     38  C   UNL     1      -7.127  10.678   1.258  1.00  0.00    -0.014 A 
BRANCH  38  39
ATOM     39  C   UNL     1      -6.206  11.814   1.506  1.00  0.00     0.031 A 
ATOM     40  C   UNL     1      -5.731  12.661   0.358  1.00  0.00     0.074 A 
ATOM     41  C   UNL     1      -5.753  12.045   2.752  1.00  0.00     0.049 A 
ATOM     42  N   UNL     1      -4.873  13.649   0.359  1.00  0.00    -0.248 NA
ATOM     43  C   UNL     1      -6.272  12.337  -0.972  1.00  0.00     0.031 C 
ATOM     44  C   UNL     1      -6.107  11.264   3.939  1.00  0.00     0.029 A 
ATOM     45  N   UNL     1      -4.887  12.996   3.226  1.00  0.00    -0.354 N 
ATOM     46  C   UNL     1      -4.762  14.053  -0.965  1.00  0.00     0.074 A 
ATOM     47  C   UNL     1      -5.598  13.171  -1.749  1.00  0.00     0.031 C 
ATOM     48  C   UNL     1      -5.478  11.780   5.007  1.00  0.00     0.029 A 
ATOM     49  C   UNL     1      -4.651  12.903   4.576  1.00  0.00     0.049 A 
ATOM     50  H   UNL     1      -4.473  13.682   2.653  1.00  0.00     0.167 HD
ATOM     51  C   UNL     1      -4.048  15.083  -1.478  1.00  0.00     0.037 A 
ATOM     52  C   UNL     1      -3.851  13.635   5.373  1.00  0.00     0.037 A 
ATOM     53  C   UNL     1      -3.237  15.974  -0.691  1.00  0.00     0.049 A 
ATOM     54  C   UNL     1      -3.066  14.772   4.779  1.00  0.00     0.074 A 
ATOM     55  C   UNL     1      -2.515  17.079  -1.107  1.00  0.00     0.029 A 
ATOM     56  N   UNL     1      -3.041  15.861   0.678  1.00  0.00    -0.354 N 
ATOM     57  N   UNL     1      -3.018  15.181   3.535  1.00  0.00    -0.248 NA
ATOM     58  C   UNL     1      -2.231  15.553   5.702  1.00  0.00     0.031 C 
ATOM     59  C   UNL     1      -1.851  17.611   0.003  1.00  0.00     0.029 A 
ATOM     60  C   UNL     1      -2.196  16.866   1.119  1.00  0.00     0.049 A 
ATOM     61  H   UNL     1      -3.444  15.168   1.251  1.00  0.00     0.167 HD
ATOM     62  C   UNL     1      -2.171  16.282   3.529  1.00  0.00     0.074 A 
ATOM     63  C   UNL     1      -1.740  16.484   4.897  1.00  0.00     0.031 C 
ATOM     64  C   UNL     1      -1.785  17.056   2.486  1.00  0.00     0.037 A 
BRANCH  51  65
ATOM     65  C   UNL     1      -4.120  15.304  -2.961  1.00  0.00     0.057 A 
ATOM     66  C   UNL     1      -5.283  15.781  -3.580  1.00  0.00     0.134 A 
ATOM     67  C   UNL     1      -3.006  15.068  -3.776  1.00  0.00     0.134 A 
ATOM     68  F   UNL     1      -6.390  16.015  -2.859  1.00  0.00    -0.206 F 
ATOM     69  C   UNL     1      -5.344  15.991  -4.959  1.00  0.00     0.040 A 
ATOM     70  C   UNL     1      -3.046  15.300  -5.152  1.00  0.00     0.040 A 
ATOM     71  F   UNL     1      -1.858  14.616  -3.248  1.00  0.00    -0.206 F 
ATOM     72  C   UNL     1      -4.220  15.756  -5.748  1.00  0.00     0.006 A 
ENDBRANCH  51  65
BRANCH  52  73
ATOM     73  C   UNL     1      -3.770  13.332   6.824  1.00  0.00     0.057 A 
ATOM     74  C   UNL     1      -4.318  14.200   7.775  1.00  0.00     0.134 A 
ATOM     75  C   UNL     1      -3.140  12.174   7.295  1.00  0.00     0.134 A 
ATOM     76  F   UNL     1      -4.919  15.334   7.385  1.00  0.00    -0.206 F 
ATOM     77  C   UNL     1      -4.225  13.940   9.143  1.00  0.00     0.040 A 
ATOM     78  C   UNL     1      -3.061  11.888   8.659  1.00  0.00     0.040 A 
ATOM     79  F   UNL     1      -2.603  11.297   6.434  1.00  0.00    -0.206 F 
ATOM     80  C   UNL     1      -3.598  12.778   9.588  1.00  0.00     0.006 A 
ENDBRANCH  52  73
BRANCH  64  81
ATOM     81  C   UNL     1      -0.879  18.213   2.789  1.00  0.00     0.057 A 
ATOM     82  C   UNL     1       0.470  18.031   3.116  1.00  0.00     0.134 A 
ATOM     83  C   UNL     1      -1.356  19.528   2.712  1.00  0.00     0.134 A 
ATOM     84  F   UNL     1       0.984  16.796   3.219  1.00  0.00    -0.206 F 
ATOM     85  C   UNL     1       1.308  19.116   3.378  1.00  0.00     0.040 A 
ATOM     86  C   UNL     1      -0.521  20.621   2.946  1.00  0.00     0.040 A 
ATOM     87  F   UNL     1      -2.637  19.772   2.395  1.00  0.00    -0.206 F 
ATOM     88  C   UNL     1       0.814  20.416   3.286  1.00  0.00     0.006 A 
ENDBRANCH  64  81
ENDBRANCH  38  39
ENDBRANCH  30  33
ENDBRANCH  28  29
ENDBRANCH  27  28
ENDBRANCH  26  27
ENDBRANCH  25  26
ENDBRANCH   1  25
TORSDOF 17
