REMARK SMILES Cc1ccccc1OCc1nc2cc(C(=O)NCCCCCCNC(=O)c3ccc(-c4c5nc(c(-c6c(F)cccc6F)c6ccc([nH]6)c(-c6c(F)cccc6F)c6nc(c(-c7c(F)cccc7F)c7ccc4[nH]7)C=C6)C=C5)cc3)ccc2n1C[C@H](C)O
REMARK SMILES IDX 20 1 19 2 18 3 17 4 15 5 16 6 14 8 10 9 11 10 84 11 12 12
REMARK SMILES IDX 83 13 13 14 82 15 81 16 9 17 8 18 7 19 1 20 2 21 3 22 4 23
REMARK SMILES IDX 6 24 5 25 85 26 86 27 87 28 88 29 21 31 22 32 23 33 24 34
REMARK SMILES IDX 25 35 26 37 27 38 28 39 80 40 29 41 79 42 30 43 31 44 32 45
REMARK SMILES IDX 73 46 33 47 78 48 72 49 74 50 34 51 77 52 71 53 70 54 35 56
REMARK SMILES IDX 61 57 44 58 60 59 45 60 48 61 59 62 75 63 46 64 47 65 58 67
REMARK SMILES IDX 76 68 49 69 36 70 37 71 42 72 38 73 39 74 41 75 43 76 40 77
REMARK SMILES IDX 62 78 63 79 68 80 64 81 65 82 67 83 69 84 66 85 50 86 51 87
REMARK SMILES IDX 56 88 52 89 53 90 55 91 57 92 54 93
REMARK H PARENT 17 7 88 30 24 36 74 55 48 66
REMARK Flexibility Score: inf
ROOT
ATOM      1  C   UNL     1      -1.760   5.659  -1.910  1.00  0.00     0.002 C 
ENDROOT
BRANCH   1   2
ATOM      2  C   UNL     1      -1.928   4.160  -1.649  1.00  0.00     0.021 C 
BRANCH   2   3
ATOM      3  C   UNL     1      -1.771   3.783  -0.178  1.00  0.00     0.116 C 
BRANCH   3   4
ATOM      4  N   UNL     1      -3.058   3.752   0.512  1.00  0.00    -0.352 N 
ATOM      5  C   UNL     1      -3.780   2.642   0.912  1.00  0.00     0.251 C 
ATOM      6  O   UNL     1      -4.863   2.728   1.472  1.00  0.00    -0.269 OA
ATOM      7  H   UNL     1      -3.461   4.627   0.716  1.00  0.00     0.163 HD
BRANCH   5   8
ATOM      8  C   UNL     1      -3.102   1.344   0.751  1.00  0.00     0.042 A 
ATOM      9  C   UNL     1      -0.240  -1.029  -1.677  1.00  0.00     0.148 A 
ATOM     10  N   UNL     1      -1.492  -0.674  -1.950  1.00  0.00    -0.229 NA
ATOM     11  N   UNL     1       0.230  -0.184  -0.705  1.00  0.00    -0.322 N 
ATOM     12  C   UNL     1      -1.894   0.035  -0.831  1.00  0.00     0.090 A 
ATOM     13  C   UNL     1      -0.860   0.055   0.102  1.00  0.00     0.068 A 
ATOM     14  C   UNL     1      -3.060   0.745  -0.525  1.00  0.00     0.044 A 
ATOM     15  C   UNL     1      -0.980   0.443   1.434  1.00  0.00     0.029 A 
ATOM     16  C   UNL     1      -2.168   1.074   1.761  1.00  0.00     0.016 A 
BRANCH   9  17
ATOM     17  C   UNL     1       0.430  -2.359  -1.876  1.00  0.00     0.304 C 
BRANCH  17  18
ATOM     18  O   UNL     1       0.514  -2.911  -0.542  1.00  0.00    -0.485 OA
BRANCH  18  19
ATOM     19  C   UNL     1       1.701  -3.488  -0.191  1.00  0.00     0.122 A 
ATOM     20  C   UNL     1       1.921  -1.867   1.779  1.00  0.00     0.048 C 
ATOM     21  C   UNL     1       2.391  -3.019   0.944  1.00  0.00    -0.009 A 
ATOM     22  C   UNL     1       3.533  -3.704   1.381  1.00  0.00     0.007 A 
ATOM     23  C   UNL     1       3.967  -4.849   0.721  1.00  0.00     0.001 A 
ATOM     24  C   UNL     1       2.136  -4.639  -0.848  1.00  0.00     0.047 A 
ATOM     25  C   UNL     1       3.265  -5.319  -0.387  1.00  0.00     0.004 A 
ENDBRANCH  18  19
ENDBRANCH  17  18
ENDBRANCH   9  17
BRANCH  11  26
ATOM     26  C   UNL     1       1.342   0.754  -0.809  1.00  0.00     0.155 C 
BRANCH  26  27
ATOM     27  C   UNL     1       2.675   0.179  -1.292  1.00  0.00     0.131 C 
ATOM     28  C   UNL     1       3.845   0.870  -0.601  1.00  0.00     0.040 C 
BRANCH  27  29
ATOM     29  O   UNL     1       2.789   0.384  -2.701  1.00  0.00    -0.392 OA
ATOM     30  H   UNL     1       2.764   1.334  -2.893  1.00  0.00     0.211 HD
ENDBRANCH  27  29
ENDBRANCH  26  27
ENDBRANCH  11  26
ENDBRANCH   5   8
ENDBRANCH   3   4
ENDBRANCH   2   3
ENDBRANCH   1   2
BRANCH   1  31
ATOM     31  C   UNL     1      -0.402   6.265  -1.510  1.00  0.00     0.002 C 
BRANCH  31  32
ATOM     32  C   UNL     1       0.839   5.512  -1.996  1.00  0.00     0.021 C 
BRANCH  32  33
ATOM     33  C   UNL     1       1.072   5.617  -3.498  1.00  0.00     0.116 C 
BRANCH  33  34
ATOM     34  N   UNL     1       1.889   6.764  -3.878  1.00  0.00    -0.352 N 
ATOM     35  C   UNL     1       2.254   7.230  -5.131  1.00  0.00     0.251 C 
ATOM     36  H   UNL     1       2.238   7.292  -3.123  1.00  0.00     0.163 HD
ATOM     37  O   UNL     1       3.006   8.184  -5.228  1.00  0.00    -0.269 OA
BRANCH  35  38
ATOM     38  C   UNL     1       1.592   6.679  -6.341  1.00  0.00     0.039 A 
ATOM     39  C   UNL     1       1.118   7.610  -7.276  1.00  0.00     0.014 A 
ATOM     40  C   UNL     1       1.197   5.349  -6.414  1.00  0.00     0.014 A 
ATOM     41  C   UNL     1       0.024   7.279  -8.065  1.00  0.00     0.010 A 
ATOM     42  C   UNL     1       0.051   5.047  -7.116  1.00  0.00     0.010 A 
ATOM     43  C   UNL     1      -0.584   6.045  -7.862  1.00  0.00    -0.014 A 
BRANCH  43  44
ATOM     44  C   UNL     1      -1.947   5.753  -8.274  1.00  0.00     0.031 A 
ATOM     45  C   UNL     1      -2.194   4.874  -9.427  1.00  0.00     0.074 A 
ATOM     46  C   UNL     1      -2.972   6.216  -7.525  1.00  0.00     0.049 A 
ATOM     47  N   UNL     1      -3.328   4.776 -10.028  1.00  0.00    -0.248 NA
ATOM     48  C   UNL     1      -1.137   4.096 -10.063  1.00  0.00     0.031 C 
ATOM     49  C   UNL     1      -4.369   5.792  -7.562  1.00  0.00     0.029 A 
ATOM     50  N   UNL     1      -2.979   7.366  -6.720  1.00  0.00    -0.354 N 
ATOM     51  C   UNL     1      -3.244   3.728 -10.912  1.00  0.00     0.074 A 
ATOM     52  C   UNL     1      -1.835   3.443 -10.997  1.00  0.00     0.031 C 
ATOM     53  C   UNL     1      -5.135   6.786  -7.086  1.00  0.00     0.029 A 
ATOM     54  C   UNL     1      -4.264   7.929  -6.882  1.00  0.00     0.049 A 
ATOM     55  H   UNL     1      -2.244   7.707  -6.161  1.00  0.00     0.167 HD
ATOM     56  C   UNL     1      -4.404   3.155 -11.341  1.00  0.00     0.037 A 
ATOM     57  C   UNL     1      -4.437   9.148  -7.470  1.00  0.00     0.037 A 
ATOM     58  C   UNL     1      -5.548   4.014 -11.009  1.00  0.00     0.049 A 
ATOM     59  C   UNL     1      -5.326   9.125  -8.692  1.00  0.00     0.074 A 
ATOM     60  C   UNL     1      -6.552   3.954 -10.056  1.00  0.00     0.029 A 
ATOM     61  N   UNL     1      -5.599   5.299 -11.545  1.00  0.00    -0.354 N 
ATOM     62  N   UNL     1      -5.600   8.054  -9.385  1.00  0.00    -0.248 NA
ATOM     63  C   UNL     1      -5.972  10.316  -9.231  1.00  0.00     0.031 C 
ATOM     64  C   UNL     1      -7.177   5.231  -9.992  1.00  0.00     0.029 A 
ATOM     65  C   UNL     1      -6.574   6.057 -10.927  1.00  0.00     0.049 A 
ATOM     66  H   UNL     1      -5.018   5.624 -12.270  1.00  0.00     0.167 HD
ATOM     67  C   UNL     1      -6.421   8.378 -10.440  1.00  0.00     0.074 A 
ATOM     68  C   UNL     1      -6.647   9.803 -10.274  1.00  0.00     0.031 C 
ATOM     69  C   UNL     1      -6.820   7.434 -11.351  1.00  0.00     0.037 A 
BRANCH  56  70
ATOM     70  C   UNL     1      -4.548   1.725 -11.847  1.00  0.00     0.057 A 
ATOM     71  C   UNL     1      -5.830   1.153 -11.999  1.00  0.00     0.134 A 
ATOM     72  C   UNL     1      -3.499   0.816 -12.093  1.00  0.00     0.134 A 
ATOM     73  F   UNL     1      -6.947   1.876 -11.844  1.00  0.00    -0.206 F 
ATOM     74  C   UNL     1      -6.040  -0.204 -12.301  1.00  0.00     0.040 A 
ATOM     75  C   UNL     1      -3.695  -0.538 -12.409  1.00  0.00     0.040 A 
ATOM     76  F   UNL     1      -2.212   1.157 -12.040  1.00  0.00    -0.206 F 
ATOM     77  C   UNL     1      -4.970  -1.059 -12.498  1.00  0.00     0.006 A 
ENDBRANCH  56  70
BRANCH  57  78
ATOM     78  C   UNL     1      -3.299  10.078  -7.245  1.00  0.00     0.057 A 
ATOM     79  C   UNL     1      -3.015  10.486  -5.929  1.00  0.00     0.134 A 
ATOM     80  C   UNL     1      -2.290  10.252  -8.195  1.00  0.00     0.134 A 
ATOM     81  F   UNL     1      -3.942  10.350  -4.967  1.00  0.00    -0.206 F 
ATOM     82  C   UNL     1      -1.747  10.932  -5.549  1.00  0.00     0.040 A 
ATOM     83  C   UNL     1      -1.018  10.713  -7.829  1.00  0.00     0.040 A 
ATOM     84  F   UNL     1      -2.475   9.868  -9.466  1.00  0.00    -0.206 F 
ATOM     85  C   UNL     1      -0.733  11.014  -6.497  1.00  0.00     0.006 A 
ENDBRANCH  57  78
BRANCH  69  86
ATOM     86  C   UNL     1      -7.518   7.653 -12.691  1.00  0.00     0.057 A 
ATOM     87  C   UNL     1      -7.648   8.879 -13.361  1.00  0.00     0.134 A 
ATOM     88  C   UNL     1      -7.996   6.542 -13.436  1.00  0.00     0.134 A 
ATOM     89  F   UNL     1      -7.160  10.019 -12.864  1.00  0.00    -0.206 F 
ATOM     90  C   UNL     1      -8.242   8.999 -14.630  1.00  0.00     0.040 A 
ATOM     91  C   UNL     1      -8.533   6.642 -14.725  1.00  0.00     0.040 A 
ATOM     92  F   UNL     1      -7.943   5.288 -12.964  1.00  0.00    -0.206 F 
ATOM     93  C   UNL     1      -8.673   7.878 -15.324  1.00  0.00     0.006 A 
ENDBRANCH  69  86
ENDBRANCH  43  44
ENDBRANCH  35  38
ENDBRANCH  33  34
ENDBRANCH  32  33
ENDBRANCH  31  32
ENDBRANCH   1  31
TORSDOF 19
