REMARK SMILES CC[C@H](C)[C@H](NC(=O)[C@H](C)Oc1ccc2c(C)c(C)c(=O)oc2c1C)C(=O)NCCCCCCNC(=O)c1ccc(-c2c3nc(c(-c4c(F)cccc4F)c4ccc([nH]4)c(-c4c(F)cccc4F)c4nc(c(-c5c(F)cccc5F)c5ccc2[nH]5)C=C4)C=C3)cc1
REMARK SMILES IDX 30 1 29 2 28 3 26 4 27 5 5 7 3 8 4 9 2 10 1 11 6 12 7 13
REMARK SMILES IDX 8 15 9 16 10 17 11 18 12 19 13 20 24 21 14 22 23 23 25 24
REMARK SMILES IDX 15 25 22 26 16 27 20 28 17 29 18 30 21 31 19 32 31 33 32 34
REMARK SMILES IDX 33 35 34 36 35 37 36 38 37 40 38 41 39 42 91 43 40 44 90 45
REMARK SMILES IDX 41 46 42 47 43 48 84 49 44 50 89 51 83 52 85 53 45 54 88 55
REMARK SMILES IDX 82 56 81 57 46 59 72 60 55 61 71 62 56 63 59 64 70 65 86 66
REMARK SMILES IDX 57 67 58 68 69 70 87 71 60 72 47 73 48 74 53 75 49 76 50 77
REMARK SMILES IDX 52 78 54 79 51 80 73 81 74 82 79 83 75 84 76 85 78 86 80 87
REMARK SMILES IDX 77 88 61 89 62 90 67 91 63 92 64 93 66 94 68 95 65 96
REMARK H PARENT 28 6 6 14 35 39 85 58 59 69
REMARK Flexibility Score: inf
ROOT
ATOM      1  C   UNL     1       0.075  -5.588   7.808  1.00  0.00     0.021 C 
ENDROOT
BRANCH   1   2
ATOM      2  C   UNL     1       0.777  -4.763   6.746  1.00  0.00     0.116 C 
BRANCH   2   3
ATOM      3  N   UNL     1       0.068  -3.665   6.158  1.00  0.00    -0.354 N 
ATOM      4  C   UNL     1       0.602  -2.525   5.623  1.00  0.00     0.242 C 
ATOM      5  O   UNL     1      -0.132  -1.903   4.844  1.00  0.00    -0.273 OA
ATOM      6  H   UNL     1      -0.913  -3.740   6.137  1.00  0.00     0.163 HD
BRANCH   4   7
ATOM      7  C   UNL     1       2.056  -1.987   5.922  1.00  0.00     0.174 C 
BRANCH   7   8
ATOM      8  C   UNL     1       3.068  -1.886   4.751  1.00  0.00     0.018 C 
ATOM      9  C   UNL     1       2.435  -1.617   3.384  1.00  0.00     0.010 C 
BRANCH   8  10
ATOM     10  C   UNL     1       4.168  -0.825   5.033  1.00  0.00     0.002 C 
ATOM     11  C   UNL     1       5.485  -1.125   4.324  1.00  0.00     0.004 C 
ENDBRANCH   8  10
ENDBRANCH   7   8
BRANCH   7  12
ATOM     12  N   UNL     1       2.734  -2.333   7.189  1.00  0.00    -0.341 N 
ATOM     13  C   UNL     1       3.671  -3.209   7.626  1.00  0.00     0.261 C 
ATOM     14  H   UNL     1       2.413  -1.764   7.925  1.00  0.00     0.164 HD
ATOM     15  O   UNL     1       4.165  -2.879   8.719  1.00  0.00    -0.271 OA
BRANCH  13  16
ATOM     16  C   UNL     1       4.048  -4.633   7.030  1.00  0.00     0.258 C 
ATOM     17  C   UNL     1       5.462  -4.995   7.513  1.00  0.00     0.064 C 
BRANCH  16  18
ATOM     18  O   UNL     1       3.636  -5.251   5.814  1.00  0.00    -0.480 OA
BRANCH  18  19
ATOM     19  C   UNL     1       4.249  -5.117   4.606  1.00  0.00     0.127 A 
ATOM     20  C   UNL     1       5.602  -4.860   4.422  1.00  0.00     0.047 A 
ATOM     21  C   UNL     1       3.425  -5.190   3.464  1.00  0.00     0.035 A 
ATOM     22  C   UNL     1       6.098  -4.477   3.169  1.00  0.00     0.016 A 
ATOM     23  C   UNL     1       3.919  -4.683   2.251  1.00  0.00     0.145 A 
ATOM     24  C   UNL     1       1.999  -5.656   3.517  1.00  0.00     0.052 C 
ATOM     25  C   UNL     1       5.236  -4.280   2.090  1.00  0.00     0.021 A 
ATOM     26  O   UNL     1       2.982  -4.482   1.221  1.00  0.00    -0.422 OA
ATOM     27  C   UNL     1       5.622  -3.566   0.863  1.00  0.00    -0.030 A 
ATOM     28  C   UNL     1       3.242  -3.615   0.176  1.00  0.00     0.339 A 
ATOM     29  C   UNL     1       7.075  -3.212   0.692  1.00  0.00     0.045 C 
ATOM     30  C   UNL     1       4.655  -3.182   0.003  1.00  0.00     0.038 A 
ATOM     31  O   UNL     1       2.348  -3.261  -0.584  1.00  0.00    -0.246 OA
ATOM     32  C   UNL     1       4.904  -2.268  -1.164  1.00  0.00     0.052 C 
ENDBRANCH  18  19
ENDBRANCH  16  18
ENDBRANCH  13  16
ENDBRANCH   7  12
ENDBRANCH   4   7
ENDBRANCH   2   3
ENDBRANCH   1   2
BRANCH   1  33
ATOM     33  C   UNL     1      -0.630  -6.849   7.307  1.00  0.00     0.002 C 
BRANCH  33  34
ATOM     34  C   UNL     1       0.185  -7.812   6.432  1.00  0.00     0.002 C 
BRANCH  34  35
ATOM     35  C   UNL     1       1.553  -8.253   6.963  1.00  0.00     0.021 C 
BRANCH  35  36
ATOM     36  C   UNL     1       1.536  -8.917   8.336  1.00  0.00     0.116 C 
BRANCH  36  37
ATOM     37  N   UNL     1       0.623 -10.047   8.391  1.00  0.00    -0.352 N 
ATOM     38  C   UNL     1       0.860 -11.355   8.729  1.00  0.00     0.251 C 
ATOM     39  H   UNL     1      -0.308  -9.841   8.148  1.00  0.00     0.163 HD
ATOM     40  O   UNL     1       0.003 -12.207   8.549  1.00  0.00    -0.269 OA
BRANCH  38  41
ATOM     41  C   UNL     1       2.164 -11.734   9.309  1.00  0.00     0.039 A 
ATOM     42  C   UNL     1       2.821 -12.862   8.812  1.00  0.00     0.014 A 
ATOM     43  C   UNL     1       2.715 -10.997  10.361  1.00  0.00     0.014 A 
ATOM     44  C   UNL     1       4.058 -13.230   9.344  1.00  0.00     0.010 A 
ATOM     45  C   UNL     1       3.973 -11.330  10.852  1.00  0.00     0.010 A 
ATOM     46  C   UNL     1       4.646 -12.459  10.357  1.00  0.00    -0.014 A 
BRANCH  46  47
ATOM     47  C   UNL     1       5.939 -12.851  10.961  1.00  0.00     0.031 A 
ATOM     48  C   UNL     1       5.972 -13.354  12.375  1.00  0.00     0.074 A 
ATOM     49  C   UNL     1       7.079 -12.705  10.261  1.00  0.00     0.049 A 
ATOM     50  N   UNL     1       6.999 -13.705  13.106  1.00  0.00    -0.248 NA
ATOM     51  C   UNL     1       4.677 -13.453  13.066  1.00  0.00     0.031 C 
ATOM     52  C   UNL     1       7.173 -12.194   8.894  1.00  0.00     0.029 A 
ATOM     53  N   UNL     1       8.379 -12.959  10.615  1.00  0.00    -0.354 N 
ATOM     54  C   UNL     1       6.474 -14.062  14.341  1.00  0.00     0.074 A 
ATOM     55  C   UNL     1       5.048 -13.826  14.281  1.00  0.00     0.031 C 
ATOM     56  C   UNL     1       8.464 -12.175   8.523  1.00  0.00     0.029 A 
ATOM     57  C   UNL     1       9.287 -12.645   9.634  1.00  0.00     0.049 A 
ATOM     58  H   UNL     1       8.637 -13.331  11.489  1.00  0.00     0.167 HD
ATOM     59  C   UNL     1       7.119 -14.563  15.421  1.00  0.00     0.037 A 
ATOM     60  C   UNL     1      10.631 -12.721   9.639  1.00  0.00     0.037 A 
ATOM     61  C   UNL     1       8.538 -14.793  15.476  1.00  0.00     0.049 A 
ATOM     62  C   UNL     1      11.330 -13.244  10.865  1.00  0.00     0.074 A 
ATOM     63  C   UNL     1       9.286 -15.346  16.500  1.00  0.00     0.029 A 
ATOM     64  N   UNL     1       9.427 -14.465  14.462  1.00  0.00    -0.354 N 
ATOM     65  N   UNL     1      10.817 -13.657  11.999  1.00  0.00    -0.248 NA
ATOM     66  C   UNL     1      12.796 -13.319  10.807  1.00  0.00     0.031 C 
ATOM     67  C   UNL     1      10.634 -15.302  16.127  1.00  0.00     0.029 A 
ATOM     68  C   UNL     1      10.721 -14.772  14.849  1.00  0.00     0.049 A 
ATOM     69  H   UNL     1       9.175 -14.072  13.596  1.00  0.00     0.167 HD
ATOM     70  C   UNL     1      11.893 -14.062  12.779  1.00  0.00     0.074 A 
ATOM     71  C   UNL     1      13.085 -13.862  11.981  1.00  0.00     0.031 C 
ATOM     72  C   UNL     1      11.896 -14.558  14.042  1.00  0.00     0.037 A 
BRANCH  59  73
ATOM     73  C   UNL     1       6.283 -14.878  16.629  1.00  0.00     0.057 A 
ATOM     74  C   UNL     1       6.399 -14.116  17.797  1.00  0.00     0.134 A 
ATOM     75  C   UNL     1       5.351 -15.925  16.632  1.00  0.00     0.134 A 
ATOM     76  F   UNL     1       7.274 -13.101  17.866  1.00  0.00    -0.206 F 
ATOM     77  C   UNL     1       5.611 -14.376  18.920  1.00  0.00     0.040 A 
ATOM     78  C   UNL     1       4.535 -16.175  17.737  1.00  0.00     0.040 A 
ATOM     79  F   UNL     1       5.178 -16.685  15.540  1.00  0.00    -0.206 F 
ATOM     80  C   UNL     1       4.667 -15.400  18.887  1.00  0.00     0.006 A 
ENDBRANCH  59  73
BRANCH  60  81
ATOM     81  C   UNL     1      11.405 -12.300   8.445  1.00  0.00     0.057 A 
ATOM     82  C   UNL     1      11.502 -10.954   8.075  1.00  0.00     0.134 A 
ATOM     83  C   UNL     1      12.083 -13.236   7.656  1.00  0.00     0.134 A 
ATOM     84  F   UNL     1      10.870 -10.008   8.785  1.00  0.00    -0.206 F 
ATOM     85  C   UNL     1      12.244 -10.553   6.962  1.00  0.00     0.040 A 
ATOM     86  C   UNL     1      12.849 -12.848   6.555  1.00  0.00     0.040 A 
ATOM     87  F   UNL     1      12.044 -14.539   7.971  1.00  0.00    -0.206 F 
ATOM     88  C   UNL     1      12.928 -11.502   6.204  1.00  0.00     0.006 A 
ENDBRANCH  60  81
BRANCH  72  89
ATOM     89  C   UNL     1      13.227 -14.936  14.624  1.00  0.00     0.057 A 
ATOM     90  C   UNL     1      13.558 -16.281  14.832  1.00  0.00     0.134 A 
ATOM     91  C   UNL     1      14.170 -13.972  15.002  1.00  0.00     0.134 A 
ATOM     92  F   UNL     1      12.697 -17.255  14.499  1.00  0.00    -0.206 F 
ATOM     93  C   UNL     1      14.777 -16.654  15.399  1.00  0.00     0.040 A 
ATOM     94  C   UNL     1      15.405 -14.333  15.543  1.00  0.00     0.040 A 
ATOM     95  F   UNL     1      13.921 -12.667  14.816  1.00  0.00    -0.206 F 
ATOM     96  C   UNL     1      15.709 -15.678  15.749  1.00  0.00     0.006 A 
ENDBRANCH  72  89
ENDBRANCH  46  47
ENDBRANCH  38  41
ENDBRANCH  36  37
ENDBRANCH  35  36
ENDBRANCH  34  35
ENDBRANCH  33  34
ENDBRANCH   1  33
TORSDOF 19
