REMARK SMILES O=C(NCCCCCCNC(=O)[C@@H]1CCC(=O)N(CCCOC2CCCCC2)[C@H]1c1ccco1)c1ccc(-c2c3nc(c(-c4c(F)cccc4F)c4ccc([nH]4)c(-c4c(F)cccc4F)c4nc(c(-c5c(F)cccc5F)c5ccc2[nH]5)C=C4)C=C3)cc1
REMARK SMILES IDX 8 1 7 2 6 3 5 4 4 5 3 6 1 7 2 8 35 10 36 11 88 12 37 13
REMARK SMILES IDX 87 14 38 15 39 16 40 17 81 18 41 19 86 20 80 21 82 22 42 23
REMARK SMILES IDX 85 24 79 25 78 26 43 28 69 29 52 30 68 31 53 32 56 33 67 34
REMARK SMILES IDX 83 35 54 36 55 37 66 39 84 40 57 41 44 42 45 43 50 44 46 45
REMARK SMILES IDX 47 46 49 47 51 48 48 49 70 50 71 51 76 52 72 53 73 54 75 55
REMARK SMILES IDX 77 56 74 57 58 58 59 59 64 60 60 61 61 62 63 63 65 64 62 65
REMARK SMILES IDX 9 66 10 67 11 68 12 70 13 71 14 72 29 73 15 74 18 75 16 76
REMARK SMILES IDX 17 77 30 78 31 79 34 80 32 81 33 82 19 83 20 84 21 85 22 86
REMARK SMILES IDX 23 87 24 88 28 89 25 90 27 91 26 92
REMARK H PARENT 3 9 82 27 56 38 10 69
REMARK Flexibility Score: inf
ROOT
ATOM      1  C   UNL     1       6.025  -2.588  -3.205  1.00  0.00     0.021 C 
ENDROOT
BRANCH   1   2
ATOM      2  C   UNL     1       4.501  -2.620  -3.349  1.00  0.00     0.002 C 
BRANCH   2   3
ATOM      3  C   UNL     1       3.757  -3.106  -2.100  1.00  0.00     0.002 C 
BRANCH   3   4
ATOM      4  C   UNL     1       4.192  -2.439  -0.794  1.00  0.00     0.021 C 
BRANCH   4   5
ATOM      5  C   UNL     1       4.165  -0.917  -0.829  1.00  0.00     0.116 C 
BRANCH   5   6
ATOM      6  N   UNL     1       2.810  -0.397  -0.914  1.00  0.00    -0.352 N 
ATOM      7  O   UNL     1       0.927   0.565  -0.104  1.00  0.00    -0.269 OA
ATOM      8  C   UNL     1       2.134   0.372   0.001  1.00  0.00     0.251 C 
ATOM      9  H   UNL     1       2.313  -0.626  -1.732  1.00  0.00     0.163 HD
BRANCH   8  10
ATOM     10  C   UNL     1       2.886   0.948   1.133  1.00  0.00     0.039 A 
ATOM     11  C   UNL     1       4.095   1.608   0.898  1.00  0.00     0.014 A 
ATOM     12  C   UNL     1       2.406   0.787   2.434  1.00  0.00     0.014 A 
ATOM     13  C   UNL     1       4.897   1.966   1.971  1.00  0.00     0.010 A 
ATOM     14  C   UNL     1       3.171   1.244   3.510  1.00  0.00     0.010 A 
ATOM     15  C   UNL     1       4.438   1.808   3.289  1.00  0.00    -0.014 A 
BRANCH  15  16
ATOM     16  C   UNL     1       5.280   2.300   4.408  1.00  0.00     0.031 A 
ATOM     17  C   UNL     1       5.830   1.365   5.447  1.00  0.00     0.074 A 
ATOM     18  C   UNL     1       5.571   3.615   4.455  1.00  0.00     0.049 A 
ATOM     19  N   UNL     1       6.604   1.634   6.469  1.00  0.00    -0.248 NA
ATOM     20  C   UNL     1       5.459  -0.054   5.335  1.00  0.00     0.031 C 
ATOM     21  C   UNL     1       5.085   4.620   3.506  1.00  0.00     0.029 A 
ATOM     22  N   UNL     1       6.363   4.330   5.315  1.00  0.00    -0.354 N 
ATOM     23  C   UNL     1       6.790   0.430   7.136  1.00  0.00     0.074 A 
ATOM     24  C   UNL     1       6.029  -0.569   6.416  1.00  0.00     0.031 C 
ATOM     25  C   UNL     1       5.638   5.805   3.796  1.00  0.00     0.029 A 
ATOM     26  C   UNL     1       6.457   5.661   4.992  1.00  0.00     0.049 A 
ATOM     27  H   UNL     1       6.821   3.928   6.089  1.00  0.00     0.167 HD
ATOM     28  C   UNL     1       7.533   0.183   8.243  1.00  0.00     0.037 A 
ATOM     29  C   UNL     1       7.118   6.663   5.599  1.00  0.00     0.037 A 
ATOM     30  C   UNL     1       8.304   1.183   8.940  1.00  0.00     0.049 A 
ATOM     31  C   UNL     1       7.912   6.362   6.835  1.00  0.00     0.074 A 
ATOM     32  C   UNL     1       9.125   1.024  10.044  1.00  0.00     0.029 A 
ATOM     33  N   UNL     1       8.343   2.529   8.606  1.00  0.00    -0.354 N 
ATOM     34  N   UNL     1       8.110   5.212   7.432  1.00  0.00    -0.248 NA
ATOM     35  C   UNL     1       8.572   7.502   7.484  1.00  0.00     0.031 C 
ATOM     36  C   UNL     1       9.616   2.283  10.410  1.00  0.00     0.029 A 
ATOM     37  C   UNL     1       9.150   3.217   9.499  1.00  0.00     0.049 A 
ATOM     38  H   UNL     1       7.867   2.936   7.846  1.00  0.00     0.167 HD
ATOM     39  C   UNL     1       8.938   5.483   8.511  1.00  0.00     0.074 A 
ATOM     40  C   UNL     1       9.219   6.904   8.474  1.00  0.00     0.031 C 
ATOM     41  C   UNL     1       9.423   4.632   9.448  1.00  0.00     0.037 A 
BRANCH  28  42
ATOM     42  C   UNL     1       7.526  -1.217   8.790  1.00  0.00     0.057 A 
ATOM     43  C   UNL     1       8.154  -2.282   8.130  1.00  0.00     0.134 A 
ATOM     44  C   UNL     1       6.914  -1.496  10.020  1.00  0.00     0.134 A 
ATOM     45  F   UNL     1       8.751  -2.090   6.945  1.00  0.00    -0.206 F 
ATOM     46  C   UNL     1       8.149  -3.575   8.659  1.00  0.00     0.040 A 
ATOM     47  C   UNL     1       6.927  -2.778  10.572  1.00  0.00     0.040 A 
ATOM     48  F   UNL     1       6.302  -0.523  10.713  1.00  0.00    -0.206 F 
ATOM     49  C   UNL     1       7.539  -3.825   9.887  1.00  0.00     0.006 A 
ENDBRANCH  28  42
BRANCH  29  50
ATOM     50  C   UNL     1       7.055   8.036   5.041  1.00  0.00     0.057 A 
ATOM     51  C   UNL     1       8.186   8.639   4.478  1.00  0.00     0.134 A 
ATOM     52  C   UNL     1       5.866   8.776   5.048  1.00  0.00     0.134 A 
ATOM     53  F   UNL     1       9.358   7.987   4.455  1.00  0.00    -0.206 F 
ATOM     54  C   UNL     1       8.141   9.933   3.959  1.00  0.00     0.040 A 
ATOM     55  C   UNL     1       5.799  10.059   4.505  1.00  0.00     0.040 A 
ATOM     56  F   UNL     1       4.745   8.250   5.563  1.00  0.00    -0.206 F 
ATOM     57  C   UNL     1       6.943  10.644   3.966  1.00  0.00     0.006 A 
ENDBRANCH  29  50
BRANCH  41  58
ATOM     58  C   UNL     1      10.342   5.214  10.482  1.00  0.00     0.057 A 
ATOM     59  C   UNL     1       9.882   6.076  11.486  1.00  0.00     0.134 A 
ATOM     60  C   UNL     1      11.707   4.899  10.476  1.00  0.00     0.134 A 
ATOM     61  F   UNL     1       8.589   6.430  11.538  1.00  0.00    -0.206 F 
ATOM     62  C   UNL     1      10.752   6.630  12.427  1.00  0.00     0.040 A 
ATOM     63  C   UNL     1      12.581   5.422  11.430  1.00  0.00     0.040 A 
ATOM     64  F   UNL     1      12.213   4.074   9.547  1.00  0.00    -0.206 F 
ATOM     65  C   UNL     1      12.105   6.298  12.403  1.00  0.00     0.006 A 
ENDBRANCH  41  58
ENDBRANCH  15  16
ENDBRANCH   8  10
ENDBRANCH   5   6
ENDBRANCH   4   5
ENDBRANCH   3   4
ENDBRANCH   2   3
ENDBRANCH   1   2
BRANCH   1  66
ATOM     66  C   UNL     1       6.673  -3.962  -3.054  1.00  0.00     0.116 C 
BRANCH  66  67
ATOM     67  N   UNL     1       6.794  -4.683  -4.302  1.00  0.00    -0.356 N 
ATOM     68  C   UNL     1       7.840  -5.266  -4.936  1.00  0.00     0.225 C 
ATOM     69  H   UNL     1       5.943  -4.769  -4.790  1.00  0.00     0.163 HD
ATOM     70  O   UNL     1       7.556  -5.873  -5.977  1.00  0.00    -0.275 OA
BRANCH  68  71
ATOM     71  C   UNL     1       9.318  -5.170  -4.527  1.00  0.00     0.109 C 
ATOM     72  C   UNL     1       9.716  -5.600  -3.129  1.00  0.00     0.026 C 
ATOM     73  C   UNL     1       9.920  -3.833  -4.922  1.00  0.00     0.164 C 
ATOM     74  C   UNL     1       9.968  -4.483  -2.123  1.00  0.00     0.101 C 
ATOM     75  N   UNL     1       9.712  -2.784  -3.935  1.00  0.00    -0.332 N 
ATOM     76  C   UNL     1       9.900  -3.028  -2.586  1.00  0.00     0.223 C 
ATOM     77  O   UNL     1       9.893  -2.131  -1.741  1.00  0.00    -0.275 OA
BRANCH  73  78
ATOM     78  C   UNL     1      11.379  -3.905  -5.286  1.00  0.00     0.127 A 
ATOM     79  C   UNL     1      12.039  -4.359  -6.412  1.00  0.00     0.048 A 
ATOM     80  O   UNL     1      12.277  -3.321  -4.439  1.00  0.00    -0.467 OA
ATOM     81  C   UNL     1      13.394  -3.975  -6.267  1.00  0.00     0.042 A 
ATOM     82  C   UNL     1      13.486  -3.342  -5.051  1.00  0.00     0.195 A 
ENDBRANCH  73  78
BRANCH  75  83
ATOM     83  C   UNL     1       9.322  -1.447  -4.402  1.00  0.00     0.122 C 
BRANCH  83  84
ATOM     84  C   UNL     1      10.372  -0.605  -5.138  1.00  0.00     0.050 C 
BRANCH  84  85
ATOM     85  C   UNL     1      10.517  -0.817  -6.653  1.00  0.00     0.162 C 
BRANCH  85  86
ATOM     86  O   UNL     1       9.632  -0.061  -7.486  1.00  0.00    -0.378 OA
BRANCH  86  87
ATOM     87  C   UNL     1       8.322  -0.541  -7.820  1.00  0.00     0.118 C 
ATOM     88  C   UNL     1       8.217  -2.048  -8.079  1.00  0.00     0.032 C 
ATOM     89  C   UNL     1       7.292   0.068  -6.861  1.00  0.00     0.032 C 
ATOM     90  C   UNL     1       6.795  -2.587  -8.129  1.00  0.00     0.003 C 
ATOM     91  C   UNL     1       5.930  -0.617  -6.849  1.00  0.00     0.003 C 
ATOM     92  C   UNL     1       6.026  -2.134  -6.902  1.00  0.00     0.000 C 
ENDBRANCH  86  87
ENDBRANCH  85  86
ENDBRANCH  84  85
ENDBRANCH  83  84
ENDBRANCH  75  83
ENDBRANCH  68  71
ENDBRANCH  66  67
ENDBRANCH   1  66
TORSDOF 19
