REMARK SMILES COc1cc(C(=O)N[C@H]2CCCC[C@H]2C(=O)NCCCCCCNC(=O)c2ccc(-c3c4nc(c(-c5c(F)cccc5F)c5ccc([nH]5)c(-c5c(F)cccc5F)c5nc(c(-c6c(F)cccc6F)c6ccc3[nH]6)C=C5)C=C4)cc2)cc(Cl)c1OC
REMARK SMILES IDX 20 1 19 2 18 3 17 4 15 5 16 6 14 8 9 9 10 10 11 11 13 12
REMARK SMILES IDX 12 13 8 14 6 15 7 16 5 18 3 19 4 20 84 21 82 22 81 23 83 24
REMARK SMILES IDX 2 25 1 26 85 27 86 28 21 29 22 30 23 31 24 32 25 33 26 35
REMARK SMILES IDX 27 36 28 37 80 38 29 39 79 40 30 41 31 42 32 43 73 44 33 45
REMARK SMILES IDX 78 46 72 47 74 48 34 49 77 50 71 51 70 52 35 54 61 55 44 56
REMARK SMILES IDX 60 57 45 58 48 59 59 60 75 61 46 62 47 63 58 65 76 66 49 67
REMARK SMILES IDX 36 68 37 69 42 70 38 71 39 72 41 73 43 74 40 75 62 76 63 77
REMARK SMILES IDX 68 78 64 79 65 80 67 81 69 82 66 83 50 84 51 85 56 86 52 87
REMARK SMILES IDX 53 88 55 89 57 90 54 91
REMARK H PARENT 17 7 8 17 24 34 74 53 48 64
REMARK Flexibility Score: inf
ROOT
ATOM      1  C   UNL     1      -1.001   0.373   4.068  1.00  0.00     0.002 C 
ENDROOT
BRANCH   1   2
ATOM      2  C   UNL     1      -0.186   1.543   4.621  1.00  0.00     0.021 C 
BRANCH   2   3
ATOM      3  C   UNL     1      -0.026   1.518   6.139  1.00  0.00     0.116 C 
BRANCH   3   4
ATOM      4  N   UNL     1       1.148   0.764   6.521  1.00  0.00    -0.356 N 
ATOM      5  C   UNL     1       2.357   1.153   6.990  1.00  0.00     0.225 C 
ATOM      6  O   UNL     1       3.232   0.282   7.060  1.00  0.00    -0.275 OA
ATOM      7  H   UNL     1       1.049  -0.210   6.422  1.00  0.00     0.163 HD
BRANCH   5   8
ATOM      8  C   UNL     1       2.681   2.577   7.435  1.00  0.00     0.101 C 
ATOM      9  C   UNL     1       3.111   3.541   6.303  1.00  0.00     0.094 C 
ATOM     10  C   UNL     1       3.608   4.864   6.918  1.00  0.00     0.026 C 
ATOM     11  C   UNL     1       2.591   5.463   7.891  1.00  0.00     0.002 C 
ATOM     12  C   UNL     1       1.751   3.167   8.498  1.00  0.00     0.015 C 
ATOM     13  C   UNL     1       2.284   4.497   9.028  1.00  0.00     0.001 C 
BRANCH   9  14
ATOM     14  N   UNL     1       2.105   3.847   5.290  1.00  0.00    -0.349 N 
ATOM     15  C   UNL     1       2.160   4.303   3.994  1.00  0.00     0.251 C 
ATOM     16  O   UNL     1       1.070   4.444   3.432  1.00  0.00    -0.269 OA
ATOM     17  H   UNL     1       1.185   3.692   5.604  1.00  0.00     0.164 HD
BRANCH  15  18
ATOM     18  C   UNL     1       3.401   4.700   3.250  1.00  0.00     0.045 A 
ATOM     19  C   UNL     1       4.312   5.787   1.259  1.00  0.00     0.163 A 
ATOM     20  C   UNL     1       3.223   5.285   1.989  1.00  0.00     0.064 A 
ATOM     21  C   UNL     1       5.633   5.692   1.751  1.00  0.00     0.179 A 
ATOM     22  C   UNL     1       5.814   5.071   2.990  1.00  0.00     0.087 A 
ATOM     23  C   UNL     1       4.708   4.583   3.714  1.00  0.00     0.038 A 
ATOM     24  Cl  UNL     1       7.333   4.813   3.783  1.00  0.00    -0.080 Cl
BRANCH  19  25
ATOM     25  O   UNL     1       4.147   6.340   0.008  1.00  0.00    -0.493 OA
ATOM     26  C   UNL     1       3.044   7.233  -0.107  1.00  0.00     0.278 C 
ENDBRANCH  19  25
BRANCH  21  27
ATOM     27  O   UNL     1       6.566   6.239   0.912  1.00  0.00    -0.491 OA
ATOM     28  C   UNL     1       7.905   6.427   1.331  1.00  0.00     0.278 C 
ENDBRANCH  21  27
ENDBRANCH  15  18
ENDBRANCH   9  14
ENDBRANCH   5   8
ENDBRANCH   3   4
ENDBRANCH   2   3
ENDBRANCH   1   2
BRANCH   1  29
ATOM     29  C   UNL     1      -2.452   0.315   4.558  1.00  0.00     0.002 C 
BRANCH  29  30
ATOM     30  C   UNL     1      -3.247   1.615   4.402  1.00  0.00     0.021 C 
BRANCH  30  31
ATOM     31  C   UNL     1      -3.304   2.156   2.976  1.00  0.00     0.116 C 
BRANCH  31  32
ATOM     32  N   UNL     1      -3.946   1.214   2.073  1.00  0.00    -0.352 N 
ATOM     33  C   UNL     1      -5.116   1.338   1.369  1.00  0.00     0.251 C 
ATOM     34  H   UNL     1      -3.470   0.361   1.949  1.00  0.00     0.163 HD
ATOM     35  O   UNL     1      -5.636   0.352   0.858  1.00  0.00    -0.269 OA
BRANCH  33  36
ATOM     36  C   UNL     1      -5.755   2.663   1.228  1.00  0.00     0.039 A 
ATOM     37  C   UNL     1      -7.139   2.766   1.386  1.00  0.00     0.014 A 
ATOM     38  C   UNL     1      -4.996   3.792   0.909  1.00  0.00     0.014 A 
ATOM     39  C   UNL     1      -7.756   4.013   1.272  1.00  0.00     0.010 A 
ATOM     40  C   UNL     1      -5.602   5.044   0.863  1.00  0.00     0.010 A 
ATOM     41  C   UNL     1      -6.989   5.166   1.037  1.00  0.00    -0.014 A 
BRANCH  41  42
ATOM     42  C   UNL     1      -7.620   6.507   0.965  1.00  0.00     0.031 A 
ATOM     43  C   UNL     1      -7.598   7.284  -0.322  1.00  0.00     0.074 A 
ATOM     44  C   UNL     1      -8.156   7.049   2.075  1.00  0.00     0.049 A 
ATOM     45  N   UNL     1      -8.034   8.494  -0.564  1.00  0.00    -0.248 NA
ATOM     46  C   UNL     1      -6.982   6.625  -1.484  1.00  0.00     0.031 C 
ATOM     47  C   UNL     1      -8.197   6.412   3.392  1.00  0.00     0.029 A 
ATOM     48  N   UNL     1      -8.758   8.265   2.274  1.00  0.00    -0.354 N 
ATOM     49  C   UNL     1      -7.734   8.745  -1.897  1.00  0.00     0.074 A 
ATOM     50  C   UNL     1      -7.034   7.582  -2.398  1.00  0.00     0.031 C 
ATOM     51  C   UNL     1      -8.810   7.235   4.258  1.00  0.00     0.029 A 
ATOM     52  C   UNL     1      -9.172   8.469   3.568  1.00  0.00     0.049 A 
ATOM     53  H   UNL     1      -8.883   8.929   1.558  1.00  0.00     0.167 HD
ATOM     54  C   UNL     1      -8.033   9.836  -2.640  1.00  0.00     0.037 A 
ATOM     55  C   UNL     1      -9.768   9.534   4.135  1.00  0.00     0.037 A 
ATOM     56  C   UNL     1      -8.750  10.982  -2.144  1.00  0.00     0.049 A 
ATOM     57  C   UNL     1     -10.086  10.735   3.289  1.00  0.00     0.074 A 
ATOM     58  C   UNL     1      -9.154  12.112  -2.833  1.00  0.00     0.029 A 
ATOM     59  N   UNL     1      -9.169  11.142  -0.832  1.00  0.00    -0.354 N 
ATOM     60  N   UNL     1      -9.854  10.932   2.014  1.00  0.00    -0.248 NA
ATOM     61  C   UNL     1     -10.753  11.860   3.959  1.00  0.00     0.031 C 
ATOM     62  C   UNL     1      -9.780  12.975  -1.929  1.00  0.00     0.029 A 
ATOM     63  C   UNL     1      -9.809  12.362  -0.687  1.00  0.00     0.049 A 
ATOM     64  H   UNL     1      -9.033  10.486  -0.111  1.00  0.00     0.167 HD
ATOM     65  C   UNL     1     -10.372  12.187   1.722  1.00  0.00     0.074 A 
ATOM     66  C   UNL     1     -10.941  12.700   2.951  1.00  0.00     0.031 C 
ATOM     67  C   UNL     1     -10.377  12.854   0.542  1.00  0.00     0.037 A 
BRANCH  54  68
ATOM     68  C   UNL     1      -7.587   9.841  -4.074  1.00  0.00     0.057 A 
ATOM     69  C   UNL     1      -8.180   9.010  -5.034  1.00  0.00     0.134 A 
ATOM     70  C   UNL     1      -6.579  10.711  -4.508  1.00  0.00     0.134 A 
ATOM     71  F   UNL     1      -9.143   8.145  -4.683  1.00  0.00    -0.206 F 
ATOM     72  C   UNL     1      -7.768   9.026  -6.368  1.00  0.00     0.040 A 
ATOM     73  C   UNL     1      -6.178  10.756  -5.844  1.00  0.00     0.040 A 
ATOM     74  F   UNL     1      -5.974  11.539  -3.642  1.00  0.00    -0.206 F 
ATOM     75  C   UNL     1      -6.769   9.906  -6.777  1.00  0.00     0.006 A 
ENDBRANCH  54  68
BRANCH  55  76
ATOM     76  C   UNL     1     -10.125   9.505   5.576  1.00  0.00     0.057 A 
ATOM     77  C   UNL     1     -11.462   9.435   5.986  1.00  0.00     0.134 A 
ATOM     78  C   UNL     1      -9.146   9.552   6.575  1.00  0.00     0.134 A 
ATOM     79  F   UNL     1     -12.446   9.406   5.075  1.00  0.00    -0.206 F 
ATOM     80  C   UNL     1     -11.813   9.433   7.336  1.00  0.00     0.040 A 
ATOM     81  C   UNL     1      -9.482   9.526   7.929  1.00  0.00     0.040 A 
ATOM     82  F   UNL     1      -7.846   9.611   6.247  1.00  0.00    -0.206 F 
ATOM     83  C   UNL     1     -10.820   9.474   8.313  1.00  0.00     0.006 A 
ENDBRANCH  55  76
BRANCH  67  84
ATOM     84  C   UNL     1     -11.050  14.195   0.516  1.00  0.00     0.057 A 
ATOM     85  C   UNL     1     -10.478  15.322   1.118  1.00  0.00     0.134 A 
ATOM     86  C   UNL     1     -12.268  14.366  -0.156  1.00  0.00     0.134 A 
ATOM     87  F   UNL     1      -9.320  15.221   1.788  1.00  0.00    -0.206 F 
ATOM     88  C   UNL     1     -11.104  16.569   1.072  1.00  0.00     0.040 A 
ATOM     89  C   UNL     1     -12.890  15.613  -0.231  1.00  0.00     0.040 A 
ATOM     90  F   UNL     1     -12.864  13.328  -0.761  1.00  0.00    -0.206 F 
ATOM     91  C   UNL     1     -12.311  16.717   0.390  1.00  0.00     0.006 A 
ENDBRANCH  67  84
ENDBRANCH  41  42
ENDBRANCH  33  36
ENDBRANCH  31  32
ENDBRANCH  30  31
ENDBRANCH  29  30
ENDBRANCH   1  29
TORSDOF 17
