REMARK SMILES O=C(NCCCCCCNC(=O)C1(Cc2ccccc2Cl)CCN(c2ncnc3[nH]ccc23)CC1)c1ccc(-c2c3nc(c(-c4c(F)cccc4F)c4ccc([nH]4)c(-c4c(F)cccc4F)c4nc(c(-c5c(F)cccc5F)c5ccc2[nH]5)C=C4)C=C3)cc1
REMARK SMILES IDX 6 1 5 2 4 3 3 4 1 5 2 6 36 8 37 9 89 10 38 11 88 12 39 13
REMARK SMILES IDX 40 14 41 15 82 16 42 17 87 18 81 19 83 20 43 21 86 22 80 23
REMARK SMILES IDX 79 24 44 26 70 27 53 28 69 29 54 30 57 31 68 32 84 33 55 34
REMARK SMILES IDX 56 35 67 37 85 38 58 39 45 40 46 41 51 42 47 43 48 44 50 45
REMARK SMILES IDX 52 46 49 47 71 48 72 49 77 50 73 51 74 52 76 53 78 54 75 55
REMARK SMILES IDX 59 56 60 57 65 58 61 59 62 60 64 61 66 62 63 63 7 64 8 65
REMARK SMILES IDX 9 66 10 67 11 68 12 70 13 71 22 72 35 73 23 74 34 75 24 76
REMARK SMILES IDX 14 77 15 78 16 79 20 80 17 81 19 82 21 83 18 84 25 85 26 86
REMARK SMILES IDX 33 87 27 88 29 89 32 90 28 91 30 92 31 93
REMARK H PARENT 3 7 83 25 57 36 10 69 30 94
REMARK Flexibility Score: inf
ROOT
ATOM      1  C   UNL     1       4.047   2.483  -3.052  1.00  0.00     0.002 C 
ENDROOT
BRANCH   1   2
ATOM      2  C   UNL     1       4.384   1.081  -2.548  1.00  0.00     0.021 C 
BRANCH   2   3
ATOM      3  C   UNL     1       4.316   0.928  -1.034  1.00  0.00     0.116 C 
BRANCH   3   4
ATOM      4  N   UNL     1       2.946   0.932  -0.544  1.00  0.00    -0.352 N 
ATOM      5  O   UNL     1       1.091   0.002   0.365  1.00  0.00    -0.269 OA
ATOM      6  C   UNL     1       2.304  -0.040   0.186  1.00  0.00     0.251 C 
ATOM      7  H   UNL     1       2.413   1.730  -0.763  1.00  0.00     0.163 HD
BRANCH   6   8
ATOM      8  C   UNL     1       3.100  -1.151   0.745  1.00  0.00     0.039 A 
ATOM      9  C   UNL     1       4.290  -0.877   1.424  1.00  0.00     0.014 A 
ATOM     10  C   UNL     1       2.670  -2.469   0.573  1.00  0.00     0.014 A 
ATOM     11  C   UNL     1       5.115  -1.923   1.812  1.00  0.00     0.010 A 
ATOM     12  C   UNL     1       3.458  -3.521   1.051  1.00  0.00     0.010 A 
ATOM     13  C   UNL     1       4.695  -3.256   1.658  1.00  0.00    -0.014 A 
BRANCH  13  14
ATOM     14  C   UNL     1       5.532  -4.333   2.245  1.00  0.00     0.031 A 
ATOM     15  C   UNL     1       6.204  -5.369   1.391  1.00  0.00     0.074 A 
ATOM     16  C   UNL     1       5.717  -4.325   3.580  1.00  0.00     0.049 A 
ATOM     17  N   UNL     1       7.007  -6.337   1.758  1.00  0.00    -0.248 NA
ATOM     18  C   UNL     1       5.943  -5.323  -0.055  1.00  0.00     0.031 C 
ATOM     19  C   UNL     1       5.093  -3.378   4.509  1.00  0.00     0.029 A 
ATOM     20  N   UNL     1       6.499  -5.111   4.385  1.00  0.00    -0.354 N 
ATOM     21  C   UNL     1       7.340  -7.020   0.595  1.00  0.00     0.074 A 
ATOM     22  C   UNL     1       6.631  -6.372  -0.489  1.00  0.00     0.031 C 
ATOM     23  C   UNL     1       5.561  -3.599   5.745  1.00  0.00     0.029 A 
ATOM     24  C   UNL     1       6.461  -4.743   5.709  1.00  0.00     0.049 A 
ATOM     25  H   UNL     1       7.035  -5.865   4.049  1.00  0.00     0.167 HD
ATOM     26  C   UNL     1       8.167  -8.083   0.450  1.00  0.00     0.037 A 
ATOM     27  C   UNL     1       7.070  -5.278   6.782  1.00  0.00     0.037 A 
ATOM     28  C   UNL     1       8.871  -8.719   1.536  1.00  0.00     0.049 A 
ATOM     29  C   UNL     1       7.967  -6.463   6.587  1.00  0.00     0.074 A 
ATOM     30  C   UNL     1       9.742  -9.795   1.487  1.00  0.00     0.029 A 
ATOM     31  N   UNL     1       8.785  -8.338   2.867  1.00  0.00    -0.354 N 
ATOM     32  N   UNL     1       8.290  -7.079   5.476  1.00  0.00    -0.248 NA
ATOM     33  C   UNL     1       8.582  -7.028   7.794  1.00  0.00     0.031 C 
ATOM     34  C   UNL     1      10.153 -10.088   2.792  1.00  0.00     0.029 A 
ATOM     35  C   UNL     1       9.575  -9.167   3.649  1.00  0.00     0.049 A 
ATOM     36  H   UNL     1       8.243  -7.590   3.206  1.00  0.00     0.167 HD
ATOM     37  C   UNL     1       9.149  -8.102   5.849  1.00  0.00     0.074 A 
ATOM     38  C   UNL     1       9.325  -7.998   7.284  1.00  0.00     0.031 C 
ATOM     39  C   UNL     1       9.731  -9.052   5.077  1.00  0.00     0.037 A 
BRANCH  26  40
ATOM     40  C   UNL     1       8.359  -8.639  -0.932  1.00  0.00     0.057 A 
ATOM     41  C   UNL     1       9.125  -7.971  -1.895  1.00  0.00     0.134 A 
ATOM     42  C   UNL     1       7.836  -9.892  -1.280  1.00  0.00     0.134 A 
ATOM     43  F   UNL     1       9.646  -6.763  -1.631  1.00  0.00    -0.206 F 
ATOM     44  C   UNL     1       9.357  -8.523  -3.157  1.00  0.00     0.040 A 
ATOM     45  C   UNL     1       8.079 -10.465  -2.530  1.00  0.00     0.040 A 
ATOM     46  F   UNL     1       7.100 -10.589  -0.402  1.00  0.00    -0.206 F 
ATOM     47  C   UNL     1       8.841  -9.779  -3.474  1.00  0.00     0.006 A 
ENDBRANCH  26  40
BRANCH  27  48
ATOM     48  C   UNL     1       6.831  -4.709   8.131  1.00  0.00     0.057 A 
ATOM     49  C   UNL     1       7.848  -4.062   8.840  1.00  0.00     0.134 A 
ATOM     50  C   UNL     1       5.575  -4.803   8.745  1.00  0.00     0.134 A 
ATOM     51  F   UNL     1       9.076  -3.952   8.310  1.00  0.00    -0.206 F 
ATOM     52  C   UNL     1       7.634  -3.549  10.120  1.00  0.00     0.040 A 
ATOM     53  C   UNL     1       5.338  -4.267  10.010  1.00  0.00     0.040 A 
ATOM     54  F   UNL     1       4.555  -5.402   8.113  1.00  0.00    -0.206 F 
ATOM     55  C   UNL     1       6.373  -3.646  10.706  1.00  0.00     0.006 A 
ENDBRANCH  27  48
BRANCH  39  56
ATOM     56  C   UNL     1      10.619 -10.035   5.778  1.00  0.00     0.057 A 
ATOM     57  C   UNL     1      10.098 -11.029   6.618  1.00  0.00     0.134 A 
ATOM     58  C   UNL     1      12.009  -9.985   5.618  1.00  0.00     0.134 A 
ATOM     59  F   UNL     1       8.776 -11.118   6.826  1.00  0.00    -0.206 F 
ATOM     60  C   UNL     1      10.932 -11.915   7.301  1.00  0.00     0.040 A 
ATOM     61  C   UNL     1      12.851 -10.883   6.274  1.00  0.00     0.040 A 
ATOM     62  F   UNL     1      12.571  -9.062   4.822  1.00  0.00    -0.206 F 
ATOM     63  C   UNL     1      12.312 -11.846   7.126  1.00  0.00     0.006 A 
ENDBRANCH  39  56
ENDBRANCH  13  14
ENDBRANCH   6   8
ENDBRANCH   3   4
ENDBRANCH   2   3
ENDBRANCH   1   2
BRANCH   1  64
ATOM     64  C   UNL     1       4.906   3.601  -2.454  1.00  0.00     0.002 C 
BRANCH  64  65
ATOM     65  C   UNL     1       6.420   3.383  -2.579  1.00  0.00     0.021 C 
BRANCH  65  66
ATOM     66  C   UNL     1       6.947   3.441  -4.014  1.00  0.00     0.116 C 
BRANCH  66  67
ATOM     67  N   UNL     1       6.719   4.739  -4.622  1.00  0.00    -0.356 N 
ATOM     68  C   UNL     1       7.432   5.890  -4.715  1.00  0.00     0.226 C 
ATOM     69  H   UNL     1       5.845   4.797  -5.071  1.00  0.00     0.163 HD
ATOM     70  O   UNL     1       6.832   6.823  -5.263  1.00  0.00    -0.274 OA
BRANCH  68  71
ATOM     71  C   UNL     1       8.918   6.036  -4.329  1.00  0.00     0.057 C 
ATOM     72  C   UNL     1       9.331   7.544  -4.240  1.00  0.00     0.039 C 
ATOM     73  C   UNL     1       9.697   5.331  -5.501  1.00  0.00     0.039 C 
ATOM     74  C   UNL     1       9.466   8.269  -5.576  1.00  0.00     0.119 C 
ATOM     75  C   UNL     1       9.726   6.153  -6.799  1.00  0.00     0.119 C 
ATOM     76  N   UNL     1      10.271   7.439  -6.443  1.00  0.00    -0.356 N 
BRANCH  71  77
ATOM     77  C   UNL     1       9.369   5.377  -2.993  1.00  0.00     0.054 C 
BRANCH  77  78
ATOM     78  C   UNL     1       8.993   5.776  -1.569  1.00  0.00    -0.028 A 
ATOM     79  C   UNL     1       9.872   5.247  -0.586  1.00  0.00     0.005 A 
ATOM     80  C   UNL     1       7.871   6.473  -1.094  1.00  0.00     0.044 A 
ATOM     81  C   UNL     1       9.644   5.393   0.784  1.00  0.00     0.000 A 
ATOM     82  C   UNL     1       7.646   6.614   0.287  1.00  0.00     0.021 A 
ATOM     83  Cl  UNL     1       6.631   7.155  -2.071  1.00  0.00    -0.084 Cl
ATOM     84  C   UNL     1       8.521   6.074   1.223  1.00  0.00     0.002 A 
ENDBRANCH  77  78
ENDBRANCH  71  77
BRANCH  76  85
ATOM     85  C   UNL     1      11.258   8.024  -7.193  1.00  0.00     0.141 A 
ATOM     86  N   UNL     1      11.096   8.220  -8.522  1.00  0.00    -0.219 NA
ATOM     87  C   UNL     1      12.484   8.397  -6.613  1.00  0.00     0.061 A 
ATOM     88  C   UNL     1      12.094   8.816  -9.207  1.00  0.00     0.226 A 
ATOM     89  C   UNL     1      13.428   8.972  -7.446  1.00  0.00     0.142 A 
ATOM     90  C   UNL     1      13.078   8.308  -5.320  1.00  0.00     0.033 A 
ATOM     91  N   UNL     1      13.296   9.226  -8.756  1.00  0.00    -0.218 NA
ATOM     92  N   UNL     1      14.547   9.234  -6.703  1.00  0.00    -0.346 N 
ATOM     93  C   UNL     1      14.352   8.825  -5.407  1.00  0.00     0.085 A 
ATOM     94  H   UNL     1      15.368   9.653  -7.046  1.00  0.00     0.167 HD
ENDBRANCH  76  85
ENDBRANCH  68  71
ENDBRANCH  66  67
ENDBRANCH  65  66
ENDBRANCH  64  65
ENDBRANCH   1  64
TORSDOF 16
