REMARK SMILES CCOc1cccc2c(SCC(=O)NCCCCCCNC(=O)c3ccc(-c4c5nc(c(-c6c(F)cccc6F)c6ccc([nH]6)c(-c6c(F)cccc6F)c6nc(c(-c7c(F)cccc7F)c7ccc4[nH]7)C=C6)C=C5)cc3)cc(C)nc12
REMARK SMILES IDX 16 1 15 2 14 3 12 4 13 5 11 7 10 8 9 9 4 10 5 11 82 12 6 13
REMARK SMILES IDX 8 14 81 15 7 16 79 17 78 18 80 19 3 20 2 21 1 22 17 23 18 24
REMARK SMILES IDX 19 25 20 26 21 27 22 28 23 30 24 31 25 32 77 33 26 34 76 35
REMARK SMILES IDX 27 36 28 37 29 38 70 39 30 40 75 41 69 42 71 43 31 44 74 45
REMARK SMILES IDX 68 46 67 47 32 49 58 50 41 51 57 52 42 53 45 54 56 55 72 56
REMARK SMILES IDX 43 57 44 58 55 60 73 61 46 62 33 63 34 64 39 65 35 66 36 67
REMARK SMILES IDX 38 68 40 69 37 70 59 71 60 72 65 73 61 74 62 75 64 76 66 77
REMARK SMILES IDX 63 78 47 79 48 80 53 81 49 82 50 83 52 84 54 85 51 86
REMARK H PARENT 14 6 21 29 71 48 45 59
REMARK Flexibility Score: inf
ROOT
ATOM      1  C   UNL     1       8.194   1.613  -1.586  1.00  0.00     0.021 C 
ENDROOT
BRANCH   1   2
ATOM      2  C   UNL     1       9.077   1.113  -0.441  1.00  0.00     0.116 C 
BRANCH   2   3
ATOM      3  N   UNL     1       8.426   1.324   0.836  1.00  0.00    -0.355 N 
ATOM      4  C   UNL     1       7.890   0.416   1.696  1.00  0.00     0.230 C 
ATOM      5  O   UNL     1       7.307   0.849   2.694  1.00  0.00    -0.274 OA
ATOM      6  H   UNL     1       8.361   2.263   1.123  1.00  0.00     0.163 HD
BRANCH   4   7
ATOM      7  C   UNL     1       8.089  -1.075   1.496  1.00  0.00     0.174 C 
BRANCH   7   8
ATOM      8  S   UNL     1       7.305  -1.769   0.004  1.00  0.00    -0.115 SA
BRANCH   8   9
ATOM      9  C   UNL     1       5.539  -1.433   0.152  1.00  0.00     0.019 A 
ATOM     10  C   UNL     1       2.434  -1.607  -1.872  1.00  0.00     0.145 A 
ATOM     11  C   UNL     1       2.879  -2.046  -3.120  1.00  0.00     0.049 A 
ATOM     12  C   UNL     1       3.307  -1.401  -0.795  1.00  0.00     0.114 A 
ATOM     13  C   UNL     1       4.233  -2.256  -3.324  1.00  0.00     0.005 A 
ATOM     14  C   UNL     1       4.687  -1.631  -0.980  1.00  0.00     0.018 A 
ATOM     15  N   UNL     1       2.811  -0.990   0.384  1.00  0.00    -0.249 NA
ATOM     16  C   UNL     1       5.124  -2.052  -2.269  1.00  0.00     0.012 A 
ATOM     17  C   UNL     1       3.628  -0.767   1.427  1.00  0.00     0.039 A 
ATOM     18  C   UNL     1       4.984  -1.010   1.359  1.00  0.00     0.039 A 
ATOM     19  C   UNL     1       2.991  -0.192   2.653  1.00  0.00     0.067 C 
BRANCH  10  20
ATOM     20  O   UNL     1       1.067  -1.512  -1.706  1.00  0.00    -0.492 OA
BRANCH  20  21
ATOM     21  C   UNL     1       0.589  -0.164  -1.781  1.00  0.00     0.226 C 
ATOM     22  C   UNL     1       0.381   0.451  -0.405  1.00  0.00     0.049 C 
ENDBRANCH  20  21
ENDBRANCH  10  20
ENDBRANCH   8   9
ENDBRANCH   7   8
ENDBRANCH   4   7
ENDBRANCH   2   3
ENDBRANCH   1   2
BRANCH   1  23
ATOM     23  C   UNL     1       7.991   3.135  -1.597  1.00  0.00     0.002 C 
BRANCH  23  24
ATOM     24  C   UNL     1       9.280   3.962  -1.652  1.00  0.00     0.002 C 
BRANCH  24  25
ATOM     25  C   UNL     1      10.215   3.621  -2.815  1.00  0.00     0.021 C 
BRANCH  25  26
ATOM     26  C   UNL     1       9.594   3.802  -4.196  1.00  0.00     0.116 C 
BRANCH  26  27
ATOM     27  N   UNL     1       9.272   5.193  -4.473  1.00  0.00    -0.352 N 
ATOM     28  C   UNL     1       9.700   6.000  -5.501  1.00  0.00     0.251 C 
ATOM     29  H   UNL     1       8.659   5.619  -3.832  1.00  0.00     0.163 HD
ATOM     30  O   UNL     1       9.489   7.205  -5.474  1.00  0.00    -0.269 OA
BRANCH  28  31
ATOM     31  C   UNL     1      10.445   5.404  -6.631  1.00  0.00     0.039 A 
ATOM     32  C   UNL     1      11.623   6.018  -7.061  1.00  0.00     0.014 A 
ATOM     33  C   UNL     1       9.994   4.233  -7.245  1.00  0.00     0.014 A 
ATOM     34  C   UNL     1      12.396   5.409  -8.052  1.00  0.00     0.010 A 
ATOM     35  C   UNL     1      10.800   3.590  -8.180  1.00  0.00     0.010 A 
ATOM     36  C   UNL     1      12.016   4.164  -8.582  1.00  0.00    -0.014 A 
BRANCH  36  37
ATOM     37  C   UNL     1      12.900   3.423  -9.516  1.00  0.00     0.031 A 
ATOM     38  C   UNL     1      12.451   3.127 -10.919  1.00  0.00     0.074 A 
ATOM     39  C   UNL     1      14.078   2.944  -9.069  1.00  0.00     0.049 A 
ATOM     40  N   UNL     1      13.047   2.418 -11.844  1.00  0.00    -0.248 NA
ATOM     41  C   UNL     1      11.152   3.681 -11.329  1.00  0.00     0.031 C 
ATOM     42  C   UNL     1      14.607   3.128  -7.716  1.00  0.00     0.029 A 
ATOM     43  N   UNL     1      15.038   2.192  -9.700  1.00  0.00    -0.354 N 
ATOM     44  C   UNL     1      12.194   2.434 -12.940  1.00  0.00     0.074 A 
ATOM     45  C   UNL     1      11.018   3.180 -12.549  1.00  0.00     0.031 C 
ATOM     46  C   UNL     1      15.802   2.523  -7.624  1.00  0.00     0.029 A 
ATOM     47  C   UNL     1      16.101   1.866  -8.892  1.00  0.00     0.049 A 
ATOM     48  H   UNL     1      14.970   1.911 -10.641  1.00  0.00     0.167 HD
ATOM     49  C   UNL     1      12.385   1.893 -14.167  1.00  0.00     0.037 A 
ATOM     50  C   UNL     1      17.187   1.108  -9.138  1.00  0.00     0.037 A 
ATOM     51  C   UNL     1      13.563   1.160 -14.555  1.00  0.00     0.049 A 
ATOM     52  C   UNL     1      17.353   0.482 -10.495  1.00  0.00     0.074 A 
ATOM     53  C   UNL     1      13.876   0.627 -15.793  1.00  0.00     0.029 A 
ATOM     54  N   UNL     1      14.615   0.847 -13.707  1.00  0.00    -0.354 N 
ATOM     55  N   UNL     1      16.575   0.570 -11.546  1.00  0.00    -0.248 NA
ATOM     56  C   UNL     1      18.547  -0.350 -10.700  1.00  0.00     0.031 C 
ATOM     57  C   UNL     1      15.089  -0.059 -15.680  1.00  0.00     0.029 A 
ATOM     58  C   UNL     1      15.560   0.094 -14.386  1.00  0.00     0.049 A 
ATOM     59  H   UNL     1      14.681   1.120 -12.764  1.00  0.00     0.167 HD
ATOM     60  C   UNL     1      17.193  -0.176 -12.541  1.00  0.00     0.074 A 
ATOM     61  C   UNL     1      18.422  -0.692 -11.974  1.00  0.00     0.031 C 
ATOM     62  C   UNL     1      16.779  -0.415 -13.809  1.00  0.00     0.037 A 
BRANCH  49  63
ATOM     63  C   UNL     1      11.293   2.069 -15.183  1.00  0.00     0.057 A 
ATOM     64  C   UNL     1      11.009   3.316 -15.755  1.00  0.00     0.134 A 
ATOM     65  C   UNL     1      10.548   0.970 -15.629  1.00  0.00     0.134 A 
ATOM     66  F   UNL     1      11.679   4.411 -15.366  1.00  0.00    -0.206 F 
ATOM     67  C   UNL     1      10.007   3.468 -16.715  1.00  0.00     0.040 A 
ATOM     68  C   UNL     1       9.563   1.105 -16.610  1.00  0.00     0.040 A 
ATOM     69  F   UNL     1      10.773  -0.255 -15.130  1.00  0.00    -0.206 F 
ATOM     70  C   UNL     1       9.286   2.358 -17.151  1.00  0.00     0.006 A 
ENDBRANCH  49  63
BRANCH  50  71
ATOM     71  C   UNL     1      18.202   0.895  -8.075  1.00  0.00     0.057 A 
ATOM     72  C   UNL     1      19.488   1.437  -8.185  1.00  0.00     0.134 A 
ATOM     73  C   UNL     1      17.919   0.136  -6.932  1.00  0.00     0.134 A 
ATOM     74  F   UNL     1      19.827   2.157  -9.264  1.00  0.00    -0.206 F 
ATOM     75  C   UNL     1      20.461   1.216  -7.209  1.00  0.00     0.040 A 
ATOM     76  C   UNL     1      18.874  -0.069  -5.935  1.00  0.00     0.040 A 
ATOM     77  F   UNL     1      16.704  -0.406  -6.762  1.00  0.00    -0.206 F 
ATOM     78  C   UNL     1      20.153   0.465  -6.076  1.00  0.00     0.006 A 
ENDBRANCH  50  71
BRANCH  62  79
ATOM     79  C   UNL     1      17.667  -1.258 -14.677  1.00  0.00     0.057 A 
ATOM     80  C   UNL     1      17.803  -2.638 -14.474  1.00  0.00     0.134 A 
ATOM     81  C   UNL     1      18.355  -0.693 -15.758  1.00  0.00     0.134 A 
ATOM     82  F   UNL     1      17.182  -3.239 -13.448  1.00  0.00    -0.206 F 
ATOM     83  C   UNL     1      18.605  -3.421 -15.305  1.00  0.00     0.040 A 
ATOM     84  C   UNL     1      19.137  -1.471 -16.613  1.00  0.00     0.040 A 
ATOM     85  F   UNL     1      18.263   0.621 -16.014  1.00  0.00    -0.206 F 
ATOM     86  C   UNL     1      19.268  -2.839 -16.384  1.00  0.00     0.006 A 
ENDBRANCH  62  79
ENDBRANCH  36  37
ENDBRANCH  28  31
ENDBRANCH  26  27
ENDBRANCH  25  26
ENDBRANCH  24  25
ENDBRANCH  23  24
ENDBRANCH   1  23
TORSDOF 17
