REMARK SMILES [NH3+]C1CC[NH+](CC(=O)N2CCO[C@H](CC(=O)NCCCCCCNC(=O)c3ccc(-c4c5nc(c(-c6c(F)cccc6F)c6ccc([nH]6)c(-c6c(F)cccc6F)c6nc(c(-c7c(F)cccc7F)c7ccc4[nH]7)C=C6)C=C5)cc3)C2)CC1
REMARK SMILES IDX 19 1 18 2 17 3 15 4 16 5 14 7 13 8 9 9 10 10 81 11 11 12
REMARK SMILES IDX 12 13 7 14 8 15 6 16 5 17 2 18 3 19 83 20 4 21 82 22 1 24
REMARK SMILES IDX 20 28 21 29 22 30 23 31 24 32 25 33 26 35 27 36 28 37 80 38
REMARK SMILES IDX 29 39 79 40 30 41 31 42 32 43 73 44 33 45 78 46 72 47 74 48
REMARK SMILES IDX 34 49 77 50 71 51 70 52 35 54 61 55 44 56 60 57 45 58 48 59
REMARK SMILES IDX 59 60 75 61 46 62 47 63 58 65 76 66 49 67 36 68 37 69 42 70
REMARK SMILES IDX 38 71 39 72 41 73 43 74 40 75 62 76 63 77 68 78 64 79 65 80
REMARK SMILES IDX 67 81 69 82 66 83 50 84 51 85 56 86 52 87 53 88 55 89 57 90
REMARK SMILES IDX 54 91
REMARK H PARENT 17 6 5 23 1 25 1 26 1 27 24 34 74 53 48 64
REMARK Flexibility Score: inf
ROOT
ATOM      1  C   UNL     1      -2.420  -6.309   3.359  1.00  0.00     0.021 C 
ENDROOT
BRANCH   1   2
ATOM      2  C   UNL     1      -1.436  -6.437   2.200  1.00  0.00     0.116 C 
BRANCH   2   3
ATOM      3  N   UNL     1      -2.045  -5.943   0.988  1.00  0.00    -0.356 N 
ATOM      4  C   UNL     1      -2.010  -4.660   0.541  1.00  0.00     0.222 C 
ATOM      5  O   UNL     1      -2.752  -4.311  -0.375  1.00  0.00    -0.275 OA
ATOM      6  H   UNL     1      -2.530  -6.596   0.434  1.00  0.00     0.163 HD
BRANCH   4   7
ATOM      7  C   UNL     1      -1.029  -3.705   1.170  1.00  0.00     0.133 C 
BRANCH   7   8
ATOM      8  C   UNL     1      -1.520  -3.100   2.498  1.00  0.00     0.147 C 
ATOM      9  N   UNL     1      -1.435  -0.825   3.588  1.00  0.00    -0.333 N 
ATOM     10  C   UNL     1      -0.774  -1.428   4.745  1.00  0.00     0.148 C 
ATOM     11  C   UNL     1      -1.303  -1.601   2.387  1.00  0.00     0.152 C 
ATOM     12  C   UNL     1      -1.040  -2.940   4.827  1.00  0.00     0.182 C 
ATOM     13  O   UNL     1      -0.730  -3.614   3.591  1.00  0.00    -0.374 OA
BRANCH   9  14
ATOM     14  C   UNL     1      -1.519   0.567   3.481  1.00  0.00     0.277 C 
ATOM     15  O   UNL     1      -1.006   1.304   4.327  1.00  0.00    -0.268 OA
BRANCH  14  16
ATOM     16  C   UNL     1      -2.361   1.151   2.319  1.00  0.00     0.363 C 
BRANCH  16  17
ATOM     17  N   UNL     1      -1.652   1.635   1.129  1.00  0.00    -0.327 N 
ATOM     18  C   UNL     1       1.121   1.028   0.364  1.00  0.00     0.192 C 
ATOM     19  C   UNL     1       0.757   2.100   1.405  1.00  0.00     0.126 C 
ATOM     20  C   UNL     1      -0.045   0.158  -0.112  1.00  0.00     0.126 C 
ATOM     21  C   UNL     1      -0.651   2.670   1.275  1.00  0.00     0.268 C 
ATOM     22  C   UNL     1      -1.433   0.788  -0.027  1.00  0.00     0.268 C 
ATOM     23  H   UNL     1      -2.511   2.110   0.853  1.00  0.00     0.348 HD
BRANCH  18  24
ATOM     24  N   UNL     1       1.795   1.583  -0.811  1.00  0.00    -0.355 N 
ATOM     25  H   UNL     1       2.577   2.166  -0.511  1.00  0.00     0.344 HD
ATOM     26  H   UNL     1       1.135   2.148  -1.346  1.00  0.00     0.344 HD
ATOM     27  H   UNL     1       2.143   0.823  -1.395  1.00  0.00     0.344 HD
ENDBRANCH  18  24
ENDBRANCH  16  17
ENDBRANCH  14  16
ENDBRANCH   9  14
ENDBRANCH   7   8
ENDBRANCH   4   7
ENDBRANCH   2   3
ENDBRANCH   1   2
BRANCH   1  28
ATOM     28  C   UNL     1      -3.530  -7.359   3.319  1.00  0.00     0.002 C 
BRANCH  28  29
ATOM     29  C   UNL     1      -3.019  -8.800   3.367  1.00  0.00     0.002 C 
BRANCH  29  30
ATOM     30  C   UNL     1      -2.020  -9.070   4.495  1.00  0.00     0.021 C 
BRANCH  30  31
ATOM     31  C   UNL     1      -2.539  -8.693   5.877  1.00  0.00     0.116 C 
BRANCH  31  32
ATOM     32  N   UNL     1      -3.737  -9.447   6.208  1.00  0.00    -0.352 N 
ATOM     33  C   UNL     1      -3.927 -10.323   7.236  1.00  0.00     0.251 C 
ATOM     34  H   UNL     1      -4.510  -9.306   5.615  1.00  0.00     0.163 HD
ATOM     35  O   UNL     1      -4.883 -11.105   7.225  1.00  0.00    -0.269 OA
BRANCH  33  36
ATOM     36  C   UNL     1      -2.981 -10.329   8.364  1.00  0.00     0.039 A 
ATOM     37  C   UNL     1      -2.518 -11.547   8.860  1.00  0.00     0.014 A 
ATOM     38  C   UNL     1      -2.564  -9.121   8.936  1.00  0.00     0.014 A 
ATOM     39  C   UNL     1      -1.613 -11.555   9.919  1.00  0.00     0.010 A 
ATOM     40  C   UNL     1      -1.603  -9.129   9.938  1.00  0.00     0.010 A 
ATOM     41  C   UNL     1      -1.137 -10.346  10.455  1.00  0.00    -0.014 A 
BRANCH  41  42
ATOM     42  C   UNL     1      -0.178 -10.339  11.585  1.00  0.00     0.031 A 
ATOM     43  C   UNL     1      -0.592  -9.772  12.915  1.00  0.00     0.074 A 
ATOM     44  C   UNL     1       1.072 -10.802  11.400  1.00  0.00     0.049 A 
ATOM     45  N   UNL     1       0.110  -9.640  14.011  1.00  0.00    -0.248 NA
ATOM     46  C   UNL     1      -1.968  -9.259  13.018  1.00  0.00     0.031 C 
ATOM     47  C   UNL     1       1.601 -11.331  10.141  1.00  0.00     0.029 A 
ATOM     48  N   UNL     1       2.126 -10.897  12.271  1.00  0.00    -0.354 N 
ATOM     49  C   UNL     1      -0.733  -9.021  14.925  1.00  0.00     0.074 A 
ATOM     50  C   UNL     1      -1.976  -8.748  14.239  1.00  0.00     0.031 C 
ATOM     51  C   UNL     1       2.872 -11.721  10.330  1.00  0.00     0.029 A 
ATOM     52  C   UNL     1       3.257 -11.437  11.709  1.00  0.00     0.049 A 
ATOM     53  H   UNL     1       2.078 -10.605  13.210  1.00  0.00     0.167 HD
ATOM     54  C   UNL     1      -0.501  -8.730  16.227  1.00  0.00     0.037 A 
ATOM     55  C   UNL     1       4.466 -11.676  12.249  1.00  0.00     0.037 A 
ATOM     56  C   UNL     1       0.730  -9.028  16.911  1.00  0.00     0.049 A 
ATOM     57  C   UNL     1       4.698 -11.346  13.697  1.00  0.00     0.074 A 
ATOM     58  C   UNL     1       1.049  -8.823  18.241  1.00  0.00     0.029 A 
ATOM     59  N   UNL     1       1.846  -9.595  16.313  1.00  0.00    -0.354 N 
ATOM     60  N   UNL     1       3.871 -10.821  14.569  1.00  0.00    -0.248 NA
ATOM     61  C   UNL     1       6.028 -11.652  14.240  1.00  0.00     0.031 C 
ATOM     62  C   UNL     1       2.374  -9.226  18.439  1.00  0.00     0.029 A 
ATOM     63  C   UNL     1       2.862  -9.731  17.244  1.00  0.00     0.049 A 
ATOM     64  H   UNL     1       1.907  -9.861  15.367  1.00  0.00     0.167 HD
ATOM     65  C   UNL     1       4.568 -10.765  15.769  1.00  0.00     0.074 A 
ATOM     66  C   UNL     1       5.881 -11.322  15.515  1.00  0.00     0.031 C 
ATOM     67  C   UNL     1       4.159 -10.297  16.974  1.00  0.00     0.037 A 
BRANCH  54  68
ATOM     68  C   UNL     1      -1.605  -8.061  16.995  1.00  0.00     0.057 A 
ATOM     69  C   UNL     1      -2.790  -8.733  17.324  1.00  0.00     0.134 A 
ATOM     70  C   UNL     1      -1.472  -6.738  17.433  1.00  0.00     0.134 A 
ATOM     71  F   UNL     1      -2.989  -9.998  16.923  1.00  0.00    -0.206 F 
ATOM     72  C   UNL     1      -3.813  -8.105  18.037  1.00  0.00     0.040 A 
ATOM     73  C   UNL     1      -2.475  -6.109  18.172  1.00  0.00     0.040 A 
ATOM     74  F   UNL     1      -0.362  -6.037  17.157  1.00  0.00    -0.206 F 
ATOM     75  C   UNL     1      -3.653  -6.791  18.470  1.00  0.00     0.006 A 
ENDBRANCH  54  68
BRANCH  55  76
ATOM     76  C   UNL     1       5.541 -12.285  11.426  1.00  0.00     0.057 A 
ATOM     77  C   UNL     1       5.979 -13.593  11.664  1.00  0.00     0.134 A 
ATOM     78  C   UNL     1       6.160 -11.576  10.389  1.00  0.00     0.134 A 
ATOM     79  F   UNL     1       5.436 -14.317  12.654  1.00  0.00    -0.206 F 
ATOM     80  C   UNL     1       7.011 -14.166  10.919  1.00  0.00     0.040 A 
ATOM     81  C   UNL     1       7.174 -12.147   9.618  1.00  0.00     0.040 A 
ATOM     82  F   UNL     1       5.778 -10.323  10.102  1.00  0.00    -0.206 F 
ATOM     83  C   UNL     1       7.608 -13.443   9.889  1.00  0.00     0.006 A 
ENDBRANCH  55  76
BRANCH  67  84
ATOM     84  C   UNL     1       5.125 -10.410  18.117  1.00  0.00     0.057 A 
ATOM     85  C   UNL     1       6.271  -9.609  18.203  1.00  0.00     0.134 A 
ATOM     86  C   UNL     1       4.887 -11.313  19.161  1.00  0.00     0.134 A 
ATOM     87  F   UNL     1       6.563  -8.733  17.230  1.00  0.00    -0.206 F 
ATOM     88  C   UNL     1       7.160  -9.723  19.273  1.00  0.00     0.040 A 
ATOM     89  C   UNL     1       5.753 -11.415  20.250  1.00  0.00     0.040 A 
ATOM     90  F   UNL     1       3.803 -12.103  19.145  1.00  0.00    -0.206 F 
ATOM     91  C   UNL     1       6.898 -10.623  20.304  1.00  0.00     0.006 A 
ENDBRANCH  67  84
ENDBRANCH  41  42
ENDBRANCH  33  36
ENDBRANCH  31  32
ENDBRANCH  30  31
ENDBRANCH  29  30
ENDBRANCH  28  29
ENDBRANCH   1  28
TORSDOF 18
