REMARK SMILES CCC(CC)COc1cc2c(cc1Cl)C=C(C(=O)NCCCCCCNC(=O)c1ccc(-c3c4nc(c(-c5c(F)cccc5F)c5ccc([nH]5)c(-c5c(F)cccc5F)c5nc(c(-c6c(F)cccc6F)c6ccc3[nH]6)C=C5)C=C4)cc1)[C@@H](C(F)(F)F)O2
REMARK SMILES IDX 21 1 20 2 19 3 17 4 18 5 16 7 8 8 9 9 13 10 10 11 12 12
REMARK SMILES IDX 14 13 11 14 88 15 15 16 83 17 7 18 6 19 3 20 2 21 1 22 4 23
REMARK SMILES IDX 5 24 84 25 85 26 86 27 87 28 22 29 23 30 24 31 25 32 26 33
REMARK SMILES IDX 27 34 28 36 29 37 30 38 82 39 31 40 81 41 32 42 33 43 34 44
REMARK SMILES IDX 75 45 35 46 80 47 74 48 76 49 36 50 79 51 73 52 72 53 37 55
REMARK SMILES IDX 63 56 46 57 62 58 47 59 50 60 61 61 77 62 48 63 49 64 60 66
REMARK SMILES IDX 78 67 51 68 38 69 39 70 44 71 40 72 41 73 43 74 45 75 42 76
REMARK SMILES IDX 64 77 65 78 70 79 66 80 67 81 69 82 71 83 68 84 52 85 53 86
REMARK SMILES IDX 58 87 54 88 55 89 57 90 59 91 56 92
REMARK H PARENT 19 6 26 35 76 54 50 65
REMARK Flexibility Score: inf
ROOT
ATOM      1  C   UNL     1      -2.869  -8.240   6.569  1.00  0.00     0.021 C 
ENDROOT
BRANCH   1   2
ATOM      2  C   UNL     1      -1.455  -7.860   6.142  1.00  0.00     0.116 C 
BRANCH   2   3
ATOM      3  N   UNL     1      -1.345  -7.784   4.698  1.00  0.00    -0.352 N 
ATOM      4  C   UNL     1      -0.914  -6.882   3.789  1.00  0.00     0.251 C 
ATOM      5  O   UNL     1      -0.960  -7.257   2.613  1.00  0.00    -0.270 OA
ATOM      6  H   UNL     1      -1.671  -8.607   4.266  1.00  0.00     0.163 HD
BRANCH   4   7
ATOM      7  C   UNL     1      -0.412  -5.517   4.105  1.00  0.00     0.067 C 
ATOM      8  C   UNL     1       1.332  -0.835   3.728  1.00  0.00     0.141 A 
ATOM      9  C   UNL     1       0.425  -1.445   4.594  1.00  0.00     0.095 A 
ATOM     10  C   UNL     1       2.004  -1.599   2.762  1.00  0.00     0.083 A 
ATOM     11  C   UNL     1       0.126  -2.791   4.415  1.00  0.00     0.131 A 
ATOM     12  C   UNL     1       1.617  -2.917   2.522  1.00  0.00     0.036 A 
ATOM     13  Cl  UNL     1       3.292  -0.947   1.817  1.00  0.00    -0.080 Cl
ATOM     14  C   UNL     1       0.653  -3.507   3.334  1.00  0.00     0.019 A 
ATOM     15  O   UNL     1      -0.702  -3.389   5.329  1.00  0.00    -0.475 OA
ATOM     16  C   UNL     1       0.165  -4.857   3.083  1.00  0.00     0.025 C 
ATOM     17  C   UNL     1      -0.503  -4.834   5.441  1.00  0.00     0.314 C 
BRANCH   8  18
ATOM     18  O   UNL     1       1.577   0.507   3.847  1.00  0.00    -0.492 OA
BRANCH  18  19
ATOM     19  C   UNL     1       0.505   1.317   3.310  1.00  0.00     0.233 C 
BRANCH  19  20
ATOM     20  C   UNL     1       0.681   1.554   1.790  1.00  0.00     0.026 C 
BRANCH  20  21
ATOM     21  C   UNL     1      -0.068   0.485   0.960  1.00  0.00     0.003 C 
ATOM     22  C   UNL     1       0.456   0.372  -0.465  1.00  0.00     0.004 C 
ENDBRANCH  20  21
BRANCH  20  23
ATOM     23  C   UNL     1       0.290   2.990   1.380  1.00  0.00     0.003 C 
ATOM     24  C   UNL     1      -1.192   3.320   1.470  1.00  0.00     0.004 C 
ENDBRANCH  20  23
ENDBRANCH  19  20
ENDBRANCH  18  19
ENDBRANCH   8  18
BRANCH  17  25
ATOM     25  C   UNL     1       0.718  -5.157   6.334  1.00  0.00     0.429 C 
ATOM     26  F   UNL     1       0.469  -4.827   7.624  1.00  0.00    -0.167 F 
ATOM     27  F   UNL     1       1.017  -6.480   6.327  1.00  0.00    -0.167 F 
ATOM     28  F   UNL     1       1.842  -4.507   5.958  1.00  0.00    -0.167 F 
ENDBRANCH  17  25
ENDBRANCH   4   7
ENDBRANCH   2   3
ENDBRANCH   1   2
BRANCH   1  29
ATOM     29  C   UNL     1      -3.170  -9.739   6.488  1.00  0.00     0.002 C 
BRANCH  29  30
ATOM     30  C   UNL     1      -2.245 -10.645   7.312  1.00  0.00     0.002 C 
BRANCH  30  31
ATOM     31  C   UNL     1      -2.027 -10.221   8.766  1.00  0.00     0.021 C 
BRANCH  31  32
ATOM     32  C   UNL     1      -3.298 -10.081   9.595  1.00  0.00     0.116 C 
BRANCH  32  33
ATOM     33  N   UNL     1      -4.004 -11.341   9.765  1.00  0.00    -0.352 N 
ATOM     34  C   UNL     1      -4.513 -11.898  10.914  1.00  0.00     0.251 C 
ATOM     35  H   UNL     1      -4.136 -11.867   8.944  1.00  0.00     0.163 HD
ATOM     36  O   UNL     1      -4.965 -13.039  10.906  1.00  0.00    -0.269 OA
BRANCH  34  37
ATOM     37  C   UNL     1      -4.476 -11.126  12.175  1.00  0.00     0.039 A 
ATOM     38  C   UNL     1      -4.873  -9.788  12.198  1.00  0.00     0.014 A 
ATOM     39  C   UNL     1      -3.997 -11.738  13.336  1.00  0.00     0.014 A 
ATOM     40  C   UNL     1      -4.623  -9.018  13.328  1.00  0.00     0.010 A 
ATOM     41  C   UNL     1      -3.826 -10.981  14.499  1.00  0.00     0.010 A 
ATOM     42  C   UNL     1      -4.082  -9.601  14.487  1.00  0.00    -0.014 A 
BRANCH  42  43
ATOM     43  C   UNL     1      -3.769  -8.731  15.651  1.00  0.00     0.031 A 
ATOM     44  C   UNL     1      -2.345  -8.518  16.095  1.00  0.00     0.074 A 
ATOM     45  C   UNL     1      -4.768  -8.060  16.256  1.00  0.00     0.049 A 
ATOM     46  N   UNL     1      -1.881  -7.721  17.027  1.00  0.00    -0.248 NA
ATOM     47  C   UNL     1      -1.307  -9.303  15.411  1.00  0.00     0.031 C 
ATOM     48  C   UNL     1      -6.189  -8.183  15.924  1.00  0.00     0.029 A 
ATOM     49  N   UNL     1      -4.739  -7.115  17.250  1.00  0.00    -0.354 N 
ATOM     50  C   UNL     1      -0.506  -7.919  17.049  1.00  0.00     0.074 A 
ATOM     51  C   UNL     1      -0.213  -8.938  16.064  1.00  0.00     0.031 C 
ATOM     52  C   UNL     1      -6.888  -7.300  16.653  1.00  0.00     0.029 A 
ATOM     53  C   UNL     1      -5.973  -6.585  17.537  1.00  0.00     0.049 A 
ATOM     54  H   UNL     1      -3.913  -6.843  17.712  1.00  0.00     0.167 HD
ATOM     55  C   UNL     1       0.431  -7.300  17.808  1.00  0.00     0.037 A 
ATOM     56  C   UNL     1      -6.328  -5.627  18.412  1.00  0.00     0.037 A 
ATOM     57  C   UNL     1       0.146  -6.275  18.779  1.00  0.00     0.049 A 
ATOM     58  C   UNL     1      -5.271  -4.969  19.249  1.00  0.00     0.074 A 
ATOM     59  C   UNL     1       1.029  -5.577  19.586  1.00  0.00     0.029 A 
ATOM     60  N   UNL     1      -1.122  -5.798  19.073  1.00  0.00    -0.354 N 
ATOM     61  N   UNL     1      -3.974  -5.154  19.242  1.00  0.00    -0.248 NA
ATOM     62  C   UNL     1      -5.733  -3.967  20.219  1.00  0.00     0.031 C 
ATOM     63  C   UNL     1       0.291  -4.702  20.392  1.00  0.00     0.029 A 
ATOM     64  C   UNL     1      -1.048  -4.826  20.058  1.00  0.00     0.049 A 
ATOM     65  H   UNL     1      -1.954  -6.106  18.645  1.00  0.00     0.167 HD
ATOM     66  C   UNL     1      -3.462  -4.284  20.196  1.00  0.00     0.074 A 
ATOM     67  C   UNL     1      -4.588  -3.550  20.738  1.00  0.00     0.031 C 
ATOM     68  C   UNL     1      -2.178  -4.112  20.593  1.00  0.00     0.037 A 
BRANCH  55  69
ATOM     69  C   UNL     1       1.859  -7.729  17.622  1.00  0.00     0.057 A 
ATOM     70  C   UNL     1       2.517  -8.473  18.609  1.00  0.00     0.134 A 
ATOM     71  C   UNL     1       2.589  -7.391  16.474  1.00  0.00     0.134 A 
ATOM     72  F   UNL     1       1.879  -8.825  19.735  1.00  0.00    -0.206 F 
ATOM     73  C   UNL     1       3.847  -8.869  18.460  1.00  0.00     0.040 A 
ATOM     74  C   UNL     1       3.913  -7.802  16.303  1.00  0.00     0.040 A 
ATOM     75  F   UNL     1       2.013  -6.693  15.484  1.00  0.00    -0.206 F 
ATOM     76  C   UNL     1       4.547  -8.540  17.301  1.00  0.00     0.006 A 
ENDBRANCH  55  69
BRANCH  56  77
ATOM     77  C   UNL     1      -7.750  -5.223  18.535  1.00  0.00     0.057 A 
ATOM     78  C   UNL     1      -8.704  -6.078  19.099  1.00  0.00     0.134 A 
ATOM     79  C   UNL     1      -8.182  -3.962  18.110  1.00  0.00     0.134 A 
ATOM     80  F   UNL     1      -8.352  -7.301  19.521  1.00  0.00    -0.206 F 
ATOM     81  C   UNL     1     -10.039  -5.695  19.232  1.00  0.00     0.040 A 
ATOM     82  C   UNL     1      -9.509  -3.556  18.260  1.00  0.00     0.040 A 
ATOM     83  F   UNL     1      -7.310  -3.092  17.578  1.00  0.00    -0.206 F 
ATOM     84  C   UNL     1     -10.443  -4.427  18.819  1.00  0.00     0.006 A 
ENDBRANCH  56  77
BRANCH  68  85
ATOM     85  C   UNL     1      -1.936  -3.075  21.650  1.00  0.00     0.057 A 
ATOM     86  C   UNL     1      -1.329  -1.855  21.330  1.00  0.00     0.134 A 
ATOM     87  C   UNL     1      -2.325  -3.276  22.982  1.00  0.00     0.134 A 
ATOM     88  F   UNL     1      -0.928  -1.602  20.075  1.00  0.00    -0.206 F 
ATOM     89  C   UNL     1      -1.128  -0.866  22.293  1.00  0.00     0.040 A 
ATOM     90  C   UNL     1      -2.153  -2.284  23.948  1.00  0.00     0.040 A 
ATOM     91  F   UNL     1      -2.928  -4.417  23.349  1.00  0.00    -0.206 F 
ATOM     92  C   UNL     1      -1.551  -1.075  23.605  1.00  0.00     0.006 A 
ENDBRANCH  68  85
ENDBRANCH  42  43
ENDBRANCH  34  37
ENDBRANCH  32  33
ENDBRANCH  31  32
ENDBRANCH  30  31
ENDBRANCH  29  30
ENDBRANCH   1  29
TORSDOF 19
