REMARK SMILES COc1c(Cl)cc(C(=O)NCCCCCCNC(=O)c2ccc(-c3c4nc(c(-c5c(F)cccc5F)c5ccc([nH]5)c(-c5c(F)cccc5F)c5nc(c(-c6c(F)cccc6F)c6ccc3[nH]6)C=C5)C=C4)cc2)cc1NC(=O)C(C)(C)Oc1ccc(Br)cc1
REMARK SMILES IDX 12 1 11 2 10 3 8 4 9 5 7 7 3 8 4 9 75 10 5 11 6 12 74 13
REMARK SMILES IDX 2 14 1 15 76 16 77 17 78 19 79 20 80 21 81 22 82 23 83 24
REMARK SMILES IDX 84 25 89 26 85 27 88 28 86 29 87 30 13 31 14 32 15 33 16 34
REMARK SMILES IDX 17 35 18 36 19 38 20 39 21 40 73 41 22 42 72 43 23 44 24 45
REMARK SMILES IDX 25 46 66 47 26 48 71 49 65 50 67 51 27 52 70 53 64 54 63 55
REMARK SMILES IDX 28 57 54 58 37 59 53 60 38 61 41 62 52 63 68 64 39 65 40 66
REMARK SMILES IDX 51 68 69 69 42 70 29 71 30 72 35 73 31 74 32 75 34 76 36 77
REMARK SMILES IDX 33 78 55 79 56 80 61 81 57 82 58 83 60 84 62 85 59 86 43 87
REMARK SMILES IDX 44 88 49 89 45 90 46 91 48 92 50 93 47 94
REMARK H PARENT 10 6 76 18 17 37 67 56 41 67
REMARK Flexibility Score: inf
ROOT
ATOM      1  C   UNL     1      -0.155  -2.732   7.749  1.00  0.00     0.021 C 
ENDROOT
BRANCH   1   2
ATOM      2  C   UNL     1       0.561  -1.377   7.705  1.00  0.00     0.116 C 
BRANCH   2   3
ATOM      3  N   UNL     1       1.906  -1.483   7.164  1.00  0.00    -0.352 N 
ATOM      4  C   UNL     1       2.553  -1.202   5.989  1.00  0.00     0.251 C 
ATOM      5  O   UNL     1       3.768  -1.425   6.000  1.00  0.00    -0.269 OA
ATOM      6  H   UNL     1       2.526  -1.862   7.828  1.00  0.00     0.163 HD
BRANCH   4   7
ATOM      7  C   UNL     1       1.963  -0.653   4.722  1.00  0.00     0.043 A 
ATOM      8  C   UNL     1       1.078   0.380   2.241  1.00  0.00     0.160 A 
ATOM      9  C   UNL     1       2.444   0.185   2.479  1.00  0.00     0.086 A 
ATOM     10  C   UNL     1       0.139   0.144   3.267  1.00  0.00     0.086 A 
ATOM     11  Cl  UNL     1       3.660   0.633   1.337  1.00  0.00    -0.080 Cl
ATOM     12  C   UNL     1       2.875  -0.324   3.707  1.00  0.00     0.038 A 
ATOM     13  C   UNL     1       0.606  -0.430   4.467  1.00  0.00     0.044 A 
BRANCH   8  14
ATOM     14  O   UNL     1       0.610   0.931   1.068  1.00  0.00    -0.493 OA
ATOM     15  C   UNL     1       0.688   0.006  -0.020  1.00  0.00     0.278 C 
ENDBRANCH   8  14
BRANCH  10  16
ATOM     16  N   UNL     1      -1.202   0.565   3.002  1.00  0.00    -0.319 N 
ATOM     17  C   UNL     1      -2.323   0.900   3.743  1.00  0.00     0.268 C 
ATOM     18  H   UNL     1      -1.374   0.634   2.036  1.00  0.00     0.170 HD
ATOM     19  O   UNL     1      -3.325   1.241   3.103  1.00  0.00    -0.270 OA
BRANCH  17  20
ATOM     20  C   UNL     1      -2.345   0.875   5.304  1.00  0.00     0.181 C 
ATOM     21  C   UNL     1      -2.464  -0.628   5.624  1.00  0.00     0.067 C 
ATOM     22  C   UNL     1      -1.133   1.729   5.729  1.00  0.00     0.067 C 
BRANCH  20  23
ATOM     23  O   UNL     1      -3.522   1.490   5.910  1.00  0.00    -0.478 OA
BRANCH  23  24
ATOM     24  C   UNL     1      -3.696   1.343   7.275  1.00  0.00     0.120 A 
ATOM     25  C   UNL     1      -4.914   0.811   7.707  1.00  0.00     0.047 A 
ATOM     26  C   UNL     1      -2.779   1.770   8.244  1.00  0.00     0.047 A 
ATOM     27  C   UNL     1      -5.197   0.690   9.077  1.00  0.00     0.019 A 
ATOM     28  C   UNL     1      -3.050   1.642   9.610  1.00  0.00     0.019 A 
ATOM     29  C   UNL     1      -4.266   1.115  10.022  1.00  0.00     0.018 A 
ATOM     30  Br  UNL     1      -4.647   0.998  11.868  1.00  0.00    -0.051 Br
ENDBRANCH  23  24
ENDBRANCH  20  23
ENDBRANCH  17  20
ENDBRANCH  10  16
ENDBRANCH   4   7
ENDBRANCH   2   3
ENDBRANCH   1   2
BRANCH   1  31
ATOM     31  C   UNL     1      -0.322  -3.333   9.156  1.00  0.00     0.002 C 
BRANCH  31  32
ATOM     32  C   UNL     1      -1.098  -2.497  10.186  1.00  0.00     0.002 C 
BRANCH  32  33
ATOM     33  C   UNL     1      -2.498  -2.033   9.778  1.00  0.00     0.021 C 
BRANCH  33  34
ATOM     34  C   UNL     1      -3.583  -3.108   9.758  1.00  0.00     0.116 C 
BRANCH  34  35
ATOM     35  N   UNL     1      -4.031  -3.449  11.100  1.00  0.00    -0.352 N 
ATOM     36  C   UNL     1      -5.171  -3.147  11.806  1.00  0.00     0.251 C 
ATOM     37  H   UNL     1      -3.392  -4.006  11.600  1.00  0.00     0.163 HD
ATOM     38  O   UNL     1      -5.171  -3.372  13.016  1.00  0.00    -0.269 OA
BRANCH  36  39
ATOM     39  C   UNL     1      -6.401  -2.578  11.189  1.00  0.00     0.039 A 
ATOM     40  C   UNL     1      -7.229  -1.778  11.994  1.00  0.00     0.014 A 
ATOM     41  C   UNL     1      -6.838  -2.903   9.903  1.00  0.00     0.014 A 
ATOM     42  C   UNL     1      -8.455  -1.295  11.515  1.00  0.00     0.010 A 
ATOM     43  C   UNL     1      -8.034  -2.368   9.400  1.00  0.00     0.010 A 
ATOM     44  C   UNL     1      -8.868  -1.575  10.206  1.00  0.00    -0.014 A 
BRANCH  44  45
ATOM     45  C   UNL     1     -10.184  -1.099   9.688  1.00  0.00     0.031 A 
ATOM     46  C   UNL     1     -11.258  -2.088   9.306  1.00  0.00     0.074 A 
ATOM     47  C   UNL     1     -10.422   0.218   9.523  1.00  0.00     0.049 A 
ATOM     48  N   UNL     1     -12.424  -1.876   8.745  1.00  0.00    -0.248 NA
ATOM     49  C   UNL     1     -10.974  -3.506   9.574  1.00  0.00     0.031 C 
ATOM     50  C   UNL     1      -9.486   1.296   9.844  1.00  0.00     0.029 A 
ATOM     51  N   UNL     1     -11.526   0.873   9.031  1.00  0.00    -0.354 N 
ATOM     52  C   UNL     1     -12.999  -3.130   8.573  1.00  0.00     0.074 A 
ATOM     53  C   UNL     1     -12.039  -4.100   9.054  1.00  0.00     0.031 C 
ATOM     54  C   UNL     1     -10.057   2.475   9.550  1.00  0.00     0.029 A 
ATOM     55  C   UNL     1     -11.384   2.239   8.985  1.00  0.00     0.049 A 
ATOM     56  H   UNL     1     -12.343   0.407   8.739  1.00  0.00     0.167 HD
ATOM     57  C   UNL     1     -14.219  -3.449   8.076  1.00  0.00     0.037 A 
ATOM     58  C   UNL     1     -12.216   3.195   8.527  1.00  0.00     0.037 A 
ATOM     59  C   UNL     1     -15.200  -2.493   7.631  1.00  0.00     0.049 A 
ATOM     60  C   UNL     1     -13.556   2.816   7.958  1.00  0.00     0.074 A 
ATOM     61  C   UNL     1     -16.482  -2.728   7.162  1.00  0.00     0.029 A 
ATOM     62  N   UNL     1     -15.011  -1.121   7.602  1.00  0.00    -0.354 N 
ATOM     63  N   UNL     1     -14.095   1.628   7.832  1.00  0.00    -0.248 NA
ATOM     64  C   UNL     1     -14.404   3.913   7.468  1.00  0.00     0.031 C 
ATOM     65  C   UNL     1     -17.056  -1.501   6.815  1.00  0.00     0.029 A 
ATOM     66  C   UNL     1     -16.146  -0.498   7.106  1.00  0.00     0.049 A 
ATOM     67  H   UNL     1     -14.193  -0.656   7.891  1.00  0.00     0.167 HD
ATOM     68  C   UNL     1     -15.350   1.837   7.274  1.00  0.00     0.074 A 
ATOM     69  C   UNL     1     -15.499   3.266   7.096  1.00  0.00     0.031 C 
ATOM     70  C   UNL     1     -16.294   0.924   6.940  1.00  0.00     0.037 A 
BRANCH  57  71
ATOM     71  C   UNL     1     -14.570  -4.906   7.986  1.00  0.00     0.057 A 
ATOM     72  C   UNL     1     -14.860  -5.668   9.125  1.00  0.00     0.134 A 
ATOM     73  C   UNL     1     -14.662  -5.543   6.742  1.00  0.00     0.134 A 
ATOM     74  F   UNL     1     -14.781  -5.121  10.347  1.00  0.00    -0.206 F 
ATOM     75  C   UNL     1     -15.204  -7.018   9.031  1.00  0.00     0.040 A 
ATOM     76  C   UNL     1     -15.030  -6.885   6.633  1.00  0.00     0.040 A 
ATOM     77  F   UNL     1     -14.408  -4.868   5.610  1.00  0.00    -0.206 F 
ATOM     78  C   UNL     1     -15.296  -7.628   7.782  1.00  0.00     0.006 A 
ENDBRANCH  57  71
BRANCH  58  79
ATOM     79  C   UNL     1     -11.810   4.622   8.589  1.00  0.00     0.057 A 
ATOM     80  C   UNL     1     -12.423   5.507   9.483  1.00  0.00     0.134 A 
ATOM     81  C   UNL     1     -10.818   5.136   7.747  1.00  0.00     0.134 A 
ATOM     82  F   UNL     1     -13.399   5.077  10.296  1.00  0.00    -0.206 F 
ATOM     83  C   UNL     1     -12.074   6.858   9.528  1.00  0.00     0.040 A 
ATOM     84  C   UNL     1     -10.442   6.479   7.798  1.00  0.00     0.040 A 
ATOM     85  F   UNL     1     -10.194   4.337   6.869  1.00  0.00    -0.206 F 
ATOM     86  C   UNL     1     -11.076   7.346   8.686  1.00  0.00     0.006 A 
ENDBRANCH  58  79
BRANCH  70  87
ATOM     87  C   UNL     1     -17.587   1.440   6.380  1.00  0.00     0.057 A 
ATOM     88  C   UNL     1     -17.681   1.941   5.076  1.00  0.00     0.134 A 
ATOM     89  C   UNL     1     -18.762   1.398   7.143  1.00  0.00     0.134 A 
ATOM     90  F   UNL     1     -16.591   2.020   4.298  1.00  0.00    -0.206 F 
ATOM     91  C   UNL     1     -18.893   2.400   4.557  1.00  0.00     0.040 A 
ATOM     92  C   UNL     1     -19.984   1.832   6.627  1.00  0.00     0.040 A 
ATOM     93  F   UNL     1     -18.743   0.922   8.397  1.00  0.00    -0.206 F 
ATOM     94  C   UNL     1     -20.051   2.340   5.331  1.00  0.00     0.006 A 
ENDBRANCH  70  87
ENDBRANCH  44  45
ENDBRANCH  36  39
ENDBRANCH  34  35
ENDBRANCH  33  34
ENDBRANCH  32  33
ENDBRANCH  31  32
ENDBRANCH   1  31
TORSDOF 18
