REMARK SMILES C[C@@H](C(=O)NCCCCCCNC(=O)c1ccc(-c2c3nc(c(-c4c(F)cccc4F)c4ccc([nH]4)c(-c4c(F)cccc4F)c4nc(c(-c5c(F)cccc5F)c5ccc2[nH]5)C=C4)C=C3)cc1)c1ccc(C[C@@H]2CCC[C@@H]2O)cc1
REMARK SMILES IDX 7 1 6 2 5 3 3 4 4 5 2 7 1 8 69 9 70 10 81 11 71 12 80 13
REMARK SMILES IDX 72 14 73 15 74 16 75 17 78 18 76 19 77 20 79 21 8 23 9 24
REMARK SMILES IDX 10 25 11 26 12 27 13 28 14 30 15 31 16 32 68 33 17 34 67 35
REMARK SMILES IDX 18 36 19 37 20 38 61 39 21 40 66 41 60 42 62 43 22 44 65 45
REMARK SMILES IDX 59 46 58 47 23 49 49 50 32 51 48 52 33 53 36 54 47 55 63 56
REMARK SMILES IDX 34 57 35 58 46 60 64 61 37 62 24 63 25 64 30 65 26 66 27 67
REMARK SMILES IDX 29 68 31 69 28 70 50 71 51 72 56 73 52 74 53 75 55 76 57 77
REMARK SMILES IDX 54 78 38 79 39 80 44 81 40 82 41 83 43 84 45 85 42 86
REMARK H PARENT 5 6 79 22 12 29 62 48 36 59
REMARK Flexibility Score: inf
ROOT
ATOM      1  C   UNL     1     -12.069   4.591  10.379  1.00  0.00     0.021 C 
ENDROOT
BRANCH   1   2
ATOM      2  C   UNL     1     -10.653   4.846   9.848  1.00  0.00     0.116 C 
BRANCH   2   3
ATOM      3  N   UNL     1     -10.016   3.587   9.521  1.00  0.00    -0.356 N 
ATOM      4  C   UNL     1     -10.046   2.917   8.330  1.00  0.00     0.227 C 
ATOM      5  O   UNL     1     -10.022   1.688   8.400  1.00  0.00    -0.274 OA
ATOM      6  H   UNL     1      -9.498   3.163  10.244  1.00  0.00     0.163 HD
BRANCH   4   7
ATOM      7  C   UNL     1     -10.116   3.717   7.017  1.00  0.00     0.105 C 
ATOM      8  C   UNL     1     -11.589   3.963   6.666  1.00  0.00     0.023 C 
BRANCH   7   9
ATOM      9  C   UNL     1      -9.361   3.122   5.822  1.00  0.00    -0.036 A 
ATOM     10  C   UNL     1      -8.586   1.957   5.900  1.00  0.00     0.005 A 
ATOM     11  C   UNL     1      -9.415   3.773   4.575  1.00  0.00     0.005 A 
ATOM     12  C   UNL     1      -7.946   1.429   4.777  1.00  0.00     0.004 A 
ATOM     13  C   UNL     1      -8.756   3.256   3.455  1.00  0.00     0.004 A 
ATOM     14  C   UNL     1      -8.007   2.081   3.546  1.00  0.00    -0.048 A 
BRANCH  14  15
ATOM     15  C   UNL     1      -7.267   1.545   2.346  1.00  0.00     0.041 C 
BRANCH  15  16
ATOM     16  C   UNL     1      -5.746   1.802   2.264  1.00  0.00     0.022 C 
ATOM     17  C   UNL     1      -4.912   1.127   3.359  1.00  0.00     0.007 C 
ATOM     18  C   UNL     1      -5.280   3.259   2.338  1.00  0.00     0.117 C 
ATOM     19  C   UNL     1      -4.611   2.201   4.409  1.00  0.00     0.003 C 
ATOM     20  C   UNL     1      -5.075   3.530   3.823  1.00  0.00     0.032 C 
BRANCH  18  21
ATOM     21  O   UNL     1      -6.178   4.165   1.730  1.00  0.00    -0.393 OA
ATOM     22  H   UNL     1      -7.041   4.107   2.169  1.00  0.00     0.210 HD
ENDBRANCH  18  21
ENDBRANCH  15  16
ENDBRANCH  14  15
ENDBRANCH   7   9
ENDBRANCH   4   7
ENDBRANCH   2   3
ENDBRANCH   1   2
BRANCH   1  23
ATOM     23  C   UNL     1     -12.123   3.761  11.670  1.00  0.00     0.002 C 
BRANCH  23  24
ATOM     24  C   UNL     1     -11.379   4.367  12.861  1.00  0.00     0.002 C 
BRANCH  24  25
ATOM     25  C   UNL     1     -11.806   5.790  13.227  1.00  0.00     0.021 C 
BRANCH  25  26
ATOM     26  C   UNL     1     -13.291   5.951  13.536  1.00  0.00     0.116 C 
BRANCH  26  27
ATOM     27  N   UNL     1     -13.694   5.198  14.713  1.00  0.00    -0.352 N 
ATOM     28  C   UNL     1     -14.374   5.624  15.823  1.00  0.00     0.251 C 
ATOM     29  H   UNL     1     -13.441   4.246  14.712  1.00  0.00     0.163 HD
ATOM     30  O   UNL     1     -14.470   4.891  16.809  1.00  0.00    -0.269 OA
BRANCH  28  31
ATOM     31  C   UNL     1     -14.974   6.974  15.854  1.00  0.00     0.039 A 
ATOM     32  C   UNL     1     -14.802   7.761  16.995  1.00  0.00     0.014 A 
ATOM     33  C   UNL     1     -15.711   7.461  14.770  1.00  0.00     0.014 A 
ATOM     34  C   UNL     1     -15.316   9.058  17.026  1.00  0.00     0.010 A 
ATOM     35  C   UNL     1     -16.168   8.777  14.776  1.00  0.00     0.010 A 
ATOM     36  C   UNL     1     -15.974   9.589  15.904  1.00  0.00    -0.014 A 
BRANCH  36  37
ATOM     37  C   UNL     1     -16.448  10.996  15.895  1.00  0.00     0.031 A 
ATOM     38  C   UNL     1     -17.917  11.307  15.823  1.00  0.00     0.074 A 
ATOM     39  C   UNL     1     -15.546  11.998  15.904  1.00  0.00     0.049 A 
ATOM     40  N   UNL     1     -18.512  12.472  15.769  1.00  0.00    -0.248 NA
ATOM     41  C   UNL     1     -18.837  10.160  15.786  1.00  0.00     0.031 C 
ATOM     42  C   UNL     1     -14.091  11.827  15.922  1.00  0.00     0.029 A 
ATOM     43  N   UNL     1     -15.720  13.359  15.893  1.00  0.00    -0.354 N 
ATOM     44  C   UNL     1     -19.872  12.198  15.687  1.00  0.00     0.074 A 
ATOM     45  C   UNL     1     -20.012  10.759  15.646  1.00  0.00     0.031 C 
ATOM     46  C   UNL     1     -13.507  13.036  15.943  1.00  0.00     0.029 A 
ATOM     47  C   UNL     1     -14.541  14.065  15.908  1.00  0.00     0.049 A 
ATOM     48  H   UNL     1     -16.605  13.789  15.876  1.00  0.00     0.167 HD
ATOM     49  C   UNL     1     -20.911  13.067  15.672  1.00  0.00     0.037 A 
ATOM     50  C   UNL     1     -14.319  15.393  15.891  1.00  0.00     0.037 A 
ATOM     51  C   UNL     1     -20.773  14.499  15.733  1.00  0.00     0.049 A 
ATOM     52  C   UNL     1     -15.491  16.334  15.872  1.00  0.00     0.074 A 
ATOM     53  C   UNL     1     -21.768  15.460  15.774  1.00  0.00     0.029 A 
ATOM     54  N   UNL     1     -19.563  15.176  15.764  1.00  0.00    -0.354 N 
ATOM     55  N   UNL     1     -16.773  16.059  15.860  1.00  0.00    -0.248 NA
ATOM     56  C   UNL     1     -15.185  17.771  15.870  1.00  0.00     0.031 C 
ATOM     57  C   UNL     1     -21.161  16.720  15.792  1.00  0.00     0.029 A 
ATOM     58  C   UNL     1     -19.787  16.542  15.806  1.00  0.00     0.049 A 
ATOM     59  H   UNL     1     -18.676  14.748  15.758  1.00  0.00     0.167 HD
ATOM     60  C   UNL     1     -17.424  17.285  15.875  1.00  0.00     0.074 A 
ATOM     61  C   UNL     1     -16.397  18.305  15.917  1.00  0.00     0.031 C 
ATOM     62  C   UNL     1     -18.754  17.544  15.852  1.00  0.00     0.037 A 
BRANCH  49  63
ATOM     63  C   UNL     1     -22.295  12.493  15.601  1.00  0.00     0.057 A 
ATOM     64  C   UNL     1     -22.875  11.836  16.694  1.00  0.00     0.134 A 
ATOM     65  C   UNL     1     -23.077  12.645  14.449  1.00  0.00     0.134 A 
ATOM     66  F   UNL     1     -22.175  11.648  17.823  1.00  0.00    -0.206 F 
ATOM     67  C   UNL     1     -24.176  11.335  16.639  1.00  0.00     0.040 A 
ATOM     68  C   UNL     1     -24.389  12.169  14.390  1.00  0.00     0.040 A 
ATOM     69  F   UNL     1     -22.585  13.269  13.368  1.00  0.00    -0.206 F 
ATOM     70  C   UNL     1     -24.940  11.509  15.486  1.00  0.00     0.006 A 
ENDBRANCH  49  63
BRANCH  50  71
ATOM     71  C   UNL     1     -12.931  15.918  15.910  1.00  0.00     0.057 A 
ATOM     72  C   UNL     1     -12.426  16.587  17.031  1.00  0.00     0.134 A 
ATOM     73  C   UNL     1     -12.086  15.790  14.801  1.00  0.00     0.134 A 
ATOM     74  F   UNL     1     -13.195  16.758  18.117  1.00  0.00    -0.206 F 
ATOM     75  C   UNL     1     -11.142  17.133  17.041  1.00  0.00     0.040 A 
ATOM     76  C   UNL     1     -10.790  16.308  14.806  1.00  0.00     0.040 A 
ATOM     77  F   UNL     1     -12.507  15.153  13.698  1.00  0.00    -0.206 F 
ATOM     78  C   UNL     1     -10.318  16.991  15.926  1.00  0.00     0.006 A 
ENDBRANCH  50  71
BRANCH  62  79
ATOM     79  C   UNL     1     -19.169  18.985  15.900  1.00  0.00     0.057 A 
ATOM     80  C   UNL     1     -19.000  19.838  14.802  1.00  0.00     0.134 A 
ATOM     81  C   UNL     1     -19.764  19.518  17.050  1.00  0.00     0.134 A 
ATOM     82  F   UNL     1     -18.424  19.392  13.676  1.00  0.00    -0.206 F 
ATOM     83  C   UNL     1     -19.383  21.179  14.857  1.00  0.00     0.040 A 
ATOM     84  C   UNL     1     -20.174  20.851  17.108  1.00  0.00     0.040 A 
ATOM     85  F   UNL     1     -19.961  18.752  18.134  1.00  0.00    -0.206 F 
ATOM     86  C   UNL     1     -19.977  21.687  16.011  1.00  0.00     0.006 A 
ENDBRANCH  62  79
ENDBRANCH  36  37
ENDBRANCH  28  31
ENDBRANCH  26  27
ENDBRANCH  25  26
ENDBRANCH  24  25
ENDBRANCH  23  24
ENDBRANCH   1  23
TORSDOF 17
