REMARK SMILES Cc1csc(=O)n1CC(=O)N[C@@H](C(=O)NCCCCCCNC(=O)c1ccc(-c2c3nc(c(-c4c(F)cccc4F)c4ccc([nH]4)c(-c4c(F)cccc4F)c4nc(c(-c5c(F)cccc5F)c5ccc2[nH]5)C=C4)C=C3)cc1)[C@@H](C)O
REMARK SMILES IDX 18 1 17 2 16 3 15 4 13 5 14 6 12 8 11 9 9 10 10 11 8 13 7 14
REMARK SMILES IDX 1 15 2 16 3 17 4 18 5 19 6 20 79 21 80 22 81 23 19 25 20 26
REMARK SMILES IDX 21 27 22 28 23 29 24 31 25 32 26 33 78 34 27 35 77 36 28 37
REMARK SMILES IDX 29 38 30 39 71 40 31 41 76 42 70 43 72 44 32 45 75 46 69 47
REMARK SMILES IDX 68 48 33 50 59 51 42 52 58 53 43 54 46 55 57 56 73 57 44 58
REMARK SMILES IDX 45 59 56 61 74 62 47 63 34 64 35 65 40 66 36 67 37 68 39 69
REMARK SMILES IDX 41 70 38 71 60 72 61 73 66 74 62 75 63 76 65 77 67 78 64 79
REMARK SMILES IDX 48 80 49 81 54 82 50 83 51 84 53 85 55 86 52 87
REMARK H PARENT 15 7 11 12 81 24 22 30 72 49 46 60
REMARK Flexibility Score: inf
ROOT
ATOM      1  C   UNL     1      -3.182   3.326   4.264  1.00  0.00     0.002 C 
ENDROOT
BRANCH   1   2
ATOM      2  C   UNL     1      -2.280   3.732   3.098  1.00  0.00     0.021 C 
BRANCH   2   3
ATOM      3  C   UNL     1      -1.934   2.586   2.157  1.00  0.00     0.116 C 
BRANCH   3   4
ATOM      4  N   UNL     1      -2.983   2.307   1.204  1.00  0.00    -0.354 N 
ATOM      5  C   UNL     1      -2.906   2.127  -0.151  1.00  0.00     0.245 C 
ATOM      6  O   UNL     1      -3.940   1.765  -0.714  1.00  0.00    -0.273 OA
ATOM      7  H   UNL     1      -3.888   2.235   1.585  1.00  0.00     0.163 HD
BRANCH   5   8
ATOM      8  C   UNL     1      -1.537   2.241  -0.886  1.00  0.00     0.200 C 
BRANCH   8   9
ATOM      9  N   UNL     1      -0.905   3.535  -0.606  1.00  0.00    -0.340 N 
ATOM     10  C   UNL     1       0.360   3.862  -0.216  1.00  0.00     0.240 C 
ATOM     11  O   UNL     1       0.602   5.067  -0.096  1.00  0.00    -0.273 OA
ATOM     12  H   UNL     1      -1.504   4.309  -0.720  1.00  0.00     0.164 HD
BRANCH  10  13
ATOM     13  C   UNL     1       1.481   2.816  -0.028  1.00  0.00     0.226 C 
BRANCH  13  14
ATOM     14  N   UNL     1       1.333   1.864   1.067  1.00  0.00    -0.294 N 
ATOM     15  C   UNL     1       1.240  -0.234  -0.367  1.00  0.00     0.065 C 
ATOM     16  C   UNL     1       1.215   0.482   0.940  1.00  0.00     0.029 A 
ATOM     17  C   UNL     1       1.129  -0.156   2.116  1.00  0.00     0.091 A 
ATOM     18  S   UNL     1       1.333   0.915   3.455  1.00  0.00    -0.082 S 
ATOM     19  C   UNL     1       1.459   2.310   2.378  1.00  0.00     0.307 A 
ATOM     20  O   UNL     1       1.591   3.461   2.782  1.00  0.00    -0.257 OA
ENDBRANCH  13  14
ENDBRANCH  10  13
ENDBRANCH   8   9
BRANCH   8  21
ATOM     21  C   UNL     1      -1.728   2.002  -2.412  1.00  0.00     0.143 C 
ATOM     22  C   UNL     1      -0.536   2.430  -3.268  1.00  0.00     0.041 C 
BRANCH  21  23
ATOM     23  O   UNL     1      -1.953   0.614  -2.691  1.00  0.00    -0.391 OA
ATOM     24  H   UNL     1      -1.167   0.102  -2.445  1.00  0.00     0.211 HD
ENDBRANCH  21  23
ENDBRANCH   8  21
ENDBRANCH   5   8
ENDBRANCH   3   4
ENDBRANCH   2   3
ENDBRANCH   1   2
BRANCH   1  25
ATOM     25  C   UNL     1      -2.653   2.199   5.167  1.00  0.00     0.002 C 
BRANCH  25  26
ATOM     26  C   UNL     1      -1.233   2.364   5.720  1.00  0.00     0.021 C 
BRANCH  26  27
ATOM     27  C   UNL     1      -1.016   3.586   6.592  1.00  0.00     0.116 C 
BRANCH  27  28
ATOM     28  N   UNL     1      -1.819   3.574   7.813  1.00  0.00    -0.352 N 
ATOM     29  C   UNL     1      -1.912   4.564   8.773  1.00  0.00     0.251 C 
ATOM     30  H   UNL     1      -2.357   2.765   7.971  1.00  0.00     0.163 HD
ATOM     31  O   UNL     1      -2.302   4.312   9.907  1.00  0.00    -0.269 OA
BRANCH  29  32
ATOM     32  C   UNL     1      -1.523   5.938   8.405  1.00  0.00     0.039 A 
ATOM     33  C   UNL     1      -0.799   6.752   9.275  1.00  0.00     0.014 A 
ATOM     34  C   UNL     1      -1.851   6.382   7.129  1.00  0.00     0.014 A 
ATOM     35  C   UNL     1      -0.335   7.979   8.806  1.00  0.00     0.010 A 
ATOM     36  C   UNL     1      -1.221   7.483   6.608  1.00  0.00     0.010 A 
ATOM     37  C   UNL     1      -0.520   8.327   7.453  1.00  0.00    -0.014 A 
BRANCH  37  38
ATOM     38  C   UNL     1       0.104   9.524   6.894  1.00  0.00     0.031 A 
ATOM     39  C   UNL     1       1.532   9.694   7.271  1.00  0.00     0.074 A 
ATOM     40  C   UNL     1      -0.482  10.348   5.996  1.00  0.00     0.049 A 
ATOM     41  N   UNL     1       2.016  10.564   8.092  1.00  0.00    -0.248 NA
ATOM     42  C   UNL     1       2.509   8.692   6.816  1.00  0.00     0.031 C 
ATOM     43  C   UNL     1      -1.761  10.194   5.292  1.00  0.00     0.029 A 
ATOM     44  N   UNL     1       0.003  11.505   5.463  1.00  0.00    -0.354 N 
ATOM     45  C   UNL     1       3.391  10.362   8.099  1.00  0.00     0.074 A 
ATOM     46  C   UNL     1       3.616   9.101   7.442  1.00  0.00     0.031 C 
ATOM     47  C   UNL     1      -1.838  11.082   4.276  1.00  0.00     0.029 A 
ATOM     48  C   UNL     1      -0.712  11.990   4.373  1.00  0.00     0.049 A 
ATOM     49  H   UNL     1       0.798  11.961   5.822  1.00  0.00     0.167 HD
ATOM     50  C   UNL     1       4.235  11.377   8.431  1.00  0.00     0.037 A 
ATOM     51  C   UNL     1      -0.408  13.070   3.611  1.00  0.00     0.037 A 
ATOM     52  C   UNL     1       3.530  12.432   9.121  1.00  0.00     0.049 A 
ATOM     53  C   UNL     1       0.496  13.928   4.412  1.00  0.00     0.074 A 
ATOM     54  C   UNL     1       2.790  12.509  10.286  1.00  0.00     0.029 A 
ATOM     55  N   UNL     1       3.194  13.549   8.397  1.00  0.00    -0.354 N 
ATOM     56  N   UNL     1       0.123  14.577   5.477  1.00  0.00    -0.248 NA
ATOM     57  C   UNL     1       1.925  13.698   4.285  1.00  0.00     0.031 C 
ATOM     58  C   UNL     1       1.704  13.382   9.976  1.00  0.00     0.029 A 
ATOM     59  C   UNL     1       1.884  13.847   8.673  1.00  0.00     0.049 A 
ATOM     60  H   UNL     1       3.786  14.047   7.788  1.00  0.00     0.167 HD
ATOM     61  C   UNL     1       1.181  14.431   6.360  1.00  0.00     0.074 A 
ATOM     62  C   UNL     1       2.298  13.965   5.539  1.00  0.00     0.031 C 
ATOM     63  C   UNL     1       0.973  14.424   7.710  1.00  0.00     0.037 A 
BRANCH  50  64
ATOM     64  C   UNL     1       5.580  11.605   7.783  1.00  0.00     0.057 A 
ATOM     65  C   UNL     1       6.409  12.631   8.271  1.00  0.00     0.134 A 
ATOM     66  C   UNL     1       5.956  11.080   6.529  1.00  0.00     0.134 A 
ATOM     67  F   UNL     1       6.154  13.221   9.449  1.00  0.00    -0.206 F 
ATOM     68  C   UNL     1       7.475  13.154   7.528  1.00  0.00     0.040 A 
ATOM     69  C   UNL     1       7.047  11.561   5.802  1.00  0.00     0.040 A 
ATOM     70  F   UNL     1       5.235  10.152   5.891  1.00  0.00    -0.206 F 
ATOM     71  C   UNL     1       7.790  12.626   6.284  1.00  0.00     0.006 A 
ENDBRANCH  50  64
BRANCH  51  72
ATOM     72  C   UNL     1      -0.598  13.284   2.159  1.00  0.00     0.057 A 
ATOM     73  C   UNL     1      -0.459  14.560   1.592  1.00  0.00     0.134 A 
ATOM     74  C   UNL     1      -0.605  12.206   1.257  1.00  0.00     0.134 A 
ATOM     75  F   UNL     1      -0.408  15.650   2.373  1.00  0.00    -0.206 F 
ATOM     76  C   UNL     1      -0.287  14.751   0.215  1.00  0.00     0.040 A 
ATOM     77  C   UNL     1      -0.438  12.384  -0.121  1.00  0.00     0.040 A 
ATOM     78  F   UNL     1      -0.677  10.941   1.694  1.00  0.00    -0.206 F 
ATOM     79  C   UNL     1      -0.259  13.658  -0.645  1.00  0.00     0.006 A 
ENDBRANCH  51  72
BRANCH  63  80
ATOM     80  C   UNL     1      -0.384  14.846   8.213  1.00  0.00     0.057 A 
ATOM     81  C   UNL     1      -1.586  14.184   7.917  1.00  0.00     0.134 A 
ATOM     82  C   UNL     1      -0.458  15.899   9.131  1.00  0.00     0.134 A 
ATOM     83  F   UNL     1      -1.612  13.105   7.125  1.00  0.00    -0.206 F 
ATOM     84  C   UNL     1      -2.808  14.585   8.471  1.00  0.00     0.040 A 
ATOM     85  C   UNL     1      -1.665  16.287   9.718  1.00  0.00     0.040 A 
ATOM     86  F   UNL     1       0.656  16.549   9.505  1.00  0.00    -0.206 F 
ATOM     87  C   UNL     1      -2.848  15.638   9.379  1.00  0.00     0.006 A 
ENDBRANCH  63  80
ENDBRANCH  37  38
ENDBRANCH  29  32
ENDBRANCH  27  28
ENDBRANCH  26  27
ENDBRANCH  25  26
ENDBRANCH   1  25
TORSDOF 18
