REMARK SMILES C[C@H]1CC[C@H](CNC(=O)NCc2ccc(C(=O)NCCCCCCNC(=O)c3ccc(-c4c5nc(c(-c6c(F)cccc6F)c6ccc([nH]6)c(-c6c(F)cccc6F)c6nc(c(-c7c(F)cccc7F)c7ccc4[nH]7)C=C6)C=C5)cc3)o2)CC1
REMARK SMILES IDX 20 1 19 2 18 3 16 4 17 5 15 7 12 8 13 9 82 10 14 11 11 12
REMARK SMILES IDX 10 13 7 14 8 15 9 17 6 19 5 20 1 21 2 22 84 23 3 24 83 25
REMARK SMILES IDX 4 26 21 27 22 28 23 29 24 30 25 31 26 32 27 34 28 35 29 36
REMARK SMILES IDX 81 37 30 38 80 39 31 40 32 41 33 42 74 43 34 44 79 45 73 46
REMARK SMILES IDX 75 47 35 48 78 49 72 50 71 51 36 53 62 54 45 55 61 56 46 57
REMARK SMILES IDX 49 58 60 59 76 60 47 61 48 62 59 64 77 65 50 66 37 67 38 68
REMARK SMILES IDX 43 69 39 70 40 71 42 72 44 73 41 74 63 75 64 76 69 77 65 78
REMARK SMILES IDX 66 79 68 80 70 81 67 82 51 83 52 84 57 85 53 86 54 87 56 88
REMARK SMILES IDX 58 89 55 90
REMARK H PARENT 18 6 7 16 10 18 25 33 75 52 49 63
REMARK Flexibility Score: inf
ROOT
ATOM      1  C   UNL     1      -8.374  -5.880   3.465  1.00  0.00     0.021 C 
ENDROOT
BRANCH   1   2
ATOM      2  C   UNL     1      -8.902  -5.253   2.175  1.00  0.00     0.116 C 
BRANCH   2   3
ATOM      3  N   UNL     1      -9.057  -3.818   2.312  1.00  0.00    -0.349 N 
ATOM      4  C   UNL     1      -8.379  -2.773   1.736  1.00  0.00     0.286 C 
ATOM      5  O   UNL     1      -8.852  -1.652   1.946  1.00  0.00    -0.266 OA
ATOM      6  H   UNL     1      -9.776  -3.545   2.927  1.00  0.00     0.163 HD
BRANCH   4   7
ATOM      7  C   UNL     1      -7.193  -2.984   0.924  1.00  0.00     0.191 A 
ATOM      8  C   UNL     1      -5.723  -2.343  -0.614  1.00  0.00     0.124 A 
ATOM      9  C   UNL     1      -5.297  -3.571  -0.156  1.00  0.00     0.048 A 
ATOM     10  O   UNL     1      -6.875  -1.996   0.025  1.00  0.00    -0.454 OA
ATOM     11  C   UNL     1      -6.219  -3.968   0.846  1.00  0.00     0.056 A 
BRANCH   8  12
ATOM     12  C   UNL     1      -5.176  -1.402  -1.631  1.00  0.00     0.193 C 
BRANCH  12  13
ATOM     13  N   UNL     1      -5.727  -0.077  -1.471  1.00  0.00    -0.331 N 
ATOM     14  N   UNL     1      -4.102   1.168  -0.299  1.00  0.00    -0.338 N 
ATOM     15  C   UNL     1      -5.235   1.074  -1.006  1.00  0.00     0.315 C 
ATOM     16  H   UNL     1      -3.741   2.083  -0.259  1.00  0.00     0.165 HD
ATOM     17  O   UNL     1      -5.852   2.114  -1.246  1.00  0.00    -0.249 OA
ATOM     18  H   UNL     1      -6.663  -0.007  -1.768  1.00  0.00     0.165 HD
BRANCH  14  19
ATOM     19  C   UNL     1      -3.297   0.199   0.419  1.00  0.00     0.121 C 
BRANCH  19  20
ATOM     20  C   UNL     1      -1.869   0.120  -0.144  1.00  0.00     0.008 C 
ATOM     21  C   UNL     1       2.519  -0.078  -0.183  1.00  0.00     0.007 C 
ATOM     22  C   UNL     1       1.075   0.005   0.308  1.00  0.00    -0.014 C 
ATOM     23  C   UNL     1       0.280  -1.234  -0.118  1.00  0.00     0.003 C 
ATOM     24  C   UNL     1       0.398   1.280  -0.209  1.00  0.00     0.003 C 
ATOM     25  C   UNL     1      -1.172  -1.155   0.352  1.00  0.00     0.006 C 
ATOM     26  C   UNL     1      -1.057   1.368   0.246  1.00  0.00     0.006 C 
ENDBRANCH  19  20
ENDBRANCH  14  19
ENDBRANCH  12  13
ENDBRANCH   8  12
ENDBRANCH   4   7
ENDBRANCH   2   3
ENDBRANCH   1   2
BRANCH   1  27
ATOM     27  C   UNL     1      -9.447  -6.084   4.545  1.00  0.00     0.002 C 
BRANCH  27  28
ATOM     28  C   UNL     1     -10.579  -7.054   4.178  1.00  0.00     0.002 C 
BRANCH  28  29
ATOM     29  C   UNL     1     -10.136  -8.443   3.706  1.00  0.00     0.021 C 
BRANCH  29  30
ATOM     30  C   UNL     1      -9.319  -9.240   4.722  1.00  0.00     0.116 C 
BRANCH  30  31
ATOM     31  N   UNL     1     -10.098  -9.596   5.897  1.00  0.00    -0.352 N 
ATOM     32  C   UNL     1     -10.337 -10.829   6.451  1.00  0.00     0.251 C 
ATOM     33  H   UNL     1     -10.518  -8.839   6.366  1.00  0.00     0.163 HD
ATOM     34  O   UNL     1     -11.172 -10.952   7.343  1.00  0.00    -0.269 OA
BRANCH  32  35
ATOM     35  C   UNL     1      -9.606 -12.021   5.966  1.00  0.00     0.039 A 
ATOM     36  C   UNL     1     -10.322 -13.196   5.720  1.00  0.00     0.014 A 
ATOM     37  C   UNL     1      -8.222 -11.990   5.772  1.00  0.00     0.014 A 
ATOM     38  C   UNL     1      -9.664 -14.318   5.211  1.00  0.00     0.010 A 
ATOM     39  C   UNL     1      -7.575 -13.091   5.213  1.00  0.00     0.010 A 
ATOM     40  C   UNL     1      -8.292 -14.261   4.918  1.00  0.00    -0.014 A 
BRANCH  40  41
ATOM     41  C   UNL     1      -7.598 -15.401   4.267  1.00  0.00     0.031 A 
ATOM     42  C   UNL     1      -6.535 -16.168   4.999  1.00  0.00     0.074 A 
ATOM     43  C   UNL     1      -7.876 -15.694   2.982  1.00  0.00     0.049 A 
ATOM     44  N   UNL     1      -5.768 -17.136   4.564  1.00  0.00    -0.248 NA
ATOM     45  C   UNL     1      -6.286 -15.784   6.396  1.00  0.00     0.031 C 
ATOM     46  C   UNL     1      -8.857 -14.996   2.148  1.00  0.00     0.029 A 
ATOM     47  N   UNL     1      -7.349 -16.647   2.147  1.00  0.00    -0.354 N 
ATOM     48  C   UNL     1      -4.938 -17.468   5.627  1.00  0.00     0.074 A 
ATOM     49  C   UNL     1      -5.268 -16.571   6.715  1.00  0.00     0.031 C 
ATOM     50  C   UNL     1      -8.870 -15.552   0.927  1.00  0.00     0.029 A 
ATOM     51  C   UNL     1      -7.877 -16.620   0.879  1.00  0.00     0.049 A 
ATOM     52  H   UNL     1      -6.657 -17.288   2.430  1.00  0.00     0.167 HD
ATOM     53  C   UNL     1      -4.000 -18.442   5.695  1.00  0.00     0.037 A 
ATOM     54  C   UNL     1      -7.586 -17.365  -0.204  1.00  0.00     0.037 A 
ATOM     55  C   UNL     1      -3.690 -19.350   4.621  1.00  0.00     0.049 A 
ATOM     56  C   UNL     1      -6.529 -18.427  -0.107  1.00  0.00     0.074 A 
ATOM     57  C   UNL     1      -2.813 -20.420   4.622  1.00  0.00     0.029 A 
ATOM     58  N   UNL     1      -4.245 -19.289   3.351  1.00  0.00    -0.354 N 
ATOM     59  N   UNL     1      -5.799 -18.773   0.924  1.00  0.00    -0.248 NA
ATOM     60  C   UNL     1      -6.255 -19.201  -1.327  1.00  0.00     0.031 C 
ATOM     61  C   UNL     1      -2.806 -20.983   3.341  1.00  0.00     0.029 A 
ATOM     62  C   UNL     1      -3.706 -20.285   2.552  1.00  0.00     0.049 A 
ATOM     63  H   UNL     1      -4.921 -18.636   3.061  1.00  0.00     0.167 HD
ATOM     64  C   UNL     1      -4.988 -19.810   0.485  1.00  0.00     0.074 A 
ATOM     65  C   UNL     1      -5.328 -20.049  -0.903  1.00  0.00     0.031 C 
ATOM     66  C   UNL     1      -4.045 -20.501   1.169  1.00  0.00     0.037 A 
BRANCH  53  67
ATOM     67  C   UNL     1      -3.240 -18.580   6.980  1.00  0.00     0.057 A 
ATOM     68  C   UNL     1      -3.835 -19.103   8.136  1.00  0.00     0.134 A 
ATOM     69  C   UNL     1      -1.889 -18.219   7.054  1.00  0.00     0.134 A 
ATOM     70  F   UNL     1      -5.129 -19.457   8.132  1.00  0.00    -0.206 F 
ATOM     71  C   UNL     1      -3.119 -19.240   9.326  1.00  0.00     0.040 A 
ATOM     72  C   UNL     1      -1.157 -18.373   8.233  1.00  0.00     0.040 A 
ATOM     73  F   UNL     1      -1.257 -17.718   5.982  1.00  0.00    -0.206 F 
ATOM     74  C   UNL     1      -1.774 -18.880   9.375  1.00  0.00     0.006 A 
ENDBRANCH  53  67
BRANCH  54  75
ATOM     75  C   UNL     1      -8.316 -17.135  -1.474  1.00  0.00     0.057 A 
ATOM     76  C   UNL     1      -9.268 -18.053  -1.931  1.00  0.00     0.134 A 
ATOM     77  C   UNL     1      -8.087 -15.996  -2.255  1.00  0.00     0.134 A 
ATOM     78  F   UNL     1      -9.515 -19.172  -1.234  1.00  0.00    -0.206 F 
ATOM     79  C   UNL     1      -9.961 -17.853  -3.125  1.00  0.00     0.040 A 
ATOM     80  C   UNL     1      -8.787 -15.773  -3.441  1.00  0.00     0.040 A 
ATOM     81  F   UNL     1      -7.191 -15.078  -1.866  1.00  0.00    -0.206 F 
ATOM     82  C   UNL     1      -9.724 -16.706  -3.882  1.00  0.00     0.006 A 
ENDBRANCH  54  75
BRANCH  66  83
ATOM     83  C   UNL     1      -3.318 -21.581   0.427  1.00  0.00     0.057 A 
ATOM     84  C   UNL     1      -2.330 -21.281  -0.519  1.00  0.00     0.134 A 
ATOM     85  C   UNL     1      -3.584 -22.932   0.682  1.00  0.00     0.134 A 
ATOM     86  F   UNL     1      -2.041 -20.006  -0.819  1.00  0.00    -0.206 F 
ATOM     87  C   UNL     1      -1.642 -22.288  -1.198  1.00  0.00     0.040 A 
ATOM     88  C   UNL     1      -2.888 -23.948   0.025  1.00  0.00     0.040 A 
ATOM     89  F   UNL     1      -4.516 -23.285   1.580  1.00  0.00    -0.206 F 
ATOM     90  C   UNL     1      -1.916 -23.626  -0.921  1.00  0.00     0.006 A 
ENDBRANCH  66  83
ENDBRANCH  40  41
ENDBRANCH  32  35
ENDBRANCH  30  31
ENDBRANCH  29  30
ENDBRANCH  28  29
ENDBRANCH  27  28
ENDBRANCH   1  27
TORSDOF 17
