REMARK SMILES O=C(NCCCCCCNC(=O)c1ccc(N2C(=O)/C(=C/C3=c4ccccc4=NC3)SC2=S)cc1O)c1ccc(-c2c3nc(c(-c4c(F)cccc4F)c4ccc([nH]4)c(-c4c(F)cccc4F)c4nc(c(-c5c(F)cccc5F)c5ccc2[nH]5)C=C4)C=C3)cc1
REMARK SMILES IDX 6 1 5 2 4 3 3 4 1 5 2 6 37 8 38 9 90 10 39 11 89 12 40 13
REMARK SMILES IDX 41 14 42 15 83 16 43 17 88 18 82 19 84 20 44 21 87 22 81 23
REMARK SMILES IDX 80 24 45 26 71 27 54 28 70 29 55 30 58 31 69 32 85 33 56 34
REMARK SMILES IDX 57 35 68 37 86 38 59 39 46 40 47 41 52 42 48 43 49 44 51 45
REMARK SMILES IDX 53 46 50 47 72 48 73 49 78 50 74 51 75 52 77 53 79 54 76 55
REMARK SMILES IDX 60 56 61 57 66 58 62 59 63 60 65 61 67 62 64 63 7 64 8 65
REMARK SMILES IDX 9 66 10 67 11 68 12 70 13 71 14 72 35 73 15 74 34 75 16 76
REMARK SMILES IDX 36 77 17 79 18 80 32 81 19 82 20 83 31 84 33 85 21 86 22 87
REMARK SMILES IDX 23 88 30 89 24 90 28 91 29 92 25 93 27 94 26 95
REMARK H PARENT 3 7 84 25 58 36 10 69 36 78
REMARK Flexibility Score: inf
ROOT
ATOM      1  C   UNL     1       4.309   3.250   1.899  1.00  0.00     0.002 C 
ENDROOT
BRANCH   1   2
ATOM      2  C   UNL     1       4.801   2.412   0.717  1.00  0.00     0.021 C 
BRANCH   2   3
ATOM      3  C   UNL     1       4.476   0.925   0.810  1.00  0.00     0.116 C 
BRANCH   3   4
ATOM      4  N   UNL     1       3.044   0.688   0.864  1.00  0.00    -0.352 N 
ATOM      5  O   UNL     1       1.044  -0.038   0.130  1.00  0.00    -0.269 OA
ATOM      6  C   UNL     1       2.267  -0.126   0.082  1.00  0.00     0.251 C 
ATOM      7  H   UNL     1       2.562   1.184   1.564  1.00  0.00     0.163 HD
BRANCH   6   8
ATOM      8  C   UNL     1       2.896  -1.114  -0.818  1.00  0.00     0.039 A 
ATOM      9  C   UNL     1       2.354  -1.300  -2.094  1.00  0.00     0.014 A 
ATOM     10  C   UNL     1       3.966  -1.904  -0.387  1.00  0.00     0.014 A 
ATOM     11  C   UNL     1       2.892  -2.270  -2.941  1.00  0.00     0.010 A 
ATOM     12  C   UNL     1       4.544  -2.824  -1.256  1.00  0.00     0.010 A 
ATOM     13  C   UNL     1       3.993  -3.036  -2.530  1.00  0.00    -0.014 A 
BRANCH  13  14
ATOM     14  C   UNL     1       4.538  -4.119  -3.384  1.00  0.00     0.031 A 
ATOM     15  C   UNL     1       4.428  -5.548  -2.931  1.00  0.00     0.074 A 
ATOM     16  C   UNL     1       5.172  -3.820  -4.532  1.00  0.00     0.049 A 
ATOM     17  N   UNL     1       4.925  -6.632  -3.471  1.00  0.00    -0.248 NA
ATOM     18  C   UNL     1       3.678  -5.784  -1.688  1.00  0.00     0.031 C 
ATOM     19  C   UNL     1       5.358  -2.473  -5.069  1.00  0.00     0.029 A 
ATOM     20  N   UNL     1       5.794  -4.636  -5.443  1.00  0.00    -0.354 N 
ATOM     21  C   UNL     1       4.564  -7.673  -2.624  1.00  0.00     0.074 A 
ATOM     22  C   UNL     1       3.858  -7.082  -1.508  1.00  0.00     0.031 C 
ATOM     23  C   UNL     1       6.046  -2.554  -6.220  1.00  0.00     0.029 A 
ATOM     24  C   UNL     1       6.387  -3.951  -6.474  1.00  0.00     0.049 A 
ATOM     25  H   UNL     1       5.813  -5.617  -5.365  1.00  0.00     0.167 HD
ATOM     26  C   UNL     1       4.783  -9.002  -2.772  1.00  0.00     0.037 A 
ATOM     27  C   UNL     1       7.143  -4.397  -7.494  1.00  0.00     0.037 A 
ATOM     28  C   UNL     1       5.481  -9.582  -3.890  1.00  0.00     0.049 A 
ATOM     29  C   UNL     1       7.422  -5.870  -7.614  1.00  0.00     0.074 A 
ATOM     30  C   UNL     1       5.704 -10.918  -4.171  1.00  0.00     0.029 A 
ATOM     31  N   UNL     1       6.084  -8.854  -4.906  1.00  0.00    -0.354 N 
ATOM     32  N   UNL     1       7.024  -6.853  -6.842  1.00  0.00    -0.248 NA
ATOM     33  C   UNL     1       8.260  -6.293  -8.744  1.00  0.00     0.031 C 
ATOM     34  C   UNL     1       6.495 -10.996  -5.323  1.00  0.00     0.029 A 
ATOM     35  C   UNL     1       6.721  -9.710  -5.790  1.00  0.00     0.049 A 
ATOM     36  H   UNL     1       6.062  -7.873  -4.987  1.00  0.00     0.167 HD
ATOM     37  C   UNL     1       7.560  -8.010  -7.392  1.00  0.00     0.074 A 
ATOM     38  C   UNL     1       8.285  -7.609  -8.581  1.00  0.00     0.031 C 
ATOM     39  C   UNL     1       7.467  -9.290  -6.951  1.00  0.00     0.037 A 
BRANCH  26  40
ATOM     40  C   UNL     1       4.282  -9.901  -1.677  1.00  0.00     0.057 A 
ATOM     41  C   UNL     1       5.181 -10.573  -0.840  1.00  0.00     0.134 A 
ATOM     42  C   UNL     1       2.914 -10.083  -1.428  1.00  0.00     0.134 A 
ATOM     43  F   UNL     1       6.505 -10.453  -1.024  1.00  0.00    -0.206 F 
ATOM     44  C   UNL     1       4.740 -11.375   0.214  1.00  0.00     0.040 A 
ATOM     45  C   UNL     1       2.461 -10.854  -0.356  1.00  0.00     0.040 A 
ATOM     46  F   UNL     1       1.997  -9.460  -2.184  1.00  0.00    -0.206 F 
ATOM     47  C   UNL     1       3.376 -11.505   0.468  1.00  0.00     0.006 A 
ENDBRANCH  26  40
BRANCH  27  48
ATOM     48  C   UNL     1       7.705  -3.429  -8.469  1.00  0.00     0.057 A 
ATOM     49  C   UNL     1       8.713  -2.529  -8.102  1.00  0.00     0.134 A 
ATOM     50  C   UNL     1       7.235  -3.371  -9.785  1.00  0.00     0.134 A 
ATOM     51  F   UNL     1       9.202  -2.532  -6.853  1.00  0.00    -0.206 F 
ATOM     52  C   UNL     1       9.221  -1.593  -9.003  1.00  0.00     0.040 A 
ATOM     53  C   UNL     1       7.752  -2.457 -10.705  1.00  0.00     0.040 A 
ATOM     54  F   UNL     1       6.286  -4.222 -10.202  1.00  0.00    -0.206 F 
ATOM     55  C   UNL     1       8.742  -1.558 -10.312  1.00  0.00     0.006 A 
ENDBRANCH  27  48
BRANCH  39  56
ATOM     56  C   UNL     1       8.184 -10.339  -7.751  1.00  0.00     0.057 A 
ATOM     57  C   UNL     1       7.473 -11.278  -8.509  1.00  0.00     0.134 A 
ATOM     58  C   UNL     1       9.582 -10.430  -7.755  1.00  0.00     0.134 A 
ATOM     59  F   UNL     1       6.132 -11.252  -8.544  1.00  0.00    -0.206 F 
ATOM     60  C   UNL     1       8.127 -12.272  -9.239  1.00  0.00     0.040 A 
ATOM     61  C   UNL     1      10.248 -11.402  -8.505  1.00  0.00     0.040 A 
ATOM     62  F   UNL     1      10.323  -9.551  -7.063  1.00  0.00    -0.206 F 
ATOM     63  C   UNL     1       9.519 -12.330  -9.244  1.00  0.00     0.006 A 
ENDBRANCH  39  56
ENDBRANCH  13  14
ENDBRANCH   6   8
ENDBRANCH   3   4
ENDBRANCH   2   3
ENDBRANCH   1   2
BRANCH   1  64
ATOM     64  C   UNL     1       4.787   2.780   3.276  1.00  0.00     0.002 C 
BRANCH  64  65
ATOM     65  C   UNL     1       6.304   2.651   3.428  1.00  0.00     0.021 C 
BRANCH  65  66
ATOM     66  C   UNL     1       7.083   3.923   3.109  1.00  0.00     0.116 C 
BRANCH  66  67
ATOM     67  N   UNL     1       6.758   5.000   4.025  1.00  0.00    -0.352 N 
ATOM     68  C   UNL     1       7.621   5.833   4.689  1.00  0.00     0.255 C 
ATOM     69  H   UNL     1       5.799   5.151   4.190  1.00  0.00     0.163 HD
ATOM     70  O   UNL     1       7.204   6.638   5.516  1.00  0.00    -0.269 OA
BRANCH  68  71
ATOM     71  C   UNL     1       9.072   5.709   4.459  1.00  0.00     0.081 A 
ATOM     72  C   UNL     1       9.876   5.381   5.554  1.00  0.00     0.020 A 
ATOM     73  C   UNL     1       9.650   5.906   3.202  1.00  0.00     0.130 A 
ATOM     74  C   UNL     1      11.254   5.220   5.384  1.00  0.00     0.028 A 
ATOM     75  C   UNL     1      11.026   5.754   3.037  1.00  0.00     0.073 A 
ATOM     76  C   UNL     1      11.846   5.425   4.128  1.00  0.00     0.054 A 
BRANCH  73  77
ATOM     77  O   UNL     1       8.876   6.226   2.122  1.00  0.00    -0.507 OA
ATOM     78  H   UNL     1       7.950   6.330   2.223  1.00  0.00     0.293 HD
ENDBRANCH  73  77
BRANCH  76  79
ATOM     79  N   UNL     1      13.255   5.280   3.957  1.00  0.00    -0.261 N 
ATOM     80  C   UNL     1      13.908   4.168   4.489  1.00  0.00     0.270 C 
ATOM     81  C   UNL     1      14.050   6.191   3.270  1.00  0.00     0.152 C 
ATOM     82  O   UNL     1      13.417   3.243   5.120  1.00  0.00    -0.268 OA
ATOM     83  C   UNL     1      15.353   4.205   4.129  1.00  0.00     0.081 C 
ATOM     84  S   UNL     1      15.698   5.585   3.172  1.00  0.00    -0.054 SA
ATOM     85  S   UNL     1      13.676   7.707   2.666  1.00  0.00    -0.051 S 
ATOM     86  C   UNL     1      16.209   3.240   4.492  1.00  0.00     0.027 C 
BRANCH  86  87
ATOM     87  C   UNL     1      17.619   3.205   4.188  1.00  0.00    -0.016 C 
ATOM     88  C   UNL     1      18.248   2.324   3.415  1.00  0.00     0.005 A 
ATOM     89  C   UNL     1      18.590   4.214   4.737  1.00  0.00     0.179 C 
ATOM     90  C   UNL     1      17.865   1.177   2.655  1.00  0.00     0.011 A 
ATOM     91  C   UNL     1      19.642   2.800   3.450  1.00  0.00     0.065 A 
ATOM     92  N   UNL     1      19.912   3.842   4.174  1.00  0.00    -0.280 NA
ATOM     93  C   UNL     1      18.807   0.527   1.950  1.00  0.00     0.001 A 
ATOM     94  C   UNL     1      20.617   2.038   2.642  1.00  0.00     0.028 A 
ATOM     95  C   UNL     1      20.192   0.973   1.944  1.00  0.00     0.002 A 
ENDBRANCH  86  87
ENDBRANCH  76  79
ENDBRANCH  68  71
ENDBRANCH  66  67
ENDBRANCH  65  66
ENDBRANCH  64  65
ENDBRANCH   1  64
TORSDOF 16
