REMARK SMILES CS(=O)(=O)c1ccc(/C=C(/C(=O)NCCCCCCNC(=O)c2ccc(-c3c4nc(c(-c5c(F)cccc5F)c5ccc([nH]5)c(-c5c(F)cccc5F)c5nc(c(-c6c(F)cccc6F)c6ccc3[nH]6)C=C5)C=C4)cc2)c2ccc(-c3ccc(S(C)(=O)=O)cc3)cc2)cc1
REMARK SMILES IDX 16 1 15 2 14 3 13 4 11 5 12 6 10 8 9 9 8 10 5 11 6 12 94 13
REMARK SMILES IDX 7 14 93 15 2 16 1 17 3 18 4 19 77 20 78 21 92 22 79 23 91 24
REMARK SMILES IDX 80 25 81 26 82 27 90 28 83 29 89 30 84 31 85 32 86 33 87 34
REMARK SMILES IDX 88 35 17 36 18 37 19 38 20 39 21 40 22 42 23 43 24 44 76 45
REMARK SMILES IDX 25 46 75 47 26 48 27 49 28 50 69 51 29 52 74 53 68 54 70 55
REMARK SMILES IDX 30 56 73 57 67 58 66 59 31 61 57 62 40 63 56 64 41 65 44 66
REMARK SMILES IDX 55 67 71 68 42 69 43 70 54 72 72 73 45 74 32 75 33 76 38 77
REMARK SMILES IDX 34 78 35 79 37 80 39 81 36 82 58 83 59 84 64 85 60 86 61 87
REMARK SMILES IDX 63 88 65 89 62 90 46 91 47 92 52 93 48 94 49 95 51 96 53 97
REMARK SMILES IDX 50 98
REMARK H PARENT 13 7 20 41 70 60 44 71
REMARK Flexibility Score: inf
ROOT
ATOM      1  C   UNL     1       2.393   4.725  10.522  1.00  0.00     0.002 C 
ENDROOT
BRANCH   1   2
ATOM      2  C   UNL     1       2.103   4.367   9.055  1.00  0.00     0.021 C 
BRANCH   2   3
ATOM      3  C   UNL     1       3.204   3.527   8.401  1.00  0.00     0.116 C 
BRANCH   3   4
ATOM      4  N   UNL     1       3.175   2.183   8.940  1.00  0.00    -0.352 N 
ATOM      5  C   UNL     1       2.707   0.992   8.486  1.00  0.00     0.251 C 
ATOM      6  O   UNL     1       2.765   0.049   9.278  1.00  0.00    -0.269 OA
ATOM      7  H   UNL     1       3.585   2.118   9.833  1.00  0.00     0.163 HD
BRANCH   5   8
ATOM      8  C   UNL     1       2.228   0.770   7.071  1.00  0.00     0.047 C 
ATOM      9  C   UNL     1       1.539   1.703   6.373  1.00  0.00     0.022 C 
BRANCH   9  10
ATOM     10  C   UNL     1       1.113   1.666   4.955  1.00  0.00    -0.025 A 
ATOM     11  C   UNL     1       0.512   1.671   2.211  1.00  0.00     0.067 A 
ATOM     12  C   UNL     1       0.124   0.591   3.005  1.00  0.00     0.021 A 
ATOM     13  C   UNL     1       1.147   2.774   2.782  1.00  0.00     0.021 A 
ATOM     14  C   UNL     1       0.411   0.601   4.375  1.00  0.00     0.009 A 
ATOM     15  C   UNL     1       1.444   2.767   4.148  1.00  0.00     0.009 A 
BRANCH  11  16
ATOM     16  S   UNL     1       0.183   1.645   0.465  1.00  0.00     0.175 S 
ATOM     17  C   UNL     1       0.994   0.181  -0.124  1.00  0.00     0.163 C 
ATOM     18  O   UNL     1       0.868   2.780  -0.125  1.00  0.00    -0.224 OA
ATOM     19  O   UNL     1      -1.248   1.471   0.310  1.00  0.00    -0.224 OA
ENDBRANCH  11  16
ENDBRANCH   9  10
BRANCH   8  20
ATOM     20  C   UNL     1       2.368  -0.605   6.532  1.00  0.00    -0.013 A 
ATOM     21  C   UNL     1       1.567  -1.616   7.082  1.00  0.00     0.009 A 
ATOM     22  C   UNL     1       3.173  -0.905   5.430  1.00  0.00     0.009 A 
ATOM     23  C   UNL     1       1.510  -2.878   6.495  1.00  0.00     0.009 A 
ATOM     24  C   UNL     1       3.103  -2.171   4.834  1.00  0.00     0.009 A 
ATOM     25  C   UNL     1       2.240  -3.165   5.333  1.00  0.00    -0.018 A 
BRANCH  25  26
ATOM     26  C   UNL     1       2.038  -4.438   4.621  1.00  0.00    -0.018 A 
ATOM     27  C   UNL     1       0.733  -4.891   4.343  1.00  0.00     0.010 A 
ATOM     28  C   UNL     1       3.118  -5.212   4.165  1.00  0.00     0.010 A 
ATOM     29  C   UNL     1       0.508  -6.068   3.629  1.00  0.00     0.021 A 
ATOM     30  C   UNL     1       2.904  -6.395   3.450  1.00  0.00     0.021 A 
ATOM     31  C   UNL     1       1.599  -6.816   3.190  1.00  0.00     0.067 A 
BRANCH  31  32
ATOM     32  S   UNL     1       1.305  -8.289   2.241  1.00  0.00     0.175 S 
ATOM     33  C   UNL     1       0.630  -9.423   3.426  1.00  0.00     0.163 C 
ATOM     34  O   UNL     1       0.269  -7.967   1.275  1.00  0.00    -0.224 OA
ATOM     35  O   UNL     1       2.589  -8.804   1.813  1.00  0.00    -0.224 OA
ENDBRANCH  31  32
ENDBRANCH  25  26
ENDBRANCH   8  20
ENDBRANCH   5   8
ENDBRANCH   3   4
ENDBRANCH   2   3
ENDBRANCH   1   2
BRANCH   1  36
ATOM     36  C   UNL     1       3.623   5.614  10.744  1.00  0.00     0.002 C 
BRANCH  36  37
ATOM     37  C   UNL     1       3.631   6.920   9.946  1.00  0.00     0.021 C 
BRANCH  37  38
ATOM     38  C   UNL     1       2.447   7.840  10.228  1.00  0.00     0.116 C 
BRANCH  38  39
ATOM     39  N   UNL     1       2.489   8.384  11.577  1.00  0.00    -0.352 N 
ATOM     40  C   UNL     1       2.515   9.697  11.979  1.00  0.00     0.251 C 
ATOM     41  H   UNL     1       2.501   7.718  12.302  1.00  0.00     0.163 HD
ATOM     42  O   UNL     1       2.750   9.987  13.147  1.00  0.00    -0.269 OA
BRANCH  40  43
ATOM     43  C   UNL     1       2.277  10.765  10.988  1.00  0.00     0.039 A 
ATOM     44  C   UNL     1       3.169  11.839  10.918  1.00  0.00     0.014 A 
ATOM     45  C   UNL     1       1.181  10.698  10.122  1.00  0.00     0.014 A 
ATOM     46  C   UNL     1       3.004  12.810   9.929  1.00  0.00     0.010 A 
ATOM     47  C   UNL     1       1.050  11.635   9.102  1.00  0.00     0.010 A 
ATOM     48  C   UNL     1       1.965  12.694   8.991  1.00  0.00    -0.014 A 
BRANCH  48  49
ATOM     49  C   UNL     1       1.827  13.652   7.867  1.00  0.00     0.031 A 
ATOM     50  C   UNL     1       0.634  14.559   7.790  1.00  0.00     0.074 A 
ATOM     51  C   UNL     1       2.733  13.640   6.870  1.00  0.00     0.049 A 
ATOM     52  N   UNL     1       0.278  15.377   6.832  1.00  0.00    -0.248 NA
ATOM     53  C   UNL     1      -0.293  14.527   8.932  1.00  0.00     0.031 C 
ATOM     54  C   UNL     1       3.917  12.780   6.811  1.00  0.00     0.029 A 
ATOM     55  N   UNL     1       2.788  14.361   5.704  1.00  0.00    -0.354 N 
ATOM     56  C   UNL     1      -0.920  15.943   7.247  1.00  0.00     0.074 A 
ATOM     57  C   UNL     1      -1.251  15.347   8.524  1.00  0.00     0.031 C 
ATOM     58  C   UNL     1       4.585  13.031   5.674  1.00  0.00     0.029 A 
ATOM     59  C   UNL     1       3.859  14.037   4.907  1.00  0.00     0.049 A 
ATOM     60  H   UNL     1       2.123  15.045   5.461  1.00  0.00     0.167 HD
ATOM     61  C   UNL     1      -1.668  16.886   6.627  1.00  0.00     0.037 A 
ATOM     62  C   UNL     1       4.206  14.488   3.687  1.00  0.00     0.037 A 
ATOM     63  C   UNL     1      -1.325  17.495   5.369  1.00  0.00     0.049 A 
ATOM     64  C   UNL     1       3.345  15.514   3.006  1.00  0.00     0.074 A 
ATOM     65  C   UNL     1      -1.979  18.513   4.697  1.00  0.00     0.029 A 
ATOM     66  N   UNL     1      -0.234  17.138   4.591  1.00  0.00    -0.354 N 
ATOM     67  N   UNL     1       2.246  16.084   3.437  1.00  0.00    -0.248 NA
ATOM     68  C   UNL     1       3.767  15.952   1.669  1.00  0.00     0.031 C 
ATOM     69  C   UNL     1      -1.305  18.746   3.493  1.00  0.00     0.029 A 
ATOM     70  C   UNL     1      -0.212  17.896   3.432  1.00  0.00     0.049 A 
ATOM     71  H   UNL     1       0.427  16.448   4.828  1.00  0.00     0.167 HD
ATOM     72  C   UNL     1       1.854  16.959   2.433  1.00  0.00     0.074 A 
ATOM     73  C   UNL     1       2.840  16.855   1.377  1.00  0.00     0.031 C 
ATOM     74  C   UNL     1       0.773  17.775   2.389  1.00  0.00     0.037 A 
BRANCH  61  75
ATOM     75  C   UNL     1      -2.933  17.319   7.305  1.00  0.00     0.057 A 
ATOM     76  C   UNL     1      -2.915  18.118   8.455  1.00  0.00     0.134 A 
ATOM     77  C   UNL     1      -4.183  16.958   6.786  1.00  0.00     0.134 A 
ATOM     78  F   UNL     1      -1.750  18.487   9.008  1.00  0.00    -0.206 F 
ATOM     79  C   UNL     1      -4.096  18.524   9.080  1.00  0.00     0.040 A 
ATOM     80  C   UNL     1      -5.370  17.376   7.389  1.00  0.00     0.040 A 
ATOM     81  F   UNL     1      -4.269  16.198   5.685  1.00  0.00    -0.206 F 
ATOM     82  C   UNL     1      -5.328  18.157   8.543  1.00  0.00     0.006 A 
ENDBRANCH  61  75
BRANCH  62  83
ATOM     83  C   UNL     1       5.432  13.974   3.030  1.00  0.00     0.057 A 
ATOM     84  C   UNL     1       6.570  14.778   2.903  1.00  0.00     0.134 A 
ATOM     85  C   UNL     1       5.498  12.674   2.516  1.00  0.00     0.134 A 
ATOM     86  F   UNL     1       6.558  16.039   3.360  1.00  0.00    -0.206 F 
ATOM     87  C   UNL     1       7.728  14.313   2.279  1.00  0.00     0.040 A 
ATOM     88  C   UNL     1       6.656  12.188   1.906  1.00  0.00     0.040 A 
ATOM     89  F   UNL     1       4.442  11.853   2.612  1.00  0.00    -0.206 F 
ATOM     90  C   UNL     1       7.774  13.011   1.783  1.00  0.00     0.006 A 
ENDBRANCH  62  83
BRANCH  74  91
ATOM     91  C   UNL     1       0.607  18.626   1.167  1.00  0.00     0.057 A 
ATOM     92  C   UNL     1       0.160  18.086  -0.045  1.00  0.00     0.134 A 
ATOM     93  C   UNL     1       0.854  20.003   1.213  1.00  0.00     0.134 A 
ATOM     94  F   UNL     1      -0.079  16.770  -0.156  1.00  0.00    -0.206 F 
ATOM     95  C   UNL     1      -0.025  18.886  -1.174  1.00  0.00     0.040 A 
ATOM     96  C   UNL     1       0.653  20.817   0.098  1.00  0.00     0.040 A 
ATOM     97  F   UNL     1       1.280  20.581   2.346  1.00  0.00    -0.206 F 
ATOM     98  C   UNL     1       0.215  20.257  -1.101  1.00  0.00     0.006 A 
ENDBRANCH  74  91
ENDBRANCH  48  49
ENDBRANCH  40  43
ENDBRANCH  38  39
ENDBRANCH  37  38
ENDBRANCH  36  37
ENDBRANCH   1  36
TORSDOF 18
