REMARK SMILES Cc1ccc(C(=O)N[C@@H]2C=C[C@H](C(=O)NCCCCCCNC(=O)c3ccc(-c4c5nc(c(-c6c(F)cccc6F)c6ccc([nH]6)c(-c6c(F)cccc6F)c6nc(c(-c7c(F)cccc7F)c7ccc4[nH]7)C=C6)C=C5)cc3)C2)c(F)c1
REMARK SMILES IDX 18 1 17 2 16 3 15 4 13 5 14 6 12 8 9 9 10 10 79 11 11 12
REMARK SMILES IDX 8 13 6 14 7 15 5 17 1 18 2 19 3 20 82 21 4 22 80 23 81 24
REMARK SMILES IDX 19 25 20 26 21 27 22 28 23 29 24 31 25 32 26 33 78 34 27 35
REMARK SMILES IDX 77 36 28 37 29 38 30 39 71 40 31 41 76 42 70 43 72 44 32 45
REMARK SMILES IDX 75 46 69 47 68 48 33 50 59 51 42 52 58 53 43 54 46 55 57 56
REMARK SMILES IDX 73 57 44 58 45 59 56 61 74 62 47 63 34 64 35 65 40 66 36 67
REMARK SMILES IDX 37 68 39 69 41 70 38 71 60 72 61 73 66 74 62 75 63 76 65 77
REMARK SMILES IDX 67 78 64 79 48 80 49 81 54 82 50 83 51 84 53 85 55 86 52 87
REMARK H PARENT 15 7 8 16 22 30 72 49 46 60
REMARK Flexibility Score: inf
ROOT
ATOM      1  C   UNL     1       3.172  -9.884   2.631  1.00  0.00     0.002 C 
ENDROOT
BRANCH   1   2
ATOM      2  C   UNL     1       1.813  -9.227   2.901  1.00  0.00     0.021 C 
BRANCH   2   3
ATOM      3  C   UNL     1       1.837  -7.706   3.062  1.00  0.00     0.116 C 
BRANCH   3   4
ATOM      4  N   UNL     1       2.395  -7.028   1.907  1.00  0.00    -0.356 N 
ATOM      5  C   UNL     1       2.112  -5.781   1.418  1.00  0.00     0.227 C 
ATOM      6  O   UNL     1       2.811  -5.343   0.505  1.00  0.00    -0.274 OA
ATOM      7  H   UNL     1       3.073  -7.535   1.405  1.00  0.00     0.163 HD
BRANCH   5   8
ATOM      8  C   UNL     1       0.911  -5.029   1.994  1.00  0.00     0.103 C 
ATOM      9  C   UNL     1      -0.829  -4.408   0.342  1.00  0.00     0.106 C 
ATOM     10  C   UNL     1      -0.042  -3.226   0.821  1.00  0.00    -0.006 C 
ATOM     11  C   UNL     1      -0.366  -5.514   1.304  1.00  0.00     0.047 C 
ATOM     12  C   UNL     1       0.908  -3.564   1.701  1.00  0.00    -0.016 C 
BRANCH   9  13
ATOM     13  N   UNL     1      -0.568  -4.559  -1.079  1.00  0.00    -0.346 N 
ATOM     14  C   UNL     1      -0.910  -5.527  -1.994  1.00  0.00     0.254 C 
ATOM     15  O   UNL     1      -0.865  -5.267  -3.193  1.00  0.00    -0.269 OA
ATOM     16  H   UNL     1      -0.040  -3.822  -1.464  1.00  0.00     0.164 HD
BRANCH  14  17
ATOM     17  C   UNL     1      -1.227  -6.896  -1.558  1.00  0.00     0.075 A 
ATOM     18  C   UNL     1      -1.239 -10.745   0.339  1.00  0.00     0.044 C 
ATOM     19  C   UNL     1      -1.317  -9.437  -0.389  1.00  0.00    -0.048 A 
ATOM     20  C   UNL     1      -2.208  -8.436   0.024  1.00  0.00     0.004 A 
ATOM     21  C   UNL     1      -0.491  -9.200  -1.494  1.00  0.00     0.043 A 
ATOM     22  C   UNL     1      -2.183  -7.171  -0.577  1.00  0.00     0.017 A 
ATOM     23  C   UNL     1      -0.442  -7.932  -2.064  1.00  0.00     0.136 A 
ATOM     24  F   UNL     1       0.435  -7.723  -3.058  1.00  0.00    -0.206 F 
ENDBRANCH  14  17
ENDBRANCH   9  13
ENDBRANCH   5   8
ENDBRANCH   3   4
ENDBRANCH   2   3
ENDBRANCH   1   2
BRANCH   1  25
ATOM     25  C   UNL     1       4.270  -9.583   3.655  1.00  0.00     0.002 C 
BRANCH  25  26
ATOM     26  C   UNL     1       3.937  -9.954   5.101  1.00  0.00     0.021 C 
BRANCH  26  27
ATOM     27  C   UNL     1       3.571 -11.419   5.325  1.00  0.00     0.116 C 
BRANCH  27  28
ATOM     28  N   UNL     1       4.665 -12.322   5.007  1.00  0.00    -0.352 N 
ATOM     29  C   UNL     1       5.265 -13.284   5.785  1.00  0.00     0.251 C 
ATOM     30  H   UNL     1       5.031 -12.232   4.097  1.00  0.00     0.163 HD
ATOM     31  O   UNL     1       6.292 -13.831   5.405  1.00  0.00    -0.269 OA
BRANCH  29  32
ATOM     32  C   UNL     1       4.686 -13.639   7.099  1.00  0.00     0.039 A 
ATOM     33  C   UNL     1       5.539 -13.758   8.199  1.00  0.00     0.014 A 
ATOM     34  C   UNL     1       3.313 -13.851   7.251  1.00  0.00     0.014 A 
ATOM     35  C   UNL     1       5.006 -14.009   9.465  1.00  0.00     0.010 A 
ATOM     36  C   UNL     1       2.776 -14.030   8.525  1.00  0.00     0.010 A 
ATOM     37  C   UNL     1       3.616 -14.099   9.646  1.00  0.00    -0.014 A 
BRANCH  37  38
ATOM     38  C   UNL     1       3.028 -14.210  11.007  1.00  0.00     0.031 A 
ATOM     39  C   UNL     1       2.240 -15.426  11.406  1.00  0.00     0.074 A 
ATOM     40  C   UNL     1       3.151 -13.176  11.862  1.00  0.00     0.049 A 
ATOM     41  N   UNL     1       1.609 -15.668  12.528  1.00  0.00    -0.248 NA
ATOM     42  C   UNL     1       2.125 -16.501  10.409  1.00  0.00     0.031 C 
ATOM     43  C   UNL     1       3.849 -11.921  11.576  1.00  0.00     0.029 A 
ATOM     44  N   UNL     1       2.684 -13.010  13.143  1.00  0.00    -0.354 N 
ATOM     45  C   UNL     1       1.018 -16.915  12.370  1.00  0.00     0.074 A 
ATOM     46  C   UNL     1       1.324 -17.358  11.026  1.00  0.00     0.031 C 
ATOM     47  C   UNL     1       3.782 -11.124  12.653  1.00  0.00     0.029 A 
ATOM     48  C   UNL     1       3.000 -11.789  13.690  1.00  0.00     0.049 A 
ATOM     49  H   UNL     1       2.172 -13.699  13.623  1.00  0.00     0.167 HD
ATOM     50  C   UNL     1       0.303 -17.632  13.269  1.00  0.00     0.037 A 
ATOM     51  C   UNL     1       2.683 -11.257  14.886  1.00  0.00     0.037 A 
ATOM     52  C   UNL     1       0.014 -17.193  14.611  1.00  0.00     0.049 A 
ATOM     53  C   UNL     1       1.867 -12.066  15.855  1.00  0.00     0.074 A 
ATOM     54  C   UNL     1      -0.642 -17.880  15.618  1.00  0.00     0.029 A 
ATOM     55  N   UNL     1       0.352 -15.952  15.129  1.00  0.00    -0.354 N 
ATOM     56  N   UNL     1       1.386 -13.278  15.722  1.00  0.00    -0.248 NA
ATOM     57  C   UNL     1       1.551 -11.434  17.144  1.00  0.00     0.031 C 
ATOM     58  C   UNL     1      -0.756 -17.031  16.724  1.00  0.00     0.029 A 
ATOM     59  C   UNL     1      -0.118 -15.838  16.428  1.00  0.00     0.049 A 
ATOM     60  H   UNL     1       0.852 -15.255  14.645  1.00  0.00     0.167 HD
ATOM     61  C   UNL     1       0.730 -13.561  16.912  1.00  0.00     0.074 A 
ATOM     62  C   UNL     1       0.895 -12.403  17.766  1.00  0.00     0.031 C 
ATOM     63  C   UNL     1       0.047 -14.677  17.265  1.00  0.00     0.037 A 
BRANCH  50  64
ATOM     64  C   UNL     1      -0.224 -18.970  12.835  1.00  0.00     0.057 A 
ATOM     65  C   UNL     1       0.623 -20.065  12.616  1.00  0.00     0.134 A 
ATOM     66  C   UNL     1      -1.601 -19.182  12.690  1.00  0.00     0.134 A 
ATOM     67  F   UNL     1       1.953 -19.930  12.729  1.00  0.00    -0.206 F 
ATOM     68  C   UNL     1       0.121 -21.315  12.247  1.00  0.00     0.040 A 
ATOM     69  C   UNL     1      -2.117 -20.434  12.350  1.00  0.00     0.040 A 
ATOM     70  F   UNL     1      -2.470 -18.180  12.892  1.00  0.00    -0.206 F 
ATOM     71  C   UNL     1      -1.254 -21.503  12.122  1.00  0.00     0.006 A 
ENDBRANCH  50  64
BRANCH  51  72
ATOM     72  C   UNL     1       3.134  -9.885  15.234  1.00  0.00     0.057 A 
ATOM     73  C   UNL     1       4.080  -9.667  16.243  1.00  0.00     0.134 A 
ATOM     74  C   UNL     1       2.620  -8.758  14.580  1.00  0.00     0.134 A 
ATOM     75  F   UNL     1       4.596 -10.703  16.920  1.00  0.00    -0.206 F 
ATOM     76  C   UNL     1       4.480  -8.379  16.605  1.00  0.00     0.040 A 
ATOM     77  C   UNL     1       3.033  -7.467  14.911  1.00  0.00     0.040 A 
ATOM     78  F   UNL     1       1.716  -8.898  13.599  1.00  0.00    -0.206 F 
ATOM     79  C   UNL     1       3.959  -7.275  15.934  1.00  0.00     0.006 A 
ENDBRANCH  51  72
BRANCH  63  80
ATOM     80  C   UNL     1      -0.558 -14.706  18.640  1.00  0.00     0.057 A 
ATOM     81  C   UNL     1      -1.664 -13.914  18.976  1.00  0.00     0.134 A 
ATOM     82  C   UNL     1      -0.052 -15.561  19.627  1.00  0.00     0.134 A 
ATOM     83  F   UNL     1      -2.189 -13.063  18.081  1.00  0.00    -0.206 F 
ATOM     84  C   UNL     1      -2.227 -13.952  20.253  1.00  0.00     0.040 A 
ATOM     85  C   UNL     1      -0.625 -15.630  20.898  1.00  0.00     0.040 A 
ATOM     86  F   UNL     1       1.000 -16.353  19.369  1.00  0.00    -0.206 F 
ATOM     87  C   UNL     1      -1.712 -14.818  21.215  1.00  0.00     0.006 A 
ENDBRANCH  63  80
ENDBRANCH  37  38
ENDBRANCH  29  32
ENDBRANCH  27  28
ENDBRANCH  26  27
ENDBRANCH  25  26
ENDBRANCH   1  25
TORSDOF 15
