REMARK SMILES CC1(C)[C@H](C(=O)NCCCCCCNC(=O)c2ccc(-c3c4nc(c(-c5c(F)cccc5F)c5ccc([nH]5)c(-c5c(F)cccc5F)c5nc(c(-c6c(F)cccc6F)c6ccc3[nH]6)C=C5)C=C4)cc2)[C@@H]1c1nc2ccc(F)cc2s1
REMARK SMILES IDX 11 1 10 2 9 3 8 4 7 5 5 6 6 7 4 9 1 10 2 11 3 12 71 13 72 14
REMARK SMILES IDX 73 15 81 16 74 17 80 18 75 19 79 20 76 21 77 22 78 23 12 24
REMARK SMILES IDX 13 25 14 26 15 27 16 29 17 30 18 31 70 32 19 33 69 34 20 35
REMARK SMILES IDX 21 36 22 37 63 38 23 39 68 40 62 41 64 42 24 43 67 44 61 45
REMARK SMILES IDX 60 46 25 48 51 49 34 50 50 51 35 52 38 53 49 54 65 55 36 56
REMARK SMILES IDX 37 57 48 59 66 60 39 61 26 62 27 63 32 64 28 65 29 66 31 67
REMARK SMILES IDX 33 68 30 69 52 70 53 71 58 72 54 73 55 74 57 75 59 76 56 77
REMARK SMILES IDX 40 78 41 79 46 80 42 81 43 82 45 83 47 84 44 85
REMARK H PARENT 7 8 14 28 64 47 38 58
REMARK Flexibility Score: inf
ROOT
ATOM      1  C   UNL     1      -1.910   6.084  -1.087  1.00  0.00     0.002 C 
ENDROOT
BRANCH   1   2
ATOM      2  C   UNL     1      -0.958   5.275  -1.976  1.00  0.00     0.002 C 
BRANCH   2   3
ATOM      3  C   UNL     1      -0.246   4.112  -1.286  1.00  0.00     0.021 C 
BRANCH   3   4
ATOM      4  C   UNL     1      -1.180   3.092  -0.645  1.00  0.00     0.116 C 
BRANCH   4   5
ATOM      5  N   UNL     1      -1.634   2.091  -1.567  1.00  0.00    -0.356 N 
ATOM      6  C   UNL     1      -1.625   0.727  -1.548  1.00  0.00     0.224 C 
ATOM      7  O   UNL     1      -2.117   0.192  -2.545  1.00  0.00    -0.275 OA
ATOM      8  H   UNL     1      -2.036   2.467  -2.383  1.00  0.00     0.163 HD
BRANCH   6   9
ATOM      9  C   UNL     1      -1.099  -0.191  -0.501  1.00  0.00     0.095 C 
ATOM     10  C   UNL     1       0.989  -1.494   0.230  1.00  0.00     0.013 C 
ATOM     11  C   UNL     1       0.254  -0.165   0.226  1.00  0.00    -0.013 C 
ATOM     12  C   UNL     1       1.209   0.987   0.052  1.00  0.00     0.013 C 
ATOM     13  C   UNL     1      -1.063  -0.098   0.992  1.00  0.00     0.068 C 
BRANCH  13  14
ATOM     14  C   UNL     1      -1.739   1.016   1.771  1.00  0.00     0.098 A 
ATOM     15  N   UNL     1      -3.051   1.009   1.857  1.00  0.00    -0.241 NA
ATOM     16  S   UNL     1      -0.957   2.208   2.721  1.00  0.00    -0.118 S 
ATOM     17  C   UNL     1      -3.487   2.159   2.486  1.00  0.00     0.082 A 
ATOM     18  C   UNL     1      -2.473   2.998   2.958  1.00  0.00     0.057 A 
ATOM     19  C   UNL     1      -4.831   2.552   2.648  1.00  0.00     0.033 A 
ATOM     20  C   UNL     1      -2.753   4.252   3.522  1.00  0.00     0.060 A 
ATOM     21  C   UNL     1      -5.123   3.798   3.210  1.00  0.00     0.041 A 
ATOM     22  C   UNL     1      -4.091   4.632   3.618  1.00  0.00     0.124 A 
ATOM     23  F   UNL     1      -4.388   5.839   4.118  1.00  0.00    -0.207 F 
ENDBRANCH  13  14
ENDBRANCH   6   9
ENDBRANCH   4   5
ENDBRANCH   3   4
ENDBRANCH   2   3
ENDBRANCH   1   2
BRANCH   1  24
ATOM     24  C   UNL     1      -1.329   6.563   0.247  1.00  0.00     0.021 C 
BRANCH  24  25
ATOM     25  C   UNL     1      -0.061   7.405   0.137  1.00  0.00     0.116 C 
BRANCH  25  26
ATOM     26  N   UNL     1      -0.264   8.606  -0.654  1.00  0.00    -0.352 N 
ATOM     27  C   UNL     1      -0.010   9.917  -0.341  1.00  0.00     0.251 C 
ATOM     28  H   UNL     1      -0.641   8.457  -1.551  1.00  0.00     0.163 HD
ATOM     29  O   UNL     1      -0.419  10.812  -1.073  1.00  0.00    -0.269 OA
BRANCH  27  30
ATOM     30  C   UNL     1       0.744  10.258   0.884  1.00  0.00     0.039 A 
ATOM     31  C   UNL     1       0.299  11.325   1.670  1.00  0.00     0.014 A 
ATOM     32  C   UNL     1       1.902   9.560   1.240  1.00  0.00     0.014 A 
ATOM     33  C   UNL     1       0.988  11.662   2.836  1.00  0.00     0.010 A 
ATOM     34  C   UNL     1       2.548   9.854   2.439  1.00  0.00     0.010 A 
ATOM     35  C   UNL     1       2.103  10.913   3.244  1.00  0.00    -0.014 A 
BRANCH  35  36
ATOM     36  C   UNL     1       2.821  11.235   4.503  1.00  0.00     0.031 A 
ATOM     37  C   UNL     1       4.246  11.715   4.461  1.00  0.00     0.074 A 
ATOM     38  C   UNL     1       2.206  11.046   5.686  1.00  0.00     0.049 A 
ATOM     39  N   UNL     1       5.053  11.997   5.453  1.00  0.00    -0.248 NA
ATOM     40  C   UNL     1       4.853  11.875   3.130  1.00  0.00     0.031 C 
ATOM     41  C   UNL     1       0.843  10.542   5.861  1.00  0.00     0.029 A 
ATOM     42  N   UNL     1       2.652  11.249   6.968  1.00  0.00    -0.354 N 
ATOM     43  C   UNL     1       6.262  12.351   4.868  1.00  0.00     0.074 A 
ATOM     44  C   UNL     1       6.100  12.200   3.438  1.00  0.00     0.031 C 
ATOM     45  C   UNL     1       0.556  10.495   7.171  1.00  0.00     0.029 A 
ATOM     46  C   UNL     1       1.724  10.934   7.930  1.00  0.00     0.049 A 
ATOM     47  H   UNL     1       3.552  11.589   7.178  1.00  0.00     0.167 HD
ATOM     48  C   UNL     1       7.397  12.786   5.465  1.00  0.00     0.037 A 
ATOM     49  C   UNL     1       1.806  10.988   9.273  1.00  0.00     0.037 A 
ATOM     50  C   UNL     1       7.547  12.962   6.886  1.00  0.00     0.049 A 
ATOM     51  C   UNL     1       3.075  11.480   9.911  1.00  0.00     0.074 A 
ATOM     52  C   UNL     1       8.637  13.451   7.585  1.00  0.00     0.029 A 
ATOM     53  N   UNL     1       6.575  12.654   7.827  1.00  0.00    -0.354 N 
ATOM     54  N   UNL     1       4.189  11.874   9.342  1.00  0.00    -0.248 NA
ATOM     55  C   UNL     1       3.096  11.544  11.379  1.00  0.00     0.031 C 
ATOM     56  C   UNL     1       8.340  13.401   8.951  1.00  0.00     0.029 A 
ATOM     57  C   UNL     1       7.047  12.926   9.100  1.00  0.00     0.049 A 
ATOM     58  H   UNL     1       5.682  12.295   7.620  1.00  0.00     0.167 HD
ATOM     59  C   UNL     1       5.029  12.262  10.378  1.00  0.00     0.074 A 
ATOM     60  C   UNL     1       4.291  12.068  11.609  1.00  0.00     0.031 C 
ATOM     61  C   UNL     1       6.297  12.736  10.315  1.00  0.00     0.037 A 
BRANCH  48  62
ATOM     62  C   UNL     1       8.568  13.107   4.581  1.00  0.00     0.057 A 
ATOM     63  C   UNL     1       8.571  14.225   3.737  1.00  0.00     0.134 A 
ATOM     64  C   UNL     1       9.720  12.311   4.602  1.00  0.00     0.134 A 
ATOM     65  F   UNL     1       7.494  15.023   3.661  1.00  0.00    -0.206 F 
ATOM     66  C   UNL     1       9.667  14.526   2.926  1.00  0.00     0.040 A 
ATOM     67  C   UNL     1      10.833  12.617   3.816  1.00  0.00     0.040 A 
ATOM     68  F   UNL     1       9.787  11.229   5.391  1.00  0.00    -0.206 F 
ATOM     69  C   UNL     1      10.805  13.724   2.970  1.00  0.00     0.006 A 
ENDBRANCH  48  62
BRANCH  49  70
ATOM     70  C   UNL     1       0.644  10.590  10.106  1.00  0.00     0.057 A 
ATOM     71  C   UNL     1      -0.084  11.541  10.831  1.00  0.00     0.134 A 
ATOM     72  C   UNL     1       0.241   9.253  10.208  1.00  0.00     0.134 A 
ATOM     73  F   UNL     1       0.265  12.835  10.787  1.00  0.00    -0.206 F 
ATOM     74  C   UNL     1      -1.157  11.175  11.645  1.00  0.00     0.040 A 
ATOM     75  C   UNL     1      -0.847   8.877  10.999  1.00  0.00     0.040 A 
ATOM     76  F   UNL     1       0.892   8.295   9.532  1.00  0.00    -0.206 F 
ATOM     77  C   UNL     1      -1.544   9.839  11.727  1.00  0.00     0.006 A 
ENDBRANCH  49  70
BRANCH  61  78
ATOM     78  C   UNL     1       6.951  13.115  11.612  1.00  0.00     0.057 A 
ATOM     79  C   UNL     1       7.373  12.153  12.538  1.00  0.00     0.134 A 
ATOM     80  C   UNL     1       7.188  14.460  11.922  1.00  0.00     0.134 A 
ATOM     81  F   UNL     1       7.165  10.848  12.307  1.00  0.00    -0.206 F 
ATOM     82  C   UNL     1       7.984  12.518  13.739  1.00  0.00     0.040 A 
ATOM     83  C   UNL     1       7.822  14.836  13.107  1.00  0.00     0.040 A 
ATOM     84  F   UNL     1       6.817  15.431  11.073  1.00  0.00    -0.206 F 
ATOM     85  C   UNL     1       8.215  13.863  14.023  1.00  0.00     0.006 A 
ENDBRANCH  61  78
ENDBRANCH  35  36
ENDBRANCH  27  30
ENDBRANCH  25  26
ENDBRANCH  24  25
ENDBRANCH   1  24
TORSDOF 14
