REMARK SMILES O=C(NCCCCCCNC(=O)c1nnn(-c2cccc(OC(F)(F)F)c2)c1-c1ccncc1)c1ccc(-c2c3nc(c(-c4c(F)cccc4F)c4ccc([nH]4)c(-c4c(F)cccc4F)c4nc(c(-c5c(F)cccc5F)c5ccc2[nH]5)C=C4)C=C3)cc1
REMARK SMILES IDX 7 1 6 2 5 3 4 4 3 5 1 6 2 7 35 9 36 10 88 11 37 12 87 13
REMARK SMILES IDX 38 14 39 15 40 16 81 17 41 18 86 19 80 20 82 21 42 22 85 23
REMARK SMILES IDX 79 24 78 25 43 27 69 28 52 29 68 30 53 31 56 32 67 33 83 34
REMARK SMILES IDX 54 35 55 36 66 38 84 39 57 40 44 41 45 42 50 43 46 44 47 45
REMARK SMILES IDX 49 46 51 47 48 48 70 49 71 50 76 51 72 52 73 53 75 54 77 55
REMARK SMILES IDX 74 56 58 57 59 58 64 59 60 60 61 61 63 62 65 63 62 64 8 65
REMARK SMILES IDX 9 66 10 67 11 68 12 70 13 71 14 72 28 73 15 74 16 75 29 76
REMARK SMILES IDX 30 77 34 78 31 79 33 80 32 81 17 82 18 83 27 84 19 85 21 86
REMARK SMILES IDX 20 87 22 88 23 89 24 90 25 91 26 92
REMARK H PARENT 3 8 82 26 56 37 10 69
REMARK Flexibility Score: inf
ROOT
ATOM      1  C   UNL     1       4.735   3.911  -1.446  1.00  0.00     0.002 C 
ENDROOT
BRANCH   1   2
ATOM      2  C   UNL     1       4.322   2.676  -2.255  1.00  0.00     0.002 C 
BRANCH   2   3
ATOM      3  C   UNL     1       4.875   1.328  -1.773  1.00  0.00     0.021 C 
BRANCH   3   4
ATOM      4  C   UNL     1       4.672   1.033  -0.286  1.00  0.00     0.116 C 
BRANCH   4   5
ATOM      5  N   UNL     1       3.291   1.092   0.140  1.00  0.00    -0.352 N 
ATOM      6  O   UNL     1       1.211   0.622   0.693  1.00  0.00    -0.269 OA
ATOM      7  C   UNL     1       2.240   0.221   0.142  1.00  0.00     0.251 C 
ATOM      8  H   UNL     1       3.053   1.968   0.519  1.00  0.00     0.163 HD
BRANCH   7   9
ATOM      9  C   UNL     1       2.231  -1.131  -0.485  1.00  0.00     0.039 A 
ATOM     10  C   UNL     1       3.326  -1.780  -1.056  1.00  0.00     0.014 A 
ATOM     11  C   UNL     1       0.985  -1.787  -0.504  1.00  0.00     0.014 A 
ATOM     12  C   UNL     1       3.175  -3.024  -1.670  1.00  0.00     0.010 A 
ATOM     13  C   UNL     1       0.830  -3.034  -1.103  1.00  0.00     0.010 A 
ATOM     14  C   UNL     1       1.924  -3.643  -1.711  1.00  0.00    -0.014 A 
BRANCH  14  15
ATOM     15  C   UNL     1       1.829  -4.969  -2.321  1.00  0.00     0.031 A 
ATOM     16  C   UNL     1       2.558  -6.075  -1.627  1.00  0.00     0.074 A 
ATOM     17  C   UNL     1       1.008  -5.253  -3.351  1.00  0.00     0.049 A 
ATOM     18  N   UNL     1       3.434  -6.900  -2.107  1.00  0.00    -0.248 NA
ATOM     19  C   UNL     1       2.289  -6.262  -0.192  1.00  0.00     0.031 C 
ATOM     20  C   UNL     1      -0.021  -4.398  -3.948  1.00  0.00     0.029 A 
ATOM     21  N   UNL     1       0.855  -6.436  -4.015  1.00  0.00    -0.354 N 
ATOM     22  C   UNL     1       3.717  -7.809  -1.085  1.00  0.00     0.074 A 
ATOM     23  C   UNL     1       3.054  -7.315   0.094  1.00  0.00     0.031 C 
ATOM     24  C   UNL     1      -0.825  -5.153  -4.730  1.00  0.00     0.029 A 
ATOM     25  C   UNL     1      -0.290  -6.504  -4.792  1.00  0.00     0.049 A 
ATOM     26  H   UNL     1       1.501  -7.175  -3.947  1.00  0.00     0.167 HD
ATOM     27  C   UNL     1       4.348  -8.995  -1.309  1.00  0.00     0.037 A 
ATOM     28  C   UNL     1      -0.802  -7.607  -5.388  1.00  0.00     0.037 A 
ATOM     29  C   UNL     1       5.067  -8.999  -2.552  1.00  0.00     0.049 A 
ATOM     30  C   UNL     1       0.268  -8.627  -5.473  1.00  0.00     0.074 A 
ATOM     31  C   UNL     1       6.111  -8.265  -3.080  1.00  0.00     0.029 A 
ATOM     32  N   UNL     1       4.548  -9.704  -3.606  1.00  0.00    -0.354 N 
ATOM     33  N   UNL     1       1.310  -8.545  -6.252  1.00  0.00    -0.248 NA
ATOM     34  C   UNL     1       0.369  -9.600  -4.396  1.00  0.00     0.031 C 
ATOM     35  C   UNL     1       5.838  -8.187  -4.477  1.00  0.00     0.029 A 
ATOM     36  C   UNL     1       4.657  -8.895  -4.705  1.00  0.00     0.049 A 
ATOM     37  H   UNL     1       4.171 -10.614  -3.579  1.00  0.00     0.167 HD
ATOM     38  C   UNL     1       2.335  -9.142  -5.535  1.00  0.00     0.074 A 
ATOM     39  C   UNL     1       1.674  -9.869  -4.457  1.00  0.00     0.031 C 
ATOM     40  C   UNL     1       3.636  -8.769  -5.716  1.00  0.00     0.037 A 
BRANCH  27  41
ATOM     41  C   UNL     1       4.077 -10.270  -0.545  1.00  0.00     0.057 A 
ATOM     42  C   UNL     1       4.910 -11.390  -0.737  1.00  0.00     0.134 A 
ATOM     43  C   UNL     1       2.872 -10.531   0.136  1.00  0.00     0.134 A 
ATOM     44  F   UNL     1       6.079 -11.278  -1.385  1.00  0.00    -0.206 F 
ATOM     45  C   UNL     1       4.536 -12.682  -0.345  1.00  0.00     0.040 A 
ATOM     46  C   UNL     1       2.512 -11.809   0.576  1.00  0.00     0.040 A 
ATOM     47  F   UNL     1       1.941  -9.587   0.322  1.00  0.00    -0.206 F 
ATOM     48  C   UNL     1       3.329 -12.896   0.307  1.00  0.00     0.006 A 
ENDBRANCH  27  41
BRANCH  28  49
ATOM     49  C   UNL     1      -2.222  -7.934  -5.638  1.00  0.00     0.057 A 
ATOM     50  C   UNL     1      -2.594  -8.902  -6.579  1.00  0.00     0.134 A 
ATOM     51  C   UNL     1      -3.237  -7.489  -4.772  1.00  0.00     0.134 A 
ATOM     52  F   UNL     1      -1.685  -9.423  -7.416  1.00  0.00    -0.206 F 
ATOM     53  C   UNL     1      -3.899  -9.409  -6.648  1.00  0.00     0.040 A 
ATOM     54  C   UNL     1      -4.545  -7.978  -4.837  1.00  0.00     0.040 A 
ATOM     55  F   UNL     1      -2.972  -6.629  -3.778  1.00  0.00    -0.206 F 
ATOM     56  C   UNL     1      -4.877  -8.952  -5.769  1.00  0.00     0.006 A 
ENDBRANCH  28  49
BRANCH  40  57
ATOM     57  C   UNL     1       3.966  -7.904  -6.897  1.00  0.00     0.057 A 
ATOM     58  C   UNL     1       3.493  -6.592  -7.051  1.00  0.00     0.134 A 
ATOM     59  C   UNL     1       4.928  -8.345  -7.812  1.00  0.00     0.134 A 
ATOM     60  F   UNL     1       2.651  -6.050  -6.161  1.00  0.00    -0.206 F 
ATOM     61  C   UNL     1       3.929  -5.772  -8.095  1.00  0.00     0.040 A 
ATOM     62  C   UNL     1       5.395  -7.523  -8.840  1.00  0.00     0.040 A 
ATOM     63  F   UNL     1       5.471  -9.566  -7.688  1.00  0.00    -0.206 F 
ATOM     64  C   UNL     1       4.890  -6.234  -8.989  1.00  0.00     0.006 A 
ENDBRANCH  40  57
ENDBRANCH  14  15
ENDBRANCH   7   9
ENDBRANCH   4   5
ENDBRANCH   3   4
ENDBRANCH   2   3
ENDBRANCH   1   2
BRANCH   1  65
ATOM     65  C   UNL     1       6.237   4.098  -1.226  1.00  0.00     0.021 C 
BRANCH  65  66
ATOM     66  C   UNL     1       7.061   4.232  -2.498  1.00  0.00     0.116 C 
BRANCH  66  67
ATOM     67  N   UNL     1       6.847   5.494  -3.184  1.00  0.00    -0.351 N 
ATOM     68  C   UNL     1       7.785   6.318  -3.759  1.00  0.00     0.274 C 
ATOM     69  H   UNL     1       5.912   5.797  -3.246  1.00  0.00     0.163 HD
ATOM     70  O   UNL     1       7.421   7.383  -4.256  1.00  0.00    -0.267 OA
BRANCH  68  71
ATOM     71  C   UNL     1       9.179   5.899  -3.767  1.00  0.00     0.178 A 
ATOM     72  N   UNL     1      10.152   6.587  -3.085  1.00  0.00    -0.124 NA
ATOM     73  C   UNL     1       9.735   4.760  -4.338  1.00  0.00     0.108 A 
ATOM     74  N   UNL     1      11.276   5.888  -3.147  1.00  0.00    -0.061 NA
ATOM     75  N   UNL     1      11.080   4.863  -4.003  1.00  0.00    -0.212 N 
BRANCH  73  76
ATOM     76  C   UNL     1       9.109   3.587  -4.952  1.00  0.00     0.006 A 
ATOM     77  C   UNL     1       8.303   3.701  -6.081  1.00  0.00     0.030 A 
ATOM     78  C   UNL     1       9.283   2.324  -4.369  1.00  0.00     0.030 A 
ATOM     79  C   UNL     1       7.715   2.549  -6.579  1.00  0.00     0.111 A 
ATOM     80  C   UNL     1       8.652   1.234  -4.939  1.00  0.00     0.111 A 
ATOM     81  N   UNL     1       7.866   1.323  -6.029  1.00  0.00    -0.265 NA
ENDBRANCH  73  76
BRANCH  75  82
ATOM     82  C   UNL     1      12.122   3.985  -4.378  1.00  0.00     0.071 A 
ATOM     83  C   UNL     1      13.041   3.552  -3.420  1.00  0.00     0.029 A 
ATOM     84  C   UNL     1      12.149   3.475  -5.686  1.00  0.00     0.075 A 
ATOM     85  C   UNL     1      13.923   2.526  -3.755  1.00  0.00     0.006 A 
ATOM     86  C   UNL     1      13.050   2.472  -6.028  1.00  0.00     0.131 A 
ATOM     87  C   UNL     1      13.918   1.984  -5.046  1.00  0.00     0.047 A 
BRANCH  86  88
ATOM     88  O   UNL     1      13.165   1.880  -7.253  1.00  0.00    -0.406 OA
BRANCH  88  89
ATOM     89  C   UNL     1      12.389   2.412  -8.317  1.00  0.00     0.573 C 
ATOM     90  F   UNL     1      11.068   2.283  -8.069  1.00  0.00    -0.132 F 
ATOM     91  F   UNL     1      12.678   3.715  -8.524  1.00  0.00    -0.132 F 
ATOM     92  F   UNL     1      12.673   1.733  -9.449  1.00  0.00    -0.132 F 
ENDBRANCH  88  89
ENDBRANCH  86  88
ENDBRANCH  75  82
ENDBRANCH  68  71
ENDBRANCH  66  67
ENDBRANCH  65  66
ENDBRANCH   1  65
TORSDOF 17
