REMARK SMILES CC1(C)CCN(c2ncccc2C(=O)NCCCCCCNC(=O)c2ccc(-c3c4nc(c(-c5c(F)cccc5F)c5ccc([nH]5)c(-c5c(F)cccc5F)c5nc(c(-c6c(F)cccc6F)c6ccc3[nH]6)C=C5)C=C4)cc2)C1
REMARK SMILES IDX 19 1 18 2 17 3 16 4 15 5 13 6 14 7 12 9 7 10 8 11 9 12 11 13
REMARK SMILES IDX 10 14 6 15 1 16 2 17 3 18 4 19 79 20 5 21 20 22 21 23 22 24
REMARK SMILES IDX 23 25 24 27 25 28 26 29 78 30 27 31 77 32 28 33 29 34 30 35
REMARK SMILES IDX 71 36 31 37 76 38 70 39 72 40 32 41 75 42 69 43 68 44 33 46
REMARK SMILES IDX 59 47 42 48 58 49 43 50 46 51 57 52 73 53 44 54 45 55 56 57
REMARK SMILES IDX 74 58 47 59 34 60 35 61 40 62 36 63 37 64 39 65 41 66 38 67
REMARK SMILES IDX 60 68 61 69 66 70 62 71 63 72 65 73 67 74 64 75 48 76 49 77
REMARK SMILES IDX 54 78 50 79 51 80 53 81 55 82 52 83
REMARK H PARENT 15 8 22 26 72 45 46 56
REMARK Flexibility Score: inf
ROOT
ATOM      1  C   UNL     1       4.102   6.124   5.211  1.00  0.00     0.002 C 
ENDROOT
BRANCH   1   2
ATOM      2  C   UNL     1       3.072   6.209   4.077  1.00  0.00     0.002 C 
BRANCH   2   3
ATOM      3  C   UNL     1       3.625   5.896   2.676  1.00  0.00     0.021 C 
BRANCH   3   4
ATOM      4  C   UNL     1       4.322   4.539   2.594  1.00  0.00     0.116 C 
BRANCH   4   5
ATOM      5  N   UNL     1       3.344   3.481   2.662  1.00  0.00    -0.352 N 
ATOM      6  C   UNL     1       2.750   2.599   1.801  1.00  0.00     0.255 C 
ATOM      7  O   UNL     1       1.942   1.873   2.383  1.00  0.00    -0.269 OA
ATOM      8  H   UNL     1       3.012   3.360   3.581  1.00  0.00     0.163 HD
BRANCH   6   9
ATOM      9  C   UNL     1       3.065   2.449   0.335  1.00  0.00     0.082 A 
ATOM     10  C   UNL     1       2.572   1.336  -0.381  1.00  0.00     0.141 A 
ATOM     11  N   UNL     1       3.038   1.018  -1.623  1.00  0.00    -0.238 NA
ATOM     12  C   UNL     1       3.931   1.831  -2.215  1.00  0.00     0.113 A 
ATOM     13  C   UNL     1       3.914   3.317  -0.366  1.00  0.00     0.019 A 
ATOM     14  C   UNL     1       4.372   3.000  -1.644  1.00  0.00     0.021 A 
BRANCH  10  15
ATOM     15  N   UNL     1       1.539   0.549   0.063  1.00  0.00    -0.355 N 
ATOM     16  C   UNL     1      -1.095  -0.176  -1.612  1.00  0.00     0.013 C 
ATOM     17  C   UNL     1      -0.741  -0.093  -0.119  1.00  0.00    -0.016 C 
ATOM     18  C   UNL     1      -2.027  -0.013   0.706  1.00  0.00     0.013 C 
ATOM     19  C   UNL     1       0.134  -1.283   0.314  1.00  0.00     0.030 C 
ATOM     20  C   UNL     1       0.190   1.110   0.151  1.00  0.00     0.124 C 
ATOM     21  C   UNL     1       1.535  -0.884  -0.144  1.00  0.00     0.119 C 
ENDBRANCH  10  15
ENDBRANCH   6   9
ENDBRANCH   4   5
ENDBRANCH   3   4
ENDBRANCH   2   3
ENDBRANCH   1   2
BRANCH   1  22
ATOM     22  C   UNL     1       5.391   6.908   4.960  1.00  0.00     0.021 C 
BRANCH  22  23
ATOM     23  C   UNL     1       5.172   8.402   4.766  1.00  0.00     0.116 C 
BRANCH  23  24
ATOM     24  N   UNL     1       4.681   9.031   5.980  1.00  0.00    -0.352 N 
ATOM     25  C   UNL     1       5.218  10.081   6.680  1.00  0.00     0.251 C 
ATOM     26  H   UNL     1       3.850   8.653   6.350  1.00  0.00     0.163 HD
ATOM     27  O   UNL     1       4.827  10.347   7.809  1.00  0.00    -0.269 OA
BRANCH  25  28
ATOM     28  C   UNL     1       6.289  10.885   6.056  1.00  0.00     0.039 A 
ATOM     29  C   UNL     1       7.422  11.209   6.805  1.00  0.00     0.014 A 
ATOM     30  C   UNL     1       6.170  11.307   4.729  1.00  0.00     0.014 A 
ATOM     31  C   UNL     1       8.463  11.917   6.203  1.00  0.00     0.010 A 
ATOM     32  C   UNL     1       7.240  11.941   4.110  1.00  0.00     0.010 A 
ATOM     33  C   UNL     1       8.392  12.263   4.844  1.00  0.00    -0.014 A 
BRANCH  33  34
ATOM     34  C   UNL     1       9.497  12.986   4.168  1.00  0.00     0.031 A 
ATOM     35  C   UNL     1       9.255  14.360   3.607  1.00  0.00     0.074 A 
ATOM     36  C   UNL     1      10.688  12.381   3.995  1.00  0.00     0.049 A 
ATOM     37  N   UNL     1      10.049  15.114   2.891  1.00  0.00    -0.248 NA
ATOM     38  C   UNL     1       7.931  14.952   3.859  1.00  0.00     0.031 C 
ATOM     39  C   UNL     1      11.032  11.038   4.463  1.00  0.00     0.029 A 
ATOM     40  N   UNL     1      11.826  12.815   3.363  1.00  0.00    -0.354 N 
ATOM     41  C   UNL     1       9.318  16.256   2.595  1.00  0.00     0.074 A 
ATOM     42  C   UNL     1       7.998  16.073   3.157  1.00  0.00     0.031 C 
ATOM     43  C   UNL     1      12.301  10.765   4.120  1.00  0.00     0.029 A 
ATOM     44  C   UNL     1      12.844  11.892   3.368  1.00  0.00     0.049 A 
ATOM     45  H   UNL     1      11.905  13.703   2.946  1.00  0.00     0.167 HD
ATOM     46  C   UNL     1       9.717  17.369   1.935  1.00  0.00     0.037 A 
ATOM     47  C   UNL     1      14.071  11.945   2.815  1.00  0.00     0.037 A 
ATOM     48  C   UNL     1      11.039  17.553   1.397  1.00  0.00     0.049 A 
ATOM     49  C   UNL     1      14.483  13.182   2.064  1.00  0.00     0.074 A 
ATOM     50  C   UNL     1      11.561  18.663   0.756  1.00  0.00     0.029 A 
ATOM     51  N   UNL     1      12.047  16.602   1.436  1.00  0.00    -0.354 N 
ATOM     52  N   UNL     1      13.802  14.280   1.841  1.00  0.00    -0.248 NA
ATOM     53  C   UNL     1      15.836  13.190   1.490  1.00  0.00     0.031 C 
ATOM     54  C   UNL     1      12.867  18.363   0.359  1.00  0.00     0.029 A 
ATOM     55  C   UNL     1      13.181  17.090   0.808  1.00  0.00     0.049 A 
ATOM     56  H   UNL     1      11.969  15.711   1.849  1.00  0.00     0.167 HD
ATOM     57  C   UNL     1      14.654  15.122   1.138  1.00  0.00     0.074 A 
ATOM     58  C   UNL     1      15.904  14.409   0.976  1.00  0.00     0.031 C 
ATOM     59  C   UNL     1      14.424  16.374   0.672  1.00  0.00     0.037 A 
BRANCH  46  60
ATOM     60  C   UNL     1       8.712  18.470   1.757  1.00  0.00     0.057 A 
ATOM     61  C   UNL     1       8.248  19.232   2.838  1.00  0.00     0.134 A 
ATOM     62  C   UNL     1       8.224  18.793   0.484  1.00  0.00     0.134 A 
ATOM     63  F   UNL     1       8.665  18.968   4.085  1.00  0.00    -0.206 F 
ATOM     64  C   UNL     1       7.314  20.255   2.664  1.00  0.00     0.040 A 
ATOM     65  C   UNL     1       7.314  19.835   0.293  1.00  0.00     0.040 A 
ATOM     66  F   UNL     1       8.630  18.109  -0.596  1.00  0.00    -0.206 F 
ATOM     67  C   UNL     1       6.851  20.564   1.387  1.00  0.00     0.006 A 
ENDBRANCH  46  60
BRANCH  47  68
ATOM     68  C   UNL     1      15.005  10.800   2.963  1.00  0.00     0.057 A 
ATOM     69  C   UNL     1      16.165  10.911   3.740  1.00  0.00     0.134 A 
ATOM     70  C   UNL     1      14.772   9.576   2.325  1.00  0.00     0.134 A 
ATOM     71  F   UNL     1      16.453  12.063   4.362  1.00  0.00    -0.206 F 
ATOM     72  C   UNL     1      17.071   9.855   3.857  1.00  0.00     0.040 A 
ATOM     73  C   UNL     1      15.655   8.502   2.457  1.00  0.00     0.040 A 
ATOM     74  F   UNL     1      13.675   9.401   1.575  1.00  0.00    -0.206 F 
ATOM     75  C   UNL     1      16.814   8.644   3.218  1.00  0.00     0.006 A 
ENDBRANCH  47  68
BRANCH  59  76
ATOM     76  C   UNL     1      15.560  17.080  -0.009  1.00  0.00     0.057 A 
ATOM     77  C   UNL     1      16.006  16.716  -1.285  1.00  0.00     0.134 A 
ATOM     78  C   UNL     1      16.174  18.182   0.602  1.00  0.00     0.134 A 
ATOM     79  F   UNL     1      15.469  15.663  -1.919  1.00  0.00    -0.206 F 
ATOM     80  C   UNL     1      17.035  17.412  -1.923  1.00  0.00     0.040 A 
ATOM     81  C   UNL     1      17.183  18.904  -0.038  1.00  0.00     0.040 A 
ATOM     82  F   UNL     1      15.788  18.590   1.820  1.00  0.00    -0.206 F 
ATOM     83  C   UNL     1      17.619  18.516  -1.302  1.00  0.00     0.006 A 
ENDBRANCH  59  76
ENDBRANCH  33  34
ENDBRANCH  25  28
ENDBRANCH  23  24
ENDBRANCH  22  23
ENDBRANCH   1  22
TORSDOF 14
