REMARK SMILES COc1ccc2c(c1)c(CC(=O)NCCCCCCNC(=O)c1ccc(-c3c4nc(c(-c5c(F)cccc5F)c5ccc([nH]5)c(-c5c(F)cccc5F)c5nc(c(-c6c(F)cccc6F)c6ccc3[nH]6)C=C5)C=C4)cc1)c(C)n2Cc1ccc(Br)cc1
REMARK SMILES IDX 16 1 15 2 14 3 13 4 11 5 12 6 10 8 9 9 3 10 4 11 8 12 5 13
REMARK SMILES IDX 7 14 6 15 79 16 77 17 78 18 2 19 1 20 80 21 81 22 82 23
REMARK SMILES IDX 87 24 83 25 86 26 84 27 85 28 17 29 18 30 19 31 20 32 21 33
REMARK SMILES IDX 22 35 23 36 24 37 76 38 25 39 75 40 26 41 27 42 28 43 69 44
REMARK SMILES IDX 29 45 74 46 68 47 70 48 30 49 73 50 67 51 66 52 31 54 57 55
REMARK SMILES IDX 40 56 56 57 41 58 44 59 55 60 71 61 42 62 43 63 54 65 72 66
REMARK SMILES IDX 45 67 32 68 33 69 38 70 34 71 35 72 37 73 39 74 36 75 58 76
REMARK SMILES IDX 59 77 64 78 60 79 61 80 63 81 65 82 62 83 46 84 47 85 52 86
REMARK SMILES IDX 48 87 49 88 51 89 53 90 50 91
REMARK H PARENT 13 7 20 34 70 53 44 64
REMARK Flexibility Score: inf
ROOT
ATOM      1  C   UNL     1       0.745   7.970   2.189  1.00  0.00     0.002 C 
ENDROOT
BRANCH   1   2
ATOM      2  C   UNL     1       0.750   6.928   3.314  1.00  0.00     0.021 C 
BRANCH   2   3
ATOM      3  C   UNL     1      -0.578   6.830   4.066  1.00  0.00     0.116 C 
BRANCH   3   4
ATOM      4  N   UNL     1      -1.607   6.221   3.243  1.00  0.00    -0.356 N 
ATOM      5  C   UNL     1      -2.167   4.978   3.329  1.00  0.00     0.224 C 
ATOM      6  O   UNL     1      -2.985   4.651   2.466  1.00  0.00    -0.275 OA
ATOM      7  H   UNL     1      -1.952   6.787   2.515  1.00  0.00     0.163 HD
BRANCH   5   8
ATOM      8  C   UNL     1      -1.861   4.065   4.508  1.00  0.00     0.138 C 
BRANCH   8   9
ATOM      9  C   UNL     1      -0.418   3.674   4.611  1.00  0.00    -0.010 A 
ATOM     10  C   UNL     1       1.047   1.891   1.574  1.00  0.00     0.119 A 
ATOM     11  C   UNL     1       2.345   1.800   2.065  1.00  0.00     0.048 A 
ATOM     12  C   UNL     1       0.062   2.540   2.319  1.00  0.00     0.057 A 
ATOM     13  C   UNL     1       2.684   2.339   3.316  1.00  0.00     0.031 A 
ATOM     14  C   UNL     1       0.365   3.044   3.602  1.00  0.00     0.007 A 
ATOM     15  C   UNL     1       1.675   2.951   4.082  1.00  0.00     0.049 A 
ATOM     16  N   UNL     1       1.691   3.562   5.332  1.00  0.00    -0.340 N 
ATOM     17  C   UNL     1       0.384   3.778   5.739  1.00  0.00     0.020 A 
ATOM     18  C   UNL     1      -0.046   4.113   7.127  1.00  0.00     0.065 C 
BRANCH  10  19
ATOM     19  O   UNL     1       0.657   1.438   0.342  1.00  0.00    -0.497 OA
ATOM     20  C   UNL     1       1.115   0.127   0.028  1.00  0.00     0.278 C 
ENDBRANCH  10  19
BRANCH  16  21
ATOM     21  C   UNL     1       2.895   3.807   6.131  1.00  0.00     0.157 C 
BRANCH  21  22
ATOM     22  C   UNL     1       3.325   5.264   6.190  1.00  0.00    -0.028 A 
ATOM     23  C   UNL     1       2.620   6.211   6.951  1.00  0.00     0.007 A 
ATOM     24  C   UNL     1       4.505   5.688   5.556  1.00  0.00     0.007 A 
ATOM     25  C   UNL     1       3.067   7.529   7.082  1.00  0.00     0.016 A 
ATOM     26  C   UNL     1       4.971   7.003   5.703  1.00  0.00     0.016 A 
ATOM     27  C   UNL     1       4.253   7.915   6.473  1.00  0.00     0.017 A 
ATOM     28  Br  UNL     1       4.910   9.666   6.741  1.00  0.00    -0.051 Br
ENDBRANCH  21  22
ENDBRANCH  16  21
ENDBRANCH   8   9
ENDBRANCH   5   8
ENDBRANCH   3   4
ENDBRANCH   2   3
ENDBRANCH   1   2
BRANCH   1  29
ATOM     29  C   UNL     1       0.554   9.418   2.652  1.00  0.00     0.002 C 
BRANCH  29  30
ATOM     30  C   UNL     1       1.596   9.920   3.658  1.00  0.00     0.021 C 
BRANCH  30  31
ATOM     31  C   UNL     1       3.041   9.777   3.178  1.00  0.00     0.116 C 
BRANCH  31  32
ATOM     32  N   UNL     1       3.322  10.502   1.957  1.00  0.00    -0.352 N 
ATOM     33  C   UNL     1       3.660  11.793   1.668  1.00  0.00     0.251 C 
ATOM     34  H   UNL     1       3.254   9.937   1.153  1.00  0.00     0.163 HD
ATOM     35  O   UNL     1       3.933  12.037   0.488  1.00  0.00    -0.269 OA
BRANCH  33  36
ATOM     36  C   UNL     1       3.654  12.918   2.643  1.00  0.00     0.039 A 
ATOM     37  C   UNL     1       3.474  12.801   4.022  1.00  0.00     0.014 A 
ATOM     38  C   UNL     1       3.788  14.206   2.092  1.00  0.00     0.014 A 
ATOM     39  C   UNL     1       3.307  13.931   4.811  1.00  0.00     0.010 A 
ATOM     40  C   UNL     1       3.651  15.341   2.880  1.00  0.00     0.010 A 
ATOM     41  C   UNL     1       3.348  15.197   4.230  1.00  0.00    -0.014 A 
BRANCH  41  42
ATOM     42  C   UNL     1       3.123  16.348   5.097  1.00  0.00     0.031 A 
ATOM     43  C   UNL     1       4.108  16.527   6.202  1.00  0.00     0.074 A 
ATOM     44  C   UNL     1       2.154  17.252   4.849  1.00  0.00     0.049 A 
ATOM     45  N   UNL     1       3.884  16.616   7.474  1.00  0.00    -0.248 NA
ATOM     46  C   UNL     1       5.537  16.515   5.849  1.00  0.00     0.031 C 
ATOM     47  C   UNL     1       1.289  17.346   3.670  1.00  0.00     0.029 A 
ATOM     48  N   UNL     1       1.816  18.361   5.563  1.00  0.00    -0.354 N 
ATOM     49  C   UNL     1       5.125  16.845   8.071  1.00  0.00     0.074 A 
ATOM     50  C   UNL     1       6.113  16.647   7.044  1.00  0.00     0.031 C 
ATOM     51  C   UNL     1       0.715  18.568   3.637  1.00  0.00     0.029 A 
ATOM     52  C   UNL     1       1.073  19.288   4.847  1.00  0.00     0.049 A 
ATOM     53  H   UNL     1       2.075  18.492   6.503  1.00  0.00     0.167 HD
ATOM     54  C   UNL     1       5.234  17.382   9.318  1.00  0.00     0.037 A 
ATOM     55  C   UNL     1       0.850  20.582   5.186  1.00  0.00     0.037 A 
ATOM     56  C   UNL     1       4.024  17.208  10.077  1.00  0.00     0.049 A 
ATOM     57  C   UNL     1       1.106  20.718   6.642  1.00  0.00     0.074 A 
ATOM     58  C   UNL     1       3.288  16.118  10.501  1.00  0.00     0.029 A 
ATOM     59  N   UNL     1       3.202  18.293  10.256  1.00  0.00    -0.354 N 
ATOM     60  N   UNL     1       0.350  20.195   7.567  1.00  0.00    -0.248 NA
ATOM     61  C   UNL     1       2.456  21.063   7.063  1.00  0.00     0.031 C 
ATOM     62  C   UNL     1       1.928  16.538  10.419  1.00  0.00     0.029 A 
ATOM     63  C   UNL     1       1.927  17.866   9.996  1.00  0.00     0.049 A 
ATOM     64  H   UNL     1       3.476  19.201  10.520  1.00  0.00     0.167 HD
ATOM     65  C   UNL     1       1.236  19.746   8.535  1.00  0.00     0.074 A 
ATOM     66  C   UNL     1       2.508  20.392   8.216  1.00  0.00     0.031 C 
ATOM     67  C   UNL     1       0.937  18.677   9.330  1.00  0.00     0.037 A 
BRANCH  54  68
ATOM     68  C   UNL     1       6.290  18.392   9.715  1.00  0.00     0.057 A 
ATOM     69  C   UNL     1       7.024  19.169   8.798  1.00  0.00     0.134 A 
ATOM     70  C   UNL     1       6.340  18.842  11.049  1.00  0.00     0.134 A 
ATOM     71  F   UNL     1       7.051  18.904   7.487  1.00  0.00    -0.206 F 
ATOM     72  C   UNL     1       7.699  20.338   9.164  1.00  0.00     0.040 A 
ATOM     73  C   UNL     1       6.971  20.036  11.417  1.00  0.00     0.040 A 
ATOM     74  F   UNL     1       5.694  18.184  12.024  1.00  0.00    -0.206 F 
ATOM     75  C   UNL     1       7.639  20.799  10.468  1.00  0.00     0.006 A 
ENDBRANCH  54  68
BRANCH  55  76
ATOM     76  C   UNL     1       0.738  21.749   4.279  1.00  0.00     0.057 A 
ATOM     77  C   UNL     1       1.354  21.765   3.013  1.00  0.00     0.134 A 
ATOM     78  C   UNL     1       0.237  22.977   4.730  1.00  0.00     0.134 A 
ATOM     79  F   UNL     1       1.952  20.674   2.515  1.00  0.00    -0.206 F 
ATOM     80  C   UNL     1       1.462  22.926   2.242  1.00  0.00     0.040 A 
ATOM     81  C   UNL     1       0.350  24.152   3.973  1.00  0.00     0.040 A 
ATOM     82  F   UNL     1      -0.324  23.080   5.944  1.00  0.00    -0.206 F 
ATOM     83  C   UNL     1       0.970  24.130   2.727  1.00  0.00     0.006 A 
ENDBRANCH  55  76
BRANCH  67  84
ATOM     84  C   UNL     1      -0.466  18.142   9.293  1.00  0.00     0.057 A 
ATOM     85  C   UNL     1      -1.188  18.042  10.486  1.00  0.00     0.134 A 
ATOM     86  C   UNL     1      -1.058  17.591   8.146  1.00  0.00     0.134 A 
ATOM     87  F   UNL     1      -0.658  18.486  11.637  1.00  0.00    -0.206 F 
ATOM     88  C   UNL     1      -2.449  17.442  10.536  1.00  0.00     0.040 A 
ATOM     89  C   UNL     1      -2.333  17.020   8.175  1.00  0.00     0.040 A 
ATOM     90  F   UNL     1      -0.398  17.535   6.983  1.00  0.00    -0.206 F 
ATOM     91  C   UNL     1      -3.031  16.940   9.375  1.00  0.00     0.006 A 
ENDBRANCH  67  84
ENDBRANCH  41  42
ENDBRANCH  33  36
ENDBRANCH  31  32
ENDBRANCH  30  31
ENDBRANCH  29  30
ENDBRANCH   1  29
TORSDOF 17
