REMARK SMILES O=C(NCCCCCCNC(=O)c1cc(F)c(F)cc1NS(=O)(=O)c1ccc2c(c1)CCC2)c1ccc(-c2c3nc(c(-c4c(F)cccc4F)c4ccc([nH]4)c(-c4c(F)cccc4F)c4nc(c(-c5c(F)cccc5F)c5ccc2[nH]5)C=C4)C=C3)cc1
REMARK SMILES IDX 7 1 6 2 5 3 4 4 3 5 1 6 2 7 34 9 35 10 87 11 36 12 86 13
REMARK SMILES IDX 37 14 38 15 39 16 80 17 40 18 85 19 79 20 81 21 41 22 84 23
REMARK SMILES IDX 78 24 77 25 42 27 68 28 51 29 67 30 52 31 55 32 66 33 82 34
REMARK SMILES IDX 53 35 54 36 65 38 83 39 56 40 43 41 44 42 49 43 45 44 46 45
REMARK SMILES IDX 48 46 50 47 47 48 69 49 70 50 75 51 71 52 72 53 74 54 76 55
REMARK SMILES IDX 73 56 57 57 58 58 63 59 59 60 60 61 62 62 64 63 61 64 8 65
REMARK SMILES IDX 9 66 10 67 11 68 12 70 13 71 14 72 20 73 15 74 19 75 16 76
REMARK SMILES IDX 17 77 18 78 21 79 22 81 23 82 24 83 25 84 26 85 30 86 27 87
REMARK SMILES IDX 29 88 28 89 31 90 33 91 32 92
REMARK H PARENT 3 8 81 26 55 37 10 69 21 80
REMARK Flexibility Score: inf
ROOT
ATOM      1  C   UNL     1       4.712  -2.463  -3.639  1.00  0.00     0.002 C 
ENDROOT
BRANCH   1   2
ATOM      2  C   UNL     1       4.121  -3.082  -2.369  1.00  0.00     0.002 C 
BRANCH   2   3
ATOM      3  C   UNL     1       4.578  -2.448  -1.056  1.00  0.00     0.021 C 
BRANCH   3   4
ATOM      4  C   UNL     1       4.354  -0.945  -0.953  1.00  0.00     0.116 C 
BRANCH   4   5
ATOM      5  N   UNL     1       2.946  -0.579  -0.952  1.00  0.00    -0.352 N 
ATOM      6  O   UNL     1       1.022   0.274  -0.133  1.00  0.00    -0.269 OA
ATOM      7  C   UNL     1       2.243   0.181  -0.047  1.00  0.00     0.251 C 
ATOM      8  H   UNL     1       2.421  -0.925  -1.709  1.00  0.00     0.163 HD
BRANCH   7   9
ATOM      9  C   UNL     1       2.959   0.860   1.056  1.00  0.00     0.039 A 
ATOM     10  C   UNL     1       4.152   1.544   0.816  1.00  0.00     0.014 A 
ATOM     11  C   UNL     1       2.437   0.795   2.351  1.00  0.00     0.014 A 
ATOM     12  C   UNL     1       4.906   2.009   1.887  1.00  0.00     0.010 A 
ATOM     13  C   UNL     1       3.152   1.351   3.417  1.00  0.00     0.010 A 
ATOM     14  C   UNL     1       4.414   1.923   3.200  1.00  0.00    -0.014 A 
BRANCH  14  15
ATOM     15  C   UNL     1       5.231   2.470   4.315  1.00  0.00     0.031 A 
ATOM     16  C   UNL     1       5.771   1.577   5.400  1.00  0.00     0.074 A 
ATOM     17  C   UNL     1       5.527   3.784   4.317  1.00  0.00     0.049 A 
ATOM     18  N   UNL     1       6.548   1.885   6.409  1.00  0.00    -0.248 NA
ATOM     19  C   UNL     1       5.384   0.159   5.355  1.00  0.00     0.031 C 
ATOM     20  C   UNL     1       5.052   4.755   3.328  1.00  0.00     0.029 A 
ATOM     21  N   UNL     1       6.317   4.526   5.157  1.00  0.00    -0.354 N 
ATOM     22  C   UNL     1       6.721   0.710   7.131  1.00  0.00     0.074 A 
ATOM     23  C   UNL     1       5.950  -0.313   6.458  1.00  0.00     0.031 C 
ATOM     24  C   UNL     1       5.608   5.948   3.580  1.00  0.00     0.029 A 
ATOM     25  C   UNL     1       6.427   5.843   4.782  1.00  0.00     0.049 A 
ATOM     26  H   UNL     1       6.761   4.152   5.951  1.00  0.00     0.167 HD
ATOM     27  C   UNL     1       7.461   0.503   8.248  1.00  0.00     0.037 A 
ATOM     28  C   UNL     1       7.106   6.859   5.345  1.00  0.00     0.037 A 
ATOM     29  C   UNL     1       8.247   1.519   8.902  1.00  0.00     0.049 A 
ATOM     30  C   UNL     1       7.909   6.602   6.586  1.00  0.00     0.074 A 
ATOM     31  C   UNL     1       9.069   1.394  10.010  1.00  0.00     0.029 A 
ATOM     32  N   UNL     1       8.305   2.849   8.512  1.00  0.00    -0.354 N 
ATOM     33  N   UNL     1       8.099   5.476   7.230  1.00  0.00    -0.248 NA
ATOM     34  C   UNL     1       8.590   7.759   7.181  1.00  0.00     0.031 C 
ATOM     35  C   UNL     1       9.586   2.657  10.318  1.00  0.00     0.029 A 
ATOM     36  C   UNL     1       9.128   3.560   9.372  1.00  0.00     0.049 A 
ATOM     37  H   UNL     1       7.831   3.232   7.739  1.00  0.00     0.167 HD
ATOM     38  C   UNL     1       8.938   5.783   8.291  1.00  0.00     0.074 A 
ATOM     39  C   UNL     1       9.235   7.198   8.193  1.00  0.00     0.031 C 
ATOM     40  C   UNL     1       9.418   4.967   9.261  1.00  0.00     0.037 A 
BRANCH  27  41
ATOM     41  C   UNL     1       7.442  -0.873   8.852  1.00  0.00     0.057 A 
ATOM     42  C   UNL     1       8.085  -1.961   8.248  1.00  0.00     0.134 A 
ATOM     43  C   UNL     1       6.806  -1.101  10.080  1.00  0.00     0.134 A 
ATOM     44  F   UNL     1       8.705  -1.815   7.067  1.00  0.00    -0.206 F 
ATOM     45  C   UNL     1       8.077  -3.230   8.831  1.00  0.00     0.040 A 
ATOM     46  C   UNL     1       6.813  -2.359  10.685  1.00  0.00     0.040 A 
ATOM     47  F   UNL     1       6.178  -0.102  10.717  1.00  0.00    -0.206 F 
ATOM     48  C   UNL     1       7.445  -3.430  10.057  1.00  0.00     0.006 A 
ENDBRANCH  27  41
BRANCH  28  49
ATOM     49  C   UNL     1       7.063   8.208   4.729  1.00  0.00     0.057 A 
ATOM     50  C   UNL     1       8.194   8.758   4.117  1.00  0.00     0.134 A 
ATOM     51  C   UNL     1       5.891   8.974   4.732  1.00  0.00     0.134 A 
ATOM     52  F   UNL     1       9.350   8.078   4.096  1.00  0.00    -0.206 F 
ATOM     53  C   UNL     1       8.166  10.029   3.541  1.00  0.00     0.040 A 
ATOM     54  C   UNL     1       5.842  10.234   4.136  1.00  0.00     0.040 A 
ATOM     55  F   UNL     1       4.772   8.498   5.296  1.00  0.00    -0.206 F 
ATOM     56  C   UNL     1       6.984  10.768   3.544  1.00  0.00     0.006 A 
ENDBRANCH  28  49
BRANCH  40  57
ATOM     57  C   UNL     1      10.346   5.581  10.268  1.00  0.00     0.057 A 
ATOM     58  C   UNL     1       9.889   6.466  11.252  1.00  0.00     0.134 A 
ATOM     59  C   UNL     1      11.712   5.272  10.258  1.00  0.00     0.134 A 
ATOM     60  F   UNL     1       8.595   6.815  11.306  1.00  0.00    -0.206 F 
ATOM     61  C   UNL     1      10.764   7.046  12.173  1.00  0.00     0.040 A 
ATOM     62  C   UNL     1      12.591   5.824  11.190  1.00  0.00     0.040 A 
ATOM     63  F   UNL     1      12.213   4.426   9.345  1.00  0.00    -0.206 F 
ATOM     64  C   UNL     1      12.119   6.721  12.146  1.00  0.00     0.006 A 
ENDBRANCH  40  57
ENDBRANCH  14  15
ENDBRANCH   7   9
ENDBRANCH   4   5
ENDBRANCH   3   4
ENDBRANCH   2   3
ENDBRANCH   1   2
BRANCH   1  65
ATOM     65  C   UNL     1       6.242  -2.369  -3.679  1.00  0.00     0.021 C 
BRANCH  65  66
ATOM     66  C   UNL     1       6.972  -3.698  -3.491  1.00  0.00     0.116 C 
BRANCH  66  67
ATOM     67  N   UNL     1       6.705  -4.612  -4.591  1.00  0.00    -0.352 N 
ATOM     68  C   UNL     1       7.598  -5.178  -5.464  1.00  0.00     0.253 C 
ATOM     69  H   UNL     1       5.760  -4.856  -4.726  1.00  0.00     0.163 HD
ATOM     70  O   UNL     1       7.222  -5.673  -6.519  1.00  0.00    -0.269 OA
BRANCH  68  71
ATOM     71  C   UNL     1       9.035  -5.138  -5.146  1.00  0.00     0.067 A 
ATOM     72  C   UNL     1       9.447  -5.697  -3.923  1.00  0.00     0.058 A 
ATOM     73  C   UNL     1       9.946  -4.502  -6.011  1.00  0.00     0.065 A 
ATOM     74  C   UNL     1      10.762  -5.543  -3.516  1.00  0.00     0.159 A 
ATOM     75  C   UNL     1      11.245  -4.311  -5.532  1.00  0.00     0.070 A 
ATOM     76  F   UNL     1      11.146  -6.018  -2.324  1.00  0.00    -0.204 F 
ATOM     77  C   UNL     1      11.652  -4.840  -4.309  1.00  0.00     0.160 A 
ATOM     78  F   UNL     1      12.905  -4.621  -3.888  1.00  0.00    -0.204 F 
BRANCH  73  79
ATOM     79  N   UNL     1       9.510  -3.861  -7.239  1.00  0.00    -0.279 N 
ATOM     80  H   UNL     1       8.814  -3.165  -7.205  1.00  0.00     0.180 HD
BRANCH  79  81
ATOM     81  S   UNL     1      10.198  -4.304  -8.746  1.00  0.00     0.261 S 
ATOM     82  O   UNL     1       9.950  -5.721  -8.927  1.00  0.00    -0.201 OA
ATOM     83  O   UNL     1       9.726  -3.338  -9.712  1.00  0.00    -0.201 OA
BRANCH  81  84
ATOM     84  C   UNL     1      11.947  -4.070  -8.573  1.00  0.00     0.088 A 
ATOM     85  C   UNL     1      12.774  -5.205  -8.465  1.00  0.00     0.022 A 
ATOM     86  C   UNL     1      12.455  -2.772  -8.416  1.00  0.00     0.026 A 
ATOM     87  C   UNL     1      14.110  -5.062  -8.096  1.00  0.00     0.005 A 
ATOM     88  C   UNL     1      13.783  -2.652  -8.041  1.00  0.00    -0.043 A 
ATOM     89  C   UNL     1      14.590  -3.784  -7.862  1.00  0.00    -0.045 A 
ATOM     90  C   UNL     1      14.519  -1.410  -7.639  1.00  0.00     0.036 C 
ATOM     91  C   UNL     1      15.926  -3.406  -7.301  1.00  0.00     0.036 C 
ATOM     92  C   UNL     1      15.972  -1.907  -7.621  1.00  0.00     0.010 C 
ENDBRANCH  81  84
ENDBRANCH  79  81
ENDBRANCH  73  79
ENDBRANCH  68  71
ENDBRANCH  66  67
ENDBRANCH  65  66
ENDBRANCH   1  65
TORSDOF 16
