REMARK SMILES O=C(COc1ccccc1[C@@H]1[NH2+]CCc2cc(O)c(O)cc21)NCCCCCCNC(=O)c1ccc(-c2c3nc(c(-c4c(F)cccc4F)c4ccc([nH]4)c(-c4c(F)cccc4F)c4nc(c(-c5c(F)cccc5F)c5ccc2[nH]5)C=C4)C=C3)cc1
REMARK SMILES IDX 25 1 24 2 23 3 1 4 2 5 3 7 4 8 5 9 6 10 10 11 7 12 9 13 8 14
REMARK SMILES IDX 11 15 12 16 22 17 13 18 15 21 21 22 14 23 16 24 19 25 17 26
REMARK SMILES IDX 20 27 18 29 26 31 27 32 28 33 29 34 30 35 31 36 32 38 33 39
REMARK SMILES IDX 34 40 86 41 35 42 85 43 36 44 37 45 38 46 79 47 39 48 84 49
REMARK SMILES IDX 78 50 80 51 40 52 83 53 77 54 76 55 41 57 67 58 50 59 66 60
REMARK SMILES IDX 51 61 54 62 65 63 81 64 52 65 53 66 64 68 82 69 55 70 42 71
REMARK SMILES IDX 43 72 48 73 44 74 45 75 47 76 49 77 46 78 68 79 69 80 74 81
REMARK SMILES IDX 70 82 71 83 73 84 75 85 72 86 56 87 57 88 62 89 58 90 59 91
REMARK SMILES IDX 61 92 63 93 60 94
REMARK H PARENT 23 6 12 19 12 20 20 28 18 30 30 37 80 56 54 67
REMARK Flexibility Score: inf
ROOT
ATOM      1  C   UNL     1       3.035   2.989  -1.998  1.00  0.00     0.021 C 
ENDROOT
BRANCH   1   2
ATOM      2  C   UNL     1       2.509   1.570  -1.859  1.00  0.00     0.116 C 
BRANCH   2   3
ATOM      3  N   UNL     1       3.347   0.709  -1.054  1.00  0.00    -0.353 N 
ATOM      4  O   UNL     1       2.908   1.742   0.945  1.00  0.00    -0.271 OA
ATOM      5  C   UNL     1       3.360   0.782   0.325  1.00  0.00     0.257 C 
ATOM      6  H   UNL     1       3.925   0.050  -1.503  1.00  0.00     0.163 HD
BRANCH   5   7
ATOM      7  C   UNL     1       3.968  -0.450   1.012  1.00  0.00     0.329 C 
BRANCH   7   8
ATOM      8  O   UNL     1       4.206  -1.592   0.208  1.00  0.00    -0.483 OA
BRANCH   8   9
ATOM      9  C   UNL     1       3.297  -2.574  -0.088  1.00  0.00     0.129 A 
ATOM     10  C   UNL     1       3.971  -3.802  -0.244  1.00  0.00     0.047 A 
ATOM     11  C   UNL     1       1.926  -2.493  -0.435  1.00  0.00     0.056 A 
ATOM     12  C   UNL     1       3.370  -4.902  -0.848  1.00  0.00     0.004 A 
ATOM     13  C   UNL     1       1.377  -3.593  -1.140  1.00  0.00     0.014 A 
ATOM     14  C   UNL     1       2.088  -4.776  -1.351  1.00  0.00     0.001 A 
BRANCH  11  15
ATOM     15  C   UNL     1       1.020  -1.302  -0.151  1.00  0.00     0.249 C 
ATOM     16  N   UNL     1       1.150  -0.821   1.234  1.00  0.00    -0.336 N 
ATOM     17  C   UNL     1      -0.486  -1.366  -0.429  1.00  0.00     0.021 A 
ATOM     18  C   UNL     1       0.549  -1.720   2.229  1.00  0.00     0.266 C 
ATOM     19  H   UNL     1       0.694   0.089   1.304  1.00  0.00     0.347 HD
ATOM     20  H   UNL     1       2.148  -0.771   1.440  1.00  0.00     0.347 HD
ATOM     21  C   UNL     1      -1.308  -1.920   0.582  1.00  0.00    -0.029 A 
ATOM     22  C   UNL     1      -1.067  -0.667  -1.499  1.00  0.00     0.060 A 
ATOM     23  C   UNL     1      -0.609  -2.599   1.729  1.00  0.00     0.097 C 
ATOM     24  C   UNL     1      -2.688  -1.726   0.556  1.00  0.00     0.054 A 
ATOM     25  C   UNL     1      -2.441  -0.455  -1.494  1.00  0.00     0.157 A 
ATOM     26  C   UNL     1      -3.234  -0.962  -0.464  1.00  0.00     0.157 A 
BRANCH  25  27
ATOM     27  O   UNL     1      -3.057   0.308  -2.448  1.00  0.00    -0.504 OA
ATOM     28  H   UNL     1      -3.986   0.434  -2.419  1.00  0.00     0.293 HD
ENDBRANCH  25  27
BRANCH  26  29
ATOM     29  O   UNL     1      -4.564  -0.654  -0.419  1.00  0.00    -0.504 OA
ATOM     30  H   UNL     1      -5.100  -0.993   0.271  1.00  0.00     0.293 HD
ENDBRANCH  26  29
ENDBRANCH  11  15
ENDBRANCH   8   9
ENDBRANCH   7   8
ENDBRANCH   5   7
ENDBRANCH   2   3
ENDBRANCH   1   2
BRANCH   1  31
ATOM     31  C   UNL     1       4.493   3.054  -2.448  1.00  0.00     0.002 C 
BRANCH  31  32
ATOM     32  C   UNL     1       4.788   2.311  -3.754  1.00  0.00     0.002 C 
BRANCH  32  33
ATOM     33  C   UNL     1       3.989   2.797  -4.963  1.00  0.00     0.021 C 
BRANCH  33  34
ATOM     34  C   UNL     1       4.077   4.297  -5.215  1.00  0.00     0.116 C 
BRANCH  34  35
ATOM     35  N   UNL     1       5.451   4.749  -5.374  1.00  0.00    -0.352 N 
ATOM     36  C   UNL     1       5.999   5.517  -6.368  1.00  0.00     0.251 C 
ATOM     37  H   UNL     1       6.075   4.462  -4.669  1.00  0.00     0.163 HD
ATOM     38  O   UNL     1       7.215   5.661  -6.450  1.00  0.00    -0.269 OA
BRANCH  36  39
ATOM     39  C   UNL     1       5.109   6.149  -7.359  1.00  0.00     0.039 A 
ATOM     40  C   UNL     1       5.412   6.024  -8.716  1.00  0.00     0.014 A 
ATOM     41  C   UNL     1       3.962   6.833  -6.946  1.00  0.00     0.014 A 
ATOM     42  C   UNL     1       4.524   6.526  -9.666  1.00  0.00     0.010 A 
ATOM     43  C   UNL     1       3.042   7.264  -7.894  1.00  0.00     0.010 A 
ATOM     44  C   UNL     1       3.313   7.113  -9.262  1.00  0.00    -0.014 A 
BRANCH  44  45
ATOM     45  C   UNL     1       2.306   7.554 -10.258  1.00  0.00     0.031 A 
ATOM     46  C   UNL     1       1.929   9.004 -10.359  1.00  0.00     0.074 A 
ATOM     47  C   UNL     1       1.678   6.635 -11.016  1.00  0.00     0.049 A 
ATOM     48  N   UNL     1       1.020   9.570 -11.111  1.00  0.00    -0.248 NA
ATOM     49  C   UNL     1       2.647   9.937  -9.477  1.00  0.00     0.031 C 
ATOM     50  C   UNL     1       1.919   5.192 -10.968  1.00  0.00     0.029 A 
ATOM     51  N   UNL     1       0.695   6.777 -11.962  1.00  0.00    -0.354 N 
ATOM     52  C   UNL     1       1.053  10.921 -10.789  1.00  0.00     0.074 A 
ATOM     53  C   UNL     1       2.026  11.079  -9.730  1.00  0.00     0.031 C 
ATOM     54  C   UNL     1       1.117   4.583 -11.856  1.00  0.00     0.029 A 
ATOM     55  C   UNL     1       0.277   5.586 -12.503  1.00  0.00     0.049 A 
ATOM     56  H   UNL     1       0.325   7.650 -12.229  1.00  0.00     0.167 HD
ATOM     57  C   UNL     1       0.352  11.939 -11.342  1.00  0.00     0.037 A 
ATOM     58  C   UNL     1      -0.686   5.327 -13.407  1.00  0.00     0.037 A 
ATOM     59  C   UNL     1      -0.610  11.775 -12.400  1.00  0.00     0.049 A 
ATOM     60  C   UNL     1      -1.466   6.471 -13.994  1.00  0.00     0.074 A 
ATOM     61  C   UNL     1      -1.330  12.748 -13.070  1.00  0.00     0.029 A 
ATOM     62  N   UNL     1      -0.995  10.554 -12.935  1.00  0.00    -0.354 N 
ATOM     63  N   UNL     1      -1.370   7.753 -13.738  1.00  0.00    -0.248 NA
ATOM     64  C   UNL     1      -2.483   6.133 -14.999  1.00  0.00     0.031 C 
ATOM     65  C   UNL     1      -2.192  12.113 -13.970  1.00  0.00     0.029 A 
ATOM     66  C   UNL     1      -1.967  10.747 -13.903  1.00  0.00     0.049 A 
ATOM     67  H   UNL     1      -0.632   9.679 -12.666  1.00  0.00     0.167 HD
ATOM     68  C   UNL     1      -2.297   8.377 -14.562  1.00  0.00     0.074 A 
ATOM     69  C   UNL     1      -2.932   7.333 -15.340  1.00  0.00     0.031 C 
ATOM     70  C   UNL     1      -2.595   9.696 -14.666  1.00  0.00     0.037 A 
BRANCH  57  71
ATOM     71  C   UNL     1       0.601  13.319 -10.802  1.00  0.00     0.057 A 
ATOM     72  C   UNL     1       1.821  13.982 -10.996  1.00  0.00     0.134 A 
ATOM     73  C   UNL     1      -0.396  14.000 -10.091  1.00  0.00     0.134 A 
ATOM     74  F   UNL     1       2.822  13.384 -11.658  1.00  0.00    -0.206 F 
ATOM     75  C   UNL     1       2.053  15.255 -10.471  1.00  0.00     0.040 A 
ATOM     76  C   UNL     1      -0.186  15.286  -9.590  1.00  0.00     0.040 A 
ATOM     77  F   UNL     1      -1.590  13.429  -9.875  1.00  0.00    -0.206 F 
ATOM     78  C   UNL     1       1.045  15.913  -9.770  1.00  0.00     0.006 A 
ENDBRANCH  57  71
BRANCH  58  79
ATOM     79  C   UNL     1      -0.960   3.926 -13.813  1.00  0.00     0.057 A 
ATOM     80  C   UNL     1      -0.638   3.465 -15.094  1.00  0.00     0.134 A 
ATOM     81  C   UNL     1      -1.538   3.010 -12.925  1.00  0.00     0.134 A 
ATOM     82  F   UNL     1      -0.097   4.298 -15.995  1.00  0.00    -0.206 F 
ATOM     83  C   UNL     1      -0.895   2.149 -15.484  1.00  0.00     0.040 A 
ATOM     84  C   UNL     1      -1.776   1.685 -13.292  1.00  0.00     0.040 A 
ATOM     85  F   UNL     1      -1.860   3.386 -11.678  1.00  0.00    -0.206 F 
ATOM     86  C   UNL     1      -1.460   1.253 -14.578  1.00  0.00     0.006 A 
ENDBRANCH  58  79
BRANCH  70  87
ATOM     87  C   UNL     1      -3.640  10.088 -15.670  1.00  0.00     0.057 A 
ATOM     88  C   UNL     1      -4.998   9.806 -15.473  1.00  0.00     0.134 A 
ATOM     89  C   UNL     1      -3.288  10.797 -16.826  1.00  0.00     0.134 A 
ATOM     90  F   UNL     1      -5.400   9.117 -14.394  1.00  0.00    -0.206 F 
ATOM     91  C   UNL     1      -5.966  10.197 -16.400  1.00  0.00     0.040 A 
ATOM     92  C   UNL     1      -4.250  11.219 -17.745  1.00  0.00     0.040 A 
ATOM     93  F   UNL     1      -2.007  11.107 -17.071  1.00  0.00    -0.206 F 
ATOM     94  C   UNL     1      -5.593  10.913 -17.536  1.00  0.00     0.006 A 
ENDBRANCH  70  87
ENDBRANCH  44  45
ENDBRANCH  36  39
ENDBRANCH  34  35
ENDBRANCH  33  34
ENDBRANCH  32  33
ENDBRANCH  31  32
ENDBRANCH   1  31
TORSDOF 18
