REMARK SMILES O=C(NCCCCCCNC(=O)c1[nH]nc2c1CCC2)c1ccc(-c2c3nc(c(-c4c(F)cccc4F)c4ccc([nH]4)c(-c4c(F)cccc4F)c4nc(c(-c5c(F)cccc5F)c5ccc2[nH]5)C=C4)C=C3)cc1
REMARK SMILES IDX 5 1 4 2 3 3 1 4 2 5 21 7 22 8 74 9 23 10 73 11 24 12 25 13
REMARK SMILES IDX 26 14 67 15 27 16 72 17 66 18 68 19 28 20 71 21 65 22 64 23
REMARK SMILES IDX 29 25 55 26 38 27 54 28 39 29 42 30 53 31 69 32 40 33 41 34
REMARK SMILES IDX 52 36 70 37 43 38 30 39 31 40 36 41 32 42 33 43 35 44 37 45
REMARK SMILES IDX 34 46 56 47 57 48 62 49 58 50 59 51 61 52 63 53 60 54 44 55
REMARK SMILES IDX 45 56 50 57 46 58 47 59 49 60 51 61 48 62 6 63 7 64 8 65
REMARK SMILES IDX 9 66 10 67 11 68 12 70 13 71 14 72 17 73 15 74 16 76 18 77
REMARK SMILES IDX 20 78 19 79
REMARK H PARENT 3 6 68 24 42 35 10 69 14 75
REMARK Flexibility Score: inf
ROOT
ATOM      1  C   UNL     1       4.671   0.968   2.106  1.00  0.00     0.021 C 
ENDROOT
BRANCH   1   2
ATOM      2  C   UNL     1       4.486  -0.076   1.004  1.00  0.00     0.116 C 
BRANCH   2   3
ATOM      3  N   UNL     1       3.108  -0.462   0.785  1.00  0.00    -0.352 N 
ATOM      4  O   UNL     1       1.008  -0.602   0.124  1.00  0.00    -0.269 OA
ATOM      5  C   UNL     1       2.038   0.079   0.127  1.00  0.00     0.251 C 
ATOM      6  H   UNL     1       2.888  -1.321   1.212  1.00  0.00     0.163 HD
BRANCH   5   7
ATOM      7  C   UNL     1       2.012   1.407  -0.554  1.00  0.00     0.039 A 
ATOM      8  C   UNL     1       3.115   2.226  -0.790  1.00  0.00     0.014 A 
ATOM      9  C   UNL     1       0.753   1.847  -1.013  1.00  0.00     0.014 A 
ATOM     10  C   UNL     1       2.965   3.450  -1.446  1.00  0.00     0.010 A 
ATOM     11  C   UNL     1       0.599   3.065  -1.680  1.00  0.00     0.010 A 
ATOM     12  C   UNL     1       1.710   3.874  -1.896  1.00  0.00    -0.014 A 
BRANCH  12  13
ATOM     13  C   UNL     1       1.655   5.107  -2.684  1.00  0.00     0.031 A 
ATOM     14  C   UNL     1       2.368   5.093  -3.997  1.00  0.00     0.074 A 
ATOM     15  C   UNL     1       0.918   6.198  -2.399  1.00  0.00     0.049 A 
ATOM     16  N   UNL     1       3.359   5.834  -4.378  1.00  0.00    -0.248 NA
ATOM     17  C   UNL     1       1.917   4.125  -5.006  1.00  0.00     0.031 C 
ATOM     18  C   UNL     1      -0.126   6.354  -1.388  1.00  0.00     0.029 A 
ATOM     19  N   UNL     1       0.915   7.403  -3.048  1.00  0.00    -0.354 N 
ATOM     20  C   UNL     1       3.569   5.541  -5.725  1.00  0.00     0.074 A 
ATOM     21  C   UNL     1       2.705   4.429  -6.039  1.00  0.00     0.031 C 
ATOM     22  C   UNL     1      -0.788   7.512  -1.614  1.00  0.00     0.029 A 
ATOM     23  C   UNL     1      -0.133   8.236  -2.694  1.00  0.00     0.049 A 
ATOM     24  H   UNL     1       1.599   7.656  -3.709  1.00  0.00     0.167 HD
ATOM     25  C   UNL     1       4.330   6.325  -6.537  1.00  0.00     0.037 A 
ATOM     26  C   UNL     1      -0.466   9.416  -3.270  1.00  0.00     0.037 A 
ATOM     27  C   UNL     1       5.173   7.226  -5.801  1.00  0.00     0.049 A 
ATOM     28  C   UNL     1       0.705   9.926  -4.021  1.00  0.00     0.074 A 
ATOM     29  C   UNL     1       6.162   7.087  -4.846  1.00  0.00     0.029 A 
ATOM     30  N   UNL     1       4.874   8.564  -5.819  1.00  0.00    -0.354 N 
ATOM     31  N   UNL     1       1.772  10.439  -3.480  1.00  0.00    -0.248 NA
ATOM     32  C   UNL     1       0.820   9.596  -5.434  1.00  0.00     0.031 C 
ATOM     33  C   UNL     1       6.046   8.241  -4.017  1.00  0.00     0.029 A 
ATOM     34  C   UNL     1       4.997   9.005  -4.528  1.00  0.00     0.049 A 
ATOM     35  H   UNL     1       4.622   9.102  -6.605  1.00  0.00     0.167 HD
ATOM     36  C   UNL     1       2.799  10.115  -4.351  1.00  0.00     0.074 A 
ATOM     37  C   UNL     1       2.138   9.730  -5.591  1.00  0.00     0.031 C 
ATOM     38  C   UNL     1       4.072   9.916  -3.900  1.00  0.00     0.037 A 
BRANCH  25  39
ATOM     39  C   UNL     1       4.123   6.479  -8.022  1.00  0.00     0.057 A 
ATOM     40  C   UNL     1       5.128   7.063  -8.815  1.00  0.00     0.134 A 
ATOM     41  C   UNL     1       2.869   6.334  -8.647  1.00  0.00     0.134 A 
ATOM     42  F   UNL     1       6.354   7.284  -8.318  1.00  0.00    -0.206 F 
ATOM     43  C   UNL     1       4.889   7.514 -10.119  1.00  0.00     0.040 A 
ATOM     44  C   UNL     1       2.633   6.735  -9.966  1.00  0.00     0.040 A 
ATOM     45  F   UNL     1       1.796   5.888  -7.981  1.00  0.00    -0.206 F 
ATOM     46  C   UNL     1       3.637   7.352 -10.698  1.00  0.00     0.006 A 
ENDBRANCH  25  39
BRANCH  26  47
ATOM     47  C   UNL     1      -1.783  10.079  -3.356  1.00  0.00     0.057 A 
ATOM     48  C   UNL     1      -1.893  11.451  -3.625  1.00  0.00     0.134 A 
ATOM     49  C   UNL     1      -2.973   9.337  -3.432  1.00  0.00     0.134 A 
ATOM     50  F   UNL     1      -0.808  12.238  -3.621  1.00  0.00    -0.206 F 
ATOM     51  C   UNL     1      -3.113  12.048  -3.966  1.00  0.00     0.040 A 
ATOM     52  C   UNL     1      -4.200   9.921  -3.759  1.00  0.00     0.040 A 
ATOM     53  F   UNL     1      -2.969   8.005  -3.274  1.00  0.00    -0.206 F 
ATOM     54  C   UNL     1      -4.271  11.280  -4.041  1.00  0.00     0.006 A 
ENDBRANCH  26  47
BRANCH  38  55
ATOM     55  C   UNL     1       4.421  10.407  -2.526  1.00  0.00     0.057 A 
ATOM     56  C   UNL     1       3.799   9.958  -1.352  1.00  0.00     0.134 A 
ATOM     57  C   UNL     1       5.513  11.271  -2.377  1.00  0.00     0.134 A 
ATOM     58  F   UNL     1       2.823   9.040  -1.389  1.00  0.00    -0.206 F 
ATOM     59  C   UNL     1       4.206  10.403  -0.091  1.00  0.00     0.040 A 
ATOM     60  C   UNL     1       5.952  11.693  -1.120  1.00  0.00     0.040 A 
ATOM     61  F   UNL     1       6.197  11.691  -3.453  1.00  0.00    -0.206 F 
ATOM     62  C   UNL     1       5.288  11.270   0.028  1.00  0.00     0.006 A 
ENDBRANCH  38  55
ENDBRANCH  12  13
ENDBRANCH   5   7
ENDBRANCH   2   3
ENDBRANCH   1   2
BRANCH   1  63
ATOM     63  C   UNL     1       4.117   0.573   3.480  1.00  0.00     0.002 C 
BRANCH  63  64
ATOM     64  C   UNL     1       4.622  -0.754   4.056  1.00  0.00     0.002 C 
BRANCH  64  65
ATOM     65  C   UNL     1       6.143  -0.915   4.130  1.00  0.00     0.021 C 
BRANCH  65  66
ATOM     66  C   UNL     1       6.871   0.142   4.957  1.00  0.00     0.116 C 
BRANCH  66  67
ATOM     67  N   UNL     1       6.600   0.017   6.378  1.00  0.00    -0.351 N 
ATOM     68  C   UNL     1       7.491  -0.109   7.411  1.00  0.00     0.269 C 
ATOM     69  H   UNL     1       5.649   0.023   6.632  1.00  0.00     0.163 HD
ATOM     70  O   UNL     1       7.066  -0.469   8.511  1.00  0.00    -0.268 OA
BRANCH  68  71
ATOM     71  C   UNL     1       8.885   0.119   7.170  1.00  0.00     0.126 A 
ATOM     72  N   UNL     1       9.866  -0.699   7.699  1.00  0.00    -0.272 N 
ATOM     73  C   UNL     1       9.592   1.089   6.504  1.00  0.00     0.006 A 
ATOM     74  N   UNL     1      11.126  -0.406   7.281  1.00  0.00    -0.180 NA
ATOM     75  H   UNL     1       9.669  -1.433   8.325  1.00  0.00     0.190 HD
ATOM     76  C   UNL     1      10.927   0.693   6.570  1.00  0.00     0.066 A 
ATOM     77  C   UNL     1       9.439   2.346   5.751  1.00  0.00     0.040 C 
ATOM     78  C   UNL     1      11.834   1.580   5.817  1.00  0.00     0.059 C 
ATOM     79  C   UNL     1      10.806   2.428   4.993  1.00  0.00     0.011 C 
ENDBRANCH  68  71
ENDBRANCH  66  67
ENDBRANCH  65  66
ENDBRANCH  64  65
ENDBRANCH  63  64
ENDBRANCH   1  63
TORSDOF 13
