REMARK SMILES O=C(NCCCCCCNC(=O)[C@@H]1CCCN(c2ccc3cc(S(=O)(=O)N4CCCCC4)ccc3n2)C1)c1ccc(-c2c3nc(c(-c4c(F)cccc4F)c4ccc([nH]4)c(-c4c(F)cccc4F)c4nc(c(-c5c(F)cccc5F)c5ccc2[nH]5)C=C4)C=C3)cc1
REMARK SMILES IDX 7 1 6 2 5 3 4 4 3 5 1 6 2 7 38 9 39 10 91 11 40 12 90 13
REMARK SMILES IDX 41 14 42 15 43 16 84 17 44 18 89 19 83 20 85 21 45 22 88 23
REMARK SMILES IDX 82 24 81 25 46 27 72 28 55 29 71 30 56 31 59 32 70 33 86 34
REMARK SMILES IDX 57 35 58 36 69 38 87 39 60 40 47 41 48 42 53 43 49 44 50 45
REMARK SMILES IDX 52 46 54 47 51 48 73 49 74 50 79 51 75 52 76 53 78 54 80 55
REMARK SMILES IDX 77 56 61 57 62 58 67 59 63 60 64 61 66 62 68 63 65 64 8 65
REMARK SMILES IDX 9 66 10 67 11 68 12 70 13 71 14 72 37 73 15 74 17 75 16 76
REMARK SMILES IDX 18 77 19 78 36 79 20 80 35 81 21 82 34 83 22 84 33 85 23 86
REMARK SMILES IDX 24 87 25 88 26 89 27 90 28 91 32 92 29 93 31 94 30 95
REMARK H PARENT 3 8 85 26 59 37 10 69
REMARK Flexibility Score: inf
ROOT
ATOM      1  C   UNL     1       4.865  -2.276   3.465  1.00  0.00     0.002 C 
ENDROOT
BRANCH   1   2
ATOM      2  C   UNL     1       4.256  -0.879   3.619  1.00  0.00     0.002 C 
BRANCH   2   3
ATOM      3  C   UNL     1       4.684   0.125   2.548  1.00  0.00     0.021 C 
BRANCH   3   4
ATOM      4  C   UNL     1       4.439  -0.342   1.118  1.00  0.00     0.116 C 
BRANCH   4   5
ATOM      5  N   UNL     1       3.026  -0.545   0.846  1.00  0.00    -0.352 N 
ATOM      6  O   UNL     1       1.033  -0.114  -0.122  1.00  0.00    -0.269 OA
ATOM      7  C   UNL     1       2.253   0.004  -0.144  1.00  0.00     0.251 C 
ATOM      8  H   UNL     1       2.560  -1.161   1.457  1.00  0.00     0.163 HD
BRANCH   7   9
ATOM      9  C   UNL     1       2.905   0.756  -1.235  1.00  0.00     0.039 A 
ATOM     10  C   UNL     1       4.023   0.232  -1.891  1.00  0.00     0.014 A 
ATOM     11  C   UNL     1       2.378   1.993  -1.610  1.00  0.00     0.014 A 
ATOM     12  C   UNL     1       4.679   0.992  -2.853  1.00  0.00     0.010 A 
ATOM     13  C   UNL     1       2.995   2.724  -2.624  1.00  0.00     0.010 A 
ATOM     14  C   UNL     1       4.160   2.236  -3.240  1.00  0.00    -0.014 A 
BRANCH  14  15
ATOM     15  C   UNL     1       4.795   2.996  -4.342  1.00  0.00     0.031 A 
ATOM     16  C   UNL     1       5.428   4.331  -4.089  1.00  0.00     0.074 A 
ATOM     17  C   UNL     1       4.749   2.489  -5.588  1.00  0.00     0.049 A 
ATOM     18  N   UNL     1       5.939   5.177  -4.947  1.00  0.00    -0.248 NA
ATOM     19  C   UNL     1       5.485   4.781  -2.691  1.00  0.00     0.031 C 
ATOM     20  C   UNL     1       4.149   1.204  -5.951  1.00  0.00     0.029 A 
ATOM     21  N   UNL     1       5.196   2.999  -6.779  1.00  0.00    -0.354 N 
ATOM     22  C   UNL     1       6.355   6.270  -4.199  1.00  0.00     0.074 A 
ATOM     23  C   UNL     1       6.018   5.989  -2.819  1.00  0.00     0.031 C 
ATOM     24  C   UNL     1       4.263   1.026  -7.274  1.00  0.00     0.029 A 
ATOM     25  C   UNL     1       4.887   2.208  -7.858  1.00  0.00     0.049 A 
ATOM     26  H   UNL     1       5.690   3.847  -6.854  1.00  0.00     0.167 HD
ATOM     27  C   UNL     1       6.963   7.402  -4.628  1.00  0.00     0.037 A 
ATOM     28  C   UNL     1       5.048   2.425  -9.175  1.00  0.00     0.037 A 
ATOM     29  C   UNL     1       7.295   7.668  -6.005  1.00  0.00     0.049 A 
ATOM     30  C   UNL     1       5.690   3.701  -9.633  1.00  0.00     0.074 A 
ATOM     31  C   UNL     1       7.958   8.759  -6.537  1.00  0.00     0.029 A 
ATOM     32  N   UNL     1       6.971   6.838  -7.070  1.00  0.00    -0.354 N 
ATOM     33  N   UNL     1       6.126   4.706  -8.913  1.00  0.00    -0.248 NA
ATOM     34  C   UNL     1       5.864   3.875 -11.081  1.00  0.00     0.031 C 
ATOM     35  C   UNL     1       7.986   8.617  -7.929  1.00  0.00     0.029 A 
ATOM     36  C   UNL     1       7.392   7.410  -8.260  1.00  0.00     0.049 A 
ATOM     37  H   UNL     1       6.510   5.972  -6.992  1.00  0.00     0.167 HD
ATOM     38  C   UNL     1       6.646   5.623  -9.815  1.00  0.00     0.074 A 
ATOM     39  C   UNL     1       6.474   5.052 -11.136  1.00  0.00     0.031 C 
ATOM     40  C   UNL     1       7.218   6.827  -9.568  1.00  0.00     0.037 A 
BRANCH  27  41
ATOM     41  C   UNL     1       7.275   8.452  -3.600  1.00  0.00     0.057 A 
ATOM     42  C   UNL     1       8.263   8.271  -2.624  1.00  0.00     0.134 A 
ATOM     43  C   UNL     1       6.582   9.670  -3.596  1.00  0.00     0.134 A 
ATOM     44  F   UNL     1       8.958   7.125  -2.564  1.00  0.00    -0.206 F 
ATOM     45  C   UNL     1       8.526   9.247  -1.660  1.00  0.00     0.040 A 
ATOM     46  C   UNL     1       6.855  10.665  -2.656  1.00  0.00     0.040 A 
ATOM     47  F   UNL     1       5.629   9.915  -4.509  1.00  0.00    -0.206 F 
ATOM     48  C   UNL     1       7.823  10.450  -1.677  1.00  0.00     0.006 A 
ENDBRANCH  27  41
BRANCH  28  49
ATOM     49  C   UNL     1       4.569   1.405 -10.138  1.00  0.00     0.057 A 
ATOM     50  C   UNL     1       5.465   0.592 -10.839  1.00  0.00     0.134 A 
ATOM     51  C   UNL     1       3.200   1.174 -10.326  1.00  0.00     0.134 A 
ATOM     52  F   UNL     1       6.787   0.774 -10.706  1.00  0.00    -0.206 F 
ATOM     53  C   UNL     1       5.017  -0.415 -11.695  1.00  0.00     0.040 A 
ATOM     54  C   UNL     1       2.739   0.155 -11.160  1.00  0.00     0.040 A 
ATOM     55  F   UNL     1       2.292   1.912  -9.670  1.00  0.00    -0.206 F 
ATOM     56  C   UNL     1       3.650  -0.642 -11.849  1.00  0.00     0.006 A 
ENDBRANCH  28  49
BRANCH  40  57
ATOM     57  C   UNL     1       7.738   7.598 -10.744  1.00  0.00     0.057 A 
ATOM     58  C   UNL     1       6.882   8.263 -11.630  1.00  0.00     0.134 A 
ATOM     59  C   UNL     1       9.117   7.735 -10.948  1.00  0.00     0.134 A 
ATOM     60  F   UNL     1       5.551   8.159 -11.497  1.00  0.00    -0.206 F 
ATOM     61  C   UNL     1       7.380   9.033 -12.682  1.00  0.00     0.040 A 
ATOM     62  C   UNL     1       9.627   8.521 -11.982  1.00  0.00     0.040 A 
ATOM     63  F   UNL     1       9.990   7.127 -10.131  1.00  0.00    -0.206 F 
ATOM     64  C   UNL     1       8.757   9.172 -12.853  1.00  0.00     0.006 A 
ENDBRANCH  40  57
ENDBRANCH  14  15
ENDBRANCH   7   9
ENDBRANCH   4   5
ENDBRANCH   3   4
ENDBRANCH   2   3
ENDBRANCH   1   2
BRANCH   1  65
ATOM     65  C   UNL     1       6.399  -2.311   3.423  1.00  0.00     0.021 C 
BRANCH  65  66
ATOM     66  C   UNL     1       7.064  -1.746   4.675  1.00  0.00     0.116 C 
BRANCH  66  67
ATOM     67  N   UNL     1       6.715  -2.551   5.830  1.00  0.00    -0.356 N 
ATOM     68  C   UNL     1       7.512  -3.241   6.693  1.00  0.00     0.224 C 
ATOM     69  H   UNL     1       5.751  -2.607   6.020  1.00  0.00     0.163 HD
ATOM     70  O   UNL     1       6.961  -4.037   7.452  1.00  0.00    -0.275 OA
BRANCH  68  71
ATOM     71  C   UNL     1       9.011  -2.981   6.691  1.00  0.00     0.098 C 
ATOM     72  C   UNL     1       9.789  -4.020   7.519  1.00  0.00     0.017 C 
ATOM     73  C   UNL     1       9.294  -1.563   7.196  1.00  0.00     0.131 C 
ATOM     74  C   UNL     1       9.671  -3.814   9.036  1.00  0.00     0.022 C 
ATOM     75  N   UNL     1       9.119  -1.498   8.637  1.00  0.00    -0.356 N 
ATOM     76  C   UNL     1       9.947  -2.367   9.454  1.00  0.00     0.118 C 
BRANCH  75  77
ATOM     77  C   UNL     1       8.282  -0.586   9.232  1.00  0.00     0.129 A 
ATOM     78  C   UNL     1       6.976  -0.416   8.781  1.00  0.00     0.047 A 
ATOM     79  N   UNL     1       8.750   0.133  10.272  1.00  0.00    -0.231 NA
ATOM     80  C   UNL     1       6.133   0.504   9.392  1.00  0.00     0.014 A 
ATOM     81  C   UNL     1       7.955   1.051  10.844  1.00  0.00     0.073 A 
ATOM     82  C   UNL     1       6.624   1.273  10.440  1.00  0.00     0.002 A 
ATOM     83  C   UNL     1       8.458   1.834  11.870  1.00  0.00     0.030 A 
ATOM     84  C   UNL     1       5.830   2.244  11.069  1.00  0.00     0.032 A 
ATOM     85  C   UNL     1       7.684   2.819  12.494  1.00  0.00     0.024 A 
ATOM     86  C   UNL     1       6.364   3.023  12.098  1.00  0.00     0.083 A 
BRANCH  86  87
ATOM     87  S   UNL     1       5.283   4.255  12.802  1.00  0.00     0.243 S 
ATOM     88  O   UNL     1       4.931   5.140  11.711  1.00  0.00    -0.207 OA
ATOM     89  O   UNL     1       4.269   3.523  13.532  1.00  0.00    -0.207 OA
BRANCH  87  90
ATOM     90  N   UNL     1       6.190   5.160  13.927  1.00  0.00    -0.198 NA
ATOM     91  C   UNL     1       6.489   4.490  15.216  1.00  0.00     0.102 C 
ATOM     92  C   UNL     1       7.209   6.074  13.358  1.00  0.00     0.102 C 
ATOM     93  C   UNL     1       7.120   5.441  16.224  1.00  0.00     0.017 C 
ATOM     94  C   UNL     1       7.813   6.986  14.416  1.00  0.00     0.017 C 
ATOM     95  C   UNL     1       8.296   6.190  15.618  1.00  0.00     0.003 C 
ENDBRANCH  87  90
ENDBRANCH  86  87
ENDBRANCH  75  77
ENDBRANCH  68  71
ENDBRANCH  66  67
ENDBRANCH  65  66
ENDBRANCH   1  65
TORSDOF 16
