REMARK SMILES C[C@H]1[C@@H](C(=O)NCCCCCCNC(=O)c2ccc(-c3c4nc(c(-c5c(F)cccc5F)c5ccc([nH]5)c(-c5c(F)cccc5F)c5nc(c(-c6c(F)cccc6F)c6ccc3[nH]6)C=C5)C=C4)cc2)CCN1C(=O)N1CCNC(=O)C1(C)C
REMARK SMILES IDX 9 1 8 2 7 3 6 4 4 5 5 6 3 8 1 9 2 10 72 11 70 12 71 13 73 14
REMARK SMILES IDX 74 15 75 16 76 17 81 18 77 19 79 20 82 21 83 22 78 23 80 24
REMARK SMILES IDX 10 26 11 27 12 28 13 29 14 30 15 32 16 33 17 34 69 35 18 36
REMARK SMILES IDX 68 37 19 38 20 39 21 40 62 41 22 42 67 43 61 44 63 45 23 46
REMARK SMILES IDX 66 47 60 48 59 49 24 51 50 52 33 53 49 54 34 55 37 56 48 57
REMARK SMILES IDX 64 58 35 59 36 60 47 62 65 63 38 64 25 65 26 66 31 67 27 68
REMARK SMILES IDX 28 69 30 70 32 71 29 72 51 73 52 74 57 75 53 76 54 77 56 78
REMARK SMILES IDX 58 79 55 80 39 81 40 82 45 83 41 84 42 85 44 86 46 87 43 88
REMARK H PARENT 6 7 78 25 13 31 63 50 37 61
REMARK Flexibility Score: inf
ROOT
ATOM      1  C   UNL     1       4.464   1.549  -3.241  1.00  0.00     0.002 C 
ENDROOT
BRANCH   1   2
ATOM      2  C   UNL     1       3.572   0.909  -2.181  1.00  0.00     0.021 C 
BRANCH   2   3
ATOM      3  C   UNL     1       2.826   1.869  -1.244  1.00  0.00     0.116 C 
BRANCH   3   4
ATOM      4  N   UNL     1       1.489   2.127  -1.749  1.00  0.00    -0.356 N 
ATOM      5  C   UNL     1       0.265   1.657  -1.375  1.00  0.00     0.225 C 
ATOM      6  O   UNL     1      -0.675   1.957  -2.115  1.00  0.00    -0.275 OA
ATOM      7  H   UNL     1       1.461   2.759  -2.503  1.00  0.00     0.163 HD
BRANCH   5   8
ATOM      8  C   UNL     1       0.043   0.891  -0.064  1.00  0.00     0.102 C 
ATOM      9  C   UNL     1       1.388  -1.111  -1.054  1.00  0.00     0.032 C 
ATOM     10  C   UNL     1       0.783  -0.444   0.177  1.00  0.00     0.096 C 
ATOM     11  N   UNL     1      -0.222  -1.352   0.728  1.00  0.00    -0.321 N 
ATOM     12  C   UNL     1      -1.454   0.539   0.165  1.00  0.00     0.037 C 
ATOM     13  C   UNL     1      -1.522  -0.977   0.232  1.00  0.00     0.122 C 
BRANCH  11  14
ATOM     14  C   UNL     1       0.032  -2.615   1.232  1.00  0.00     0.321 C 
ATOM     15  O   UNL     1      -0.780  -3.533   1.166  1.00  0.00    -0.248 OA
BRANCH  14  16
ATOM     16  N   UNL     1       1.320  -2.813   1.679  1.00  0.00    -0.309 N 
ATOM     17  C   UNL     1       2.132  -3.843   1.048  1.00  0.00     0.143 C 
ATOM     18  C   UNL     1       1.827  -2.286   2.973  1.00  0.00     0.118 C 
ATOM     19  C   UNL     1       3.556  -3.323   0.815  1.00  0.00     0.137 C 
ATOM     20  C   UNL     1       3.224  -1.674   2.688  1.00  0.00     0.245 C 
ATOM     21  C   UNL     1       0.907  -1.256   3.648  1.00  0.00     0.045 C 
ATOM     22  C   UNL     1       2.042  -3.434   3.988  1.00  0.00     0.045 C 
ATOM     23  N   UNL     1       4.017  -2.320   1.766  1.00  0.00    -0.352 N 
ATOM     24  O   UNL     1       3.713  -0.757   3.347  1.00  0.00    -0.272 OA
ATOM     25  H   UNL     1       4.973  -2.085   1.747  1.00  0.00     0.163 HD
ENDBRANCH  14  16
ENDBRANCH  11  14
ENDBRANCH   5   8
ENDBRANCH   3   4
ENDBRANCH   2   3
ENDBRANCH   1   2
BRANCH   1  26
ATOM     26  C   UNL     1       5.774   2.138  -2.717  1.00  0.00     0.002 C 
BRANCH  26  27
ATOM     27  C   UNL     1       6.623   1.211  -1.839  1.00  0.00     0.021 C 
BRANCH  27  28
ATOM     28  C   UNL     1       6.910  -0.175  -2.417  1.00  0.00     0.116 C 
BRANCH  28  29
ATOM     29  N   UNL     1       7.634  -0.111  -3.674  1.00  0.00    -0.352 N 
ATOM     30  C   UNL     1       8.923  -0.472  -3.964  1.00  0.00     0.251 C 
ATOM     31  H   UNL     1       7.120   0.247  -4.434  1.00  0.00     0.163 HD
ATOM     32  O   UNL     1       9.429  -0.138  -5.036  1.00  0.00    -0.269 OA
BRANCH  30  33
ATOM     33  C   UNL     1       9.720  -1.252  -2.996  1.00  0.00     0.039 A 
ATOM     34  C   UNL     1      11.038  -0.867  -2.739  1.00  0.00     0.014 A 
ATOM     35  C   UNL     1       9.187  -2.386  -2.375  1.00  0.00     0.014 A 
ATOM     36  C   UNL     1      11.805  -1.586  -1.819  1.00  0.00     0.010 A 
ATOM     37  C   UNL     1       9.931  -3.065  -1.411  1.00  0.00     0.010 A 
ATOM     38  C   UNL     1      11.249  -2.674  -1.127  1.00  0.00    -0.014 A 
BRANCH  38  39
ATOM     39  C   UNL     1      12.034  -3.415  -0.107  1.00  0.00     0.031 A 
ATOM     40  C   UNL     1      12.402  -4.856  -0.331  1.00  0.00     0.074 A 
ATOM     41  C   UNL     1      12.367  -2.806   1.047  1.00  0.00     0.049 A 
ATOM     42  N   UNL     1      13.027  -5.683   0.468  1.00  0.00    -0.248 NA
ATOM     43  C   UNL     1      11.990  -5.452  -1.611  1.00  0.00     0.031 C 
ATOM     44  C   UNL     1      12.034  -1.425   1.402  1.00  0.00     0.029 A 
ATOM     45  N   UNL     1      13.053  -3.273   2.139  1.00  0.00    -0.354 N 
ATOM     46  C   UNL     1      13.073  -6.897  -0.206  1.00  0.00     0.074 A 
ATOM     47  C   UNL     1      12.367  -6.713  -1.456  1.00  0.00     0.031 C 
ATOM     48  C   UNL     1      12.533  -1.151   2.617  1.00  0.00     0.029 A 
ATOM     49  C   UNL     1      13.190  -2.345   3.142  1.00  0.00     0.049 A 
ATOM     50  H   UNL     1      13.413  -4.188   2.199  1.00  0.00     0.167 HD
ATOM     51  C   UNL     1      13.668  -8.054   0.172  1.00  0.00     0.037 A 
ATOM     52  C   UNL     1      13.774  -2.445   4.351  1.00  0.00     0.037 A 
ATOM     53  C   UNL     1      14.391  -8.228   1.405  1.00  0.00     0.049 A 
ATOM     54  C   UNL     1      14.419  -3.742   4.751  1.00  0.00     0.074 A 
ATOM     55  C   UNL     1      15.080  -9.343   1.851  1.00  0.00     0.029 A 
ATOM     56  N   UNL     1      14.516  -7.260   2.390  1.00  0.00    -0.354 N 
ATOM     57  N   UNL     1      14.510  -4.863   4.077  1.00  0.00    -0.248 NA
ATOM     58  C   UNL     1      15.047  -3.787   6.080  1.00  0.00     0.031 C 
ATOM     59  C   UNL     1      15.586  -9.064   3.125  1.00  0.00     0.029 A 
ATOM     60  C   UNL     1      15.251  -7.760   3.453  1.00  0.00     0.049 A 
ATOM     61  H   UNL     1      14.139  -6.353   2.341  1.00  0.00     0.167 HD
ATOM     62  C   UNL     1      15.225  -5.736   4.886  1.00  0.00     0.074 A 
ATOM     63  C   UNL     1      15.557  -5.011   6.095  1.00  0.00     0.031 C 
ATOM     64  C   UNL     1      15.575  -7.024   4.649  1.00  0.00     0.037 A 
BRANCH  51  65
ATOM     65  C   UNL     1      13.563  -9.224  -0.764  1.00  0.00     0.057 A 
ATOM     66  C   UNL     1      14.247  -9.254  -1.987  1.00  0.00     0.134 A 
ATOM     67  C   UNL     1      12.795 -10.345  -0.427  1.00  0.00     0.134 A 
ATOM     68  F   UNL     1      14.991  -8.208  -2.376  1.00  0.00    -0.206 F 
ATOM     69  C   UNL     1      14.148 -10.345  -2.853  1.00  0.00     0.040 A 
ATOM     70  C   UNL     1      12.710 -11.453  -1.272  1.00  0.00     0.040 A 
ATOM     71  F   UNL     1      12.120 -10.385   0.732  1.00  0.00    -0.206 F 
ATOM     72  C   UNL     1      13.382 -11.451  -2.493  1.00  0.00     0.006 A 
ENDBRANCH  51  65
BRANCH  52  73
ATOM     73  C   UNL     1      13.796  -1.274   5.264  1.00  0.00     0.057 A 
ATOM     74  C   UNL     1      14.988  -0.591   5.530  1.00  0.00     0.134 A 
ATOM     75  C   UNL     1      12.633  -0.813   5.892  1.00  0.00     0.134 A 
ATOM     76  F   UNL     1      16.138  -0.998   4.972  1.00  0.00    -0.206 F 
ATOM     77  C   UNL     1      15.027   0.499   6.402  1.00  0.00     0.040 A 
ATOM     78  C   UNL     1      12.653   0.290   6.746  1.00  0.00     0.040 A 
ATOM     79  F   UNL     1      11.458  -1.421   5.671  1.00  0.00    -0.206 F 
ATOM     80  C   UNL     1      13.855   0.945   7.009  1.00  0.00     0.006 A 
ENDBRANCH  52  73
BRANCH  64  81
ATOM     81  C   UNL     1      16.380  -7.721   5.706  1.00  0.00     0.057 A 
ATOM     82  C   UNL     1      15.811  -8.127   6.919  1.00  0.00     0.134 A 
ATOM     83  C   UNL     1      17.731  -8.022   5.491  1.00  0.00     0.134 A 
ATOM     84  F   UNL     1      14.526  -7.858   7.191  1.00  0.00    -0.206 F 
ATOM     85  C   UNL     1      16.564  -8.789   7.891  1.00  0.00     0.040 A 
ATOM     86  C   UNL     1      18.487  -8.705   6.444  1.00  0.00     0.040 A 
ATOM     87  F   UNL     1      18.335  -7.667   4.346  1.00  0.00    -0.206 F 
ATOM     88  C   UNL     1      17.904  -9.086   7.651  1.00  0.00     0.006 A 
ENDBRANCH  64  81
ENDBRANCH  38  39
ENDBRANCH  30  33
ENDBRANCH  28  29
ENDBRANCH  27  28
ENDBRANCH  26  27
ENDBRANCH   1  26
TORSDOF 15
