REMARK SMILES COc1c(C(=O)NCCCCCCNC(=O)c2ccc(-c3c4nc(c(-c5c(F)cccc5F)c5ccc([nH]5)c(-c5c(F)cccc5F)c5nc(c(-c6c(F)cccc6F)c6ccc3[nH]6)C=C5)C=C4)cc2)cccc1-c1cc(C)ccc1C
REMARK SMILES IDX 11 1 10 2 9 3 8 4 7 5 5 6 6 7 4 9 3 10 74 11 71 12 73 13
REMARK SMILES IDX 72 14 2 15 1 16 75 17 76 18 81 19 77 20 80 21 82 22 78 23
REMARK SMILES IDX 79 24 12 25 13 26 14 27 15 28 16 30 17 31 18 32 70 33 19 34
REMARK SMILES IDX 69 35 20 36 21 37 22 38 63 39 23 40 68 41 62 42 64 43 24 44
REMARK SMILES IDX 67 45 61 46 60 47 25 49 51 50 34 51 50 52 35 53 38 54 49 55
REMARK SMILES IDX 65 56 36 57 37 58 48 60 66 61 39 62 26 63 27 64 32 65 28 66
REMARK SMILES IDX 29 67 31 68 33 69 30 70 52 71 53 72 58 73 54 74 55 75 57 76
REMARK SMILES IDX 59 77 56 78 40 79 41 80 46 81 42 82 43 83 45 84 47 85 44 86
REMARK H PARENT 7 8 14 29 64 48 38 59
REMARK Flexibility Score: inf
ROOT
ATOM      1  C   UNL     1      -3.415   1.475  -0.807  1.00  0.00     0.002 C 
ENDROOT
BRANCH   1   2
ATOM      2  C   UNL     1      -3.709  -0.024  -0.923  1.00  0.00     0.002 C 
BRANCH   2   3
ATOM      3  C   UNL     1      -2.538  -0.994  -0.785  1.00  0.00     0.021 C 
BRANCH   3   4
ATOM      4  C   UNL     1      -1.603  -0.782   0.390  1.00  0.00     0.116 C 
BRANCH   4   5
ATOM      5  N   UNL     1      -2.090  -1.026   1.713  1.00  0.00    -0.352 N 
ATOM      6  C   UNL     1      -1.333  -1.264   2.844  1.00  0.00     0.255 C 
ATOM      7  O   UNL     1      -1.927  -1.281   3.925  1.00  0.00    -0.269 OA
ATOM      8  H   UNL     1      -3.067  -1.024   1.830  1.00  0.00     0.163 HD
BRANCH   6   9
ATOM      9  C   UNL     1       0.128  -1.627   2.821  1.00  0.00     0.082 A 
ATOM     10  C   UNL     1       1.168  -1.047   2.050  1.00  0.00     0.139 A 
ATOM     11  C   UNL     1       2.506  -1.531   2.177  1.00  0.00     0.025 A 
ATOM     12  C   UNL     1       0.451  -2.666   3.720  1.00  0.00     0.018 A 
ATOM     13  C   UNL     1       2.766  -2.579   3.083  1.00  0.00     0.012 A 
ATOM     14  C   UNL     1       1.753  -3.138   3.853  1.00  0.00     0.002 A 
BRANCH  10  15
ATOM     15  O   UNL     1       0.885   0.066   1.286  1.00  0.00    -0.495 OA
ATOM     16  C   UNL     1       1.307   0.004  -0.086  1.00  0.00     0.278 C 
ENDBRANCH  10  15
BRANCH  11  17
ATOM     17  C   UNL     1       3.641  -1.029   1.369  1.00  0.00    -0.011 A 
ATOM     18  C   UNL     1       4.211  -1.909   0.421  1.00  0.00     0.012 A 
ATOM     19  C   UNL     1       4.118   0.300   1.424  1.00  0.00    -0.043 A 
ATOM     20  C   UNL     1       5.165  -1.481  -0.510  1.00  0.00    -0.050 A 
ATOM     21  C   UNL     1       5.058   0.729   0.469  1.00  0.00     0.004 A 
ATOM     22  C   UNL     1       3.564   1.328   2.376  1.00  0.00     0.045 C 
ATOM     23  C   UNL     1       5.716  -2.450  -1.514  1.00  0.00     0.044 C 
ATOM     24  C   UNL     1       5.567  -0.147  -0.491  1.00  0.00     0.004 A 
ENDBRANCH  11  17
ENDBRANCH   6   9
ENDBRANCH   4   5
ENDBRANCH   3   4
ENDBRANCH   2   3
ENDBRANCH   1   2
BRANCH   1  25
ATOM     25  C   UNL     1      -2.316   2.064  -1.696  1.00  0.00     0.021 C 
BRANCH  25  26
ATOM     26  C   UNL     1      -2.374   1.725  -3.182  1.00  0.00     0.116 C 
BRANCH  26  27
ATOM     27  N   UNL     1      -3.631   2.095  -3.804  1.00  0.00    -0.352 N 
ATOM     28  C   UNL     1      -3.875   2.837  -4.934  1.00  0.00     0.251 C 
ATOM     29  H   UNL     1      -4.436   1.761  -3.346  1.00  0.00     0.163 HD
ATOM     30  O   UNL     1      -5.026   3.141  -5.229  1.00  0.00    -0.269 OA
BRANCH  28  31
ATOM     31  C   UNL     1      -2.756   3.300  -5.787  1.00  0.00     0.039 A 
ATOM     32  C   UNL     1      -2.772   4.619  -6.252  1.00  0.00     0.014 A 
ATOM     33  C   UNL     1      -1.712   2.446  -6.151  1.00  0.00     0.014 A 
ATOM     34  C   UNL     1      -1.713   5.099  -7.027  1.00  0.00     0.010 A 
ATOM     35  C   UNL     1      -0.623   2.945  -6.865  1.00  0.00     0.010 A 
ATOM     36  C   UNL     1      -0.611   4.276  -7.310  1.00  0.00    -0.014 A 
BRANCH  36  37
ATOM     37  C   UNL     1       0.563   4.791  -8.065  1.00  0.00     0.031 A 
ATOM     38  C   UNL     1       0.921   4.201  -9.403  1.00  0.00     0.074 A 
ATOM     39  C   UNL     1       1.346   5.742  -7.516  1.00  0.00     0.049 A 
ATOM     40  N   UNL     1       1.955   4.452 -10.166  1.00  0.00    -0.248 NA
ATOM     41  C   UNL     1       0.013   3.177  -9.944  1.00  0.00     0.031 C 
ATOM     42  C   UNL     1       1.129   6.370  -6.211  1.00  0.00     0.029 A 
ATOM     43  N   UNL     1       2.494   6.337  -7.981  1.00  0.00    -0.354 N 
ATOM     44  C   UNL     1       1.833   3.605 -11.261  1.00  0.00     0.074 A 
ATOM     45  C   UNL     1       0.646   2.805 -11.047  1.00  0.00     0.031 C 
ATOM     46  C   UNL     1       2.101   7.269  -5.987  1.00  0.00     0.029 A 
ATOM     47  C   UNL     1       3.034   7.252  -7.109  1.00  0.00     0.049 A 
ATOM     48  H   UNL     1       2.892   6.128  -8.857  1.00  0.00     0.167 HD
ATOM     49  C   UNL     1       2.629   3.514 -12.352  1.00  0.00     0.037 A 
ATOM     50  C   UNL     1       4.164   7.982  -7.195  1.00  0.00     0.037 A 
ATOM     51  C   UNL     1       3.787   4.338 -12.582  1.00  0.00     0.049 A 
ATOM     52  C   UNL     1       5.033   7.848  -8.417  1.00  0.00     0.074 A 
ATOM     53  C   UNL     1       4.608   4.373 -13.696  1.00  0.00     0.029 A 
ATOM     54  N   UNL     1       4.287   5.268 -11.685  1.00  0.00    -0.354 N 
ATOM     55  N   UNL     1       4.859   7.101  -9.479  1.00  0.00    -0.248 NA
ATOM     56  C   UNL     1       6.256   8.664  -8.454  1.00  0.00     0.031 C 
ATOM     57  C   UNL     1       5.639   5.283 -13.449  1.00  0.00     0.029 A 
ATOM     58  C   UNL     1       5.426   5.859 -12.208  1.00  0.00     0.049 A 
ATOM     59  H   UNL     1       3.893   5.477 -10.808  1.00  0.00     0.167 HD
ATOM     60  C   UNL     1       5.924   7.386 -10.325  1.00  0.00     0.074 A 
ATOM     61  C   UNL     1       6.733   8.383  -9.657  1.00  0.00     0.031 C 
ATOM     62  C   UNL     1       6.207   6.869 -11.544  1.00  0.00     0.037 A 
BRANCH  49  63
ATOM     63  C   UNL     1       2.287   2.489 -13.394  1.00  0.00     0.057 A 
ATOM     64  C   UNL     1       1.186   2.638 -14.247  1.00  0.00     0.134 A 
ATOM     65  C   UNL     1       3.123   1.384 -13.605  1.00  0.00     0.134 A 
ATOM     66  F   UNL     1       0.342   3.669 -14.093  1.00  0.00    -0.206 F 
ATOM     67  C   UNL     1       0.923   1.720 -15.265  1.00  0.00     0.040 A 
ATOM     68  C   UNL     1       2.885   0.474 -14.636  1.00  0.00     0.040 A 
ATOM     69  F   UNL     1       4.199   1.186 -12.829  1.00  0.00    -0.206 F 
ATOM     70  C   UNL     1       1.781   0.640 -15.469  1.00  0.00     0.006 A 
ENDBRANCH  49  63
BRANCH  50  71
ATOM     71  C   UNL     1       4.555   8.906  -6.098  1.00  0.00     0.057 A 
ATOM     72  C   UNL     1       4.590  10.292  -6.297  1.00  0.00     0.134 A 
ATOM     73  C   UNL     1       4.959   8.427  -4.846  1.00  0.00     0.134 A 
ATOM     74  F   UNL     1       4.234  10.813  -7.481  1.00  0.00    -0.206 F 
ATOM     75  C   UNL     1       5.049  11.164  -5.308  1.00  0.00     0.040 A 
ATOM     76  C   UNL     1       5.391   9.290  -3.836  1.00  0.00     0.040 A 
ATOM     77  F   UNL     1       4.943   7.112  -4.585  1.00  0.00    -0.206 F 
ATOM     78  C   UNL     1       5.450  10.662  -4.072  1.00  0.00     0.006 A 
ENDBRANCH  50  71
BRANCH  62  79
ATOM     79  C   UNL     1       7.408   7.410 -12.265  1.00  0.00     0.057 A 
ATOM     80  C   UNL     1       8.715   7.119 -11.855  1.00  0.00     0.134 A 
ATOM     81  C   UNL     1       7.250   8.195 -13.415  1.00  0.00     0.134 A 
ATOM     82  F   UNL     1       8.936   6.384 -10.755  1.00  0.00    -0.206 F 
ATOM     83  C   UNL     1       9.822   7.609 -12.551  1.00  0.00     0.040 A 
ATOM     84  C   UNL     1       8.348   8.664 -14.136  1.00  0.00     0.040 A 
ATOM     85  F   UNL     1       6.025   8.501 -13.868  1.00  0.00    -0.206 F 
ATOM     86  C   UNL     1       9.639   8.376 -13.700  1.00  0.00     0.006 A 
ENDBRANCH  62  79
ENDBRANCH  36  37
ENDBRANCH  28  31
ENDBRANCH  26  27
ENDBRANCH  25  26
ENDBRANCH   1  25
TORSDOF 15
