REMARK SMILES C[C@@H](C(=O)NCCCCCCNC(=O)c1ccc(-c2c3nc(c(-c4c(F)cccc4F)c4ccc([nH]4)c(-c4c(F)cccc4F)c4nc(c(-c5c(F)cccc5F)c5ccc2[nH]5)C=C4)C=C3)cc1)S(=O)(=O)N[C@@]12C[C@@H]3C[C@@](C)(C[C@@](C)(C3)C1)C2
REMARK SMILES IDX 8 1 7 2 6 3 5 4 3 5 4 6 2 8 1 9 69 10 70 11 71 12 72 13
REMARK SMILES IDX 73 15 74 16 83 17 84 18 75 19 80 20 77 21 82 22 76 23 79 24
REMARK SMILES IDX 81 25 78 26 9 27 10 28 11 29 12 30 13 31 14 33 15 34 16 35
REMARK SMILES IDX 68 36 17 37 67 38 18 39 19 40 20 41 61 42 21 43 66 44 60 45
REMARK SMILES IDX 62 46 22 47 65 48 59 49 58 50 23 52 49 53 32 54 48 55 33 56
REMARK SMILES IDX 36 57 47 58 63 59 34 60 35 61 46 63 64 64 37 65 24 66 25 67
REMARK SMILES IDX 30 68 26 69 27 70 29 71 31 72 28 73 50 74 51 75 56 76 52 77
REMARK SMILES IDX 53 78 55 79 57 80 54 81 38 82 39 83 44 84 40 85 41 86 43 87
REMARK SMILES IDX 45 88 42 89
REMARK H PARENT 5 7 72 14 12 32 62 51 36 62
REMARK Flexibility Score: inf
ROOT
ATOM      1  C   UNL     1       4.905  -2.485   1.409  1.00  0.00     0.002 C 
ENDROOT
BRANCH   1   2
ATOM      2  C   UNL     1       4.105  -1.544   0.497  1.00  0.00     0.021 C 
BRANCH   2   3
ATOM      3  C   UNL     1       3.336  -2.301  -0.594  1.00  0.00     0.116 C 
BRANCH   3   4
ATOM      4  N   UNL     1       2.150  -2.901  -0.014  1.00  0.00    -0.355 N 
ATOM      5  C   UNL     1       0.870  -2.419   0.073  1.00  0.00     0.239 C 
ATOM      6  O   UNL     1       0.140  -2.956   0.907  1.00  0.00    -0.274 OA
ATOM      7  H   UNL     1       2.286  -3.794   0.379  1.00  0.00     0.163 HD
BRANCH   5   8
ATOM      8  C   UNL     1       0.420  -1.315  -0.860  1.00  0.00     0.209 C 
ATOM      9  C   UNL     1       1.157   0.012  -0.743  1.00  0.00     0.037 C 
BRANCH   8  10
ATOM     10  S   UNL     1      -1.394  -1.119  -0.807  1.00  0.00     0.223 S 
ATOM     11  O   UNL     1      -1.740   0.005  -1.653  1.00  0.00    -0.212 OA
ATOM     12  O   UNL     1      -1.984  -2.410  -1.111  1.00  0.00    -0.212 OA
BRANCH  10  13
ATOM     13  N   UNL     1      -1.914  -0.758   0.741  1.00  0.00    -0.208 NA
ATOM     14  H   UNL     1      -1.646  -1.568   1.300  1.00  0.00     0.141 HD
BRANCH  13  15
ATOM     15  C   UNL     1      -1.546   0.410   1.572  1.00  0.00     0.034 C 
ATOM     16  C   UNL     1      -1.249   1.676   0.751  1.00  0.00     0.027 C 
ATOM     17  C   UNL     1      -2.724   0.819   2.507  1.00  0.00     0.030 C 
ATOM     18  C   UNL     1      -0.402  -0.031   2.509  1.00  0.00     0.030 C 
ATOM     19  C   UNL     1      -0.713   2.797   1.642  1.00  0.00    -0.008 C 
ATOM     20  C   UNL     1      -2.300   2.012   3.430  1.00  0.00    -0.030 C 
ATOM     21  C   UNL     1       0.085   1.133   3.385  1.00  0.00    -0.030 C 
ATOM     22  C   UNL     1      -1.848   3.218   2.574  1.00  0.00     0.010 C 
ATOM     23  C   UNL     1       0.489   2.307   2.467  1.00  0.00     0.010 C 
ATOM     24  C   UNL     1      -1.088   1.575   4.289  1.00  0.00     0.013 C 
ATOM     25  C   UNL     1      -3.461   2.450   4.327  1.00  0.00     0.011 C 
ATOM     26  C   UNL     1       1.277   0.679   4.235  1.00  0.00     0.011 C 
ENDBRANCH  13  15
ENDBRANCH  10  13
ENDBRANCH   8  10
ENDBRANCH   5   8
ENDBRANCH   3   4
ENDBRANCH   2   3
ENDBRANCH   1   2
BRANCH   1  27
ATOM     27  C   UNL     1       5.963  -3.320   0.678  1.00  0.00     0.002 C 
BRANCH  27  28
ATOM     28  C   UNL     1       6.979  -2.495  -0.113  1.00  0.00     0.021 C 
BRANCH  28  29
ATOM     29  C   UNL     1       7.852  -1.611   0.767  1.00  0.00     0.116 C 
BRANCH  29  30
ATOM     30  N   UNL     1       8.721  -2.410   1.620  1.00  0.00    -0.352 N 
ATOM     31  C   UNL     1      10.089  -2.383   1.710  1.00  0.00     0.251 C 
ATOM     32  H   UNL     1       8.266  -3.055   2.209  1.00  0.00     0.163 HD
ATOM     33  O   UNL     1      10.701  -3.276   2.284  1.00  0.00    -0.269 OA
BRANCH  31  34
ATOM     34  C   UNL     1      10.815  -1.256   1.095  1.00  0.00     0.039 A 
ATOM     35  C   UNL     1      11.926  -1.510   0.289  1.00  0.00     0.014 A 
ATOM     36  C   UNL     1      10.368   0.051   1.306  1.00  0.00     0.014 A 
ATOM     37  C   UNL     1      12.563  -0.448  -0.353  1.00  0.00     0.010 A 
ATOM     38  C   UNL     1      10.952   1.095   0.603  1.00  0.00     0.010 A 
ATOM     39  C   UNL     1      12.064   0.857  -0.221  1.00  0.00    -0.014 A 
BRANCH  39  40
ATOM     40  C   UNL     1      12.700   2.015  -0.893  1.00  0.00     0.031 A 
ATOM     41  C   UNL     1      13.282   3.120  -0.058  1.00  0.00     0.074 A 
ATOM     42  C   UNL     1      12.659   2.125  -2.233  1.00  0.00     0.049 A 
ATOM     43  N   UNL     1      13.727   4.293  -0.426  1.00  0.00    -0.248 NA
ATOM     44  C   UNL     1      13.329   2.886   1.395  1.00  0.00     0.031 C 
ATOM     45  C   UNL     1      12.092   1.134  -3.149  1.00  0.00     0.029 A 
ATOM     46  N   UNL     1      13.079   3.139  -3.057  1.00  0.00    -0.354 N 
ATOM     47  C   UNL     1      14.078   4.945   0.748  1.00  0.00     0.074 A 
ATOM     48  C   UNL     1      13.740   4.061   1.842  1.00  0.00     0.031 C 
ATOM     49  C   UNL     1      12.206   1.586  -4.408  1.00  0.00     0.029 A 
ATOM     50  C   UNL     1      12.807   2.916  -4.384  1.00  0.00     0.049 A 
ATOM     51  H   UNL     1      13.533   3.948  -2.727  1.00  0.00     0.167 HD
ATOM     52  C   UNL     1      14.648   6.164   0.900  1.00  0.00     0.037 A 
ATOM     53  C   UNL     1      13.001   3.706  -5.457  1.00  0.00     0.037 A 
ATOM     54  C   UNL     1      14.999   7.026  -0.197  1.00  0.00     0.049 A 
ATOM     55  C   UNL     1      13.624   5.061  -5.269  1.00  0.00     0.074 A 
ATOM     56  C   UNL     1      15.633   8.255  -0.159  1.00  0.00     0.029 A 
ATOM     57  N   UNL     1      14.741   6.748  -1.532  1.00  0.00    -0.354 N 
ATOM     58  N   UNL     1      14.002   5.649  -4.160  1.00  0.00    -0.248 NA
ATOM     59  C   UNL     1      13.853   5.862  -6.480  1.00  0.00     0.031 C 
ATOM     60  C   UNL     1      15.708   8.746  -1.466  1.00  0.00     0.029 A 
ATOM     61  C   UNL     1      15.181   7.794  -2.325  1.00  0.00     0.049 A 
ATOM     62  H   UNL     1      14.308   5.929  -1.865  1.00  0.00     0.167 HD
ATOM     63  C   UNL     1      14.547   6.869  -4.540  1.00  0.00     0.074 A 
ATOM     64  C   UNL     1      14.448   6.938  -5.984  1.00  0.00     0.031 C 
ATOM     65  C   UNL     1      15.089   7.839  -3.763  1.00  0.00     0.037 A 
BRANCH  52  66
ATOM     66  C   UNL     1      14.905   6.633   2.304  1.00  0.00     0.057 A 
ATOM     67  C   UNL     1      15.847   6.012   3.136  1.00  0.00     0.134 A 
ATOM     68  C   UNL     1      14.195   7.718   2.834  1.00  0.00     0.134 A 
ATOM     69  F   UNL     1      16.554   4.960   2.697  1.00  0.00    -0.206 F 
ATOM     70  C   UNL     1      16.040   6.423   4.456  1.00  0.00     0.040 A 
ATOM     71  C   UNL     1      14.405   8.160   4.141  1.00  0.00     0.040 A 
ATOM     72  F   UNL     1      13.283   8.364   2.093  1.00  0.00    -0.206 F 
ATOM     73  C   UNL     1      15.320   7.503   4.961  1.00  0.00     0.006 A 
ENDBRANCH  52  66
BRANCH  53  74
ATOM     74  C   UNL     1      12.615   3.218  -6.805  1.00  0.00     0.057 A 
ATOM     75  C   UNL     1      13.586   2.865  -7.749  1.00  0.00     0.134 A 
ATOM     76  C   UNL     1      11.273   3.066  -7.173  1.00  0.00     0.134 A 
ATOM     77  F   UNL     1      14.889   3.003  -7.461  1.00  0.00    -0.206 F 
ATOM     78  C   UNL     1      13.238   2.388  -9.014  1.00  0.00     0.040 A 
ATOM     79  C   UNL     1      10.910   2.567  -8.425  1.00  0.00     0.040 A 
ATOM     80  F   UNL     1      10.295   3.376  -6.309  1.00  0.00    -0.206 F 
ATOM     81  C   UNL     1      11.895   2.230  -9.351  1.00  0.00     0.006 A 
ENDBRANCH  53  74
BRANCH  65  82
ATOM     82  C   UNL     1      15.675   9.038  -4.452  1.00  0.00     0.057 A 
ATOM     83  C   UNL     1      14.875  10.025  -5.040  1.00  0.00     0.134 A 
ATOM     84  C   UNL     1      17.061   9.241  -4.454  1.00  0.00     0.134 A 
ATOM     85  F   UNL     1      13.542   9.885  -5.082  1.00  0.00    -0.206 F 
ATOM     86  C   UNL     1      15.435  11.167  -5.616  1.00  0.00     0.040 A 
ATOM     87  C   UNL     1      17.631  10.392  -5.001  1.00  0.00     0.040 A 
ATOM     88  F   UNL     1      17.883   8.338  -3.899  1.00  0.00    -0.206 F 
ATOM     89  C   UNL     1      16.816  11.358  -5.587  1.00  0.00     0.006 A 
ENDBRANCH  65  82
ENDBRANCH  39  40
ENDBRANCH  31  34
ENDBRANCH  29  30
ENDBRANCH  28  29
ENDBRANCH  27  28
ENDBRANCH   1  27
TORSDOF 16
