REMARK SMILES O=C(NCCCCCCNC(=O)[C@H]1[C@H]2CC[C@H](C2)[C@@H]1C(=O)Nc1sc2c(c1C(=O)NC1CCCCC1)CCCC2)c1ccc(-c2c3nc(c(-c4c(F)cccc4F)c4ccc([nH]4)c(-c4c(F)cccc4F)c4nc(c(-c5c(F)cccc5F)c5ccc2[nH]5)C=C4)C=C3)cc1
REMARK SMILES IDX 7 1 6 2 5 3 4 4 3 5 1 6 2 7 41 9 42 10 94 11 43 12 93 13
REMARK SMILES IDX 44 14 45 15 46 16 87 17 47 18 92 19 86 20 88 21 48 22 91 23
REMARK SMILES IDX 85 24 84 25 49 27 75 28 58 29 74 30 59 31 62 32 73 33 89 34
REMARK SMILES IDX 60 35 61 36 72 38 90 39 63 40 50 41 51 42 56 43 52 44 53 45
REMARK SMILES IDX 55 46 57 47 54 48 76 49 77 50 82 51 78 52 79 53 81 54 83 55
REMARK SMILES IDX 80 56 64 57 65 58 70 59 66 60 67 61 69 62 71 63 68 64 8 65
REMARK SMILES IDX 9 66 10 67 11 68 12 70 13 71 14 72 19 73 15 74 18 75 17 76
REMARK SMILES IDX 16 77 20 78 21 79 22 80 23 82 24 83 27 84 25 85 26 86 40 87
REMARK SMILES IDX 37 88 39 89 38 90 28 91 29 92 30 93 31 95 32 96 36 97 33 98
REMARK SMILES IDX 35 99 34 100
REMARK H PARENT 3 8 88 26 62 37 10 69 22 81 30 94
REMARK Flexibility Score: inf
ROOT
ATOM      1  C   UNL     1       7.548  11.303   0.587  1.00  0.00     0.002 C 
ENDROOT
BRANCH   1   2
ATOM      2  C   UNL     1       8.516  12.422   0.188  1.00  0.00     0.002 C 
BRANCH   2   3
ATOM      3  C   UNL     1       8.086  13.238  -1.031  1.00  0.00     0.021 C 
BRANCH   3   4
ATOM      4  C   UNL     1       6.691  13.835  -0.922  1.00  0.00     0.116 C 
BRANCH   4   5
ATOM      5  N   UNL     1       6.577  14.771   0.182  1.00  0.00    -0.352 N 
ATOM      6  O   UNL     1       6.303  16.791   1.151  1.00  0.00    -0.269 OA
ATOM      7  C   UNL     1       6.170  16.083   0.166  1.00  0.00     0.251 C 
ATOM      8  H   UNL     1       6.827  14.416   1.066  1.00  0.00     0.163 HD
BRANCH   7   9
ATOM      9  C   UNL     1       5.583  16.634  -1.075  1.00  0.00     0.039 A 
ATOM     10  C   UNL     1       4.630  15.904  -1.788  1.00  0.00     0.014 A 
ATOM     11  C   UNL     1       5.998  17.889  -1.526  1.00  0.00     0.014 A 
ATOM     12  C   UNL     1       4.194  16.365  -3.022  1.00  0.00     0.010 A 
ATOM     13  C   UNL     1       5.483  18.396  -2.721  1.00  0.00     0.010 A 
ATOM     14  C   UNL     1       4.594  17.628  -3.489  1.00  0.00    -0.014 A 
BRANCH  14  15
ATOM     15  C   UNL     1       3.995  18.157  -4.738  1.00  0.00     0.031 A 
ATOM     16  C   UNL     1       4.835  18.443  -5.949  1.00  0.00     0.074 A 
ATOM     17  C   UNL     1       2.664  18.365  -4.768  1.00  0.00     0.049 A 
ATOM     18  N   UNL     1       4.462  18.902  -7.117  1.00  0.00    -0.248 NA
ATOM     19  C   UNL     1       6.279  18.189  -5.838  1.00  0.00     0.031 C 
ATOM     20  C   UNL     1       1.752  18.135  -3.644  1.00  0.00     0.029 A 
ATOM     21  N   UNL     1       1.845  18.800  -5.775  1.00  0.00    -0.354 N 
ATOM     22  C   UNL     1       5.622  19.008  -7.874  1.00  0.00     0.074 A 
ATOM     23  C   UNL     1       6.717  18.590  -7.024  1.00  0.00     0.031 C 
ATOM     24  C   UNL     1       0.496  18.389  -4.036  1.00  0.00     0.029 A 
ATOM     25  C   UNL     1       0.522  18.869  -5.412  1.00  0.00     0.049 A 
ATOM     26  H   UNL     1       2.172  19.041  -6.672  1.00  0.00     0.167 HD
ATOM     27  C   UNL     1       5.755  19.412  -9.161  1.00  0.00     0.037 A 
ATOM     28  C   UNL     1      -0.552  19.296  -6.100  1.00  0.00     0.037 A 
ATOM     29  C   UNL     1       4.655  19.826  -9.997  1.00  0.00     0.049 A 
ATOM     30  C   UNL     1      -0.367  19.777  -7.508  1.00  0.00     0.074 A 
ATOM     31  C   UNL     1       4.683  20.221 -11.324  1.00  0.00     0.029 A 
ATOM     32  N   UNL     1       3.333  19.913  -9.584  1.00  0.00    -0.354 N 
ATOM     33  N   UNL     1       0.729  19.828  -8.225  1.00  0.00    -0.248 NA
ATOM     34  C   UNL     1      -1.566  20.261  -8.202  1.00  0.00     0.031 C 
ATOM     35  C   UNL     1       3.389  20.598 -11.697  1.00  0.00     0.029 A 
ATOM     36  C   UNL     1       2.542  20.381 -10.622  1.00  0.00     0.049 A 
ATOM     37  H   UNL     1       3.006  19.678  -8.686  1.00  0.00     0.167 HD
ATOM     38  C   UNL     1       0.349  20.330  -9.462  1.00  0.00     0.074 A 
ATOM     39  C   UNL     1      -1.082  20.546  -9.402  1.00  0.00     0.031 C 
ATOM     40  C   UNL     1       1.117  20.589 -10.548  1.00  0.00     0.037 A 
BRANCH  27  41
ATOM     41  C   UNL     1       7.140  19.448  -9.742  1.00  0.00     0.057 A 
ATOM     42  C   UNL     1       7.854  18.279 -10.034  1.00  0.00     0.134 A 
ATOM     43  C   UNL     1       7.748  20.670 -10.061  1.00  0.00     0.134 A 
ATOM     44  F   UNL     1       7.337  17.075  -9.746  1.00  0.00    -0.206 F 
ATOM     45  C   UNL     1       9.130  18.324 -10.602  1.00  0.00     0.040 A 
ATOM     46  C   UNL     1       9.011  20.727 -10.654  1.00  0.00     0.040 A 
ATOM     47  F   UNL     1       7.118  21.828  -9.817  1.00  0.00    -0.206 F 
ATOM     48  C   UNL     1       9.708  19.551 -10.920  1.00  0.00     0.006 A 
ENDBRANCH  27  41
BRANCH  28  49
ATOM     49  C   UNL     1      -1.889  19.296  -5.456  1.00  0.00     0.057 A 
ATOM     50  C   UNL     1      -2.901  18.432  -5.886  1.00  0.00     0.134 A 
ATOM     51  C   UNL     1      -2.183  20.155  -4.389  1.00  0.00     0.134 A 
ATOM     52  F   UNL     1      -2.684  17.596  -6.911  1.00  0.00    -0.206 F 
ATOM     53  C   UNL     1      -4.164  18.434  -5.292  1.00  0.00     0.040 A 
ATOM     54  C   UNL     1      -3.430  20.146  -3.765  1.00  0.00     0.040 A 
ATOM     55  F   UNL     1      -1.251  20.999  -3.921  1.00  0.00    -0.206 F 
ATOM     56  C   UNL     1      -4.428  19.289  -4.223  1.00  0.00     0.006 A 
ENDBRANCH  28  49
BRANCH  40  57
ATOM     57  C   UNL     1       0.415  21.099 -11.773  1.00  0.00     0.057 A 
ATOM     58  C   UNL     1      -0.119  22.392 -11.838  1.00  0.00     0.134 A 
ATOM     59  C   UNL     1       0.292  20.290 -12.910  1.00  0.00     0.134 A 
ATOM     60  F   UNL     1      -0.050  23.211 -10.778  1.00  0.00    -0.206 F 
ATOM     61  C   UNL     1      -0.774  22.853 -12.982  1.00  0.00     0.040 A 
ATOM     62  C   UNL     1      -0.332  20.750 -14.070  1.00  0.00     0.040 A 
ATOM     63  F   UNL     1       0.788  19.043 -12.917  1.00  0.00    -0.206 F 
ATOM     64  C   UNL     1      -0.875  22.033 -14.104  1.00  0.00     0.006 A 
ENDBRANCH  40  57
ENDBRANCH  14  15
ENDBRANCH   7   9
ENDBRANCH   4   5
ENDBRANCH   3   4
ENDBRANCH   2   3
ENDBRANCH   1   2
BRANCH   1  65
ATOM     65  C   UNL     1       7.181  10.339  -0.543  1.00  0.00     0.021 C 
BRANCH  65  66
ATOM     66  C   UNL     1       8.386   9.671  -1.189  1.00  0.00     0.116 C 
BRANCH  66  67
ATOM     67  N   UNL     1       9.030   8.752  -0.269  1.00  0.00    -0.356 N 
ATOM     68  C   UNL     1       9.363   7.442  -0.471  1.00  0.00     0.224 C 
ATOM     69  H   UNL     1       9.256   9.120   0.616  1.00  0.00     0.163 HD
ATOM     70  O   UNL     1       9.844   6.795   0.455  1.00  0.00    -0.275 OA
BRANCH  68  71
ATOM     71  C   UNL     1       9.181   6.902  -1.872  1.00  0.00     0.094 C 
ATOM     72  C   UNL     1      10.288   7.505  -2.787  1.00  0.00     0.002 C 
ATOM     73  C   UNL     1       9.353   5.382  -2.063  1.00  0.00     0.094 C 
ATOM     74  C   UNL     1      11.706   7.089  -2.363  1.00  0.00     0.005 C 
ATOM     75  C   UNL     1      10.106   6.645  -4.014  1.00  0.00     0.009 C 
ATOM     76  C   UNL     1      10.329   5.325  -3.259  1.00  0.00     0.002 C 
ATOM     77  C   UNL     1      11.750   5.592  -2.712  1.00  0.00     0.005 C 
BRANCH  73  78
ATOM     78  C   UNL     1       8.020   4.594  -2.069  1.00  0.00     0.229 C 
ATOM     79  O   UNL     1       7.811   3.812  -1.128  1.00  0.00    -0.274 OA
ATOM     80  N   UNL     1       6.962   4.807  -2.903  1.00  0.00    -0.317 N 
ATOM     81  H   UNL     1       6.092   4.528  -2.536  1.00  0.00     0.170 HD
BRANCH  80  82
ATOM     82  C   UNL     1       6.899   5.343  -4.167  1.00  0.00     0.108 A 
ATOM     83  S   UNL     1       7.924   4.676  -5.347  1.00  0.00    -0.122 S 
ATOM     84  C   UNL     1       5.917   6.173  -4.726  1.00  0.00     0.078 A 
ATOM     85  C   UNL     1       7.605   6.001  -6.348  1.00  0.00     0.011 A 
ATOM     86  C   UNL     1       6.370   6.567  -6.063  1.00  0.00    -0.019 A 
ATOM     87  C   UNL     1       8.563   6.446  -7.410  1.00  0.00     0.047 C 
ATOM     88  C   UNL     1       5.777   7.522  -7.056  1.00  0.00     0.037 C 
ATOM     89  C   UNL     1       8.136   7.829  -7.916  1.00  0.00     0.006 C 
ATOM     90  C   UNL     1       6.653   7.785  -8.293  1.00  0.00     0.005 C 
BRANCH  84  91
ATOM     91  C   UNL     1       4.736   6.497  -3.900  1.00  0.00     0.254 C 
ATOM     92  O   UNL     1       4.315   5.663  -3.088  1.00  0.00    -0.269 OA
ATOM     93  N   UNL     1       4.071   7.696  -3.868  1.00  0.00    -0.349 N 
ATOM     94  H   UNL     1       3.377   7.725  -3.171  1.00  0.00     0.164 HD
BRANCH  93  95
ATOM     95  C   UNL     1       4.153   8.932  -4.624  1.00  0.00     0.082 C 
ATOM     96  C   UNL     1       2.980   9.877  -4.308  1.00  0.00     0.025 C 
ATOM     97  C   UNL     1       5.461   9.697  -4.385  1.00  0.00     0.025 C 
ATOM     98  C   UNL     1       3.021  11.109  -5.217  1.00  0.00     0.002 C 
ATOM     99  C   UNL     1       5.553  10.902  -5.325  1.00  0.00     0.002 C 
ATOM    100  C   UNL     1       4.362  11.841  -5.160  1.00  0.00     0.000 C 
ENDBRANCH  93  95
ENDBRANCH  84  91
ENDBRANCH  80  82
ENDBRANCH  73  78
ENDBRANCH  68  71
ENDBRANCH  66  67
ENDBRANCH  65  66
ENDBRANCH   1  65
TORSDOF 17
