REMARK SMILES CC(C)C[C@@H](C(=O)NCCCCCCNC(=O)c1ccc(-c2c3nc(c(-c4c(F)cccc4F)c4ccc([nH]4)c(-c4c(F)cccc4F)c4nc(c(-c5c(F)cccc5F)c5ccc2[nH]5)C=C4)C=C3)cc1)[C@@H]1CCC[C@@H](C)C1
REMARK SMILES IDX 11 1 10 2 9 3 8 4 6 5 7 6 5 8 4 9 2 10 1 11 3 12 72 13 73 14
REMARK SMILES IDX 78 15 74 16 76 17 75 18 77 19 12 20 13 21 14 22 15 23 16 24
REMARK SMILES IDX 17 26 18 27 19 28 71 29 20 30 70 31 21 32 22 33 23 34 64 35
REMARK SMILES IDX 24 36 69 37 63 38 65 39 25 40 68 41 62 42 61 43 26 45 52 46
REMARK SMILES IDX 35 47 51 48 36 49 39 50 50 51 66 52 37 53 38 54 49 56 67 57
REMARK SMILES IDX 40 58 27 59 28 60 33 61 29 62 30 63 32 64 34 65 31 66 53 67
REMARK SMILES IDX 54 68 59 69 55 70 56 71 58 72 60 73 57 74 41 75 42 76 47 77
REMARK SMILES IDX 43 78 44 79 46 80 48 81 45 82
REMARK H PARENT 8 7 15 25 65 44 39 55
REMARK Flexibility Score: inf
ROOT
ATOM      1  C   UNL     1       1.252   5.540   0.156  1.00  0.00     0.002 C 
ENDROOT
BRANCH   1   2
ATOM      2  C   UNL     1       1.029   4.046  -0.079  1.00  0.00     0.021 C 
BRANCH   2   3
ATOM      3  C   UNL     1       0.148   3.323   0.940  1.00  0.00     0.116 C 
BRANCH   3   4
ATOM      4  N   UNL     1      -1.258   3.494   0.635  1.00  0.00    -0.356 N 
ATOM      5  C   UNL     1      -2.244   2.649   0.247  1.00  0.00     0.223 C 
ATOM      6  O   UNL     1      -3.340   3.185   0.031  1.00  0.00    -0.275 OA
ATOM      7  H   UNL     1      -1.563   4.425   0.732  1.00  0.00     0.163 HD
BRANCH   5   8
ATOM      8  C   UNL     1      -2.103   1.124   0.051  1.00  0.00     0.082 C 
BRANCH   8   9
ATOM      9  C   UNL     1      -1.359   0.403   1.199  1.00  0.00     0.016 C 
BRANCH   9  10
ATOM     10  C   UNL     1      -1.891  -1.004   1.580  1.00  0.00    -0.017 C 
ATOM     11  C   UNL     1      -1.442  -2.114   0.628  1.00  0.00     0.007 C 
ATOM     12  C   UNL     1      -1.413  -1.362   2.993  1.00  0.00     0.007 C 
ENDBRANCH   9  10
ENDBRANCH   8   9
BRANCH   8  13
ATOM     13  C   UNL     1      -1.858   0.616  -1.410  1.00  0.00     0.002 C 
ATOM     14  C   UNL     1      -0.443   0.164  -1.802  1.00  0.00     0.004 C 
ATOM     15  C   UNL     1      -2.454   1.503  -2.523  1.00  0.00     0.007 C 
ATOM     16  C   UNL     1       0.475   1.285  -2.246  1.00  0.00     0.001 C 
ATOM     17  C   UNL     1      -1.546   2.661  -2.959  1.00  0.00    -0.014 C 
ATOM     18  C   UNL     1      -0.144   2.163  -3.327  1.00  0.00     0.003 C 
ATOM     19  C   UNL     1      -2.173   3.413  -4.134  1.00  0.00     0.007 C 
ENDBRANCH   8  13
ENDBRANCH   5   8
ENDBRANCH   3   4
ENDBRANCH   2   3
ENDBRANCH   1   2
BRANCH   1  20
ATOM     20  C   UNL     1       2.223   5.904   1.281  1.00  0.00     0.002 C 
BRANCH  20  21
ATOM     21  C   UNL     1       3.572   5.178   1.282  1.00  0.00     0.021 C 
BRANCH  21  22
ATOM     22  C   UNL     1       4.319   5.137  -0.051  1.00  0.00     0.116 C 
BRANCH  22  23
ATOM     23  N   UNL     1       4.713   6.453  -0.515  1.00  0.00    -0.352 N 
ATOM     24  C   UNL     1       5.967   6.947  -0.772  1.00  0.00     0.251 C 
ATOM     25  H   UNL     1       3.972   7.084  -0.669  1.00  0.00     0.163 HD
ATOM     26  O   UNL     1       6.121   8.139  -1.015  1.00  0.00    -0.269 OA
BRANCH  24  27
ATOM     27  C   UNL     1       7.143   6.049  -0.742  1.00  0.00     0.039 A 
ATOM     28  C   UNL     1       8.284   6.468  -0.053  1.00  0.00     0.014 A 
ATOM     29  C   UNL     1       7.146   4.831  -1.430  1.00  0.00     0.014 A 
ATOM     30  C   UNL     1       9.419   5.655  -0.031  1.00  0.00     0.010 A 
ATOM     31  C   UNL     1       8.260   3.994  -1.359  1.00  0.00     0.010 A 
ATOM     32  C   UNL     1       9.415   4.408  -0.678  1.00  0.00    -0.014 A 
BRANCH  32  33
ATOM     33  C   UNL     1      10.639   3.567  -0.702  1.00  0.00     0.031 A 
ATOM     34  C   UNL     1      11.381   3.362  -1.995  1.00  0.00     0.074 A 
ATOM     35  C   UNL     1      11.082   2.987   0.430  1.00  0.00     0.049 A 
ATOM     36  N   UNL     1      12.466   2.665  -2.226  1.00  0.00    -0.248 NA
ATOM     37  C   UNL     1      10.819   4.010  -3.191  1.00  0.00     0.031 C 
ATOM     38  C   UNL     1      10.435   3.078   1.740  1.00  0.00     0.029 A 
ATOM     39  N   UNL     1      12.187   2.205   0.658  1.00  0.00    -0.354 N 
ATOM     40  C   UNL     1      12.713   2.792  -3.587  1.00  0.00     0.074 A 
ATOM     41  C   UNL     1      11.634   3.580  -4.142  1.00  0.00     0.031 C 
ATOM     42  C   UNL     1      11.167   2.398   2.639  1.00  0.00     0.029 A 
ATOM     43  C   UNL     1      12.321   1.810   1.967  1.00  0.00     0.049 A 
ATOM     44  H   UNL     1      12.823   1.952  -0.049  1.00  0.00     0.167 HD
ATOM     45  C   UNL     1      13.760   2.324  -4.308  1.00  0.00     0.037 A 
ATOM     46  C   UNL     1      13.275   1.064   2.557  1.00  0.00     0.037 A 
ATOM     47  C   UNL     1      14.844   1.554  -3.758  1.00  0.00     0.049 A 
ATOM     48  C   UNL     1      14.433   0.566   1.736  1.00  0.00     0.074 A 
ATOM     49  C   UNL     1      15.951   1.032  -4.404  1.00  0.00     0.029 A 
ATOM     50  N   UNL     1      14.962   1.208  -2.421  1.00  0.00    -0.354 N 
ATOM     51  N   UNL     1      14.672   0.727   0.457  1.00  0.00    -0.248 NA
ATOM     52  C   UNL     1      15.465  -0.203   2.447  1.00  0.00     0.031 C 
ATOM     53  C   UNL     1      16.731   0.355  -3.460  1.00  0.00     0.029 A 
ATOM     54  C   UNL     1      16.126   0.486  -2.220  1.00  0.00     0.049 A 
ATOM     55  H   UNL     1      14.313   1.440  -1.717  1.00  0.00     0.167 HD
ATOM     56  C   UNL     1      15.896   0.115   0.219  1.00  0.00     0.074 A 
ATOM     57  C   UNL     1      16.356  -0.409   1.488  1.00  0.00     0.031 C 
ATOM     58  C   UNL     1      16.579  -0.004  -0.945  1.00  0.00     0.037 A 
BRANCH  45  59
ATOM     59  C   UNL     1      13.789   2.654  -5.772  1.00  0.00     0.057 A 
ATOM     60  C   UNL     1      14.059   3.953  -6.222  1.00  0.00     0.134 A 
ATOM     61  C   UNL     1      13.572   1.666  -6.740  1.00  0.00     0.134 A 
ATOM     62  F   UNL     1      14.261   4.948  -5.344  1.00  0.00    -0.206 F 
ATOM     63  C   UNL     1      14.088   4.264  -7.582  1.00  0.00     0.040 A 
ATOM     64  C   UNL     1      13.623   1.960  -8.104  1.00  0.00     0.040 A 
ATOM     65  F   UNL     1      13.312   0.401  -6.377  1.00  0.00    -0.206 F 
ATOM     66  C   UNL     1      13.876   3.263  -8.528  1.00  0.00     0.006 A 
ENDBRANCH  45  59
BRANCH  46  67
ATOM     67  C   UNL     1      13.207   0.772   4.011  1.00  0.00     0.057 A 
ATOM     68  C   UNL     1      14.114   1.349   4.907  1.00  0.00     0.134 A 
ATOM     69  C   UNL     1      12.263  -0.120   4.533  1.00  0.00     0.134 A 
ATOM     70  F   UNL     1      15.055   2.196   4.463  1.00  0.00    -0.206 F 
ATOM     71  C   UNL     1      14.107   1.027   6.265  1.00  0.00     0.040 A 
ATOM     72  C   UNL     1      12.228  -0.432   5.893  1.00  0.00     0.040 A 
ATOM     73  F   UNL     1      11.361  -0.700   3.727  1.00  0.00    -0.206 F 
ATOM     74  C   UNL     1      13.159   0.134   6.761  1.00  0.00     0.006 A 
ENDBRANCH  46  67
BRANCH  58  75
ATOM     75  C   UNL     1      17.919  -0.675  -0.884  1.00  0.00     0.057 A 
ATOM     76  C   UNL     1      18.049  -2.057  -0.700  1.00  0.00     0.134 A 
ATOM     77  C   UNL     1      19.094   0.074  -1.026  1.00  0.00     0.134 A 
ATOM     78  F   UNL     1      16.962  -2.828  -0.545  1.00  0.00    -0.206 F 
ATOM     79  C   UNL     1      19.302  -2.667  -0.626  1.00  0.00     0.040 A 
ATOM     80  C   UNL     1      20.352  -0.528  -0.979  1.00  0.00     0.040 A 
ATOM     81  F   UNL     1      19.038   1.401  -1.214  1.00  0.00    -0.206 F 
ATOM     82  C   UNL     1      20.458  -1.901  -0.770  1.00  0.00     0.006 A 
ENDBRANCH  58  75
ENDBRANCH  32  33
ENDBRANCH  24  27
ENDBRANCH  22  23
ENDBRANCH  21  22
ENDBRANCH  20  21
ENDBRANCH   1  20
TORSDOF 16
