REMARK SMILES CC(C)CCOCC[N@H+]1CC[C@@H](C(=O)NCCCCCCNC(=O)c2ccc(-c3c4nc(c(-c5c(F)cccc5F)c5ccc([nH]5)c(-c5c(F)cccc5F)c5nc(c(-c6c(F)cccc6F)c6ccc3[nH]6)C=C5)C=C4)cc2)[C@@H]1C
REMARK SMILES IDX 16 1 15 2 13 3 14 4 12 6 9 7 10 8 79 9 11 11 80 12 8 13 7 14
REMARK SMILES IDX 6 15 5 16 4 17 2 18 1 19 3 20 17 21 18 22 19 23 20 24 21 25
REMARK SMILES IDX 22 26 23 27 24 29 25 30 26 31 78 32 27 33 77 34 28 35 29 36
REMARK SMILES IDX 30 37 71 38 31 39 76 40 70 41 72 42 32 43 75 44 69 45 68 46
REMARK SMILES IDX 33 48 59 49 42 50 58 51 43 52 46 53 57 54 73 55 44 56 45 57
REMARK SMILES IDX 56 59 74 60 47 61 34 62 35 63 40 64 36 65 37 66 39 67 41 68
REMARK SMILES IDX 38 69 60 70 61 71 66 72 62 73 63 74 65 75 67 76 64 77 48 78
REMARK SMILES IDX 49 79 54 80 50 81 51 82 53 83 55 84 52 85
REMARK H PARENT 15 5 9 10 22 28 72 47 46 58
REMARK Flexibility Score: inf
ROOT
ATOM      1  C   UNL     1       2.993  -0.565   3.880  1.00  0.00     0.116 C 
ENDROOT
BRANCH   1   2
ATOM      2  N   UNL     1       2.380  -1.664   4.589  1.00  0.00    -0.356 N 
ATOM      3  C   UNL     1       1.191  -2.295   4.408  1.00  0.00     0.229 C 
ATOM      4  O   UNL     1       0.898  -3.174   5.225  1.00  0.00    -0.275 OA
ATOM      5  H   UNL     1       2.918  -2.018   5.334  1.00  0.00     0.163 HD
BRANCH   3   6
ATOM      6  C   UNL     1       0.238  -1.977   3.260  1.00  0.00     0.142 C 
ATOM      7  N   UNL     1      -0.017   0.098   2.042  1.00  0.00    -0.330 N 
ATOM      8  C   UNL     1       0.774  -0.795   1.206  1.00  0.00     0.263 C 
ATOM      9  C   UNL     1      -0.348  -0.568   3.308  1.00  0.00     0.193 C 
ATOM     10  H   UNL     1      -0.867   0.261   1.503  1.00  0.00     0.348 HD
ATOM     11  C   UNL     1       0.840  -2.157   1.881  1.00  0.00     0.081 C 
ATOM     12  C   UNL     1      -1.879  -0.606   3.372  1.00  0.00     0.076 C 
BRANCH   7  13
ATOM     13  C   UNL     1       0.428   1.491   2.196  1.00  0.00     0.291 C 
BRANCH  13  14
ATOM     14  C   UNL     1       0.177   2.562   1.100  1.00  0.00     0.221 C 
BRANCH  14  15
ATOM     15  O   UNL     1      -1.093   2.616   0.469  1.00  0.00    -0.376 OA
BRANCH  15  16
ATOM     16  C   UNL     1      -1.494   1.488  -0.282  1.00  0.00     0.160 C 
BRANCH  16  17
ATOM     17  C   UNL     1      -0.979   1.343  -1.720  1.00  0.00     0.031 C 
BRANCH  17  18
ATOM     18  C   UNL     1       0.471   1.646  -2.152  1.00  0.00    -0.015 C 
ATOM     19  C   UNL     1       1.578   0.812  -1.512  1.00  0.00     0.007 C 
ATOM     20  C   UNL     1       0.571   1.387  -3.664  1.00  0.00     0.007 C 
ENDBRANCH  17  18
ENDBRANCH  16  17
ENDBRANCH  15  16
ENDBRANCH  14  15
ENDBRANCH  13  14
ENDBRANCH   7  13
ENDBRANCH   3   6
ENDBRANCH   1   2
BRANCH   1  21
ATOM     21  C   UNL     1       2.968   0.724   4.695  1.00  0.00     0.021 C 
BRANCH  21  22
ATOM     22  C   UNL     1       3.988   0.737   5.832  1.00  0.00     0.002 C 
BRANCH  22  23
ATOM     23  C   UNL     1       5.444   0.607   5.372  1.00  0.00     0.002 C 
BRANCH  23  24
ATOM     24  C   UNL     1       5.902   1.680   4.380  1.00  0.00     0.021 C 
BRANCH  24  25
ATOM     25  C   UNL     1       5.783   3.105   4.906  1.00  0.00     0.116 C 
BRANCH  25  26
ATOM     26  N   UNL     1       6.583   3.307   6.105  1.00  0.00    -0.352 N 
ATOM     27  C   UNL     1       7.552   4.246   6.348  1.00  0.00     0.251 C 
ATOM     28  H   UNL     1       6.403   2.683   6.845  1.00  0.00     0.163 HD
ATOM     29  O   UNL     1       8.291   4.148   7.322  1.00  0.00    -0.269 OA
BRANCH  27  30
ATOM     30  C   UNL     1       7.704   5.374   5.410  1.00  0.00     0.039 A 
ATOM     31  C   UNL     1       8.976   5.709   4.943  1.00  0.00     0.014 A 
ATOM     32  C   UNL     1       6.577   6.078   4.978  1.00  0.00     0.014 A 
ATOM     33  C   UNL     1       9.111   6.714   3.985  1.00  0.00     0.010 A 
ATOM     34  C   UNL     1       6.704   7.021   3.968  1.00  0.00     0.010 A 
ATOM     35  C   UNL     1       7.972   7.351   3.464  1.00  0.00    -0.014 A 
BRANCH  35  36
ATOM     36  C   UNL     1       8.072   8.367   2.389  1.00  0.00     0.031 A 
ATOM     37  C   UNL     1       7.630   9.778   2.649  1.00  0.00     0.074 A 
ATOM     38  C   UNL     1       8.476   7.998   1.159  1.00  0.00     0.049 A 
ATOM     39  N   UNL     1       7.543  10.786   1.818  1.00  0.00    -0.248 NA
ATOM     40  C   UNL     1       7.195  10.088   4.020  1.00  0.00     0.031 C 
ATOM     41  C   UNL     1       8.898   6.651   0.774  1.00  0.00     0.029 A 
ATOM     42  N   UNL     1       8.586   8.726   0.002  1.00  0.00    -0.354 N 
ATOM     43  C   UNL     1       7.028  11.841   2.561  1.00  0.00     0.074 A 
ATOM     44  C   UNL     1       6.763  11.332   3.889  1.00  0.00     0.031 C 
ATOM     45  C   UNL     1       9.253   6.656  -0.520  1.00  0.00     0.029 A 
ATOM     46  C   UNL     1       9.039   7.992  -1.067  1.00  0.00     0.049 A 
ATOM     47  H   UNL     1       8.361   9.682  -0.057  1.00  0.00     0.167 HD
ATOM     48  C   UNL     1       6.817  13.123   2.178  1.00  0.00     0.037 A 
ATOM     49  C   UNL     1       9.253   8.357  -2.345  1.00  0.00     0.037 A 
ATOM     50  C   UNL     1       7.091  13.623   0.856  1.00  0.00     0.049 A 
ATOM     51  C   UNL     1       8.973   9.774  -2.760  1.00  0.00     0.074 A 
ATOM     52  C   UNL     1       6.963  14.915   0.377  1.00  0.00     0.029 A 
ATOM     53  N   UNL     1       7.542  12.847  -0.203  1.00  0.00    -0.354 N 
ATOM     54  N   UNL     1       8.545  10.780  -2.035  1.00  0.00    -0.248 NA
ATOM     55  C   UNL     1       9.207  10.106  -4.171  1.00  0.00     0.031 C 
ATOM     56  C   UNL     1       7.283  14.909  -0.985  1.00  0.00     0.029 A 
ATOM     57  C   UNL     1       7.668  13.626  -1.342  1.00  0.00     0.049 A 
ATOM     58  H   UNL     1       7.742  11.884  -0.153  1.00  0.00     0.167 HD
ATOM     59  C   UNL     1       8.492  11.872  -2.892  1.00  0.00     0.074 A 
ATOM     60  C   UNL     1       8.937  11.404  -4.190  1.00  0.00     0.031 C 
ATOM     61  C   UNL     1       8.116  13.147  -2.627  1.00  0.00     0.037 A 
BRANCH  48  62
ATOM     62  C   UNL     1       6.248  14.058   3.207  1.00  0.00     0.057 A 
ATOM     63  C   UNL     1       6.971  14.437   4.347  1.00  0.00     0.134 A 
ATOM     64  C   UNL     1       4.953  14.573   3.067  1.00  0.00     0.134 A 
ATOM     65  F   UNL     1       8.213  13.971   4.551  1.00  0.00    -0.206 F 
ATOM     66  C   UNL     1       6.410  15.251   5.333  1.00  0.00     0.040 A 
ATOM     67  C   UNL     1       4.394  15.417   4.030  1.00  0.00     0.040 A 
ATOM     68  F   UNL     1       4.206  14.260   1.998  1.00  0.00    -0.206 F 
ATOM     69  C   UNL     1       5.118  15.746   5.173  1.00  0.00     0.006 A 
ENDBRANCH  48  62
BRANCH  49  70
ATOM     70  C   UNL     1       9.804   7.375  -3.310  1.00  0.00     0.057 A 
ATOM     71  C   UNL     1      11.118   7.495  -3.777  1.00  0.00     0.134 A 
ATOM     72  C   UNL     1       9.051   6.291  -3.775  1.00  0.00     0.134 A 
ATOM     73  F   UNL     1      11.883   8.523  -3.380  1.00  0.00    -0.206 F 
ATOM     74  C   UNL     1      11.661   6.580  -4.680  1.00  0.00     0.040 A 
ATOM     75  C   UNL     1       9.588   5.355  -4.660  1.00  0.00     0.040 A 
ATOM     76  F   UNL     1       7.788   6.114  -3.358  1.00  0.00    -0.206 F 
ATOM     77  C   UNL     1      10.896   5.502  -5.119  1.00  0.00     0.006 A 
ENDBRANCH  49  70
BRANCH  61  78
ATOM     78  C   UNL     1       8.211  14.140  -3.750  1.00  0.00     0.057 A 
ATOM     79  C   UNL     1       7.331  14.119  -4.838  1.00  0.00     0.134 A 
ATOM     80  C   UNL     1       9.177  15.155  -3.720  1.00  0.00     0.134 A 
ATOM     81  F   UNL     1       6.392  13.165  -4.936  1.00  0.00    -0.206 F 
ATOM     82  C   UNL     1       7.421  15.058  -5.868  1.00  0.00     0.040 A 
ATOM     83  C   UNL     1       9.258  16.117  -4.727  1.00  0.00     0.040 A 
ATOM     84  F   UNL     1      10.047  15.237  -2.702  1.00  0.00    -0.206 F 
ATOM     85  C   UNL     1       8.382  16.066  -5.809  1.00  0.00     0.006 A 
ENDBRANCH  61  78
ENDBRANCH  35  36
ENDBRANCH  27  30
ENDBRANCH  25  26
ENDBRANCH  24  25
ENDBRANCH  23  24
ENDBRANCH  22  23
ENDBRANCH  21  22
ENDBRANCH   1  21
TORSDOF 19
