REMARK SMILES O=C(NCCCCCCNC(=O)[C@H]1CC[C@@H]2CCCC[C@H]2[NH2+]1)c1ccc(-c2c3nc(c(-c4c(F)cccc4F)c4ccc([nH]4)c(-c4c(F)cccc4F)c4nc(c(-c5c(F)cccc5F)c5ccc2[nH]5)C=C4)C=C3)cc1
REMARK SMILES IDX 5 1 4 2 3 3 1 4 2 5 23 7 24 8 76 9 25 10 75 11 26 12 27 13
REMARK SMILES IDX 28 14 69 15 29 16 74 17 68 18 70 19 30 20 73 21 67 22 66 23
REMARK SMILES IDX 31 25 57 26 40 27 56 28 41 29 44 30 55 31 71 32 42 33 43 34
REMARK SMILES IDX 54 36 72 37 45 38 32 39 33 40 38 41 34 42 35 43 37 44 39 45
REMARK SMILES IDX 36 46 58 47 59 48 64 49 60 50 61 51 63 52 65 53 62 54 46 55
REMARK SMILES IDX 47 56 52 57 48 58 49 59 51 60 53 61 50 62 6 63 7 64 8 65
REMARK SMILES IDX 9 66 10 67 11 68 12 70 13 71 14 72 22 73 15 74 21 75 16 78
REMARK SMILES IDX 20 79 17 80 19 81 18 82
REMARK H PARENT 3 6 70 24 44 35 10 69 22 76 22 77
REMARK Flexibility Score: inf
ROOT
ATOM      1  C   UNL     1       5.609   8.389  -3.928  1.00  0.00     0.021 C 
ENDROOT
BRANCH   1   2
ATOM      2  C   UNL     1       4.133   8.210  -3.606  1.00  0.00     0.116 C 
BRANCH   2   3
ATOM      3  N   UNL     1       3.754   8.830  -2.346  1.00  0.00    -0.352 N 
ATOM      4  O   UNL     1       2.611  10.242  -1.001  1.00  0.00    -0.269 OA
ATOM      5  C   UNL     1       2.707   9.682  -2.089  1.00  0.00     0.251 C 
ATOM      6  H   UNL     1       4.324   8.609  -1.574  1.00  0.00     0.163 HD
BRANCH   5   7
ATOM      7  C   UNL     1       1.705   9.943  -3.146  1.00  0.00     0.039 A 
ATOM      8  C   UNL     1       1.186   8.890  -3.900  1.00  0.00     0.014 A 
ATOM      9  C   UNL     1       1.289  11.255  -3.392  1.00  0.00     0.014 A 
ATOM     10  C   UNL     1       0.370   9.161  -4.990  1.00  0.00     0.010 A 
ATOM     11  C   UNL     1       0.390  11.517  -4.432  1.00  0.00     0.010 A 
ATOM     12  C   UNL     1      -0.054  10.474  -5.258  1.00  0.00    -0.014 A 
BRANCH  12  13
ATOM     13  C   UNL     1      -1.023  10.693  -6.362  1.00  0.00     0.031 A 
ATOM     14  C   UNL     1      -0.659  11.480  -7.588  1.00  0.00     0.074 A 
ATOM     15  C   UNL     1      -2.231  10.102  -6.270  1.00  0.00     0.049 A 
ATOM     16  N   UNL     1      -1.366  11.681  -8.673  1.00  0.00    -0.248 NA
ATOM     17  C   UNL     1       0.658  12.134  -7.603  1.00  0.00     0.031 C 
ATOM     18  C   UNL     1      -2.705   9.337  -5.112  1.00  0.00     0.029 A 
ATOM     19  N   UNL     1      -3.262  10.017  -7.168  1.00  0.00    -0.354 N 
ATOM     20  C   UNL     1      -0.587  12.487  -9.494  1.00  0.00     0.074 A 
ATOM     21  C   UNL     1       0.636  12.764  -8.770  1.00  0.00     0.031 C 
ATOM     22  C   UNL     1      -3.903   8.808  -5.396  1.00  0.00     0.029 A 
ATOM     23  C   UNL     1      -4.307   9.242  -6.727  1.00  0.00     0.049 A 
ATOM     24  H   UNL     1      -3.255  10.468  -8.043  1.00  0.00     0.167 HD
ATOM     25  C   UNL     1      -0.865  12.944 -10.739  1.00  0.00     0.037 A 
ATOM     26  C   UNL     1      -5.468   8.918  -7.325  1.00  0.00     0.037 A 
ATOM     27  C   UNL     1      -2.083  12.661 -11.457  1.00  0.00     0.049 A 
ATOM     28  C   UNL     1      -5.741   9.429  -8.707  1.00  0.00     0.074 A 
ATOM     29  C   UNL     1      -2.454  13.075 -12.725  1.00  0.00     0.029 A 
ATOM     30  N   UNL     1      -3.127  11.890 -10.969  1.00  0.00    -0.354 N 
ATOM     31  N   UNL     1      -4.983  10.172  -9.476  1.00  0.00    -0.248 NA
ATOM     32  C   UNL     1      -7.030   9.057  -9.305  1.00  0.00     0.031 C 
ATOM     33  C   UNL     1      -3.735  12.580 -12.992  1.00  0.00     0.029 A 
ATOM     34  C   UNL     1      -4.146  11.823 -11.907  1.00  0.00     0.049 A 
ATOM     35  H   UNL     1      -3.143  11.453 -10.087  1.00  0.00     0.167 HD
ATOM     36  C   UNL     1      -5.702  10.361 -10.646  1.00  0.00     0.074 A 
ATOM     37  C   UNL     1      -6.940   9.620 -10.501  1.00  0.00     0.031 C 
ATOM     38  C   UNL     1      -5.375  11.092 -11.739  1.00  0.00     0.037 A 
BRANCH  25  39
ATOM     39  C   UNL     1       0.165  13.806 -11.411  1.00  0.00     0.057 A 
ATOM     40  C   UNL     1       1.352  13.269 -11.924  1.00  0.00     0.134 A 
ATOM     41  C   UNL     1      -0.060  15.175 -11.601  1.00  0.00     0.134 A 
ATOM     42  F   UNL     1       1.633  11.966 -11.766  1.00  0.00    -0.206 F 
ATOM     43  C   UNL     1       2.285  14.065 -12.592  1.00  0.00     0.040 A 
ATOM     44  C   UNL     1       0.856  15.978 -12.285  1.00  0.00     0.040 A 
ATOM     45  F   UNL     1      -1.179  15.753 -11.140  1.00  0.00    -0.206 F 
ATOM     46  C   UNL     1       2.034  15.423 -12.781  1.00  0.00     0.006 A 
ENDBRANCH  25  39
BRANCH  26  47
ATOM     47  C   UNL     1      -6.453   8.071  -6.609  1.00  0.00     0.057 A 
ATOM     48  C   UNL     1      -6.723   6.761  -7.020  1.00  0.00     0.134 A 
ATOM     49  C   UNL     1      -7.138   8.550  -5.485  1.00  0.00     0.134 A 
ATOM     50  F   UNL     1      -6.109   6.252  -8.098  1.00  0.00    -0.206 F 
ATOM     51  C   UNL     1      -7.650   5.963  -6.349  1.00  0.00     0.040 A 
ATOM     52  C   UNL     1      -8.045   7.754  -4.788  1.00  0.00     0.040 A 
ATOM     53  F   UNL     1      -6.914   9.794  -5.036  1.00  0.00    -0.206 F 
ATOM     54  C   UNL     1      -8.309   6.458  -5.225  1.00  0.00     0.006 A 
ENDBRANCH  26  47
BRANCH  38  55
ATOM     55  C   UNL     1      -6.375  11.115 -12.855  1.00  0.00     0.057 A 
ATOM     56  C   UNL     1      -7.574  11.832 -12.750  1.00  0.00     0.134 A 
ATOM     57  C   UNL     1      -6.141  10.414 -14.043  1.00  0.00     0.134 A 
ATOM     58  F   UNL     1      -7.864  12.511 -11.629  1.00  0.00    -0.206 F 
ATOM     59  C   UNL     1      -8.520  11.825 -13.776  1.00  0.00     0.040 A 
ATOM     60  C   UNL     1      -7.067  10.418 -15.086  1.00  0.00     0.040 A 
ATOM     61  F   UNL     1      -5.009   9.712 -14.208  1.00  0.00    -0.206 F 
ATOM     62  C   UNL     1      -8.265  11.119 -14.950  1.00  0.00     0.006 A 
ENDBRANCH  38  55
ENDBRANCH  12  13
ENDBRANCH   5   7
ENDBRANCH   2   3
ENDBRANCH   1   2
BRANCH   1  63
ATOM     63  C   UNL     1       6.559   7.625  -3.008  1.00  0.00     0.002 C 
BRANCH  63  64
ATOM     64  C   UNL     1       6.346   6.107  -2.959  1.00  0.00     0.002 C 
BRANCH  64  65
ATOM     65  C   UNL     1       6.304   5.403  -4.321  1.00  0.00     0.021 C 
BRANCH  65  66
ATOM     66  C   UNL     1       7.534   5.653  -5.193  1.00  0.00     0.116 C 
BRANCH  66  67
ATOM     67  N   UNL     1       8.721   5.070  -4.599  1.00  0.00    -0.351 N 
ATOM     68  C   UNL     1       9.408   3.946  -4.972  1.00  0.00     0.278 C 
ATOM     69  H   UNL     1       9.084   5.550  -3.819  1.00  0.00     0.163 HD
ATOM     70  O   UNL     1      10.302   3.544  -4.226  1.00  0.00    -0.268 OA
BRANCH  68  71
ATOM     71  C   UNL     1       9.025   3.263  -6.300  1.00  0.00     0.272 C 
ATOM     72  C   UNL     1       9.639   4.042  -7.469  1.00  0.00     0.076 C 
ATOM     73  N   UNL     1       9.489   1.862  -6.331  1.00  0.00    -0.333 N 
ATOM     74  C   UNL     1       9.299   3.387  -8.805  1.00  0.00     0.016 C 
ATOM     75  C   UNL     1       9.043   1.200  -7.558  1.00  0.00     0.186 C 
ATOM     76  H   UNL     1       9.109   1.365  -5.525  1.00  0.00     0.347 HD
ATOM     77  H   UNL     1      10.508   1.851  -6.303  1.00  0.00     0.347 HD
ATOM     78  C   UNL     1       9.665   1.898  -8.785  1.00  0.00     0.048 C 
ATOM     79  C   UNL     1       9.422  -0.285  -7.531  1.00  0.00     0.065 C 
ATOM     80  C   UNL     1       9.231   1.206 -10.081  1.00  0.00     0.010 C 
ATOM     81  C   UNL     1       9.000  -0.979  -8.826  1.00  0.00     0.006 C 
ATOM     82  C   UNL     1       9.575  -0.282 -10.056  1.00  0.00     0.001 C 
ENDBRANCH  68  71
ENDBRANCH  66  67
ENDBRANCH  65  66
ENDBRANCH  64  65
ENDBRANCH  63  64
ENDBRANCH   1  63
TORSDOF 13
