REMARK SMILES O=C(NCCCCCCNC(=O)[C@H]1CN(C(=O)C[C@H]2NC(=O)c3ccccc32)C[C@@H]1c1ccc(F)cc1)c1ccc(-c2c3nc(c(-c4c(F)cccc4F)c4ccc([nH]4)c(-c4c(F)cccc4F)c4nc(c(-c5c(F)cccc5F)c5ccc2[nH]5)C=C4)C=C3)cc1
REMARK SMILES IDX 7 1 6 2 5 3 4 4 3 5 1 6 2 7 38 9 39 10 91 11 40 12 90 13
REMARK SMILES IDX 41 14 42 15 43 16 84 17 44 18 89 19 83 20 85 21 45 22 88 23
REMARK SMILES IDX 82 24 81 25 46 27 72 28 55 29 71 30 56 31 59 32 70 33 86 34
REMARK SMILES IDX 57 35 58 36 69 38 87 39 60 40 47 41 48 42 53 43 49 44 50 45
REMARK SMILES IDX 52 46 54 47 51 48 73 49 74 50 79 51 75 52 76 53 78 54 80 55
REMARK SMILES IDX 77 56 61 57 62 58 67 59 63 60 64 61 66 62 68 63 65 64 8 65
REMARK SMILES IDX 9 66 10 67 11 68 12 70 13 71 14 72 30 73 15 74 29 75 31 76
REMARK SMILES IDX 32 77 37 78 33 79 36 80 34 81 35 82 16 83 17 84 18 85 19 86
REMARK SMILES IDX 20 87 28 88 21 89 23 91 27 92 22 93 24 94 26 95 25 96
REMARK H PARENT 3 8 85 26 59 37 10 69 20 90
REMARK Flexibility Score: inf
ROOT
ATOM      1  C   UNL     1       6.368   6.117  -6.005  1.00  0.00     0.002 C 
ENDROOT
BRANCH   1   2
ATOM      2  C   UNL     1       5.676   4.987  -6.780  1.00  0.00     0.002 C 
BRANCH   2   3
ATOM      3  C   UNL     1       6.613   3.925  -7.359  1.00  0.00     0.021 C 
BRANCH   3   4
ATOM      4  C   UNL     1       7.468   3.221  -6.315  1.00  0.00     0.116 C 
BRANCH   4   5
ATOM      5  N   UNL     1       6.656   2.546  -5.314  1.00  0.00    -0.352 N 
ATOM      6  O   UNL     1       5.591   0.801  -4.357  1.00  0.00    -0.269 OA
ATOM      7  C   UNL     1       6.499   1.203  -5.077  1.00  0.00     0.251 C 
ATOM      8  H   UNL     1       6.143   3.140  -4.719  1.00  0.00     0.163 HD
BRANCH   7   9
ATOM      9  C   UNL     1       7.434   0.246  -5.699  1.00  0.00     0.039 A 
ATOM     10  C   UNL     1       8.798   0.536  -5.736  1.00  0.00     0.014 A 
ATOM     11  C   UNL     1       6.953  -0.950  -6.240  1.00  0.00     0.014 A 
ATOM     12  C   UNL     1       9.654  -0.282  -6.454  1.00  0.00     0.010 A 
ATOM     13  C   UNL     1       7.841  -1.836  -6.858  1.00  0.00     0.010 A 
ATOM     14  C   UNL     1       9.197  -1.498  -6.988  1.00  0.00    -0.014 A 
BRANCH  14  15
ATOM     15  C   UNL     1      10.197  -2.425  -7.576  1.00  0.00     0.031 A 
ATOM     16  C   UNL     1      10.158  -2.816  -9.025  1.00  0.00     0.074 A 
ATOM     17  C   UNL     1      11.197  -2.854  -6.780  1.00  0.00     0.049 A 
ATOM     18  N   UNL     1      11.011  -3.551  -9.694  1.00  0.00    -0.248 NA
ATOM     19  C   UNL     1       9.025  -2.333  -9.830  1.00  0.00     0.031 C 
ATOM     20  C   UNL     1      11.324  -2.544  -5.351  1.00  0.00     0.029 A 
ATOM     21  N   UNL     1      12.316  -3.596  -7.054  1.00  0.00    -0.354 N 
ATOM     22  C   UNL     1      10.518  -3.625 -10.990  1.00  0.00     0.074 A 
ATOM     23  C   UNL     1       9.274  -2.886 -11.011  1.00  0.00     0.031 C 
ATOM     24  C   UNL     1      12.492  -3.017  -4.898  1.00  0.00     0.029 A 
ATOM     25  C   UNL     1      13.156  -3.739  -5.975  1.00  0.00     0.049 A 
ATOM     26  H   UNL     1      12.500  -3.990  -7.937  1.00  0.00     0.167 HD
ATOM     27  C   UNL     1      11.067  -4.244 -12.062  1.00  0.00     0.037 A 
ATOM     28  C   UNL     1      14.327  -4.390  -5.856  1.00  0.00     0.037 A 
ATOM     29  C   UNL     1      12.316  -4.963 -12.033  1.00  0.00     0.049 A 
ATOM     30  C   UNL     1      14.884  -5.095  -7.056  1.00  0.00     0.074 A 
ATOM     31  C   UNL     1      12.963  -5.601 -13.077  1.00  0.00     0.029 A 
ATOM     32  N   UNL     1      13.107  -5.140 -10.907  1.00  0.00    -0.354 N 
ATOM     33  N   UNL     1      14.418  -5.132  -8.281  1.00  0.00    -0.248 NA
ATOM     34  C   UNL     1      16.124  -5.857  -6.858  1.00  0.00     0.031 C 
ATOM     35  C   UNL     1      14.114  -6.212 -12.573  1.00  0.00     0.029 A 
ATOM     36  C   UNL     1      14.220  -5.900 -11.228  1.00  0.00     0.049 A 
ATOM     37  H   UNL     1      12.907  -4.779 -10.013  1.00  0.00     0.167 HD
ATOM     38  C   UNL     1      15.314  -5.907  -9.003  1.00  0.00     0.074 A 
ATOM     39  C   UNL     1      16.367  -6.293  -8.086  1.00  0.00     0.031 C 
ATOM     40  C   UNL     1      15.262  -6.275 -10.306  1.00  0.00     0.037 A 
BRANCH  27  41
ATOM     41  C   UNL     1      10.339  -4.181 -13.375  1.00  0.00     0.057 A 
ATOM     42  C   UNL     1       9.781  -5.337 -13.937  1.00  0.00     0.134 A 
ATOM     43  C   UNL     1      10.306  -3.010 -14.142  1.00  0.00     0.134 A 
ATOM     44  F   UNL     1       9.786  -6.495 -13.259  1.00  0.00    -0.206 F 
ATOM     45  C   UNL     1       9.245  -5.338 -15.226  1.00  0.00     0.040 A 
ATOM     46  C   UNL     1       9.751  -2.993 -15.423  1.00  0.00     0.040 A 
ATOM     47  F   UNL     1      10.815  -1.866 -13.659  1.00  0.00    -0.206 F 
ATOM     48  C   UNL     1       9.233  -4.163 -15.975  1.00  0.00     0.006 A 
ENDBRANCH  27  41
BRANCH  28  49
ATOM     49  C   UNL     1      15.039  -4.407  -4.552  1.00  0.00     0.057 A 
ATOM     50  C   UNL     1      14.491  -5.040  -3.429  1.00  0.00     0.134 A 
ATOM     51  C   UNL     1      16.281  -3.782  -4.395  1.00  0.00     0.134 A 
ATOM     52  F   UNL     1      13.299  -5.649  -3.508  1.00  0.00    -0.206 F 
ATOM     53  C   UNL     1      15.141  -5.035  -2.195  1.00  0.00     0.040 A 
ATOM     54  C   UNL     1      16.960  -3.800  -3.176  1.00  0.00     0.040 A 
ATOM     55  F   UNL     1      16.865  -3.170  -5.436  1.00  0.00    -0.206 F 
ATOM     56  C   UNL     1      16.385  -4.422  -2.069  1.00  0.00     0.006 A 
ENDBRANCH  28  49
BRANCH  40  57
ATOM     57  C   UNL     1      16.387  -7.122 -10.825  1.00  0.00     0.057 A 
ATOM     58  C   UNL     1      17.297  -6.608 -11.758  1.00  0.00     0.134 A 
ATOM     59  C   UNL     1      16.544  -8.459 -10.438  1.00  0.00     0.134 A 
ATOM     60  F   UNL     1      17.198  -5.338 -12.179  1.00  0.00    -0.206 F 
ATOM     61  C   UNL     1      18.317  -7.396 -12.293  1.00  0.00     0.040 A 
ATOM     62  C   UNL     1      17.580  -9.247 -10.941  1.00  0.00     0.040 A 
ATOM     63  F   UNL     1      15.714  -9.008  -9.538  1.00  0.00    -0.206 F 
ATOM     64  C   UNL     1      18.464  -8.718 -11.879  1.00  0.00     0.006 A 
ENDBRANCH  40  57
ENDBRANCH  14  15
ENDBRANCH   7   9
ENDBRANCH   4   5
ENDBRANCH   3   4
ENDBRANCH   2   3
ENDBRANCH   1   2
BRANCH   1  65
ATOM     65  C   UNL     1       7.533   6.779  -6.742  1.00  0.00     0.021 C 
BRANCH  65  66
ATOM     66  C   UNL     1       7.163   7.305  -8.127  1.00  0.00     0.116 C 
BRANCH  66  67
ATOM     67  N   UNL     1       6.813   8.707  -8.126  1.00  0.00    -0.356 N 
ATOM     68  C   UNL     1       7.319   9.786  -8.769  1.00  0.00     0.225 C 
ATOM     69  H   UNL     1       6.052   8.921  -7.540  1.00  0.00     0.163 HD
ATOM     70  O   UNL     1       6.601  10.794  -8.768  1.00  0.00    -0.275 OA
BRANCH  68  71
ATOM     71  C   UNL     1       8.688   9.873  -9.435  1.00  0.00     0.107 C 
ATOM     72  C   UNL     1       9.743   8.879  -9.014  1.00  0.00     0.133 C 
ATOM     73  C   UNL     1       8.697   9.769 -10.976  1.00  0.00     0.053 C 
ATOM     74  N   UNL     1       9.752   7.836 -10.020  1.00  0.00    -0.341 N 
ATOM     75  C   UNL     1       8.991   8.264 -11.190  1.00  0.00     0.128 C 
BRANCH  73  76
ATOM     76  C   UNL     1       9.741  10.628 -11.711  1.00  0.00    -0.042 A 
ATOM     77  C   UNL     1       9.831  10.527 -13.114  1.00  0.00     0.007 A 
ATOM     78  C   UNL     1      10.629  11.512 -11.068  1.00  0.00     0.007 A 
ATOM     79  C   UNL     1      10.798  11.237 -13.834  1.00  0.00     0.039 A 
ATOM     80  C   UNL     1      11.592  12.226 -11.788  1.00  0.00     0.039 A 
ATOM     81  C   UNL     1      11.674  12.076 -13.162  1.00  0.00     0.123 A 
ATOM     82  F   UNL     1      12.606  12.752 -13.846  1.00  0.00    -0.207 F 
ENDBRANCH  73  76
BRANCH  74  83
ATOM     83  C   UNL     1      10.259   6.559  -9.920  1.00  0.00     0.225 C 
ATOM     84  O   UNL     1      10.128   5.748 -10.842  1.00  0.00    -0.275 OA
BRANCH  83  85
ATOM     85  C   UNL     1      10.877   6.092  -8.603  1.00  0.00     0.130 C 
BRANCH  85  86
ATOM     86  C   UNL     1      12.334   6.468  -8.338  1.00  0.00     0.123 C 
ATOM     87  N   UNL     1      13.150   6.425  -9.526  1.00  0.00    -0.345 N 
ATOM     88  C   UNL     1      12.519   7.883  -7.870  1.00  0.00    -0.012 A 
ATOM     89  C   UNL     1      13.657   7.658  -9.880  1.00  0.00     0.252 C 
ATOM     90  H   UNL     1      13.328   5.600 -10.033  1.00  0.00     0.164 HD
ATOM     91  C   UNL     1      13.242   8.596  -8.828  1.00  0.00     0.045 A 
ATOM     92  C   UNL     1      12.008   8.530  -6.752  1.00  0.00     0.007 A 
ATOM     93  O   UNL     1      14.314   7.928 -10.859  1.00  0.00    -0.269 OA
ATOM     94  C   UNL     1      13.403   9.967  -8.768  1.00  0.00     0.014 A 
ATOM     95  C   UNL     1      12.150   9.921  -6.676  1.00  0.00     0.000 A 
ATOM     96  C   UNL     1      12.827  10.635  -7.684  1.00  0.00     0.001 A 
ENDBRANCH  85  86
ENDBRANCH  83  85
ENDBRANCH  74  83
ENDBRANCH  68  71
ENDBRANCH  66  67
ENDBRANCH  65  66
ENDBRANCH   1  65
TORSDOF 17
