REMARK SMILES C[NH+](C)CCc1nc(Nc2ccc(O)c(C(=O)NCCCCCCNC(=O)c3ccc(-c4c5nc(c(-c6c(F)cccc6F)c6ccc([nH]6)c(-c6c(F)cccc6F)c6nc(c(-c7c(F)cccc7F)c7ccc4[nH]7)C=C6)C=C5)cc3)c2)c2ccccc2n1
REMARK SMILES IDX 20 1 19 2 18 3 16 4 17 5 15 7 10 8 11 9 82 10 12 11 13 12
REMARK SMILES IDX 9 13 8 15 6 16 7 17 89 18 88 19 83 20 87 21 84 22 86 23
REMARK SMILES IDX 85 24 5 25 4 26 2 27 1 28 3 29 14 31 21 33 22 34 23 35 24 36
REMARK SMILES IDX 25 37 26 38 27 40 28 41 29 42 81 43 30 44 80 45 31 46 32 47
REMARK SMILES IDX 33 48 74 49 34 50 79 51 73 52 75 53 35 54 78 55 72 56 71 57
REMARK SMILES IDX 36 59 62 60 45 61 61 62 46 63 49 64 60 65 76 66 47 67 48 68
REMARK SMILES IDX 59 70 77 71 50 72 37 73 38 74 43 75 39 76 40 77 42 78 44 79
REMARK SMILES IDX 41 80 63 81 64 82 69 83 65 84 66 85 68 86 70 87 67 88 51 89
REMARK SMILES IDX 52 90 57 91 53 92 54 93 56 94 58 95 55 96
REMARK H PARENT 18 6 9 14 2 30 14 32 25 39 75 58 49 69
REMARK Flexibility Score: inf
ROOT
ATOM      1  C   UNL     1       7.997   4.753   7.411  1.00  0.00     0.021 C 
ENDROOT
BRANCH   1   2
ATOM      2  C   UNL     1       7.545   4.395   5.991  1.00  0.00     0.116 C 
BRANCH   2   3
ATOM      3  N   UNL     1       7.879   3.015   5.722  1.00  0.00    -0.352 N 
ATOM      4  C   UNL     1       7.158   1.859   5.854  1.00  0.00     0.255 C 
ATOM      5  O   UNL     1       7.782   0.803   5.714  1.00  0.00    -0.269 OA
ATOM      6  H   UNL     1       8.792   2.881   5.380  1.00  0.00     0.163 HD
BRANCH   4   7
ATOM      7  C   UNL     1       5.678   1.790   6.022  1.00  0.00     0.083 A 
ATOM      8  C   UNL     1       3.708   0.484   5.338  1.00  0.00     0.041 A 
ATOM      9  C   UNL     1       2.894   1.379   6.030  1.00  0.00     0.030 A 
ATOM     10  C   UNL     1       5.087   0.713   5.330  1.00  0.00     0.043 A 
ATOM     11  C   UNL     1       3.454   2.426   6.763  1.00  0.00     0.049 A 
ATOM     12  C   UNL     1       4.842   2.614   6.783  1.00  0.00     0.128 A 
BRANCH   8  13
ATOM     13  N   UNL     1       3.188  -0.595   4.607  1.00  0.00    -0.340 N 
ATOM     14  H   UNL     1       3.672  -1.448   4.689  1.00  0.00     0.168 HD
BRANCH  13  15
ATOM     15  C   UNL     1       2.055  -0.601   3.770  1.00  0.00     0.142 A 
ATOM     16  C   UNL     1       0.558   0.575   2.487  1.00  0.00     0.137 A 
ATOM     17  N   UNL     1       1.606   0.585   3.318  1.00  0.00    -0.215 NA
ATOM     18  N   UNL     1      -0.111  -0.528   2.123  1.00  0.00    -0.233 NA
ATOM     19  C   UNL     1       0.351  -1.702   2.555  1.00  0.00     0.076 A 
ATOM     20  C   UNL     1       1.456  -1.818   3.406  1.00  0.00     0.043 A 
ATOM     21  C   UNL     1      -0.273  -2.858   2.107  1.00  0.00     0.029 A 
ATOM     22  C   UNL     1       1.884  -3.109   3.816  1.00  0.00     0.014 A 
ATOM     23  C   UNL     1       0.168  -4.129   2.482  1.00  0.00     0.002 A 
ATOM     24  C   UNL     1       1.246  -4.255   3.346  1.00  0.00     0.001 A 
BRANCH  16  25
ATOM     25  C   UNL     1       0.158   1.880   1.868  1.00  0.00     0.138 C 
BRANCH  25  26
ATOM     26  C   UNL     1       0.851   2.159   0.520  1.00  0.00     0.269 C 
BRANCH  26  27
ATOM     27  N   UNL     1       0.440   1.445  -0.703  1.00  0.00    -0.339 N 
ATOM     28  C   UNL     1       1.129   0.172  -0.892  1.00  0.00     0.332 C 
ATOM     29  C   UNL     1      -1.004   1.283  -0.830  1.00  0.00     0.332 C 
ATOM     30  H   UNL     1       0.736   2.060  -1.461  1.00  0.00     0.347 HD
ENDBRANCH  26  27
ENDBRANCH  25  26
ENDBRANCH  16  25
ENDBRANCH  13  15
ENDBRANCH   8  13
BRANCH  12  31
ATOM     31  O   UNL     1       5.328   3.583   7.611  1.00  0.00    -0.507 OA
ATOM     32  H   UNL     1       4.737   4.116   8.106  1.00  0.00     0.293 HD
ENDBRANCH  12  31
ENDBRANCH   4   7
ENDBRANCH   2   3
ENDBRANCH   1   2
BRANCH   1  33
ATOM     33  C   UNL     1       9.492   5.080   7.507  1.00  0.00     0.002 C 
BRANCH  33  34
ATOM     34  C   UNL     1       9.899   6.396   6.837  1.00  0.00     0.002 C 
BRANCH  34  35
ATOM     35  C   UNL     1       9.143   7.634   7.329  1.00  0.00     0.021 C 
BRANCH  35  36
ATOM     36  C   UNL     1       9.259   7.894   8.829  1.00  0.00     0.116 C 
BRANCH  36  37
ATOM     37  N   UNL     1      10.629   8.185   9.220  1.00  0.00    -0.352 N 
ATOM     38  C   UNL     1      11.138   9.290   9.848  1.00  0.00     0.251 C 
ATOM     39  H   UNL     1      11.286   7.486   9.001  1.00  0.00     0.163 HD
ATOM     40  O   UNL     1      12.355   9.471   9.888  1.00  0.00    -0.269 OA
BRANCH  38  41
ATOM     41  C   UNL     1      10.232  10.276  10.473  1.00  0.00     0.039 A 
ATOM     42  C   UNL     1      10.492  11.637  10.296  1.00  0.00     0.014 A 
ATOM     43  C   UNL     1       9.152   9.863  11.259  1.00  0.00     0.014 A 
ATOM     44  C   UNL     1       9.642  12.584  10.868  1.00  0.00     0.010 A 
ATOM     45  C   UNL     1       8.268  10.807  11.777  1.00  0.00     0.010 A 
ATOM     46  C   UNL     1       8.509  12.176  11.592  1.00  0.00    -0.014 A 
BRANCH  46  47
ATOM     47  C   UNL     1       7.566  13.177  12.149  1.00  0.00     0.031 A 
ATOM     48  C   UNL     1       7.417  13.344  13.634  1.00  0.00     0.074 A 
ATOM     49  C   UNL     1       6.809  13.908  11.309  1.00  0.00     0.049 A 
ATOM     50  N   UNL     1       6.646  14.166  14.300  1.00  0.00    -0.248 NA
ATOM     51  C   UNL     1       8.222  12.454  14.485  1.00  0.00     0.031 C 
ATOM     52  C   UNL     1       6.821  13.797   9.849  1.00  0.00     0.029 A 
ATOM     53  N   UNL     1       5.884  14.887  11.562  1.00  0.00    -0.354 N 
ATOM     54  C   UNL     1       6.865  13.888  15.642  1.00  0.00     0.074 A 
ATOM     55  C   UNL     1       7.801  12.786  15.697  1.00  0.00     0.031 C 
ATOM     56  C   UNL     1       5.970  14.699   9.335  1.00  0.00     0.029 A 
ATOM     57  C   UNL     1       5.334  15.430  10.426  1.00  0.00     0.049 A 
ATOM     58  H   UNL     1       5.637  15.175  12.471  1.00  0.00     0.167 HD
ATOM     59  C   UNL     1       6.351  14.509  16.731  1.00  0.00     0.037 A 
ATOM     60  C   UNL     1       4.426  16.412  10.282  1.00  0.00     0.037 A 
ATOM     61  C   UNL     1       5.436  15.619  16.674  1.00  0.00     0.049 A 
ATOM     62  C   UNL     1       3.878  17.093  11.503  1.00  0.00     0.074 A 
ATOM     63  C   UNL     1       4.912  16.361  17.718  1.00  0.00     0.029 A 
ATOM     64  N   UNL     1       4.903  16.143  15.506  1.00  0.00    -0.354 N 
ATOM     65  N   UNL     1       4.151  16.870  12.765  1.00  0.00    -0.248 NA
ATOM     66  C   UNL     1       2.900  18.166  11.277  1.00  0.00     0.031 C 
ATOM     67  C   UNL     1       4.032  17.309  17.183  1.00  0.00     0.029 A 
ATOM     68  C   UNL     1       4.038  17.183  15.803  1.00  0.00     0.049 A 
ATOM     69  H   UNL     1       5.110  15.822  14.598  1.00  0.00     0.167 HD
ATOM     70  C   UNL     1       3.394  17.785  13.485  1.00  0.00     0.074 A 
ATOM     71  C   UNL     1       2.665  18.577  12.515  1.00  0.00     0.031 C 
ATOM     72  C   UNL     1       3.310  17.953  14.827  1.00  0.00     0.037 A 
BRANCH  59  73
ATOM     73  C   UNL     1       6.775  13.997  18.077  1.00  0.00     0.057 A 
ATOM     74  C   UNL     1       8.075  14.188  18.564  1.00  0.00     0.134 A 
ATOM     75  C   UNL     1       5.870  13.317  18.903  1.00  0.00     0.134 A 
ATOM     76  F   UNL     1       8.994  14.820  17.818  1.00  0.00    -0.206 F 
ATOM     77  C   UNL     1       8.469  13.694  19.809  1.00  0.00     0.040 A 
ATOM     78  C   UNL     1       6.246  12.841  20.160  1.00  0.00     0.040 A 
ATOM     79  F   UNL     1       4.608  13.105  18.501  1.00  0.00    -0.206 F 
ATOM     80  C   UNL     1       7.551  13.022  20.613  1.00  0.00     0.006 A 
ENDBRANCH  59  73
BRANCH  60  81
ATOM     81  C   UNL     1       4.015  16.839   8.922  1.00  0.00     0.057 A 
ATOM     82  C   UNL     1       4.448  18.060   8.393  1.00  0.00     0.134 A 
ATOM     83  C   UNL     1       3.201  16.035   8.116  1.00  0.00     0.134 A 
ATOM     84  F   UNL     1       5.216  18.878   9.126  1.00  0.00    -0.206 F 
ATOM     85  C   UNL     1       4.077  18.473   7.113  1.00  0.00     0.040 A 
ATOM     86  C   UNL     1       2.840  16.426   6.826  1.00  0.00     0.040 A 
ATOM     87  F   UNL     1       2.762  14.850   8.565  1.00  0.00    -0.206 F 
ATOM     88  C   UNL     1       3.275  17.651   6.323  1.00  0.00     0.006 A 
ENDBRANCH  60  81
BRANCH  72  89
ATOM     89  C   UNL     1       2.403  19.042  15.319  1.00  0.00     0.057 A 
ATOM     90  C   UNL     1       1.009  18.916  15.270  1.00  0.00     0.134 A 
ATOM     91  C   UNL     1       2.929  20.222  15.860  1.00  0.00     0.134 A 
ATOM     92  F   UNL     1       0.444  17.817  14.749  1.00  0.00    -0.206 F 
ATOM     93  C   UNL     1       0.169  19.936  15.720  1.00  0.00     0.040 A 
ATOM     94  C   UNL     1       2.100  21.238  16.335  1.00  0.00     0.040 A 
ATOM     95  F   UNL     1       4.256  20.402  15.941  1.00  0.00    -0.206 F 
ATOM     96  C   UNL     1       0.715  21.099  16.259  1.00  0.00     0.006 A 
ENDBRANCH  72  89
ENDBRANCH  46  47
ENDBRANCH  38  41
ENDBRANCH  36  37
ENDBRANCH  35  36
ENDBRANCH  34  35
ENDBRANCH  33  34
ENDBRANCH   1  33
TORSDOF 19
