REMARK SMILES O=C(NCCCCCCNC(=O)C1(Cc2nc(-c3ncc[nH]3)no2)CCCCC1)c1ccc(-c2c3nc(c(-c4c(F)cccc4F)c4ccc([nH]4)c(-c4c(F)cccc4F)c4nc(c(-c5c(F)cccc5F)c5ccc2[nH]5)C=C4)C=C3)cc1
REMARK SMILES IDX 7 1 6 2 5 3 4 4 3 5 1 6 2 7 30 9 31 10 83 11 32 12 82 13
REMARK SMILES IDX 33 14 34 15 35 16 76 17 36 18 81 19 75 20 77 21 37 22 80 23
REMARK SMILES IDX 74 24 73 25 38 27 64 28 47 29 63 30 48 31 51 32 62 33 78 34
REMARK SMILES IDX 49 35 50 36 61 38 79 39 52 40 39 41 40 42 45 43 41 44 42 45
REMARK SMILES IDX 44 46 46 47 43 48 65 49 66 50 71 51 67 52 68 53 70 54 72 55
REMARK SMILES IDX 69 56 53 57 54 58 59 59 55 60 56 61 58 62 60 63 57 64 8 65
REMARK SMILES IDX 9 66 10 67 11 68 12 70 13 71 25 72 29 73 26 74 28 75 27 76
REMARK SMILES IDX 14 77 15 78 16 79 24 80 17 81 23 82 18 83 19 84 22 85 20 86
REMARK SMILES IDX 21 87
REMARK H PARENT 3 8 77 26 51 37 10 69 22 88
REMARK Flexibility Score: inf
ROOT
ATOM      1  C   UNL     1       4.689  -3.203   2.960  1.00  0.00     0.002 C 
ENDROOT
BRANCH   1   2
ATOM      2  C   UNL     1       4.013  -1.880   3.335  1.00  0.00     0.002 C 
BRANCH   2   3
ATOM      3  C   UNL     1       4.485  -0.668   2.527  1.00  0.00     0.021 C 
BRANCH   3   4
ATOM      4  C   UNL     1       4.336  -0.829   1.018  1.00  0.00     0.116 C 
BRANCH   4   5
ATOM      5  N   UNL     1       2.940  -0.955   0.633  1.00  0.00    -0.352 N 
ATOM      6  O   UNL     1       0.954  -0.228  -0.159  1.00  0.00    -0.269 OA
ATOM      7  C   UNL     1       2.182  -0.115  -0.134  1.00  0.00     0.251 C 
ATOM      8  H   UNL     1       2.477  -1.756   0.970  1.00  0.00     0.163 HD
BRANCH   7   9
ATOM      9  C   UNL     1       2.837   0.938  -0.932  1.00  0.00     0.039 A 
ATOM     10  C   UNL     1       3.965   0.644  -1.706  1.00  0.00     0.014 A 
ATOM     11  C   UNL     1       2.298   2.226  -0.928  1.00  0.00     0.014 A 
ATOM     12  C   UNL     1       4.614   1.661  -2.398  1.00  0.00     0.010 A 
ATOM     13  C   UNL     1       2.910   3.229  -1.677  1.00  0.00     0.010 A 
ATOM     14  C   UNL     1       4.081   2.958  -2.404  1.00  0.00    -0.014 A 
BRANCH  14  15
ATOM     15  C   UNL     1       4.712   4.023  -3.219  1.00  0.00     0.031 A 
ATOM     16  C   UNL     1       5.322   5.226  -2.563  1.00  0.00     0.074 A 
ATOM     17  C   UNL     1       4.682   3.921  -4.560  1.00  0.00     0.049 A 
ATOM     18  N   UNL     1       5.811   6.307  -3.114  1.00  0.00    -0.248 NA
ATOM     19  C   UNL     1       5.379   5.217  -1.094  1.00  0.00     0.031 C 
ATOM     20  C   UNL     1       4.114   2.797  -5.306  1.00  0.00     0.029 A 
ATOM     21  N   UNL     1       5.120   4.782  -5.533  1.00  0.00    -0.354 N 
ATOM     22  C   UNL     1       6.209   7.120  -2.061  1.00  0.00     0.074 A 
ATOM     23  C   UNL     1       5.885   6.415  -0.839  1.00  0.00     0.031 C 
ATOM     24  C   UNL     1       4.236   3.036  -6.620  1.00  0.00     0.029 A 
ATOM     25  C   UNL     1       4.833   4.354  -6.806  1.00  0.00     0.049 A 
ATOM     26  H   UNL     1       5.593   5.623  -5.338  1.00  0.00     0.167 HD
ATOM     27  C   UNL     1       6.793   8.342  -2.115  1.00  0.00     0.037 A 
ATOM     28  C   UNL     1       4.994   4.970  -7.991  1.00  0.00     0.037 A 
ATOM     29  C   UNL     1       7.109   9.031  -3.339  1.00  0.00     0.049 A 
ATOM     30  C   UNL     1       5.601   6.341  -8.027  1.00  0.00     0.074 A 
ATOM     31  C   UNL     1       7.737  10.254  -3.504  1.00  0.00     0.029 A 
ATOM     32  N   UNL     1       6.808   8.563  -4.611  1.00  0.00    -0.354 N 
ATOM     33  N   UNL     1       6.010   7.086  -7.028  1.00  0.00    -0.248 NA
ATOM     34  C   UNL     1       5.772   6.958  -9.348  1.00  0.00     0.031 C 
ATOM     35  C   UNL     1       7.765  10.550  -4.871  1.00  0.00     0.029 A 
ATOM     36  C   UNL     1       7.211   9.485  -5.563  1.00  0.00     0.049 A 
ATOM     37  H   UNL     1       6.372   7.702  -4.807  1.00  0.00     0.167 HD
ATOM     38  C   UNL     1       6.512   8.247  -7.600  1.00  0.00     0.074 A 
ATOM     39  C   UNL     1       6.357   8.107  -9.034  1.00  0.00     0.031 C 
ATOM     40  C   UNL     1       7.059   9.326  -6.989  1.00  0.00     0.037 A 
BRANCH  27  41
ATOM     41  C   UNL     1       7.088   9.023  -0.809  1.00  0.00     0.057 A 
ATOM     42  C   UNL     1       8.080   8.561   0.067  1.00  0.00     0.134 A 
ATOM     43  C   UNL     1       6.375  10.167  -0.426  1.00  0.00     0.134 A 
ATOM     44  F   UNL     1       8.795   7.465  -0.232  1.00  0.00    -0.206 F 
ATOM     45  C   UNL     1       8.325   9.188   1.290  1.00  0.00     0.040 A 
ATOM     46  C   UNL     1       6.631  10.820   0.781  1.00  0.00     0.040 A 
ATOM     47  F   UNL     1       5.418  10.671  -1.220  1.00  0.00    -0.206 F 
ATOM     48  C   UNL     1       7.601  10.324   1.649  1.00  0.00     0.006 A 
ENDBRANCH  27  41
BRANCH  28  49
ATOM     49  C   UNL     1       4.554   4.282  -9.229  1.00  0.00     0.057 A 
ATOM     50  C   UNL     1       5.483   3.760 -10.134  1.00  0.00     0.134 A 
ATOM     51  C   UNL     1       3.196   4.079  -9.504  1.00  0.00     0.134 A 
ATOM     52  F   UNL     1       6.797   3.934  -9.930  1.00  0.00    -0.206 F 
ATOM     53  C   UNL     1       5.077   3.060 -11.272  1.00  0.00     0.040 A 
ATOM     54  C   UNL     1       2.777   3.360 -10.623  1.00  0.00     0.040 A 
ATOM     55  F   UNL     1       2.258   4.545  -8.666  1.00  0.00    -0.206 F 
ATOM     56  C   UNL     1       3.720   2.850 -11.513  1.00  0.00     0.006 A 
ENDBRANCH  28  49
BRANCH  40  57
ATOM     57  C   UNL     1       7.581  10.426  -7.866  1.00  0.00     0.057 A 
ATOM     58  C   UNL     1       6.728  11.315  -8.530  1.00  0.00     0.134 A 
ATOM     59  C   UNL     1       8.961  10.638  -7.987  1.00  0.00     0.134 A 
ATOM     60  F   UNL     1       5.397  11.158  -8.466  1.00  0.00    -0.206 F 
ATOM     61  C   UNL     1       7.230  12.374  -9.289  1.00  0.00     0.040 A 
ATOM     62  C   UNL     1       9.473  11.707  -8.722  1.00  0.00     0.040 A 
ATOM     63  F   UNL     1       9.831   9.824  -7.370  1.00  0.00    -0.206 F 
ATOM     64  C   UNL     1       8.606  12.578  -9.377  1.00  0.00     0.006 A 
ENDBRANCH  40  57
ENDBRANCH  14  15
ENDBRANCH   7   9
ENDBRANCH   4   5
ENDBRANCH   3   4
ENDBRANCH   2   3
ENDBRANCH   1   2
BRANCH   1  65
ATOM     65  C   UNL     1       6.219  -3.157   2.952  1.00  0.00     0.021 C 
BRANCH  65  66
ATOM     66  C   UNL     1       6.832  -2.809   4.306  1.00  0.00     0.116 C 
BRANCH  66  67
ATOM     67  N   UNL     1       6.701  -3.906   5.243  1.00  0.00    -0.356 N 
ATOM     68  C   UNL     1       7.594  -4.779   5.778  1.00  0.00     0.226 C 
ATOM     69  H   UNL     1       5.779  -4.048   5.556  1.00  0.00     0.163 HD
ATOM     70  O   UNL     1       7.120  -5.672   6.487  1.00  0.00    -0.274 OA
BRANCH  68  71
ATOM     71  C   UNL     1       9.123  -4.649   5.570  1.00  0.00     0.058 C 
ATOM     72  C   UNL     1       9.586  -3.304   6.194  1.00  0.00     0.017 C 
ATOM     73  C   UNL     1       9.816  -5.781   6.398  1.00  0.00     0.017 C 
ATOM     74  C   UNL     1      11.103  -3.147   6.277  1.00  0.00     0.001 C 
ATOM     75  C   UNL     1      11.337  -5.655   6.459  1.00  0.00     0.001 C 
ATOM     76  C   UNL     1      11.758  -4.303   7.020  1.00  0.00     0.000 C 
BRANCH  71  77
ATOM     77  C   UNL     1       9.507  -4.777   4.069  1.00  0.00     0.117 C 
BRANCH  77  78
ATOM     78  C   UNL     1       8.998  -6.030   3.450  1.00  0.00     0.228 A 
ATOM     79  N   UNL     1       7.811  -6.292   2.962  1.00  0.00    -0.188 NA
ATOM     80  O   UNL     1       9.841  -7.102   3.432  1.00  0.00    -0.339 OA
ATOM     81  C   UNL     1       7.887  -7.640   2.718  1.00  0.00     0.238 A 
ATOM     82  N   UNL     1       9.094  -8.181   2.956  1.00  0.00    -0.054 NA
BRANCH  81  83
ATOM     83  C   UNL     1       6.723  -8.467   2.284  1.00  0.00     0.179 A 
ATOM     84  N   UNL     1       5.524  -8.029   1.948  1.00  0.00    -0.234 NA
ATOM     85  N   UNL     1       6.768  -9.838   2.227  1.00  0.00    -0.342 N 
ATOM     86  C   UNL     1       4.780  -9.152   1.685  1.00  0.00     0.131 A 
ATOM     87  C   UNL     1       5.529 -10.289   1.868  1.00  0.00     0.104 A 
ATOM     88  H   UNL     1       7.556 -10.399   2.412  1.00  0.00     0.168 HD
ENDBRANCH  81  83
ENDBRANCH  77  78
ENDBRANCH  71  77
ENDBRANCH  68  71
ENDBRANCH  66  67
ENDBRANCH  65  66
ENDBRANCH   1  65
TORSDOF 16
