REMARK SMILES O=C(COc1ccc(/C=C2\SC(=O)N(Cc3cc4c(cc3Cl)OCO4)C2=O)cc1)NCCCCCCNC(=O)c1ccc(-c2c3nc(c(-c4c(F)cccc4F)c4ccc([nH]4)c(-c4c(F)cccc4F)c4nc(c(-c5c(F)cccc5F)c5ccc2[nH]5)C=C4)C=C3)cc1
REMARK SMILES IDX 32 1 31 2 30 3 1 4 2 5 3 7 4 8 5 9 6 10 29 11 7 12 28 13
REMARK SMILES IDX 8 14 9 15 10 16 11 17 26 18 12 19 14 20 27 21 13 22 15 23
REMARK SMILES IDX 16 24 17 25 21 26 18 27 20 28 22 29 19 30 25 31 23 32 24 33
REMARK SMILES IDX 33 34 34 35 35 36 36 37 37 38 38 39 39 41 40 42 41 43 93 44
REMARK SMILES IDX 42 45 92 46 43 47 44 48 45 49 86 50 46 51 91 52 85 53 87 54
REMARK SMILES IDX 47 55 90 56 84 57 83 58 48 60 74 61 57 62 73 63 58 64 61 65
REMARK SMILES IDX 72 66 88 67 59 68 60 69 71 71 89 72 62 73 49 74 50 75 55 76
REMARK SMILES IDX 51 77 52 78 54 79 56 80 53 81 75 82 76 83 81 84 77 85 78 86
REMARK SMILES IDX 80 87 82 88 79 89 63 90 64 91 69 92 65 93 66 94 68 95 70 96
REMARK SMILES IDX 67 97
REMARK H PARENT 30 6 37 40 87 59 61 70
REMARK Flexibility Score: inf
ROOT
ATOM      1  C   UNL     1       2.880  -2.798  -2.076  1.00  0.00     0.021 C 
ENDROOT
BRANCH   1   2
ATOM      2  C   UNL     1       2.294  -2.164  -0.822  1.00  0.00     0.116 C 
BRANCH   2   3
ATOM      3  N   UNL     1       2.951  -0.927  -0.461  1.00  0.00    -0.353 N 
ATOM      4  O   UNL     1       1.320   0.481  -1.259  1.00  0.00    -0.271 OA
ATOM      5  C   UNL     1       2.344   0.303  -0.606  1.00  0.00     0.257 C 
ATOM      6  H   UNL     1       3.865  -0.965  -0.098  1.00  0.00     0.163 HD
BRANCH   5   7
ATOM      7  C   UNL     1       3.024   1.437   0.177  1.00  0.00     0.329 C 
BRANCH   7   8
ATOM      8  O   UNL     1       3.889   1.062   1.252  1.00  0.00    -0.484 OA
BRANCH   8   9
ATOM      9  C   UNL     1       3.257   0.724   2.420  1.00  0.00     0.120 A 
ATOM     10  C   UNL     1       3.835   1.175   3.611  1.00  0.00     0.047 A 
ATOM     11  C   UNL     1       2.137  -0.101   2.476  1.00  0.00     0.047 A 
ATOM     12  C   UNL     1       3.274   0.829   4.850  1.00  0.00     0.012 A 
ATOM     13  C   UNL     1       1.596  -0.469   3.697  1.00  0.00     0.012 A 
ATOM     14  C   UNL     1       2.151   0.003   4.885  1.00  0.00    -0.024 A 
BRANCH  14  15
ATOM     15  C   UNL     1       1.422  -0.373   6.085  1.00  0.00     0.029 C 
ATOM     16  C   UNL     1       1.568  -1.520   6.752  1.00  0.00     0.083 C 
ATOM     17  S   UNL     1       2.811  -2.696   6.717  1.00  0.00    -0.022 SA
ATOM     18  C   UNL     1       0.523  -1.935   7.707  1.00  0.00     0.268 C 
ATOM     19  C   UNL     1       2.192  -3.466   8.185  1.00  0.00     0.293 C 
ATOM     20  N   UNL     1       1.052  -2.830   8.593  1.00  0.00    -0.264 N 
ATOM     21  O   UNL     1      -0.645  -1.582   7.630  1.00  0.00    -0.268 OA
ATOM     22  O   UNL     1       2.717  -4.440   8.693  1.00  0.00    -0.261 OA
BRANCH  20  23
ATOM     23  C   UNL     1       0.329  -3.189   9.791  1.00  0.00     0.167 C 
BRANCH  23  24
ATOM     24  C   UNL     1       0.832  -2.463  11.030  1.00  0.00    -0.005 A 
ATOM     25  C   UNL     1       1.314  -3.251  12.097  1.00  0.00     0.057 A 
ATOM     26  C   UNL     1       0.786  -1.051  11.206  1.00  0.00     0.050 A 
ATOM     27  C   UNL     1       1.696  -2.623  13.266  1.00  0.00     0.166 A 
ATOM     28  C   UNL     1       1.231  -0.445  12.386  1.00  0.00     0.071 A 
ATOM     29  Cl  UNL     1       0.136   0.044  10.046  1.00  0.00    -0.084 Cl
ATOM     30  C   UNL     1       1.661  -1.258  13.401  1.00  0.00     0.167 A 
ATOM     31  O   UNL     1       2.110  -3.239  14.405  1.00  0.00    -0.454 OA
ATOM     32  O   UNL     1       2.057  -0.842  14.632  1.00  0.00    -0.454 OA
ATOM     33  C   UNL     1       2.211  -2.110  15.300  1.00  0.00     0.468 C 
ENDBRANCH  23  24
ENDBRANCH  20  23
ENDBRANCH  14  15
ENDBRANCH   8   9
ENDBRANCH   7   8
ENDBRANCH   5   7
ENDBRANCH   2   3
ENDBRANCH   1   2
BRANCH   1  34
ATOM     34  C   UNL     1       4.371  -3.136  -1.977  1.00  0.00     0.002 C 
BRANCH  34  35
ATOM     35  C   UNL     1       4.768  -4.072  -0.831  1.00  0.00     0.002 C 
BRANCH  35  36
ATOM     36  C   UNL     1       4.051  -5.424  -0.797  1.00  0.00     0.021 C 
BRANCH  36  37
ATOM     37  C   UNL     1       4.147  -6.251  -2.076  1.00  0.00     0.116 C 
BRANCH  37  38
ATOM     38  N   UNL     1       5.514  -6.601  -2.424  1.00  0.00    -0.352 N 
ATOM     39  C   UNL     1       6.029  -7.803  -2.840  1.00  0.00     0.251 C 
ATOM     40  H   UNL     1       6.167  -5.867  -2.351  1.00  0.00     0.163 HD
ATOM     41  O   UNL     1       7.242  -7.940  -2.973  1.00  0.00    -0.269 OA
BRANCH  39  42
ATOM     42  C   UNL     1       5.131  -8.951  -3.101  1.00  0.00     0.039 A 
ATOM     43  C   UNL     1       5.490 -10.209  -2.606  1.00  0.00     0.014 A 
ATOM     44  C   UNL     1       3.955  -8.800  -3.840  1.00  0.00     0.014 A 
ATOM     45  C   UNL     1       4.640 -11.300  -2.796  1.00  0.00     0.010 A 
ATOM     46  C   UNL     1       3.080  -9.876  -3.979  1.00  0.00     0.010 A 
ATOM     47  C   UNL     1       3.413 -11.136  -3.457  1.00  0.00    -0.014 A 
BRANCH  47  48
ATOM     48  C   UNL     1       2.462 -12.266  -3.609  1.00  0.00     0.031 A 
ATOM     49  C   UNL     1       2.151 -12.816  -4.972  1.00  0.00     0.074 A 
ATOM     50  C   UNL     1       1.826 -12.753  -2.526  1.00  0.00     0.049 A 
ATOM     51  N   UNL     1       1.286 -13.738  -5.314  1.00  0.00    -0.248 NA
ATOM     52  C   UNL     1       2.892 -12.237  -6.103  1.00  0.00     0.031 C 
ATOM     53  C   UNL     1       2.008 -12.279  -1.153  1.00  0.00     0.029 A 
ATOM     54  N   UNL     1       0.886 -13.746  -2.414  1.00  0.00    -0.354 N 
ATOM     55  C   UNL     1       1.365 -13.835  -6.698  1.00  0.00     0.074 A 
ATOM     56  C   UNL     1       2.333 -12.852  -7.136  1.00  0.00     0.031 C 
ATOM     57  C   UNL     1       1.215 -12.990  -0.335  1.00  0.00     0.029 A 
ATOM     58  C   UNL     1       0.448 -13.946  -1.127  1.00  0.00     0.049 A 
ATOM     59  H   UNL     1       0.556 -14.265  -3.182  1.00  0.00     0.167 HD
ATOM     60  C   UNL     1       0.703 -14.677  -7.526  1.00  0.00     0.037 A 
ATOM     61  C   UNL     1      -0.474 -14.799  -0.642  1.00  0.00     0.037 A 
ATOM     62  C   UNL     1      -0.236 -15.677  -7.090  1.00  0.00     0.049 A 
ATOM     63  C   UNL     1      -1.187 -15.730  -1.581  1.00  0.00     0.074 A 
ATOM     64  C   UNL     1      -0.910 -16.617  -7.850  1.00  0.00     0.029 A 
ATOM     65  N   UNL     1      -0.632 -15.867  -5.775  1.00  0.00    -0.354 N 
ATOM     66  N   UNL     1      -1.062 -15.848  -2.880  1.00  0.00    -0.248 NA
ATOM     67  C   UNL     1      -2.166 -16.651  -0.985  1.00  0.00     0.031 C 
ATOM     68  C   UNL     1      -1.737 -17.358  -6.998  1.00  0.00     0.029 A 
ATOM     69  C   UNL     1      -1.551 -16.900  -5.703  1.00  0.00     0.049 A 
ATOM     70  H   UNL     1      -0.307 -15.344  -5.006  1.00  0.00     0.167 HD
ATOM     71  C   UNL     1      -1.925 -16.869  -3.254  1.00  0.00     0.074 A 
ATOM     72  C   UNL     1      -2.561 -17.346  -2.043  1.00  0.00     0.031 C 
ATOM     73  C   UNL     1      -2.168 -17.368  -4.490  1.00  0.00     0.037 A 
BRANCH  60  74
ATOM     74  C   UNL     1       0.978 -14.555  -8.995  1.00  0.00     0.057 A 
ATOM     75  C   UNL     1       2.186 -14.988  -9.557  1.00  0.00     0.134 A 
ATOM     76  C   UNL     1       0.013 -14.027  -9.863  1.00  0.00     0.134 A 
ATOM     77  F   UNL     1       3.155 -15.492  -8.778  1.00  0.00    -0.206 F 
ATOM     78  C   UNL     1       2.434 -14.880 -10.926  1.00  0.00     0.040 A 
ATOM     79  C   UNL     1       0.241 -13.934 -11.236  1.00  0.00     0.040 A 
ATOM     80  F   UNL     1      -1.167 -13.599  -9.390  1.00  0.00    -0.206 F 
ATOM     81  C   UNL     1       1.457 -14.356 -11.771  1.00  0.00     0.006 A 
ENDBRANCH  60  74
BRANCH  61  82
ATOM     82  C   UNL     1      -0.761 -14.828   0.813  1.00  0.00     0.057 A 
ATOM     83  C   UNL     1      -0.330 -15.895   1.608  1.00  0.00     0.134 A 
ATOM     84  C   UNL     1      -1.473 -13.799   1.439  1.00  0.00     0.134 A 
ATOM     85  F   UNL     1       0.340 -16.919   1.059  1.00  0.00    -0.206 F 
ATOM     86  C   UNL     1      -0.608 -15.946   2.975  1.00  0.00     0.040 A 
ATOM     87  C   UNL     1      -1.741 -13.827   2.808  1.00  0.00     0.040 A 
ATOM     88  F   UNL     1      -1.908 -12.747   0.730  1.00  0.00    -0.206 F 
ATOM     89  C   UNL     1      -1.313 -14.907   3.579  1.00  0.00     0.006 A 
ENDBRANCH  61  82
BRANCH  73  90
ATOM     90  C   UNL     1      -3.138 -18.506  -4.590  1.00  0.00     0.057 A 
ATOM     91  C   UNL     1      -4.519 -18.310  -4.470  1.00  0.00     0.134 A 
ATOM     92  C   UNL     1      -2.687 -19.807  -4.845  1.00  0.00     0.134 A 
ATOM     93  F   UNL     1      -5.013 -17.089  -4.212  1.00  0.00    -0.206 F 
ATOM     94  C   UNL     1      -5.418 -19.372  -4.585  1.00  0.00     0.040 A 
ATOM     95  C   UNL     1      -3.576 -20.873  -4.982  1.00  0.00     0.040 A 
ATOM     96  F   UNL     1      -1.375 -20.059  -4.976  1.00  0.00    -0.206 F 
ATOM     97  C   UNL     1      -4.946 -20.657  -4.848  1.00  0.00     0.006 A 
ENDBRANCH  73  90
ENDBRANCH  47  48
ENDBRANCH  39  42
ENDBRANCH  37  38
ENDBRANCH  36  37
ENDBRANCH  35  36
ENDBRANCH  34  35
ENDBRANCH   1  34
TORSDOF 18
