REMARK SMILES C[C@H](c1ccccc1F)N(C)c1cccc(F)c1C(=O)NCCCCCCNC(=O)c1ccc(-c2c3nc(c(-c4c(F)cccc4F)c4ccc([nH]4)c(-c4c(F)cccc4F)c4nc(c(-c5c(F)cccc5F)c5ccc2[nH]5)C=C4)C=C3)cc1
REMARK SMILES IDX 24 1 23 2 22 3 21 4 19 5 20 6 18 8 12 9 13 10 14 11 16 12
REMARK SMILES IDX 15 13 17 14 10 15 11 16 2 17 1 18 3 19 4 20 8 21 5 22 7 23
REMARK SMILES IDX 9 24 6 25 25 26 26 27 27 28 28 29 29 30 30 32 31 33 32 34
REMARK SMILES IDX 84 35 33 36 83 37 34 38 35 39 36 40 77 41 37 42 82 43 76 44
REMARK SMILES IDX 78 45 38 46 81 47 75 48 74 49 39 51 65 52 48 53 64 54 49 55
REMARK SMILES IDX 52 56 63 57 79 58 50 59 51 60 62 62 80 63 53 64 40 65 41 66
REMARK SMILES IDX 46 67 42 68 43 69 45 70 47 71 44 72 66 73 67 74 72 75 68 76
REMARK SMILES IDX 69 77 71 78 73 79 70 80 54 81 55 82 60 83 56 84 57 85 59 86
REMARK SMILES IDX 61 87 58 88
REMARK H PARENT 21 7 28 31 78 50 52 61
REMARK Flexibility Score: inf
ROOT
ATOM      1  C   UNL     1      -6.973   4.438   2.371  1.00  0.00     0.002 C 
ENDROOT
BRANCH   1   2
ATOM      2  C   UNL     1      -6.580   3.601   1.152  1.00  0.00     0.021 C 
BRANCH   2   3
ATOM      3  C   UNL     1      -5.194   3.838   0.558  1.00  0.00     0.116 C 
BRANCH   3   4
ATOM      4  N   UNL     1      -4.080   3.647   1.472  1.00  0.00    -0.352 N 
ATOM      5  C   UNL     1      -2.776   3.255   1.210  1.00  0.00     0.256 C 
ATOM      6  O   UNL     1      -1.947   3.384   2.109  1.00  0.00    -0.269 OA
ATOM      7  H   UNL     1      -4.281   3.824   2.420  1.00  0.00     0.163 HD
BRANCH   5   8
ATOM      8  C   UNL     1      -2.400   2.644  -0.097  1.00  0.00     0.098 A 
ATOM      9  C   UNL     1      -1.662   1.438  -0.189  1.00  0.00     0.053 A 
ATOM     10  C   UNL     1      -1.541   0.865  -1.475  1.00  0.00     0.027 A 
ATOM     11  C   UNL     1      -2.003   1.490  -2.632  1.00  0.00     0.005 A 
ATOM     12  C   UNL     1      -2.761   3.311  -1.278  1.00  0.00     0.138 A 
ATOM     13  C   UNL     1      -2.585   2.739  -2.534  1.00  0.00     0.040 A 
ATOM     14  F   UNL     1      -3.294   4.542  -1.242  1.00  0.00    -0.206 F 
BRANCH   9  15
ATOM     15  N   UNL     1      -1.035   0.799   0.877  1.00  0.00    -0.367 N 
ATOM     16  C   UNL     1      -1.852   0.155   1.896  1.00  0.00     0.144 C 
BRANCH  15  17
ATOM     17  C   UNL     1       0.446   0.696   0.984  1.00  0.00     0.112 C 
ATOM     18  C   UNL     1       1.062   2.101   1.079  1.00  0.00     0.036 C 
BRANCH  17  19
ATOM     19  C   UNL     1       1.042  -0.214  -0.084  1.00  0.00     0.010 A 
ATOM     20  C   UNL     1       1.921   0.239  -1.084  1.00  0.00     0.009 A 
ATOM     21  C   UNL     1       0.661  -1.565  -0.122  1.00  0.00     0.128 A 
ATOM     22  C   UNL     1       2.345  -0.615  -2.109  1.00  0.00     0.001 A 
ATOM     23  C   UNL     1       1.058  -2.411  -1.155  1.00  0.00     0.039 A 
ATOM     24  F   UNL     1      -0.147  -2.064   0.826  1.00  0.00    -0.207 F 
ATOM     25  C   UNL     1       1.895  -1.933  -2.158  1.00  0.00     0.003 A 
ENDBRANCH  17  19
ENDBRANCH  15  17
ENDBRANCH   9  15
ENDBRANCH   5   8
ENDBRANCH   3   4
ENDBRANCH   2   3
ENDBRANCH   1   2
BRANCH   1  26
ATOM     26  C   UNL     1      -6.791   5.954   2.266  1.00  0.00     0.002 C 
BRANCH  26  27
ATOM     27  C   UNL     1      -7.436   6.644   1.062  1.00  0.00     0.021 C 
BRANCH  27  28
ATOM     28  C   UNL     1      -8.922   6.375   0.851  1.00  0.00     0.116 C 
BRANCH  28  29
ATOM     29  N   UNL     1      -9.748   6.829   1.957  1.00  0.00    -0.352 N 
ATOM     30  C   UNL     1     -10.838   7.669   1.952  1.00  0.00     0.251 C 
ATOM     31  H   UNL     1      -9.490   6.483   2.842  1.00  0.00     0.163 HD
ATOM     32  O   UNL     1     -11.333   8.047   3.005  1.00  0.00    -0.269 OA
BRANCH  30  33
ATOM     33  C   UNL     1     -11.397   8.145   0.666  1.00  0.00     0.039 A 
ATOM     34  C   UNL     1     -11.668   9.508   0.513  1.00  0.00     0.014 A 
ATOM     35  C   UNL     1     -11.644   7.258  -0.384  1.00  0.00     0.014 A 
ATOM     36  C   UNL     1     -12.105   9.993  -0.722  1.00  0.00     0.010 A 
ATOM     37  C   UNL     1     -12.015   7.751  -1.633  1.00  0.00     0.010 A 
ATOM     38  C   UNL     1     -12.236   9.124  -1.818  1.00  0.00    -0.014 A 
BRANCH  38  39
ATOM     39  C   UNL     1     -12.563   9.632  -3.175  1.00  0.00     0.031 A 
ATOM     40  C   UNL     1     -13.838   9.220  -3.854  1.00  0.00     0.074 A 
ATOM     41  C   UNL     1     -11.670  10.402  -3.829  1.00  0.00     0.049 A 
ATOM     42  N   UNL     1     -14.241   9.467  -5.074  1.00  0.00    -0.248 NA
ATOM     43  C   UNL     1     -14.775   8.404  -3.065  1.00  0.00     0.031 C 
ATOM     44  C   UNL     1     -10.385  10.849  -3.288  1.00  0.00     0.029 A 
ATOM     45  N   UNL     1     -11.700  10.934  -5.095  1.00  0.00    -0.354 N 
ATOM     46  C   UNL     1     -15.469   8.833  -5.203  1.00  0.00     0.074 A 
ATOM     47  C   UNL     1     -15.726   8.150  -3.954  1.00  0.00     0.031 C 
ATOM     48  C   UNL     1      -9.759  11.602  -4.206  1.00  0.00     0.029 A 
ATOM     49  C   UNL     1     -10.572  11.651  -5.418  1.00  0.00     0.049 A 
ATOM     50  H   UNL     1     -12.457  10.814  -5.712  1.00  0.00     0.167 HD
ATOM     51  C   UNL     1     -16.314   8.839  -6.260  1.00  0.00     0.037 A 
ATOM     52  C   UNL     1     -10.220  12.263  -6.565  1.00  0.00     0.037 A 
ATOM     53  C   UNL     1     -16.062   9.538  -7.493  1.00  0.00     0.049 A 
ATOM     54  C   UNL     1     -11.156  12.218  -7.741  1.00  0.00     0.074 A 
ATOM     55  C   UNL     1     -16.885   9.647  -8.601  1.00  0.00     0.029 A 
ATOM     56  N   UNL     1     -14.904  10.243  -7.783  1.00  0.00    -0.354 N 
ATOM     57  N   UNL     1     -12.336  11.655  -7.832  1.00  0.00    -0.248 NA
ATOM     58  C   UNL     1     -10.713  12.885  -8.974  1.00  0.00     0.031 C 
ATOM     59  C   UNL     1     -16.203  10.370  -9.581  1.00  0.00     0.029 A 
ATOM     60  C   UNL     1     -14.979  10.762  -9.065  1.00  0.00     0.049 A 
ATOM     61  H   UNL     1     -14.143  10.357  -7.170  1.00  0.00     0.167 HD
ATOM     62  C   UNL     1     -12.787  11.918  -9.119  1.00  0.00     0.074 A 
ATOM     63  C   UNL     1     -11.757  12.699  -9.772  1.00  0.00     0.031 C 
ATOM     64  C   UNL     1     -13.950  11.544  -9.703  1.00  0.00     0.037 A 
BRANCH  51  65
ATOM     65  C   UNL     1     -17.601   8.076  -6.137  1.00  0.00     0.057 A 
ATOM     66  C   UNL     1     -17.832   6.933  -6.914  1.00  0.00     0.134 A 
ATOM     67  C   UNL     1     -18.643   8.521  -5.314  1.00  0.00     0.134 A 
ATOM     68  F   UNL     1     -16.879   6.459  -7.730  1.00  0.00    -0.206 F 
ATOM     69  C   UNL     1     -19.060   6.269  -6.887  1.00  0.00     0.040 A 
ATOM     70  C   UNL     1     -19.866   7.849  -5.259  1.00  0.00     0.040 A 
ATOM     71  F   UNL     1     -18.484   9.604  -4.540  1.00  0.00    -0.206 F 
ATOM     72  C   UNL     1     -20.080   6.726  -6.056  1.00  0.00     0.006 A 
ENDBRANCH  51  65
BRANCH  52  73
ATOM     73  C   UNL     1      -8.925  12.985  -6.645  1.00  0.00     0.057 A 
ATOM     74  C   UNL     1      -7.701  12.304  -6.626  1.00  0.00     0.134 A 
ATOM     75  C   UNL     1      -8.883  14.382  -6.709  1.00  0.00     0.134 A 
ATOM     76  F   UNL     1      -7.673  10.964  -6.560  1.00  0.00    -0.206 F 
ATOM     77  C   UNL     1      -6.484  12.986  -6.645  1.00  0.00     0.040 A 
ATOM     78  C   UNL     1      -7.672  15.076  -6.754  1.00  0.00     0.040 A 
ATOM     79  F   UNL     1     -10.021  15.090  -6.750  1.00  0.00    -0.206 F 
ATOM     80  C   UNL     1      -6.467  14.377  -6.712  1.00  0.00     0.006 A 
ENDBRANCH  52  73
BRANCH  64  81
ATOM     81  C   UNL     1     -14.200  11.981 -11.116  1.00  0.00     0.057 A 
ATOM     82  C   UNL     1     -15.186  12.934 -11.404  1.00  0.00     0.134 A 
ATOM     83  C   UNL     1     -13.547  11.378 -12.197  1.00  0.00     0.134 A 
ATOM     84  F   UNL     1     -15.857  13.541 -10.412  1.00  0.00    -0.206 F 
ATOM     85  C   UNL     1     -15.533  13.251 -12.717  1.00  0.00     0.040 A 
ATOM     86  C   UNL     1     -13.868  11.706 -13.516  1.00  0.00     0.040 A 
ATOM     87  F   UNL     1     -12.585  10.466 -11.988  1.00  0.00    -0.206 F 
ATOM     88  C   UNL     1     -14.874  12.634 -13.778  1.00  0.00     0.006 A 
ENDBRANCH  64  81
ENDBRANCH  38  39
ENDBRANCH  30  33
ENDBRANCH  28  29
ENDBRANCH  27  28
ENDBRANCH  26  27
ENDBRANCH   1  26
TORSDOF 16
