REMARK SMILES C[C@H](CC(=O)NCCCCCCNC(=O)c1ccc(-c2c3nc(c(-c4c(F)cccc4F)c4ccc([nH]4)c(-c4c(F)cccc4F)c4nc(c(-c5c(F)cccc5F)c5ccc2[nH]5)C=C4)C=C3)cc1)N1C(=O)CCCC1=O
REMARK SMILES IDX 9 1 8 2 7 3 6 4 4 5 5 6 3 8 2 9 1 10 70 11 71 12 76 13 72 14
REMARK SMILES IDX 73 15 75 16 77 17 74 18 10 19 11 20 12 21 13 22 14 23 15 25
REMARK SMILES IDX 16 26 17 27 69 28 18 29 68 30 19 31 20 32 21 33 62 34 22 35
REMARK SMILES IDX 67 36 61 37 63 38 23 39 66 40 60 41 59 42 24 44 50 45 33 46
REMARK SMILES IDX 49 47 34 48 37 49 48 50 64 51 35 52 36 53 47 55 65 56 38 57
REMARK SMILES IDX 25 58 26 59 31 60 27 61 28 62 30 63 32 64 29 65 51 66 52 67
REMARK SMILES IDX 57 68 53 69 54 70 56 71 58 72 55 73 39 74 40 75 45 76 41 77
REMARK SMILES IDX 42 78 44 79 46 80 43 81
REMARK H PARENT 6 7 13 24 63 43 37 54
REMARK Flexibility Score: inf
ROOT
ATOM      1  C   UNL     1       4.056   1.258  -4.318  1.00  0.00     0.002 C 
ENDROOT
BRANCH   1   2
ATOM      2  C   UNL     1       2.652   1.107  -3.733  1.00  0.00     0.021 C 
BRANCH   2   3
ATOM      3  C   UNL     1       2.497  -0.036  -2.727  1.00  0.00     0.116 C 
BRANCH   3   4
ATOM      4  N   UNL     1       3.049   0.321  -1.427  1.00  0.00    -0.356 N 
ATOM      5  C   UNL     1       2.421   0.519  -0.228  1.00  0.00     0.222 C 
ATOM      6  O   UNL     1       3.085   0.907   0.733  1.00  0.00    -0.275 OA
ATOM      7  H   UNL     1       4.026   0.437  -1.408  1.00  0.00     0.163 HD
BRANCH   5   8
ATOM      8  C   UNL     1       0.932   0.265  -0.102  1.00  0.00     0.125 C 
BRANCH   8   9
ATOM      9  C   UNL     1       0.075   1.540  -0.252  1.00  0.00     0.099 C 
ATOM     10  C   UNL     1       0.438   2.373  -1.486  1.00  0.00     0.032 C 
BRANCH   9  11
ATOM     11  N   UNL     1      -1.405   1.354  -0.242  1.00  0.00    -0.279 N 
ATOM     12  C   UNL     1      -1.998   0.186  -0.717  1.00  0.00     0.229 C 
ATOM     13  C   UNL     1      -2.147   2.505   0.057  1.00  0.00     0.229 C 
ATOM     14  O   UNL     1      -1.415  -0.728  -1.296  1.00  0.00    -0.274 OA
ATOM     15  C   UNL     1      -3.490   0.105  -0.522  1.00  0.00     0.101 C 
ATOM     16  C   UNL     1      -3.613   2.542  -0.339  1.00  0.00     0.101 C 
ATOM     17  O   UNL     1      -1.656   3.498   0.599  1.00  0.00    -0.274 OA
ATOM     18  C   UNL     1      -4.075   1.347  -1.143  1.00  0.00     0.020 C 
ENDBRANCH   9  11
ENDBRANCH   8   9
ENDBRANCH   5   8
ENDBRANCH   3   4
ENDBRANCH   2   3
ENDBRANCH   1   2
BRANCH   1  19
ATOM     19  C   UNL     1       4.457   0.172  -5.317  1.00  0.00     0.002 C 
BRANCH  19  20
ATOM     20  C   UNL     1       3.483  -0.048  -6.479  1.00  0.00     0.021 C 
BRANCH  20  21
ATOM     21  C   UNL     1       3.077   1.213  -7.238  1.00  0.00     0.116 C 
BRANCH  21  22
ATOM     22  N   UNL     1       4.210   1.864  -7.874  1.00  0.00    -0.352 N 
ATOM     23  C   UNL     1       4.416   2.148  -9.200  1.00  0.00     0.251 C 
ATOM     24  H   UNL     1       4.933   2.141  -7.266  1.00  0.00     0.163 HD
ATOM     25  O   UNL     1       5.511   2.537  -9.591  1.00  0.00    -0.269 OA
BRANCH  23  26
ATOM     26  C   UNL     1       3.313   1.966 -10.166  1.00  0.00     0.039 A 
ATOM     27  C   UNL     1       3.562   1.271 -11.352  1.00  0.00     0.014 A 
ATOM     28  C   UNL     1       2.042   2.489  -9.907  1.00  0.00     0.014 A 
ATOM     29  C   UNL     1       2.521   1.053 -12.257  1.00  0.00     0.010 A 
ATOM     30  C   UNL     1       0.992   2.218 -10.781  1.00  0.00     0.010 A 
ATOM     31  C   UNL     1       1.223   1.503 -11.966  1.00  0.00    -0.014 A 
BRANCH  31  32
ATOM     32  C   UNL     1       0.096   1.240 -12.896  1.00  0.00     0.031 A 
ATOM     33  C   UNL     1      -0.582   2.380 -13.602  1.00  0.00     0.074 A 
ATOM     34  C   UNL     1      -0.355  -0.019 -13.058  1.00  0.00     0.049 A 
ATOM     35  N   UNL     1      -1.617   2.358 -14.402  1.00  0.00    -0.248 NA
ATOM     36  C   UNL     1      -0.041   3.726 -13.354  1.00  0.00     0.031 C 
ATOM     37  C   UNL     1       0.188  -1.205 -12.393  1.00  0.00     0.029 A 
ATOM     38  N   UNL     1      -1.381  -0.508 -13.826  1.00  0.00    -0.354 N 
ATOM     39  C   UNL     1      -1.860   3.683 -14.741  1.00  0.00     0.074 A 
ATOM     40  C   UNL     1      -0.896   4.487 -14.021  1.00  0.00     0.031 C 
ATOM     41  C   UNL     1      -0.498  -2.287 -12.796  1.00  0.00     0.029 A 
ATOM     42  C   UNL     1      -1.546  -1.868 -13.722  1.00  0.00     0.049 A 
ATOM     43  H   UNL     1      -1.945   0.061 -14.398  1.00  0.00     0.167 HD
ATOM     44  C   UNL     1      -2.789   4.183 -15.590  1.00  0.00     0.037 A 
ATOM     45  C   UNL     1      -2.445  -2.684 -14.304  1.00  0.00     0.037 A 
ATOM     46  C   UNL     1      -3.728   3.380 -16.327  1.00  0.00     0.049 A 
ATOM     47  C   UNL     1      -3.460  -2.106 -15.250  1.00  0.00     0.074 A 
ATOM     48  C   UNL     1      -4.665   3.787 -17.261  1.00  0.00     0.029 A 
ATOM     49  N   UNL     1      -3.850   2.004 -16.212  1.00  0.00    -0.354 N 
ATOM     50  N   UNL     1      -3.636  -0.859 -15.611  1.00  0.00    -0.248 NA
ATOM     51  C   UNL     1      -4.398  -3.051 -15.873  1.00  0.00     0.031 C 
ATOM     52  C   UNL     1      -5.379   2.660 -17.684  1.00  0.00     0.029 A 
ATOM     53  C   UNL     1      -4.859   1.547 -17.044  1.00  0.00     0.049 A 
ATOM     54  H   UNL     1      -3.300   1.435 -15.626  1.00  0.00     0.167 HD
ATOM     55  C   UNL     1      -4.684  -0.871 -16.522  1.00  0.00     0.074 A 
ATOM     56  C   UNL     1      -5.097  -2.252 -16.667  1.00  0.00     0.031 C 
ATOM     57  C   UNL     1      -5.253   0.169 -17.180  1.00  0.00     0.037 A 
BRANCH  44  58
ATOM     58  C   UNL     1      -2.829   5.673 -15.770  1.00  0.00     0.057 A 
ATOM     59  C   UNL     1      -1.821   6.360 -16.459  1.00  0.00     0.134 A 
ATOM     60  C   UNL     1      -3.899   6.426 -15.271  1.00  0.00     0.134 A 
ATOM     61  F   UNL     1      -0.762   5.700 -16.951  1.00  0.00    -0.206 F 
ATOM     62  C   UNL     1      -1.863   7.746 -16.623  1.00  0.00     0.040 A 
ATOM     63  C   UNL     1      -3.965   7.808 -15.451  1.00  0.00     0.040 A 
ATOM     64  F   UNL     1      -4.900   5.830 -14.606  1.00  0.00    -0.206 F 
ATOM     65  C   UNL     1      -2.941   8.473 -16.122  1.00  0.00     0.006 A 
ENDBRANCH  44  58
BRANCH  45  66
ATOM     66  C   UNL     1      -2.406  -4.142 -14.031  1.00  0.00     0.057 A 
ATOM     67  C   UNL     1      -1.976  -5.046 -15.009  1.00  0.00     0.134 A 
ATOM     68  C   UNL     1      -2.795  -4.665 -12.793  1.00  0.00     0.134 A 
ATOM     69  F   UNL     1      -1.608  -4.605 -16.221  1.00  0.00    -0.206 F 
ATOM     70  C   UNL     1      -1.949  -6.421 -14.771  1.00  0.00     0.040 A 
ATOM     71  C   UNL     1      -2.752  -6.036 -12.534  1.00  0.00     0.040 A 
ATOM     72  F   UNL     1      -3.211  -3.849 -11.813  1.00  0.00    -0.206 F 
ATOM     73  C   UNL     1      -2.334  -6.919 -13.528  1.00  0.00     0.006 A 
ENDBRANCH  45  66
BRANCH  57  74
ATOM     74  C   UNL     1      -6.363  -0.152 -18.137  1.00  0.00     0.057 A 
ATOM     75  C   UNL     1      -7.640  -0.515 -17.691  1.00  0.00     0.134 A 
ATOM     76  C   UNL     1      -6.160  -0.059 -19.520  1.00  0.00     0.134 A 
ATOM     77  F   UNL     1      -7.894  -0.634 -16.379  1.00  0.00    -0.206 F 
ATOM     78  C   UNL     1      -8.672  -0.794 -18.589  1.00  0.00     0.040 A 
ATOM     79  C   UNL     1      -7.190  -0.312 -20.426  1.00  0.00     0.040 A 
ATOM     80  F   UNL     1      -4.962   0.291 -20.011  1.00  0.00    -0.206 F 
ATOM     81  C   UNL     1      -8.449  -0.686 -19.961  1.00  0.00     0.006 A 
ENDBRANCH  57  74
ENDBRANCH  31  32
ENDBRANCH  23  26
ENDBRANCH  21  22
ENDBRANCH  20  21
ENDBRANCH  19  20
ENDBRANCH   1  19
TORSDOF 15
