REMARK SMILES CCc1cccc(CC)c1N1/C(=[NH+]/C(=O)CCCC(=O)NCCCCCCNC(=O)c2ccc(-c3c4nc(c(-c5c(F)cccc5F)c5ccc([nH]5)c(-c5c(F)cccc5F)c5nc(c(-c6c(F)cccc6F)c6ccc3[nH]6)C=C5)C=C4)cc2)S[C@@H]2CS(=O)(=O)C[C@@H]21
REMARK SMILES IDX 23 1 22 2 21 3 19 4 20 5 18 7 17 8 16 9 14 10 11 11 12 12
REMARK SMILES IDX 92 13 13 14 85 15 86 16 91 17 87 19 88 20 15 21 89 22 90 23
REMARK SMILES IDX 10 24 3 25 4 26 5 27 7 28 6 29 2 30 1 31 8 32 9 33 24 34
REMARK SMILES IDX 25 35 26 36 27 37 28 38 29 39 30 41 31 42 32 43 84 44 33 45
REMARK SMILES IDX 83 46 34 47 35 48 36 49 77 50 37 51 82 52 76 53 78 54 38 55
REMARK SMILES IDX 81 56 75 57 74 58 39 60 65 61 48 62 64 63 49 64 52 65 63 66
REMARK SMILES IDX 79 67 50 68 51 69 62 71 80 72 53 73 40 74 41 75 46 76 42 77
REMARK SMILES IDX 43 78 45 79 47 80 44 81 66 82 67 83 72 84 68 85 69 86 71 87
REMARK SMILES IDX 73 88 70 89 54 90 55 91 60 92 56 93 57 94 59 95 61 96 58 97
REMARK H PARENT 21 6 13 18 28 40 78 59 52 70
REMARK Flexibility Score: inf
ROOT
ATOM      1  C   UNL     1      -1.256   2.607   6.771  1.00  0.00     0.021 C 
ENDROOT
BRANCH   1   2
ATOM      2  C   UNL     1      -0.348   2.551   5.544  1.00  0.00     0.116 C 
BRANCH   2   3
ATOM      3  N   UNL     1       0.869   1.841   5.859  1.00  0.00    -0.356 N 
ATOM      4  C   UNL     1       1.284   0.620   5.424  1.00  0.00     0.220 C 
ATOM      5  O   UNL     1       2.302   0.133   5.917  1.00  0.00    -0.275 OA
ATOM      6  H   UNL     1       1.484   2.304   6.473  1.00  0.00     0.163 HD
BRANCH   4   7
ATOM      7  C   UNL     1       0.540  -0.078   4.307  1.00  0.00     0.100 C 
BRANCH   7   8
ATOM      8  C   UNL     1      -0.634  -0.973   4.699  1.00  0.00     0.022 C 
BRANCH   8   9
ATOM      9  C   UNL     1      -2.021  -0.343   4.839  1.00  0.00     0.128 C 
BRANCH   9  10
ATOM     10  C   UNL     1      -2.675   0.259   3.593  1.00  0.00     0.307 C 
ATOM     11  N   UNL     1      -1.616   2.654   1.013  1.00  0.00    -0.216 N 
ATOM     12  C   UNL     1      -2.334   1.938   1.978  1.00  0.00     0.319 C 
ATOM     13  C   UNL     1      -2.419   3.180  -0.120  1.00  0.00     0.212 C 
ATOM     14  N   UNL     1      -1.876   1.085   2.834  1.00  0.00    -0.204 N 
ATOM     15  S   UNL     1      -4.055   2.338   1.754  1.00  0.00    -0.029 SA
ATOM     16  C   UNL     1      -3.796   2.503  -0.025  1.00  0.00     0.120 C 
ATOM     17  C   UNL     1      -1.856   2.888  -1.508  1.00  0.00     0.188 C 
ATOM     18  H   UNL     1      -0.901   1.023   2.950  1.00  0.00     0.316 HD
ATOM     19  C   UNL     1      -3.687   1.133  -0.675  1.00  0.00     0.156 C 
ATOM     20  S   UNL     1      -2.695   1.440  -2.108  1.00  0.00     0.155 S 
ATOM     21  O   UNL     1      -3.840  -0.042   3.343  1.00  0.00    -0.247 OA
ATOM     22  O   UNL     1      -1.748   0.361  -2.263  1.00  0.00    -0.229 OA
ATOM     23  O   UNL     1      -3.582   1.852  -3.179  1.00  0.00    -0.229 OA
BRANCH  11  24
ATOM     24  C   UNL     1      -0.237   2.977   1.046  1.00  0.00     0.134 A 
ATOM     25  C   UNL     1       0.755   1.969   0.871  1.00  0.00    -0.001 A 
ATOM     26  C   UNL     1       2.118   2.333   0.809  1.00  0.00     0.008 A 
ATOM     27  C   UNL     1       2.514   3.660   0.817  1.00  0.00     0.001 A 
ATOM     28  C   UNL     1       0.195   4.340   1.131  1.00  0.00    -0.001 A 
ATOM     29  C   UNL     1       1.560   4.653   0.958  1.00  0.00     0.008 A 
BRANCH  25  30
ATOM     30  C   UNL     1       0.440   0.491   0.721  1.00  0.00     0.036 C 
ATOM     31  C   UNL     1       1.053  -0.166  -0.510  1.00  0.00     0.009 C 
ENDBRANCH  25  30
BRANCH  28  32
ATOM     32  C   UNL     1      -0.743   5.514   1.367  1.00  0.00     0.036 C 
ATOM     33  C   UNL     1      -0.287   6.496   2.446  1.00  0.00     0.009 C 
ENDBRANCH  28  32
ENDBRANCH  11  24
ENDBRANCH   9  10
ENDBRANCH   8   9
ENDBRANCH   7   8
ENDBRANCH   4   7
ENDBRANCH   2   3
ENDBRANCH   1   2
BRANCH   1  34
ATOM     34  C   UNL     1      -1.032   3.868   7.600  1.00  0.00     0.002 C 
BRANCH  34  35
ATOM     35  C   UNL     1      -1.478   5.152   6.891  1.00  0.00     0.002 C 
BRANCH  35  36
ATOM     36  C   UNL     1      -2.954   5.184   6.483  1.00  0.00     0.021 C 
BRANCH  36  37
ATOM     37  C   UNL     1      -3.928   4.938   7.631  1.00  0.00     0.116 C 
BRANCH  37  38
ATOM     38  N   UNL     1      -3.727   5.889   8.713  1.00  0.00    -0.352 N 
ATOM     39  C   UNL     1      -4.589   6.822   9.227  1.00  0.00     0.251 C 
ATOM     40  H   UNL     1      -2.840   5.859   9.139  1.00  0.00     0.163 HD
ATOM     41  O   UNL     1      -4.171   7.718   9.953  1.00  0.00    -0.269 OA
BRANCH  39  42
ATOM     42  C   UNL     1      -6.025   6.744   8.899  1.00  0.00     0.039 A 
ATOM     43  C   UNL     1      -6.714   7.918   8.587  1.00  0.00     0.014 A 
ATOM     44  C   UNL     1      -6.691   5.516   8.919  1.00  0.00     0.014 A 
ATOM     45  C   UNL     1      -8.064   7.851   8.244  1.00  0.00     0.010 A 
ATOM     46  C   UNL     1      -8.014   5.441   8.501  1.00  0.00     0.010 A 
ATOM     47  C   UNL     1      -8.716   6.609   8.170  1.00  0.00    -0.014 A 
BRANCH  47  48
ATOM     48  C   UNL     1     -10.134   6.513   7.748  1.00  0.00     0.031 A 
ATOM     49  C   UNL     1     -11.173   5.993   8.701  1.00  0.00     0.074 A 
ATOM     50  C   UNL     1     -10.472   6.829   6.484  1.00  0.00     0.049 A 
ATOM     51  N   UNL     1     -12.449   5.786   8.500  1.00  0.00    -0.248 NA
ATOM     52  C   UNL     1     -10.710   5.630  10.049  1.00  0.00     0.031 C 
ATOM     53  C   UNL     1      -9.542   7.292   5.452  1.00  0.00     0.029 A 
ATOM     54  N   UNL     1     -11.687   6.798   5.849  1.00  0.00    -0.354 N 
ATOM     55  C   UNL     1     -12.937   5.257   9.688  1.00  0.00     0.074 A 
ATOM     56  C   UNL     1     -11.808   5.118  10.583  1.00  0.00     0.031 C 
ATOM     57  C   UNL     1     -10.224   7.523   4.320  1.00  0.00     0.029 A 
ATOM     58  C   UNL     1     -11.628   7.186   4.534  1.00  0.00     0.049 A 
ATOM     59  H   UNL     1     -12.521   6.523   6.294  1.00  0.00     0.167 HD
ATOM     60  C   UNL     1     -14.213   4.937  10.012  1.00  0.00     0.037 A 
ATOM     61  C   UNL     1     -12.596   7.255   3.601  1.00  0.00     0.037 A 
ATOM     62  C   UNL     1     -15.331   5.086   9.117  1.00  0.00     0.049 A 
ATOM     63  C   UNL     1     -14.004   6.886   3.977  1.00  0.00     0.074 A 
ATOM     64  C   UNL     1     -16.672   4.853   9.367  1.00  0.00     0.029 A 
ATOM     65  N   UNL     1     -15.236   5.496   7.795  1.00  0.00    -0.354 N 
ATOM     66  N   UNL     1     -14.467   6.465   5.128  1.00  0.00    -0.248 NA
ATOM     67  C   UNL     1     -15.023   7.012   2.927  1.00  0.00     0.031 C 
ATOM     68  C   UNL     1     -17.380   5.065   8.179  1.00  0.00     0.029 A 
ATOM     69  C   UNL     1     -16.490   5.492   7.206  1.00  0.00     0.049 A 
ATOM     70  H   UNL     1     -14.400   5.753   7.342  1.00  0.00     0.167 HD
ATOM     71  C   UNL     1     -15.834   6.296   4.951  1.00  0.00     0.074 A 
ATOM     72  C   UNL     1     -16.125   6.677   3.583  1.00  0.00     0.031 C 
ATOM     73  C   UNL     1     -16.764   5.867   5.840  1.00  0.00     0.037 A 
BRANCH  60  74
ATOM     74  C   UNL     1     -14.455   4.382  11.387  1.00  0.00     0.057 A 
ATOM     75  C   UNL     1     -14.287   5.159  12.543  1.00  0.00     0.134 A 
ATOM     76  C   UNL     1     -14.863   3.054  11.561  1.00  0.00     0.134 A 
ATOM     77  F   UNL     1     -13.888   6.437  12.452  1.00  0.00    -0.206 F 
ATOM     78  C   UNL     1     -14.475   4.624  13.819  1.00  0.00     0.040 A 
ATOM     79  C   UNL     1     -15.086   2.517  12.830  1.00  0.00     0.040 A 
ATOM     80  F   UNL     1     -15.052   2.254  10.501  1.00  0.00    -0.206 F 
ATOM     81  C   UNL     1     -14.880   3.299  13.964  1.00  0.00     0.006 A 
ENDBRANCH  60  74
BRANCH  61  82
ATOM     82  C   UNL     1     -12.261   7.715   2.230  1.00  0.00     0.057 A 
ATOM     83  C   UNL     1     -12.684   8.964   1.764  1.00  0.00     0.134 A 
ATOM     84  C   UNL     1     -11.487   6.931   1.366  1.00  0.00     0.134 A 
ATOM     85  F   UNL     1     -13.440   9.754   2.540  1.00  0.00    -0.206 F 
ATOM     86  C   UNL     1     -12.357   9.415   0.484  1.00  0.00     0.040 A 
ATOM     87  C   UNL     1     -11.132   7.379   0.093  1.00  0.00     0.040 A 
ATOM     88  F   UNL     1     -11.040   5.729   1.758  1.00  0.00    -0.206 F 
ATOM     89  C   UNL     1     -11.572   8.624  -0.353  1.00  0.00     0.006 A 
ENDBRANCH  61  82
BRANCH  73  90
ATOM     90  C   UNL     1     -18.190   5.813   5.371  1.00  0.00     0.057 A 
ATOM     91  C   UNL     1     -18.632   4.856   4.449  1.00  0.00     0.134 A 
ATOM     92  C   UNL     1     -19.142   6.706   5.881  1.00  0.00     0.134 A 
ATOM     93  F   UNL     1     -17.770   3.979   3.912  1.00  0.00    -0.206 F 
ATOM     94  C   UNL     1     -19.964   4.804   4.033  1.00  0.00     0.040 A 
ATOM     95  C   UNL     1     -20.481   6.645   5.496  1.00  0.00     0.040 A 
ATOM     96  F   UNL     1     -18.788   7.642   6.775  1.00  0.00    -0.206 F 
ATOM     97  C   UNL     1     -20.894   5.696   4.564  1.00  0.00     0.006 A 
ENDBRANCH  73  90
ENDBRANCH  47  48
ENDBRANCH  39  42
ENDBRANCH  37  38
ENDBRANCH  36  37
ENDBRANCH  35  36
ENDBRANCH  34  35
ENDBRANCH   1  34
TORSDOF 19
