REMARK SMILES O=C(NCCCCCCNC(=O)c1ccc(-c2ccc(F)c(C(F)(F)F)c2)cc1[N+](=O)[O-])c1ccc(-c2c3nc(c(-c4c(F)cccc4F)c4ccc([nH]4)c(-c4c(F)cccc4F)c4nc(c(-c5c(F)cccc5F)c5ccc2[nH]5)C=C4)C=C3)cc1
REMARK SMILES IDX 6 1 5 2 4 3 3 4 1 5 2 6 33 8 34 9 86 10 35 11 85 12 36 13
REMARK SMILES IDX 37 14 38 15 79 16 39 17 84 18 78 19 80 20 40 21 83 22 77 23
REMARK SMILES IDX 76 24 41 26 67 27 50 28 66 29 51 30 54 31 65 32 81 33 52 34
REMARK SMILES IDX 53 35 64 37 82 38 55 39 42 40 43 41 48 42 44 43 45 44 47 45
REMARK SMILES IDX 49 46 46 47 68 48 69 49 74 50 70 51 71 52 73 53 75 54 72 55
REMARK SMILES IDX 56 56 57 57 62 58 58 59 59 60 61 61 63 62 60 63 7 64 8 65
REMARK SMILES IDX 9 66 10 67 11 68 12 70 13 71 14 72 29 73 15 74 28 75 16 76
REMARK SMILES IDX 30 77 31 78 32 79 17 80 18 81 27 82 19 83 22 84 20 85 21 86
REMARK SMILES IDX 23 87 24 88 25 89 26 90
REMARK H PARENT 3 7 80 25 54 36 10 69
REMARK Flexibility Score: inf
ROOT
ATOM      1  C   UNL     1       4.140  -3.805   1.183  1.00  0.00     0.002 C 
ENDROOT
BRANCH   1   2
ATOM      2  C   UNL     1       4.619  -2.389   1.501  1.00  0.00     0.021 C 
BRANCH   2   3
ATOM      3  C   UNL     1       4.358  -1.352   0.417  1.00  0.00     0.116 C 
BRANCH   3   4
ATOM      4  N   UNL     1       2.945  -1.147   0.151  1.00  0.00    -0.352 N 
ATOM      5  O   UNL     1       1.029   0.025  -0.081  1.00  0.00    -0.269 OA
ATOM      6  C   UNL     1       2.252   0.032   0.027  1.00  0.00     0.251 C 
ATOM      7  H   UNL     1       2.410  -1.967   0.046  1.00  0.00     0.163 HD
BRANCH   6   8
ATOM      8  C   UNL     1       2.980   1.319   0.052  1.00  0.00     0.039 A 
ATOM      9  C   UNL     1       4.144   1.500  -0.701  1.00  0.00     0.014 A 
ATOM     10  C   UNL     1       2.482   2.364   0.836  1.00  0.00     0.014 A 
ATOM     11  C   UNL     1       4.873   2.677  -0.574  1.00  0.00     0.010 A 
ATOM     12  C   UNL     1       3.176   3.575   0.903  1.00  0.00     0.010 A 
ATOM     13  C   UNL     1       4.390   3.732   0.217  1.00  0.00    -0.014 A 
BRANCH  13  14
ATOM     14  C   UNL     1       5.136   5.014   0.255  1.00  0.00     0.031 A 
ATOM     15  C   UNL     1       5.796   5.498   1.514  1.00  0.00     0.074 A 
ATOM     16  C   UNL     1       5.229   5.736  -0.878  1.00  0.00     0.049 A 
ATOM     17  N   UNL     1       6.499   6.585   1.709  1.00  0.00    -0.248 NA
ATOM     18  C   UNL     1       5.644   4.659   2.712  1.00  0.00     0.031 C 
ATOM     19  C   UNL     1       4.615   5.374  -2.159  1.00  0.00     0.029 A 
ATOM     20  N   UNL     1       5.883   6.911  -1.143  1.00  0.00    -0.354 N 
ATOM     21  C   UNL     1       6.858   6.572   3.050  1.00  0.00     0.074 A 
ATOM     22  C   UNL     1       6.277   5.379   3.629  1.00  0.00     0.031 C 
ATOM     23  C   UNL     1       4.956   6.284  -3.082  1.00  0.00     0.029 A 
ATOM     24  C   UNL     1       5.765   7.320  -2.449  1.00  0.00     0.049 A 
ATOM     25  H   UNL     1       6.388   7.413  -0.464  1.00  0.00     0.167 HD
ATOM     26  C   UNL     1       7.609   7.471   3.732  1.00  0.00     0.037 A 
ATOM     27  C   UNL     1       6.242   8.414  -3.068  1.00  0.00     0.037 A 
ATOM     28  C   UNL     1       8.196   8.650   3.147  1.00  0.00     0.049 A 
ATOM     29  C   UNL     1       7.055   9.401  -2.284  1.00  0.00     0.074 A 
ATOM     30  C   UNL     1       9.008   9.598   3.747  1.00  0.00     0.029 A 
ATOM     31  N   UNL     1       8.029   9.046   1.829  1.00  0.00    -0.354 N 
ATOM     32  N   UNL     1       7.417   9.355  -1.026  1.00  0.00    -0.248 NA
ATOM     33  C   UNL     1       7.520  10.593  -3.005  1.00  0.00     0.031 C 
ATOM     34  C   UNL     1       9.299  10.588   2.802  1.00  0.00     0.029 A 
ATOM     35  C   UNL     1       8.703  10.236   1.602  1.00  0.00     0.049 A 
ATOM     36  H   UNL     1       7.508   8.555   1.153  1.00  0.00     0.167 HD
ATOM     37  C   UNL     1       8.159  10.506  -0.803  1.00  0.00     0.074 A 
ATOM     38  C   UNL     1       8.214  11.218  -2.064  1.00  0.00     0.031 C 
ATOM     39  C   UNL     1       8.740  10.935   0.343  1.00  0.00     0.037 A 
BRANCH  26  40
ATOM     40  C   UNL     1       7.829   7.223   5.195  1.00  0.00     0.057 A 
ATOM     41  C   UNL     1       8.690   6.218   5.654  1.00  0.00     0.134 A 
ATOM     42  C   UNL     1       7.207   8.029   6.157  1.00  0.00     0.134 A 
ATOM     43  F   UNL     1       9.310   5.404   4.786  1.00  0.00    -0.206 F 
ATOM     44  C   UNL     1       8.909   6.011   7.018  1.00  0.00     0.040 A 
ATOM     45  C   UNL     1       7.434   7.846   7.522  1.00  0.00     0.040 A 
ATOM     46  F   UNL     1       6.376   9.014   5.785  1.00  0.00    -0.206 F 
ATOM     47  C   UNL     1       8.284   6.830   7.956  1.00  0.00     0.006 A 
ENDBRANCH  26  40
BRANCH  27  48
ATOM     48  C   UNL     1       5.957   8.625  -4.507  1.00  0.00     0.057 A 
ATOM     49  C   UNL     1       6.964   8.493  -5.469  1.00  0.00     0.134 A 
ATOM     50  C   UNL     1       4.668   8.935  -4.957  1.00  0.00     0.134 A 
ATOM     51  F   UNL     1       8.221   8.211  -5.097  1.00  0.00    -0.206 F 
ATOM     52  C   UNL     1       6.701   8.669  -6.828  1.00  0.00     0.040 A 
ATOM     53  C   UNL     1       4.386   9.089  -6.314  1.00  0.00     0.040 A 
ATOM     54  F   UNL     1       3.660   9.066  -4.082  1.00  0.00    -0.206 F 
ATOM     55  C   UNL     1       5.406   8.960  -7.254  1.00  0.00     0.006 A 
ENDBRANCH  27  48
BRANCH  39  56
ATOM     56  C   UNL     1       9.494  12.229   0.276  1.00  0.00     0.057 A 
ATOM     57  C   UNL     1       8.832  13.461   0.199  1.00  0.00     0.134 A 
ATOM     58  C   UNL     1      10.893  12.244   0.308  1.00  0.00     0.134 A 
ATOM     59  F   UNL     1       7.493  13.512   0.148  1.00  0.00    -0.206 F 
ATOM     60  C   UNL     1       9.539  14.663   0.133  1.00  0.00     0.040 A 
ATOM     61  C   UNL     1      11.610  13.440   0.266  1.00  0.00     0.040 A 
ATOM     62  F   UNL     1      11.585  11.097   0.386  1.00  0.00    -0.206 F 
ATOM     63  C   UNL     1      10.932  14.654   0.172  1.00  0.00     0.006 A 
ENDBRANCH  39  56
ENDBRANCH  13  14
ENDBRANCH   6   8
ENDBRANCH   3   4
ENDBRANCH   2   3
ENDBRANCH   1   2
BRANCH   1  64
ATOM     64  C   UNL     1       4.634  -4.398  -0.139  1.00  0.00     0.002 C 
BRANCH  64  65
ATOM     65  C   UNL     1       6.151  -4.388  -0.360  1.00  0.00     0.021 C 
BRANCH  65  66
ATOM     66  C   UNL     1       6.985  -4.988   0.769  1.00  0.00     0.116 C 
BRANCH  66  67
ATOM     67  N   UNL     1       6.655  -6.377   1.032  1.00  0.00    -0.352 N 
ATOM     68  C   UNL     1       7.482  -7.438   1.286  1.00  0.00     0.258 C 
ATOM     69  H   UNL     1       5.693  -6.588   1.026  1.00  0.00     0.163 HD
ATOM     70  O   UNL     1       7.040  -8.576   1.385  1.00  0.00    -0.269 OA
BRANCH  68  71
ATOM     71  C   UNL     1       8.935  -7.225   1.376  1.00  0.00     0.117 A 
ATOM     72  C   UNL     1       9.736  -7.855   0.420  1.00  0.00     0.022 A 
ATOM     73  C   UNL     1       9.541  -6.441   2.354  1.00  0.00     0.282 A 
ATOM     74  C   UNL     1      11.122  -7.656   0.426  1.00  0.00     0.010 A 
ATOM     75  C   UNL     1      10.927  -6.224   2.356  1.00  0.00     0.095 A 
ATOM     76  C   UNL     1      11.740  -6.830   1.384  1.00  0.00    -0.012 A 
BRANCH  73  77
ATOM     77  N   UNL     1       8.756  -5.825   3.403  1.00  0.00     0.063 N 
ATOM     78  O   UNL     1       8.901  -4.604   3.559  1.00  0.00    -0.258 OA
ATOM     79  O   UNL     1       8.021  -6.553   4.078  1.00  0.00    -0.258 OA
ENDBRANCH  73  77
BRANCH  76  80
ATOM     80  C   UNL     1      13.197  -6.617   1.375  1.00  0.00    -0.017 A 
ATOM     81  C   UNL     1      13.870  -6.246   0.199  1.00  0.00     0.012 A 
ATOM     82  C   UNL     1      13.957  -6.775   2.549  1.00  0.00     0.025 A 
ATOM     83  C   UNL     1      15.252  -6.043   0.196  1.00  0.00     0.040 A 
ATOM     84  C   UNL     1      15.348  -6.567   2.558  1.00  0.00     0.092 A 
ATOM     85  C   UNL     1      15.976  -6.205   1.372  1.00  0.00     0.135 A 
ATOM     86  F   UNL     1      17.299  -6.007   1.347  1.00  0.00    -0.206 F 
BRANCH  84  87
ATOM     87  C   UNL     1      16.166  -6.734   3.802  1.00  0.00     0.419 C 
ATOM     88  F   UNL     1      17.076  -7.741   3.707  1.00  0.00    -0.166 F 
ATOM     89  F   UNL     1      16.864  -5.613   4.134  1.00  0.00    -0.166 F 
ATOM     90  F   UNL     1      15.408  -7.028   4.898  1.00  0.00    -0.166 F 
ENDBRANCH  84  87
ENDBRANCH  76  80
ENDBRANCH  68  71
ENDBRANCH  66  67
ENDBRANCH  65  66
ENDBRANCH  64  65
ENDBRANCH   1  64
TORSDOF 16
