REMARK SMILES CC(C)(O)CCOc1ccc(C(=O)NCCCCCCNC(=O)c2ccc(-c3c4nc(c(-c5c(F)cccc5F)c5ccc([nH]5)c(-c5c(F)cccc5F)c5nc(c(-c6c(F)cccc6F)c6ccc3[nH]6)C=C5)C=C4)cc2)cc1
REMARK SMILES IDX 16 1 15 2 14 3 12 4 13 5 11 7 8 8 9 9 79 10 10 11 78 12 7 13
REMARK SMILES IDX 6 14 5 15 2 16 1 17 3 18 4 19 17 21 18 22 19 23 20 24 21 25
REMARK SMILES IDX 22 26 23 28 24 29 25 30 77 31 26 32 76 33 27 34 28 35 29 36
REMARK SMILES IDX 70 37 30 38 75 39 69 40 71 41 31 42 74 43 68 44 67 45 32 47
REMARK SMILES IDX 58 48 41 49 57 50 42 51 45 52 56 53 72 54 43 55 44 56 55 58
REMARK SMILES IDX 73 59 46 60 33 61 34 62 39 63 35 64 36 65 38 66 40 67 37 68
REMARK SMILES IDX 59 69 60 70 65 71 61 72 62 73 64 74 66 75 63 76 47 77 48 78
REMARK SMILES IDX 53 79 49 80 50 81 52 82 54 83 51 84
REMARK H PARENT 14 6 4 20 21 27 71 46 45 57
REMARK Flexibility Score: inf
ROOT
ATOM      1  C   UNL     1       1.757  -4.244   1.835  1.00  0.00     0.021 C 
ENDROOT
BRANCH   1   2
ATOM      2  C   UNL     1       0.569  -3.293   2.004  1.00  0.00     0.116 C 
BRANCH   2   3
ATOM      3  N   UNL     1       0.382  -2.860   3.380  1.00  0.00    -0.352 N 
ATOM      4  C   UNL     1       0.217  -1.597   3.904  1.00  0.00     0.251 C 
ATOM      5  O   UNL     1       0.217  -1.441   5.122  1.00  0.00    -0.269 OA
ATOM      6  H   UNL     1       0.371  -3.587   4.044  1.00  0.00     0.163 HD
BRANCH   4   7
ATOM      7  C   UNL     1       0.096  -0.416   3.018  1.00  0.00     0.040 A 
ATOM      8  C   UNL     1       0.232   1.661   1.154  1.00  0.00     0.119 A 
ATOM      9  C   UNL     1       0.948   1.746   2.351  1.00  0.00     0.047 A 
ATOM     10  C   UNL     1      -0.718   0.654   1.009  1.00  0.00     0.047 A 
ATOM     11  C   UNL     1       0.876   0.712   3.290  1.00  0.00     0.017 A 
ATOM     12  C   UNL     1      -0.768  -0.403   1.923  1.00  0.00     0.017 A 
BRANCH   8  13
ATOM     13  O   UNL     1       0.625   2.538   0.182  1.00  0.00    -0.493 OA
BRANCH  13  14
ATOM     14  C   UNL     1       0.217   2.318  -1.172  1.00  0.00     0.232 C 
BRANCH  14  15
ATOM     15  C   UNL     1       1.148   1.434  -2.036  1.00  0.00     0.076 C 
BRANCH  15  16
ATOM     16  C   UNL     1       1.096  -0.101  -1.849  1.00  0.00     0.062 C 
ATOM     17  C   UNL     1       2.025  -0.578  -0.728  1.00  0.00     0.042 C 
ATOM     18  C   UNL     1       1.512  -0.834  -3.133  1.00  0.00     0.042 C 
BRANCH  16  19
ATOM     19  O   UNL     1      -0.251  -0.504  -1.606  1.00  0.00    -0.390 OA
ATOM     20  H   UNL     1      -0.284  -1.466  -1.488  1.00  0.00     0.211 HD
ENDBRANCH  16  19
ENDBRANCH  15  16
ENDBRANCH  14  15
ENDBRANCH  13  14
ENDBRANCH   8  13
ENDBRANCH   4   7
ENDBRANCH   2   3
ENDBRANCH   1   2
BRANCH   1  21
ATOM     21  C   UNL     1       1.585  -5.631   2.466  1.00  0.00     0.002 C 
BRANCH  21  22
ATOM     22  C   UNL     1       0.440  -6.480   1.903  1.00  0.00     0.002 C 
BRANCH  22  23
ATOM     23  C   UNL     1       0.504  -6.771   0.401  1.00  0.00     0.021 C 
BRANCH  23  24
ATOM     24  C   UNL     1       1.753  -7.514  -0.067  1.00  0.00     0.116 C 
BRANCH  24  25
ATOM     25  N   UNL     1       1.861  -8.845   0.511  1.00  0.00    -0.352 N 
ATOM     26  C   UNL     1       2.003 -10.062  -0.107  1.00  0.00     0.251 C 
ATOM     27  H   UNL     1       1.826  -8.878   1.495  1.00  0.00     0.163 HD
ATOM     28  O   UNL     1       1.893 -11.100   0.546  1.00  0.00    -0.269 OA
BRANCH  26  29
ATOM     29  C   UNL     1       2.270 -10.139  -1.559  1.00  0.00     0.039 A 
ATOM     30  C   UNL     1       1.583 -11.084  -2.325  1.00  0.00     0.014 A 
ATOM     31  C   UNL     1       3.207  -9.297  -2.165  1.00  0.00     0.014 A 
ATOM     32  C   UNL     1       1.786 -11.141  -3.706  1.00  0.00     0.010 A 
ATOM     33  C   UNL     1       3.353  -9.303  -3.550  1.00  0.00     0.010 A 
ATOM     34  C   UNL     1       2.646 -10.226  -4.336  1.00  0.00    -0.014 A 
BRANCH  34  35
ATOM     35  C   UNL     1       2.812 -10.216  -5.813  1.00  0.00     0.031 A 
ATOM     36  C   UNL     1       4.150 -10.514  -6.430  1.00  0.00     0.074 A 
ATOM     37  C   UNL     1       1.769  -9.877  -6.597  1.00  0.00     0.049 A 
ATOM     38  N   UNL     1       4.504 -10.489  -7.691  1.00  0.00    -0.248 NA
ATOM     39  C   UNL     1       5.243 -10.860  -5.508  1.00  0.00     0.031 C 
ATOM     40  C   UNL     1       0.431  -9.525  -6.119  1.00  0.00     0.029 A 
ATOM     41  N   UNL     1       1.674  -9.763  -7.962  1.00  0.00    -0.354 N 
ATOM     42  C   UNL     1       5.857 -10.805  -7.711  1.00  0.00     0.074 A 
ATOM     43  C   UNL     1       6.274 -10.960  -6.334  1.00  0.00     0.031 C 
ATOM     44  C   UNL     1      -0.357  -9.259  -7.173  1.00  0.00     0.029 A 
ATOM     45  C   UNL     1       0.429  -9.378  -8.397  1.00  0.00     0.049 A 
ATOM     46  H   UNL     1       2.427  -9.941  -8.571  1.00  0.00     0.167 HD
ATOM     47  C   UNL     1       6.672 -10.973  -8.780  1.00  0.00     0.037 A 
ATOM     48  C   UNL     1      -0.026  -9.137  -9.642  1.00  0.00     0.037 A 
ATOM     49  C   UNL     1       6.250 -10.833 -10.149  1.00  0.00     0.049 A 
ATOM     50  C   UNL     1       0.906  -9.308 -10.810  1.00  0.00     0.074 A 
ATOM     51  C   UNL     1       6.987 -11.036 -11.303  1.00  0.00     0.029 A 
ATOM     52  N   UNL     1       4.979 -10.448 -10.550  1.00  0.00    -0.354 N 
ATOM     53  N   UNL     1       2.165  -9.673 -10.818  1.00  0.00    -0.248 NA
ATOM     54  C   UNL     1       0.351  -9.039 -12.144  1.00  0.00     0.031 C 
ATOM     55  C   UNL     1       6.179 -10.719 -12.400  1.00  0.00     0.029 A 
ATOM     56  C   UNL     1       4.919 -10.380 -11.932  1.00  0.00     0.049 A 
ATOM     57  H   UNL     1       4.230 -10.252  -9.941  1.00  0.00     0.167 HD
ATOM     58  C   UNL     1       2.543  -9.709 -12.154  1.00  0.00     0.074 A 
ATOM     59  C   UNL     1       1.376  -9.342 -12.928  1.00  0.00     0.031 C 
ATOM     60  C   UNL     1       3.748 -10.019 -12.692  1.00  0.00     0.037 A 
BRANCH  47  61
ATOM     61  C   UNL     1       8.107 -11.326  -8.509  1.00  0.00     0.057 A 
ATOM     62  C   UNL     1       8.478 -12.573  -7.987  1.00  0.00     0.134 A 
ATOM     63  C   UNL     1       9.136 -10.424  -8.810  1.00  0.00     0.134 A 
ATOM     64  F   UNL     1       7.543 -13.481  -7.667  1.00  0.00    -0.206 F 
ATOM     65  C   UNL     1       9.814 -12.897  -7.745  1.00  0.00     0.040 A 
ATOM     66  C   UNL     1      10.478 -10.748  -8.602  1.00  0.00     0.040 A 
ATOM     67  F   UNL     1       8.855  -9.215  -9.320  1.00  0.00    -0.206 F 
ATOM     68  C   UNL     1      10.819 -11.985  -8.061  1.00  0.00     0.006 A 
ENDBRANCH  47  61
BRANCH  48  69
ATOM     69  C   UNL     1      -1.437  -8.723  -9.852  1.00  0.00     0.057 A 
ATOM     70  C   UNL     1      -2.352  -9.570 -10.488  1.00  0.00     0.134 A 
ATOM     71  C   UNL     1      -1.902  -7.469  -9.437  1.00  0.00     0.134 A 
ATOM     72  F   UNL     1      -1.964 -10.777 -10.925  1.00  0.00    -0.206 F 
ATOM     73  C   UNL     1      -3.671  -9.178 -10.724  1.00  0.00     0.040 A 
ATOM     74  C   UNL     1      -3.225  -7.075  -9.642  1.00  0.00     0.040 A 
ATOM     75  F   UNL     1      -1.078  -6.612  -8.815  1.00  0.00    -0.206 F 
ATOM     76  C   UNL     1      -4.112  -7.928 -10.296  1.00  0.00     0.006 A 
ENDBRANCH  48  69
BRANCH  60  77
ATOM     77  C   UNL     1       3.857 -10.015 -14.190  1.00  0.00     0.057 A 
ATOM     78  C   UNL     1       3.829  -8.829 -14.934  1.00  0.00     0.134 A 
ATOM     79  C   UNL     1       4.030 -11.215 -14.893  1.00  0.00     0.134 A 
ATOM     80  F   UNL     1       3.654  -7.647 -14.324  1.00  0.00    -0.206 F 
ATOM     81  C   UNL     1       3.943  -8.838 -16.326  1.00  0.00     0.040 A 
ATOM     82  C   UNL     1       4.176 -11.234 -16.280  1.00  0.00     0.040 A 
ATOM     83  F   UNL     1       4.075 -12.386 -14.241  1.00  0.00    -0.206 F 
ATOM     84  C   UNL     1       4.126 -10.043 -17.002  1.00  0.00     0.006 A 
ENDBRANCH  60  77
ENDBRANCH  34  35
ENDBRANCH  26  29
ENDBRANCH  24  25
ENDBRANCH  23  24
ENDBRANCH  22  23
ENDBRANCH  21  22
ENDBRANCH   1  21
TORSDOF 18
