REMARK SMILES Nn1c(S[C@@H](C(=O)NCCCCCCNC(=O)c2ccc(-c3c4nc(c(-c5c(F)cccc5F)c5ccc([nH]5)c(-c5c(F)cccc5F)c5nc(c(-c6c(F)cccc6F)c6ccc3[nH]6)C=C5)C=C4)cc2)c2ccccc2)nc2ccc(Br)cc2c1=O
REMARK SMILES IDX 11 1 10 2 9 3 8 4 6 5 7 6 5 8 4 9 3 10 2 11 86 12 78 13
REMARK SMILES IDX 85 14 87 15 79 16 84 17 80 18 82 19 81 20 83 21 1 22 72 25
REMARK SMILES IDX 73 26 77 27 74 28 76 29 75 30 12 31 13 32 14 33 15 34 16 35
REMARK SMILES IDX 17 37 18 38 19 39 71 40 20 41 70 42 21 43 22 44 23 45 64 46
REMARK SMILES IDX 24 47 69 48 63 49 65 50 25 51 68 52 62 53 61 54 26 56 52 57
REMARK SMILES IDX 35 58 51 59 36 60 39 61 50 62 66 63 37 64 38 65 49 67 67 68
REMARK SMILES IDX 40 69 27 70 28 71 33 72 29 73 30 74 32 75 34 76 31 77 53 78
REMARK SMILES IDX 54 79 59 80 55 81 56 82 58 83 60 84 57 85 41 86 42 87 47 88
REMARK SMILES IDX 43 89 44 90 46 91 48 92 45 93
REMARK H PARENT 8 7 1 23 1 24 15 36 65 55 39 66
REMARK Flexibility Score: inf
ROOT
ATOM      1  C   UNL     1       5.048   3.757  -0.009  1.00  0.00     0.002 C 
ENDROOT
BRANCH   1   2
ATOM      2  C   UNL     1       4.586   3.010  -1.266  1.00  0.00     0.021 C 
BRANCH   2   3
ATOM      3  C   UNL     1       4.990   1.535  -1.344  1.00  0.00     0.116 C 
BRANCH   3   4
ATOM      4  N   UNL     1       4.413   0.736  -0.281  1.00  0.00    -0.355 N 
ATOM      5  C   UNL     1       3.396  -0.180  -0.285  1.00  0.00     0.238 C 
ATOM      6  O   UNL     1       3.267  -0.823   0.766  1.00  0.00    -0.273 OA
ATOM      7  H   UNL     1       4.826   0.879   0.602  1.00  0.00     0.163 HD
BRANCH   5   8
ATOM      8  C   UNL     1       2.552  -0.483  -1.555  1.00  0.00     0.174 C 
BRANCH   8   9
ATOM      9  S   UNL     1       1.913   0.988  -2.371  1.00  0.00    -0.068 SA
BRANCH   9  10
ATOM     10  C   UNL     1       0.500   1.653  -1.599  1.00  0.00     0.191 A 
ATOM     11  N   UNL     1       0.114   1.441  -0.278  1.00  0.00    -0.202 N 
ATOM     12  C   UNL     1      -1.090   1.946   0.228  1.00  0.00     0.280 A 
ATOM     13  N   UNL     1      -0.186   2.402  -2.406  1.00  0.00    -0.222 NA
ATOM     14  C   UNL     1      -1.868   2.800  -0.680  1.00  0.00     0.069 A 
ATOM     15  O   UNL     1      -1.492   1.730   1.371  1.00  0.00    -0.267 OA
ATOM     16  C   UNL     1      -1.350   3.021  -1.952  1.00  0.00     0.079 A 
ATOM     17  C   UNL     1      -3.059   3.405  -0.264  1.00  0.00     0.031 A 
ATOM     18  C   UNL     1      -2.022   3.892  -2.813  1.00  0.00     0.030 A 
ATOM     19  C   UNL     1      -3.723   4.260  -1.140  1.00  0.00     0.018 A 
ATOM     20  C   UNL     1      -3.205   4.516  -2.409  1.00  0.00     0.018 A 
ATOM     21  Br  UNL     1      -5.333   5.089  -0.602  1.00  0.00    -0.051 Br
BRANCH  11  22
ATOM     22  N   UNL     1       0.926   0.774   0.662  1.00  0.00    -0.334 N 
ATOM     23  H   UNL     1       1.789   0.391   0.384  1.00  0.00     0.178 HD
ATOM     24  H   UNL     1       0.630   0.692   1.598  1.00  0.00     0.178 HD
ENDBRANCH  11  22
ENDBRANCH   9  10
ENDBRANCH   8   9
BRANCH   8  25
ATOM     25  C   UNL     1       1.627  -1.706  -1.437  1.00  0.00    -0.025 A 
ATOM     26  C   UNL     1       2.203  -2.946  -1.087  1.00  0.00     0.005 A 
ATOM     27  C   UNL     1       0.240  -1.689  -1.658  1.00  0.00     0.005 A 
ATOM     28  C   UNL     1       1.423  -4.093  -0.909  1.00  0.00     0.000 A 
ATOM     29  C   UNL     1      -0.544  -2.832  -1.463  1.00  0.00     0.000 A 
ATOM     30  C   UNL     1       0.046  -4.031  -1.082  1.00  0.00     0.000 A 
ENDBRANCH   8  25
ENDBRANCH   5   8
ENDBRANCH   3   4
ENDBRANCH   2   3
ENDBRANCH   1   2
BRANCH   1  31
ATOM     31  C   UNL     1       6.554   3.752   0.264  1.00  0.00     0.002 C 
BRANCH  31  32
ATOM     32  C   UNL     1       7.440   4.173  -0.908  1.00  0.00     0.021 C 
BRANCH  32  33
ATOM     33  C   UNL     1       7.157   5.561  -1.471  1.00  0.00     0.116 C 
BRANCH  33  34
ATOM     34  N   UNL     1       7.544   6.633  -0.566  1.00  0.00    -0.352 N 
ATOM     35  C   UNL     1       8.370   7.711  -0.795  1.00  0.00     0.251 C 
ATOM     36  H   UNL     1       7.160   6.579   0.340  1.00  0.00     0.163 HD
ATOM     37  O   UNL     1       8.697   8.451   0.123  1.00  0.00    -0.269 OA
BRANCH  35  38
ATOM     38  C   UNL     1       8.898   7.947  -2.158  1.00  0.00     0.039 A 
ATOM     39  C   UNL     1       8.054   7.891  -3.268  1.00  0.00     0.014 A 
ATOM     40  C   UNL     1      10.266   8.179  -2.327  1.00  0.00     0.014 A 
ATOM     41  C   UNL     1       8.600   7.880  -4.548  1.00  0.00     0.010 A 
ATOM     42  C   UNL     1      10.802   8.253  -3.616  1.00  0.00     0.010 A 
ATOM     43  C   UNL     1       9.983   8.043  -4.737  1.00  0.00    -0.014 A 
BRANCH  43  44
ATOM     44  C   UNL     1      10.550   7.950  -6.109  1.00  0.00     0.031 A 
ATOM     45  C   UNL     1      11.484   6.827  -6.479  1.00  0.00     0.074 A 
ATOM     46  C   UNL     1      10.173   8.842  -7.044  1.00  0.00     0.049 A 
ATOM     47  N   UNL     1      12.057   6.572  -7.630  1.00  0.00    -0.248 NA
ATOM     48  C   UNL     1      11.821   5.863  -5.420  1.00  0.00     0.031 C 
ATOM     49  C   UNL     1       9.260   9.964  -6.821  1.00  0.00     0.029 A 
ATOM     50  N   UNL     1      10.489   8.930  -8.376  1.00  0.00    -0.354 N 
ATOM     51  C   UNL     1      12.830   5.435  -7.429  1.00  0.00     0.074 A 
ATOM     52  C   UNL     1      12.681   5.067  -6.037  1.00  0.00     0.031 C 
ATOM     53  C   UNL     1       9.049  10.597  -7.985  1.00  0.00     0.029 A 
ATOM     54  C   UNL     1       9.857   9.964  -9.022  1.00  0.00     0.049 A 
ATOM     55  H   UNL     1      11.109   8.312  -8.825  1.00  0.00     0.167 HD
ATOM     56  C   UNL     1      13.585   4.750  -8.323  1.00  0.00     0.037 A 
ATOM     57  C   UNL     1       9.930  10.367 -10.304  1.00  0.00     0.037 A 
ATOM     58  C   UNL     1      13.725   5.106  -9.711  1.00  0.00     0.049 A 
ATOM     59  C   UNL     1      10.825   9.629 -11.257  1.00  0.00     0.074 A 
ATOM     60  C   UNL     1      14.454   4.464 -10.699  1.00  0.00     0.029 A 
ATOM     61  N   UNL     1      13.123   6.202 -10.310  1.00  0.00    -0.354 N 
ATOM     62  N   UNL     1      11.543   8.552 -11.053  1.00  0.00    -0.248 NA
ATOM     63  C   UNL     1      10.928  10.174 -12.618  1.00  0.00     0.031 C 
ATOM     64  C   UNL     1      14.324   5.196 -11.886  1.00  0.00     0.029 A 
ATOM     65  C   UNL     1      13.481   6.268 -11.647  1.00  0.00     0.049 A 
ATOM     66  H   UNL     1      12.528   6.839  -9.852  1.00  0.00     0.167 HD
ATOM     67  C   UNL     1      12.171   8.280 -12.261  1.00  0.00     0.074 A 
ATOM     68  C   UNL     1      11.730   9.293 -13.198  1.00  0.00     0.031 C 
ATOM     69  C   UNL     1      13.037   7.285 -12.566  1.00  0.00     0.037 A 
BRANCH  56  70
ATOM     70  C   UNL     1      14.335   3.551  -7.816  1.00  0.00     0.057 A 
ATOM     71  C   UNL     1      15.729   3.583  -7.684  1.00  0.00     0.134 A 
ATOM     72  C   UNL     1      13.682   2.358  -7.479  1.00  0.00     0.134 A 
ATOM     73  F   UNL     1      16.417   4.692  -7.995  1.00  0.00    -0.206 F 
ATOM     74  C   UNL     1      16.446   2.474  -7.232  1.00  0.00     0.040 A 
ATOM     75  C   UNL     1      14.386   1.250  -7.003  1.00  0.00     0.040 A 
ATOM     76  F   UNL     1      12.347   2.264  -7.570  1.00  0.00    -0.206 F 
ATOM     77  C   UNL     1      15.773   1.304  -6.883  1.00  0.00     0.006 A 
ENDBRANCH  56  70
BRANCH  57  78
ATOM     78  C   UNL     1       9.141  11.537 -10.762  1.00  0.00     0.057 A 
ATOM     79  C   UNL     1       9.444  12.835 -10.333  1.00  0.00     0.134 A 
ATOM     80  C   UNL     1       8.074  11.384 -11.654  1.00  0.00     0.134 A 
ATOM     81  F   UNL     1      10.454  13.047  -9.476  1.00  0.00    -0.206 F 
ATOM     82  C   UNL     1       8.709  13.938 -10.768  1.00  0.00     0.040 A 
ATOM     83  C   UNL     1       7.347  12.480 -12.118  1.00  0.00     0.040 A 
ATOM     84  F   UNL     1       7.751  10.167 -12.116  1.00  0.00    -0.206 F 
ATOM     85  C   UNL     1       7.661  13.762 -11.670  1.00  0.00     0.006 A 
ENDBRANCH  57  78
BRANCH  69  86
ATOM     86  C   UNL     1      13.542   7.236 -13.978  1.00  0.00     0.057 A 
ATOM     87  C   UNL     1      13.095   6.249 -14.864  1.00  0.00     0.134 A 
ATOM     88  C   UNL     1      14.473   8.165 -14.459  1.00  0.00     0.134 A 
ATOM     89  F   UNL     1      12.207   5.326 -14.464  1.00  0.00    -0.206 F 
ATOM     90  C   UNL     1      13.553   6.189 -16.180  1.00  0.00     0.040 A 
ATOM     91  C   UNL     1      14.921   8.130 -15.781  1.00  0.00     0.040 A 
ATOM     92  F   UNL     1      14.927   9.147 -13.665  1.00  0.00    -0.206 F 
ATOM     93  C   UNL     1      14.463   7.137 -16.644  1.00  0.00     0.006 A 
ENDBRANCH  69  86
ENDBRANCH  43  44
ENDBRANCH  35  38
ENDBRANCH  33  34
ENDBRANCH  32  33
ENDBRANCH  31  32
ENDBRANCH   1  31
TORSDOF 17
