REMARK SMILES C[C@@H](C(=O)NCCCCCCNC(=O)c1ccc(-c2c3nc(c(-c4c(F)cccc4F)c4ccc([nH]4)c(-c4c(F)cccc4F)c4nc(c(-c5c(F)cccc5F)c5ccc2[nH]5)C=C4)C=C3)cc1)N1C(=O)/C(=C/c2ccc(F)cc2)SC1=S
REMARK SMILES IDX 8 1 7 2 6 3 5 4 3 5 4 6 2 8 1 9 69 10 70 11 82 12 71 13
REMARK SMILES IDX 72 14 81 15 83 16 73 17 74 18 75 19 80 20 76 21 79 22 77 23
REMARK SMILES IDX 78 24 9 25 10 26 11 27 12 28 13 29 14 31 15 32 16 33 68 34
REMARK SMILES IDX 17 35 67 36 18 37 19 38 20 39 61 40 21 41 66 42 60 43 62 44
REMARK SMILES IDX 22 45 65 46 59 47 58 48 23 50 49 51 32 52 48 53 33 54 36 55
REMARK SMILES IDX 47 56 63 57 34 58 35 59 46 61 64 62 37 63 24 64 25 65 30 66
REMARK SMILES IDX 26 67 27 68 29 69 31 70 28 71 50 72 51 73 56 74 52 75 53 76
REMARK SMILES IDX 55 77 57 78 54 79 38 80 39 81 44 82 40 83 41 84 43 85 45 86
REMARK SMILES IDX 42 87
REMARK H PARENT 5 7 12 30 62 49 36 60
REMARK Flexibility Score: inf
ROOT
ATOM      1  C   UNL     1       5.050   2.536   1.284  1.00  0.00     0.002 C 
ENDROOT
BRANCH   1   2
ATOM      2  C   UNL     1       4.298   1.324   0.718  1.00  0.00     0.021 C 
BRANCH   2   3
ATOM      3  C   UNL     1       3.530   0.512   1.761  1.00  0.00     0.116 C 
BRANCH   3   4
ATOM      4  N   UNL     1       2.474   1.289   2.374  1.00  0.00    -0.354 N 
ATOM      5  C   UNL     1       1.122   1.167   2.284  1.00  0.00     0.242 C 
ATOM      6  O   UNL     1       0.460   1.798   3.114  1.00  0.00    -0.273 OA
ATOM      7  H   UNL     1       2.785   2.024   2.951  1.00  0.00     0.163 HD
BRANCH   5   8
ATOM      8  C   UNL     1       0.462   0.202   1.271  1.00  0.00     0.178 C 
ATOM      9  C   UNL     1       0.891   0.270  -0.193  1.00  0.00     0.042 C 
BRANCH   8  10
ATOM     10  N   UNL     1      -1.013   0.282   1.374  1.00  0.00    -0.281 N 
ATOM     11  C   UNL     1      -1.709  -0.887   1.630  1.00  0.00     0.266 C 
ATOM     12  C   UNL     1      -1.782   1.405   1.114  1.00  0.00     0.149 C 
ATOM     13  O   UNL     1      -1.218  -1.997   1.808  1.00  0.00    -0.268 OA
ATOM     14  C   UNL     1      -3.171  -0.647   1.555  1.00  0.00     0.081 C 
ATOM     15  S   UNL     1      -3.479   1.031   1.387  1.00  0.00    -0.054 SA
ATOM     16  S   UNL     1      -1.326   2.918   0.570  1.00  0.00    -0.052 S 
ATOM     17  C   UNL     1      -4.060  -1.651   1.556  1.00  0.00     0.029 C 
BRANCH  17  18
ATOM     18  C   UNL     1      -5.513  -1.500   1.418  1.00  0.00    -0.024 A 
ATOM     19  C   UNL     1      -6.350  -2.004   2.421  1.00  0.00     0.011 A 
ATOM     20  C   UNL     1      -6.080  -0.870   0.299  1.00  0.00     0.011 A 
ATOM     21  C   UNL     1      -7.734  -1.838   2.328  1.00  0.00     0.040 A 
ATOM     22  C   UNL     1      -7.462  -0.697   0.213  1.00  0.00     0.040 A 
ATOM     23  C   UNL     1      -8.275  -1.177   1.231  1.00  0.00     0.123 A 
ATOM     24  F   UNL     1      -9.600  -1.002   1.154  1.00  0.00    -0.207 F 
ENDBRANCH  17  18
ENDBRANCH   8  10
ENDBRANCH   5   8
ENDBRANCH   3   4
ENDBRANCH   2   3
ENDBRANCH   1   2
BRANCH   1  25
ATOM     25  C   UNL     1       6.029   2.228   2.422  1.00  0.00     0.002 C 
BRANCH  25  26
ATOM     26  C   UNL     1       7.076   1.158   2.108  1.00  0.00     0.021 C 
BRANCH  26  27
ATOM     27  C   UNL     1       7.972   1.472   0.914  1.00  0.00     0.116 C 
BRANCH  27  28
ATOM     28  N   UNL     1       8.794   2.650   1.139  1.00  0.00    -0.352 N 
ATOM     29  C   UNL     1      10.160   2.786   1.095  1.00  0.00     0.251 C 
ATOM     30  H   UNL     1       8.298   3.473   1.356  1.00  0.00     0.163 HD
ATOM     31  O   UNL     1      10.691   3.812   1.505  1.00  0.00    -0.269 OA
BRANCH  29  32
ATOM     32  C   UNL     1      10.996   1.682   0.576  1.00  0.00     0.039 A 
ATOM     33  C   UNL     1      12.141   1.314   1.286  1.00  0.00     0.014 A 
ATOM     34  C   UNL     1      10.655   1.011  -0.603  1.00  0.00     0.014 A 
ATOM     35  C   UNL     1      12.900   0.223   0.858  1.00  0.00     0.010 A 
ATOM     36  C   UNL     1      11.373  -0.119  -0.989  1.00  0.00     0.010 A 
ATOM     37  C   UNL     1      12.496  -0.531  -0.257  1.00  0.00    -0.014 A 
BRANCH  37  38
ATOM     38  C   UNL     1      13.211  -1.778  -0.635  1.00  0.00     0.031 A 
ATOM     39  C   UNL     1      13.918  -1.886  -1.958  1.00  0.00     0.074 A 
ATOM     40  C   UNL     1      13.164  -2.841   0.194  1.00  0.00     0.049 A 
ATOM     41  N   UNL     1      14.539  -2.915  -2.478  1.00  0.00    -0.248 NA
ATOM     42  C   UNL     1      13.909  -0.693  -2.819  1.00  0.00     0.031 C 
ATOM     43  C   UNL     1      12.469  -2.878   1.483  1.00  0.00     0.029 A 
ATOM     44  N   UNL     1      13.700  -4.099   0.073  1.00  0.00    -0.354 N 
ATOM     45  C   UNL     1      14.984  -2.498  -3.727  1.00  0.00     0.074 A 
ATOM     46  C   UNL     1      14.526  -1.137  -3.905  1.00  0.00     0.031 C 
ATOM     47  C   UNL     1      12.636  -4.089   2.039  1.00  0.00     0.029 A 
ATOM     48  C   UNL     1      13.410  -4.927   1.131  1.00  0.00     0.049 A 
ATOM     49  H   UNL     1      14.242  -4.381  -0.700  1.00  0.00     0.167 HD
ATOM     50  C   UNL     1      15.722  -3.183  -4.632  1.00  0.00     0.037 A 
ATOM     51  C   UNL     1      13.717  -6.222   1.339  1.00  0.00     0.037 A 
ATOM     52  C   UNL     1      16.198  -4.528  -4.440  1.00  0.00     0.049 A 
ATOM     53  C   UNL     1      14.524  -6.959   0.306  1.00  0.00     0.074 A 
ATOM     54  C   UNL     1      17.018  -5.276  -5.268  1.00  0.00     0.029 A 
ATOM     55  N   UNL     1      15.893  -5.330  -3.351  1.00  0.00    -0.354 N 
ATOM     56  N   UNL     1      15.013  -6.521  -0.829  1.00  0.00    -0.248 NA
ATOM     57  C   UNL     1      14.826  -8.371   0.583  1.00  0.00     0.031 C 
ATOM     58  C   UNL     1      17.161  -6.549  -4.710  1.00  0.00     0.029 A 
ATOM     59  C   UNL     1      16.478  -6.576  -3.505  1.00  0.00     0.049 A 
ATOM     60  H   UNL     1      15.342  -5.054  -2.583  1.00  0.00     0.167 HD
ATOM     61  C   UNL     1      15.700  -7.593  -1.385  1.00  0.00     0.074 A 
ATOM     62  C   UNL     1      15.586  -8.694  -0.453  1.00  0.00     0.031 C 
ATOM     63  C   UNL     1      16.362  -7.661  -2.566  1.00  0.00     0.037 A 
BRANCH  50  64
ATOM     64  C   UNL     1      16.074  -2.497  -5.920  1.00  0.00     0.057 A 
ATOM     65  C   UNL     1      17.018  -1.464  -5.973  1.00  0.00     0.134 A 
ATOM     66  C   UNL     1      15.529  -2.938  -7.133  1.00  0.00     0.134 A 
ATOM     67  F   UNL     1      17.572  -0.990  -4.847  1.00  0.00    -0.206 F 
ATOM     68  C   UNL     1      17.401  -0.888  -7.186  1.00  0.00     0.040 A 
ATOM     69  C   UNL     1      15.923  -2.388  -8.354  1.00  0.00     0.040 A 
ATOM     70  F   UNL     1      14.624  -3.929  -7.153  1.00  0.00    -0.206 F 
ATOM     71  C   UNL     1      16.861  -1.359  -8.382  1.00  0.00     0.006 A 
ENDBRANCH  50  64
BRANCH  51  72
ATOM     72  C   UNL     1      13.256  -6.918   2.569  1.00  0.00     0.057 A 
ATOM     73  C   UNL     1      14.167  -7.368   3.533  1.00  0.00     0.134 A 
ATOM     74  C   UNL     1      11.901  -7.193   2.787  1.00  0.00     0.134 A 
ATOM     75  F   UNL     1      15.481  -7.153   3.372  1.00  0.00    -0.206 F 
ATOM     76  C   UNL     1      13.751  -8.097   4.649  1.00  0.00     0.040 A 
ATOM     77  C   UNL     1      11.468  -7.893   3.915  1.00  0.00     0.040 A 
ATOM     78  F   UNL     1      10.975  -6.783   1.908  1.00  0.00    -0.206 F 
ATOM     79  C   UNL     1      12.397  -8.359   4.843  1.00  0.00     0.006 A 
ENDBRANCH  51  72
BRANCH  63  80
ATOM     80  C   UNL     1      17.039  -8.959  -2.900  1.00  0.00     0.057 A 
ATOM     81  C   UNL     1      16.312 -10.107  -3.237  1.00  0.00     0.134 A 
ATOM     82  C   UNL     1      18.437  -9.051  -2.917  1.00  0.00     0.134 A 
ATOM     83  F   UNL     1      14.970 -10.090  -3.227  1.00  0.00    -0.206 F 
ATOM     84  C   UNL     1      16.950 -11.308  -3.553  1.00  0.00     0.040 A 
ATOM     85  C   UNL     1      19.086 -10.237  -3.260  1.00  0.00     0.040 A 
ATOM     86  F   UNL     1      19.195  -7.986  -2.613  1.00  0.00    -0.206 F 
ATOM     87  C   UNL     1      18.342 -11.373  -3.572  1.00  0.00     0.006 A 
ENDBRANCH  63  80
ENDBRANCH  37  38
ENDBRANCH  29  32
ENDBRANCH  27  28
ENDBRANCH  26  27
ENDBRANCH  25  26
ENDBRANCH   1  25
TORSDOF 15
