REMARK SMILES C[C@H](NC(=O)NCCc1ccccc1F)C(=O)NCCCCCCNC(=O)c1ccc(-c2c3nc(c(-c4c(F)cccc4F)c4ccc([nH]4)c(-c4c(F)cccc4F)c4nc(c(-c5c(F)cccc5F)c5ccc2[nH]5)C=C4)C=C3)cc1
REMARK SMILES IDX 20 1 19 2 18 3 16 4 17 5 2 7 1 8 3 9 4 10 5 12 6 13 7 15
REMARK SMILES IDX 8 16 9 17 10 18 14 19 11 20 13 21 15 22 12 23 21 24 22 25
REMARK SMILES IDX 23 26 24 27 25 28 26 29 27 31 28 32 29 33 81 34 30 35 80 36
REMARK SMILES IDX 31 37 32 38 33 39 74 40 34 41 79 42 73 43 75 44 35 45 78 46
REMARK SMILES IDX 72 47 71 48 36 50 62 51 45 52 61 53 46 54 49 55 60 56 76 57
REMARK SMILES IDX 47 58 48 59 59 61 77 62 50 63 37 64 38 65 43 66 39 67 40 68
REMARK SMILES IDX 42 69 44 70 41 71 63 72 64 73 69 74 65 75 66 76 68 77 70 78
REMARK SMILES IDX 67 79 51 80 52 81 57 82 53 83 54 84 56 85 58 86 55 87
REMARK H PARENT 18 6 3 11 6 14 25 30 75 49 49 60
REMARK Flexibility Score: inf
ROOT
ATOM      1  C   UNL     1      -1.654   1.499   2.175  1.00  0.00     0.021 C 
ENDROOT
BRANCH   1   2
ATOM      2  C   UNL     1      -0.946   0.155   2.305  1.00  0.00     0.116 C 
BRANCH   2   3
ATOM      3  N   UNL     1      -1.489  -0.853   1.421  1.00  0.00    -0.354 N 
ATOM      4  C   UNL     1      -0.868  -1.895   0.800  1.00  0.00     0.242 C 
ATOM      5  O   UNL     1      -1.591  -2.764   0.302  1.00  0.00    -0.273 OA
ATOM      6  H   UNL     1      -2.454  -0.774   1.240  1.00  0.00     0.163 HD
BRANCH   4   7
ATOM      7  C   UNL     1       0.667  -2.038   0.782  1.00  0.00     0.170 C 
ATOM      8  C   UNL     1       1.223  -2.365   2.165  1.00  0.00     0.041 C 
BRANCH   7   9
ATOM      9  N   UNL     1       1.344  -0.882   0.197  1.00  0.00    -0.327 N 
ATOM     10  C   UNL     1       1.876  -0.702  -1.023  1.00  0.00     0.315 C 
ATOM     11  H   UNL     1       1.423  -0.106   0.797  1.00  0.00     0.166 HD
ATOM     12  O   UNL     1       2.692   0.208  -1.174  1.00  0.00    -0.249 OA
ATOM     13  N   UNL     1       1.565  -1.479  -2.072  1.00  0.00    -0.338 N 
ATOM     14  H   UNL     1       2.207  -1.440  -2.817  1.00  0.00     0.165 HD
BRANCH  13  15
ATOM     15  C   UNL     1       0.438  -2.370  -2.289  1.00  0.00     0.122 C 
BRANCH  15  16
ATOM     16  C   UNL     1       0.045  -2.506  -3.763  1.00  0.00     0.060 C 
BRANCH  16  17
ATOM     17  C   UNL     1       1.105  -3.139  -4.627  1.00  0.00    -0.010 A 
ATOM     18  C   UNL     1       1.659  -2.433  -5.702  1.00  0.00     0.007 A 
ATOM     19  C   UNL     1       1.545  -4.446  -4.388  1.00  0.00     0.126 A 
ATOM     20  C   UNL     1       2.640  -3.022  -6.503  1.00  0.00     0.000 A 
ATOM     21  C   UNL     1       2.526  -5.035  -5.178  1.00  0.00     0.039 A 
ATOM     22  F   UNL     1       1.016  -5.158  -3.383  1.00  0.00    -0.207 F 
ATOM     23  C   UNL     1       3.077  -4.321  -6.240  1.00  0.00     0.003 A 
ENDBRANCH  16  17
ENDBRANCH  15  16
ENDBRANCH  13  15
ENDBRANCH   7   9
ENDBRANCH   4   7
ENDBRANCH   2   3
ENDBRANCH   1   2
BRANCH   1  24
ATOM     24  C   UNL     1      -3.159   1.479   2.462  1.00  0.00     0.002 C 
BRANCH  24  25
ATOM     25  C   UNL     1      -3.579   0.808   3.774  1.00  0.00     0.002 C 
BRANCH  25  26
ATOM     26  C   UNL     1      -2.882   1.326   5.032  1.00  0.00     0.021 C 
BRANCH  26  27
ATOM     27  C   UNL     1      -2.984   2.829   5.248  1.00  0.00     0.116 C 
BRANCH  27  28
ATOM     28  N   UNL     1      -4.355   3.270   5.429  1.00  0.00    -0.352 N 
ATOM     29  C   UNL     1      -4.877   4.082   6.405  1.00  0.00     0.251 C 
ATOM     30  H   UNL     1      -4.999   2.941   4.761  1.00  0.00     0.163 HD
ATOM     31  O   UNL     1      -6.090   4.214   6.518  1.00  0.00    -0.269 OA
BRANCH  29  32
ATOM     32  C   UNL     1      -3.967   4.784   7.336  1.00  0.00     0.039 A 
ATOM     33  C   UNL     1      -4.281   4.804   8.697  1.00  0.00     0.014 A 
ATOM     34  C   UNL     1      -2.816   5.427   6.870  1.00  0.00     0.014 A 
ATOM     35  C   UNL     1      -3.420   5.436   9.595  1.00  0.00     0.010 A 
ATOM     36  C   UNL     1      -1.919   5.986   7.775  1.00  0.00     0.010 A 
ATOM     37  C   UNL     1      -2.220   6.012   9.145  1.00  0.00    -0.014 A 
BRANCH  37  38
ATOM     38  C   UNL     1      -1.290   6.680  10.089  1.00  0.00     0.031 A 
ATOM     39  C   UNL     1      -1.028   8.158   9.966  1.00  0.00     0.074 A 
ATOM     40  C   UNL     1      -0.664   5.958  11.040  1.00  0.00     0.049 A 
ATOM     41  N   UNL     1      -0.221   8.914  10.665  1.00  0.00    -0.248 NA
ATOM     42  C   UNL     1      -1.752   8.878   8.904  1.00  0.00     0.031 C 
ATOM     43  C   UNL     1      -0.814   4.516  11.244  1.00  0.00     0.029 A 
ATOM     44  N   UNL     1       0.220   6.341  12.018  1.00  0.00    -0.354 N 
ATOM     45  C   UNL     1      -0.339  10.190  10.128  1.00  0.00     0.074 A 
ATOM     46  C   UNL     1      -1.246  10.099   9.007  1.00  0.00     0.031 C 
ATOM     47  C   UNL     1      -0.079   4.143  12.305  1.00  0.00     0.029 A 
ATOM     48  C   UNL     1       0.624   5.309  12.831  1.00  0.00     0.049 A 
ATOM     49  H   UNL     1       0.535   7.267  12.127  1.00  0.00     0.167 HD
ATOM     50  C   UNL     1       0.232  11.341  10.553  1.00  0.00     0.037 A 
ATOM     51  C   UNL     1       1.465   5.305  13.883  1.00  0.00     0.037 A 
ATOM     52  C   UNL     1       1.108  11.437  11.690  1.00  0.00     0.049 A 
ATOM     53  C   UNL     1       2.102   6.597  14.318  1.00  0.00     0.074 A 
ATOM     54  C   UNL     1       1.716  12.565  12.212  1.00  0.00     0.029 A 
ATOM     55  N   UNL     1       1.491  10.368  12.485  1.00  0.00    -0.354 N 
ATOM     56  N   UNL     1       1.954   7.801  13.821  1.00  0.00    -0.248 NA
ATOM     57  C   UNL     1       3.018   6.533  15.467  1.00  0.00     0.031 C 
ATOM     58  C   UNL     1       2.498  12.174  13.301  1.00  0.00     0.029 A 
ATOM     59  C   UNL     1       2.332  10.812  13.491  1.00  0.00     0.049 A 
ATOM     60  H   UNL     1       1.207   9.435  12.354  1.00  0.00     0.167 HD
ATOM     61  C   UNL     1       2.719   8.640  14.620  1.00  0.00     0.074 A 
ATOM     62  C   UNL     1       3.326   7.811  15.639  1.00  0.00     0.031 C 
ATOM     63  C   UNL     1       2.902   9.979  14.518  1.00  0.00     0.037 A 
BRANCH  50  64
ATOM     64  C   UNL     1      -0.093  12.605   9.813  1.00  0.00     0.057 A 
ATOM     65  C   UNL     1       0.887  13.272   9.067  1.00  0.00     0.134 A 
ATOM     66  C   UNL     1      -1.349  13.215   9.925  1.00  0.00     0.134 A 
ATOM     67  F   UNL     1       2.112  12.745   8.925  1.00  0.00    -0.206 F 
ATOM     68  C   UNL     1       0.636  14.514   8.481  1.00  0.00     0.040 A 
ATOM     69  C   UNL     1      -1.619  14.444   9.321  1.00  0.00     0.040 A 
ATOM     70  F   UNL     1      -2.335  12.621  10.614  1.00  0.00    -0.206 F 
ATOM     71  C   UNL     1      -0.620  15.103   8.608  1.00  0.00     0.006 A 
ENDBRANCH  50  64
BRANCH  51  72
ATOM     72  C   UNL     1       1.727   4.046  14.628  1.00  0.00     0.057 A 
ATOM     73  C   UNL     1       2.442   2.986  14.056  1.00  0.00     0.134 A 
ATOM     74  C   UNL     1       1.280   3.881  15.945  1.00  0.00     0.134 A 
ATOM     75  F   UNL     1       2.892   3.075  12.796  1.00  0.00    -0.206 F 
ATOM     76  C   UNL     1       2.698   1.810  14.763  1.00  0.00     0.040 A 
ATOM     77  C   UNL     1       1.553   2.723  16.674  1.00  0.00     0.040 A 
ATOM     78  F   UNL     1       0.604   4.866  16.555  1.00  0.00    -0.206 F 
ATOM     79  C   UNL     1       2.261   1.680  16.080  1.00  0.00     0.006 A 
ENDBRANCH  51  72
BRANCH  63  80
ATOM     80  C   UNL     1       3.742  10.652  15.564  1.00  0.00     0.057 A 
ATOM     81  C   UNL     1       3.154  11.530  16.485  1.00  0.00     0.134 A 
ATOM     82  C   UNL     1       5.132  10.495  15.616  1.00  0.00     0.134 A 
ATOM     83  F   UNL     1       1.828  11.736  16.481  1.00  0.00    -0.206 F 
ATOM     84  C   UNL     1       3.921  12.237  17.412  1.00  0.00     0.040 A 
ATOM     85  C   UNL     1       5.906  11.174  16.558  1.00  0.00     0.040 A 
ATOM     86  F   UNL     1       5.755   9.663  14.767  1.00  0.00    -0.206 F 
ATOM     87  C   UNL     1       5.301  12.056  17.453  1.00  0.00     0.006 A 
ENDBRANCH  63  80
ENDBRANCH  37  38
ENDBRANCH  29  32
ENDBRANCH  27  28
ENDBRANCH  26  27
ENDBRANCH  25  26
ENDBRANCH  24  25
ENDBRANCH   1  24
TORSDOF 17
