REMARK SMILES O=C(NCCCCCCNC(=O)[C@@H]1CCCCC[C@H]1NC(=O)C1CC1)c1ccc(-c2c3nc(c(-c4c(F)cccc4F)c4ccc([nH]4)c(-c4c(F)cccc4F)c4nc(c(-c5c(F)cccc5F)c5ccc2[nH]5)C=C4)C=C3)cc1
REMARK SMILES IDX 7 1 6 2 5 3 4 4 3 5 1 6 2 7 26 9 27 10 79 11 28 12 78 13
REMARK SMILES IDX 29 14 30 15 31 16 72 17 32 18 77 19 71 20 73 21 33 22 76 23
REMARK SMILES IDX 70 24 69 25 34 27 60 28 43 29 59 30 44 31 47 32 58 33 74 34
REMARK SMILES IDX 45 35 46 36 57 38 75 39 48 40 35 41 36 42 41 43 37 44 38 45
REMARK SMILES IDX 40 46 42 47 39 48 61 49 62 50 67 51 63 52 64 53 66 54 68 55
REMARK SMILES IDX 65 56 49 57 50 58 55 59 51 60 52 61 54 62 56 63 53 64 8 65
REMARK SMILES IDX 9 66 10 67 11 68 12 70 13 71 14 72 15 73 16 74 19 76 18 77
REMARK SMILES IDX 17 78 20 80 21 81 22 83 23 84 24 85 25 86
REMARK H PARENT 3 8 73 26 47 37 10 69 20 82
REMARK Flexibility Score: 100.00
ROOT
ATOM      1  C   UNL     1       4.619   3.064  -3.173  1.00  0.00     0.002 C 
ENDROOT
BRANCH   1   2
ATOM      2  C   UNL     1       3.822   1.773  -3.412  1.00  0.00     0.002 C 
BRANCH   2   3
ATOM      3  C   UNL     1       4.304   0.567  -2.607  1.00  0.00     0.021 C 
BRANCH   3   4
ATOM      4  C   UNL     1       4.206   0.765  -1.103  1.00  0.00     0.116 C 
BRANCH   4   5
ATOM      5  N   UNL     1       2.822   0.823  -0.655  1.00  0.00    -0.352 N 
ATOM      6  O   UNL     1       0.956   0.044   0.359  1.00  0.00    -0.269 OA
ATOM      7  C   UNL     1       2.176   0.012   0.247  1.00  0.00     0.251 C 
ATOM      8  H   UNL     1       2.275   1.539  -1.052  1.00  0.00     0.163 HD
BRANCH   7   9
ATOM      9  C   UNL     1       2.978  -0.909   1.077  1.00  0.00     0.039 A 
ATOM     10  C   UNL     1       4.167  -0.459   1.653  1.00  0.00     0.014 A 
ATOM     11  C   UNL     1       2.558  -2.228   1.264  1.00  0.00     0.014 A 
ATOM     12  C   UNL     1       5.013  -1.363   2.270  1.00  0.00     0.010 A 
ATOM     13  C   UNL     1       3.358  -3.111   1.998  1.00  0.00     0.010 A 
ATOM     14  C   UNL     1       4.603  -2.689   2.487  1.00  0.00    -0.014 A 
BRANCH  14  15
ATOM     15  C   UNL     1       5.470  -3.558   3.322  1.00  0.00     0.031 A 
ATOM     16  C   UNL     1       6.111  -4.801   2.778  1.00  0.00     0.074 A 
ATOM     17  C   UNL     1       5.728  -3.153   4.583  1.00  0.00     0.049 A 
ATOM     18  N   UNL     1       6.952  -5.613   3.367  1.00  0.00    -0.248 NA
ATOM     19  C   UNL     1       5.763  -5.193   1.404  1.00  0.00     0.031 C 
ATOM     20  C   UNL     1       5.137  -1.972   5.223  1.00  0.00     0.029 A 
ATOM     21  N   UNL     1       6.574  -3.655   5.536  1.00  0.00    -0.354 N 
ATOM     22  C   UNL     1       7.231  -6.612   2.444  1.00  0.00     0.074 A 
ATOM     23  C   UNL     1       6.441  -6.325   1.265  1.00  0.00     0.031 C 
ATOM     24  C   UNL     1       5.690  -1.801   6.430  1.00  0.00     0.029 A 
ATOM     25  C   UNL     1       6.609  -2.902   6.685  1.00  0.00     0.049 A 
ATOM     26  H   UNL     1       7.104  -4.475   5.410  1.00  0.00     0.167 HD
ATOM     27  C   UNL     1       8.077  -7.664   2.569  1.00  0.00     0.037 A 
ATOM     28  C   UNL     1       7.288  -3.086   7.830  1.00  0.00     0.037 A 
ATOM     29  C   UNL     1       8.856  -7.941   3.751  1.00  0.00     0.049 A 
ATOM     30  C   UNL     1       8.198  -4.271   7.943  1.00  0.00     0.074 A 
ATOM     31  C   UNL     1       9.745  -8.978   3.975  1.00  0.00     0.029 A 
ATOM     32  N   UNL     1       8.838  -7.177   4.910  1.00  0.00    -0.354 N 
ATOM     33  N   UNL     1       8.468  -5.192   7.050  1.00  0.00    -0.248 NA
ATOM     34  C   UNL     1       8.896  -4.444   9.222  1.00  0.00     0.031 C 
ATOM     35  C   UNL     1      10.230  -8.868   5.283  1.00  0.00     0.029 A 
ATOM     36  C   UNL     1       9.687  -7.730   5.856  1.00  0.00     0.049 A 
ATOM     37  H   UNL     1       8.301  -6.362   5.041  1.00  0.00     0.167 HD
ATOM     38  C   UNL     1       9.373  -6.051   7.656  1.00  0.00     0.074 A 
ATOM     39  C   UNL     1       9.635  -5.516   8.977  1.00  0.00     0.031 C 
ATOM     40  C   UNL     1       9.928  -7.188   7.170  1.00  0.00     0.037 A 
BRANCH  27  41
ATOM     41  C   UNL     1       8.204  -8.603   1.403  1.00  0.00     0.057 A 
ATOM     42  C   UNL     1       8.861  -8.231   0.224  1.00  0.00     0.134 A 
ATOM     43  C   UNL     1       7.722  -9.916   1.484  1.00  0.00     0.134 A 
ATOM     44  F   UNL     1       9.338  -6.985   0.075  1.00  0.00    -0.206 F 
ATOM     45  C   UNL     1       9.024  -9.125  -0.837  1.00  0.00     0.040 A 
ATOM     46  C   UNL     1       7.900 -10.827   0.440  1.00  0.00     0.040 A 
ATOM     47  F   UNL     1       7.088 -10.343   2.586  1.00  0.00    -0.206 F 
ATOM     48  C   UNL     1       8.550 -10.431  -0.726  1.00  0.00     0.006 A 
ENDBRANCH  27  41
BRANCH  28  49
ATOM     49  C   UNL     1       7.104  -2.143   8.962  1.00  0.00     0.057 A 
ATOM     50  C   UNL     1       8.145  -1.324   9.410  1.00  0.00     0.134 A 
ATOM     51  C   UNL     1       5.874  -2.044   9.627  1.00  0.00     0.134 A 
ATOM     52  F   UNL     1       9.350  -1.380   8.822  1.00  0.00    -0.206 F 
ATOM     53  C   UNL     1       7.980  -0.461  10.495  1.00  0.00     0.040 A 
ATOM     54  C   UNL     1       5.685  -1.160  10.689  1.00  0.00     0.040 A 
ATOM     55  F   UNL     1       4.831  -2.792   9.238  1.00  0.00    -0.206 F 
ATOM     56  C   UNL     1       6.744  -0.374  11.133  1.00  0.00     0.006 A 
ENDBRANCH  28  49
BRANCH  40  57
ATOM     57  C   UNL     1      10.887  -7.906   8.074  1.00  0.00     0.057 A 
ATOM     58  C   UNL     1      10.457  -8.570   9.230  1.00  0.00     0.134 A 
ATOM     59  C   UNL     1      12.258  -7.923   7.790  1.00  0.00     0.134 A 
ATOM     60  F   UNL     1       9.158  -8.575   9.567  1.00  0.00    -0.206 F 
ATOM     61  C   UNL     1      11.360  -9.191  10.093  1.00  0.00     0.040 A 
ATOM     62  C   UNL     1      13.168  -8.569   8.629  1.00  0.00     0.040 A 
ATOM     63  F   UNL     1      12.737  -7.314   6.695  1.00  0.00    -0.206 F 
ATOM     64  C   UNL     1      12.720  -9.194   9.791  1.00  0.00     0.006 A 
ENDBRANCH  40  57
ENDBRANCH  14  15
ENDBRANCH   7   9
ENDBRANCH   4   5
ENDBRANCH   3   4
ENDBRANCH   2   3
ENDBRANCH   1   2
BRANCH   1  65
ATOM     65  C   UNL     1       6.143   2.915  -3.282  1.00  0.00     0.021 C 
BRANCH  65  66
ATOM     66  C   UNL     1       6.596   2.372  -4.638  1.00  0.00     0.116 C 
BRANCH  66  67
ATOM     67  N   UNL     1       6.696   3.437  -5.616  1.00  0.00    -0.356 N 
ATOM     68  C   UNL     1       7.692   4.227  -6.074  1.00  0.00     0.225 C 
ATOM     69  H   UNL     1       5.833   3.631  -6.049  1.00  0.00     0.163 HD
ATOM     70  O   UNL     1       7.328   5.098  -6.877  1.00  0.00    -0.275 OA
BRANCH  68  71
ATOM     71  C   UNL     1       9.191   4.107  -5.729  1.00  0.00     0.101 C 
BRANCH  71  72
ATOM     72  C   UNL     1       9.610   2.985  -4.781  1.00  0.00     0.015 C 
BRANCH  72  73
ATOM     73  C   UNL     1      11.062   2.974  -4.316  1.00  0.00     0.001 C 
BRANCH  73  74
ATOM     74  C   UNL     1      11.249   3.763  -3.025  1.00  0.00     0.000 CG0
ATOM     75  G   UNL     1      11.088   5.274  -3.136  1.00  0.00     0.000 G0
ENDBRANCH  73  74
ENDBRANCH  72  73
ENDBRANCH  71  72
BRANCH  71  76
ATOM     76  C   UNL     1       9.728   5.518  -5.355  1.00  0.00     0.094 C 
BRANCH  76  77
ATOM     77  C   UNL     1       9.828   5.781  -3.840  1.00  0.00     0.026 C 
BRANCH  77  78
ATOM     78  C   UNL     1      11.088   5.274  -3.136  1.00  0.00     0.002 CG0
ATOM     79  G   UNL     1      11.249   3.763  -3.025  1.00  0.00     0.000 G0
ENDBRANCH  77  78
ENDBRANCH  76  77
BRANCH  76  80
ATOM     80  N   UNL     1      11.005   5.780  -6.029  1.00  0.00    -0.352 N 
ATOM     81  C   UNL     1      11.299   6.611  -7.076  1.00  0.00     0.223 C 
ATOM     82  H   UNL     1      11.772   5.278  -5.671  1.00  0.00     0.163 HD
ATOM     83  O   UNL     1      12.432   6.624  -7.533  1.00  0.00    -0.275 OA
BRANCH  81  84
ATOM     84  C   UNL     1      10.246   7.520  -7.596  1.00  0.00     0.078 C 
ATOM     85  C   UNL     1      10.370   9.001  -7.310  1.00  0.00     0.014 C 
ATOM     86  C   UNL     1      10.557   8.496  -8.710  1.00  0.00     0.014 C 
ENDBRANCH  81  84
ENDBRANCH  76  80
ENDBRANCH  71  76
ENDBRANCH  68  71
ENDBRANCH  66  67
ENDBRANCH  65  66
ENDBRANCH   1  65
TORSDOF 15
