REMARK SMILES O=C(NCCCCCCNC(=O)C1(CCc2ccc3c(c2)CCO3)CCCCCC1)c1ccc(-c2c3nc(c(-c4c(F)cccc4F)c4ccc([nH]4)c(-c4c(F)cccc4F)c4nc(c(-c5c(F)cccc5F)c5ccc2[nH]5)C=C4)C=C3)cc1
REMARK SMILES IDX 7 1 6 2 5 3 4 4 3 5 1 6 2 7 31 9 32 10 84 11 33 12 83 13
REMARK SMILES IDX 34 14 35 15 36 16 77 17 37 18 82 19 76 20 78 21 38 22 81 23
REMARK SMILES IDX 75 24 74 25 39 27 65 28 48 29 64 30 49 31 52 32 63 33 79 34
REMARK SMILES IDX 50 35 51 36 62 38 80 39 53 40 40 41 41 42 46 43 42 44 43 45
REMARK SMILES IDX 45 46 47 47 44 48 66 49 67 50 72 51 68 52 69 53 71 54 73 55
REMARK SMILES IDX 70 56 54 57 55 58 60 59 56 60 57 61 59 62 61 63 58 64 8 65
REMARK SMILES IDX 9 66 10 67 11 68 12 70 13 71 14 72 15 73 16 74 17 75 21 76
REMARK SMILES IDX 18 77 20 78 19 79 22 80 24 81 23 82 25 83 26 84 27 85 30 87
REMARK SMILES IDX 29 88 28 89
REMARK H PARENT 3 8 78 26 52 37 10 69
REMARK Flexibility Score: 100.00
ROOT
ATOM      1  C   UNL     1       4.846   4.116   1.738  1.00  0.00     0.002 C 
ENDROOT
BRANCH   1   2
ATOM      2  C   UNL     1       4.283   3.711   0.372  1.00  0.00     0.002 C 
BRANCH   2   3
ATOM      3  C   UNL     1       4.811   2.393  -0.191  1.00  0.00     0.021 C 
BRANCH   3   4
ATOM      4  C   UNL     1       4.441   1.163   0.615  1.00  0.00     0.116 C 
BRANCH   4   5
ATOM      5  N   UNL     1       3.013   0.892   0.582  1.00  0.00    -0.352 N 
ATOM      6  O   UNL     1       1.123  -0.220   0.077  1.00  0.00    -0.269 OA
ATOM      7  C   UNL     1       2.338  -0.247   0.208  1.00  0.00     0.251 C 
ATOM      8  H   UNL     1       2.441   1.639   0.873  1.00  0.00     0.163 HD
BRANCH   7   9
ATOM      9  C   UNL     1       3.083  -1.502  -0.055  1.00  0.00     0.039 A 
ATOM     10  C   UNL     1       4.193  -1.853   0.713  1.00  0.00     0.014 A 
ATOM     11  C   UNL     1       2.642  -2.359  -1.070  1.00  0.00     0.014 A 
ATOM     12  C   UNL     1       4.953  -2.962   0.370  1.00  0.00     0.010 A 
ATOM     13  C   UNL     1       3.339  -3.542  -1.336  1.00  0.00     0.010 A 
ATOM     14  C   UNL     1       4.513  -3.842  -0.631  1.00  0.00    -0.014 A 
BRANCH  14  15
ATOM     15  C   UNL     1       5.250  -5.114  -0.831  1.00  0.00     0.031 A 
ATOM     16  C   UNL     1       5.933  -5.430  -2.130  1.00  0.00     0.074 A 
ATOM     17  C   UNL     1       5.325  -5.971   0.208  1.00  0.00     0.049 A 
ATOM     18  N   UNL     1       6.628  -6.491  -2.453  1.00  0.00    -0.248 NA
ATOM     19  C   UNL     1       5.818  -4.437  -3.209  1.00  0.00     0.031 C 
ATOM     20  C   UNL     1       4.685  -5.769   1.512  1.00  0.00     0.029 A 
ATOM     21  N   UNL     1       5.988  -7.161   0.348  1.00  0.00    -0.354 N 
ATOM     22  C   UNL     1       7.010  -6.309  -3.775  1.00  0.00     0.074 A 
ATOM     23  C   UNL     1       6.460  -5.040  -4.202  1.00  0.00     0.031 C 
ATOM     24  C   UNL     1       5.038  -6.764   2.337  1.00  0.00     0.029 A 
ATOM     25  C   UNL     1       5.860  -7.714   1.599  1.00  0.00     0.049 A 
ATOM     26  H   UNL     1       6.506  -7.580  -0.377  1.00  0.00     0.167 HD
ATOM     27  C   UNL     1       7.755  -7.128  -4.556  1.00  0.00     0.037 A 
ATOM     28  C   UNL     1       6.331  -8.872   2.096  1.00  0.00     0.037 A 
ATOM     29  C   UNL     1       8.316  -8.379  -4.111  1.00  0.00     0.049 A 
ATOM     30  C   UNL     1       7.143  -9.759   1.203  1.00  0.00     0.074 A 
ATOM     31  C   UNL     1       9.112  -9.266  -4.816  1.00  0.00     0.029 A 
ATOM     32  N   UNL     1       8.139  -8.920  -2.846  1.00  0.00    -0.354 N 
ATOM     33  N   UNL     1       7.513  -9.562  -0.038  1.00  0.00    -0.248 NA
ATOM     34  C   UNL     1       7.594 -11.034   1.774  1.00  0.00     0.031 C 
ATOM     35  C   UNL     1       9.383 -10.362  -3.990  1.00  0.00     0.029 A 
ATOM     36  C   UNL     1       8.794 -10.138  -2.756  1.00  0.00     0.049 A 
ATOM     37  H   UNL     1       7.625  -8.501  -2.119  1.00  0.00     0.167 HD
ATOM     38  C   UNL     1       8.248 -10.682  -0.397  1.00  0.00     0.074 A 
ATOM     39  C   UNL     1       8.293 -11.542   0.769  1.00  0.00     0.031 C 
ATOM     40  C   UNL     1       8.826 -10.976  -1.586  1.00  0.00     0.037 A 
BRANCH  27  41
ATOM     41  C   UNL     1       7.995  -6.715  -5.978  1.00  0.00     0.057 A 
ATOM     42  C   UNL     1       8.884  -5.685  -6.312  1.00  0.00     0.134 A 
ATOM     43  C   UNL     1       7.378  -7.401  -7.032  1.00  0.00     0.134 A 
ATOM     44  F   UNL     1       9.499  -4.980  -5.351  1.00  0.00    -0.206 F 
ATOM     45  C   UNL     1       9.142  -5.346  -7.642  1.00  0.00     0.040 A 
ATOM     46  C   UNL     1       7.644  -7.086  -8.366  1.00  0.00     0.040 A 
ATOM     47  F   UNL     1       6.520  -8.402  -6.783  1.00  0.00    -0.206 F 
ATOM     48  C   UNL     1       8.528  -6.054  -8.674  1.00  0.00     0.006 A 
ENDBRANCH  27  41
BRANCH  28  49
ATOM     49  C   UNL     1       6.021  -9.258   3.495  1.00  0.00     0.057 A 
ATOM     50  C   UNL     1       7.020  -9.307   4.473  1.00  0.00     0.134 A 
ATOM     51  C   UNL     1       4.715  -9.576   3.889  1.00  0.00     0.134 A 
ATOM     52  F   UNL     1       8.292  -9.027   4.153  1.00  0.00    -0.206 F 
ATOM     53  C   UNL     1       6.735  -9.672   5.790  1.00  0.00     0.040 A 
ATOM     54  C   UNL     1       4.411  -9.914   5.208  1.00  0.00     0.040 A 
ATOM     55  F   UNL     1       3.711  -9.538   3.001  1.00  0.00    -0.206 F 
ATOM     56  C   UNL     1       5.425  -9.970   6.161  1.00  0.00     0.006 A 
ENDBRANCH  28  49
BRANCH  40  57
ATOM     57  C   UNL     1       9.574 -12.272  -1.667  1.00  0.00     0.057 A 
ATOM     58  C   UNL     1       8.910 -13.503  -1.719  1.00  0.00     0.134 A 
ATOM     59  C   UNL     1      10.974 -12.285  -1.712  1.00  0.00     0.134 A 
ATOM     60  F   UNL     1       7.570 -13.556  -1.662  1.00  0.00    -0.206 F 
ATOM     61  C   UNL     1       9.613 -14.706  -1.786  1.00  0.00     0.040 A 
ATOM     62  C   UNL     1      11.687 -13.480  -1.804  1.00  0.00     0.040 A 
ATOM     63  F   UNL     1      11.668 -11.137  -1.672  1.00  0.00    -0.206 F 
ATOM     64  C   UNL     1      11.006 -14.695  -1.835  1.00  0.00     0.006 A 
ENDBRANCH  40  57
ENDBRANCH  14  15
ENDBRANCH   7   9
ENDBRANCH   4   5
ENDBRANCH   3   4
ENDBRANCH   2   3
ENDBRANCH   1   2
BRANCH   1  65
ATOM     65  C   UNL     1       6.372   4.084   1.868  1.00  0.00     0.021 C 
BRANCH  65  66
ATOM     66  C   UNL     1       7.140   4.759   0.735  1.00  0.00     0.116 C 
BRANCH  66  67
ATOM     67  N   UNL     1       6.995   6.198   0.726  1.00  0.00    -0.356 N 
ATOM     68  C   UNL     1       7.808   7.209   0.321  1.00  0.00     0.226 C 
ATOM     69  H   UNL     1       6.132   6.508   1.085  1.00  0.00     0.163 HD
ATOM     70  O   UNL     1       7.280   8.328   0.319  1.00  0.00    -0.274 OA
BRANCH  68  71
ATOM     71  C   UNL     1       9.287   7.021  -0.137  1.00  0.00     0.049 C 
BRANCH  71  72
ATOM     72  C   UNL     1       9.410   6.590  -1.648  1.00  0.00     0.021 C 
BRANCH  72  73
ATOM     73  C   UNL     1       8.535   5.476  -2.254  1.00  0.00     0.036 C 
BRANCH  73  74
ATOM     74  C   UNL     1       7.084   5.772  -2.591  1.00  0.00    -0.047 A 
ATOM     75  C   UNL     1       6.541   7.074  -2.564  1.00  0.00     0.007 A 
ATOM     76  C   UNL     1       6.239   4.699  -2.949  1.00  0.00     0.011 A 
ATOM     77  C   UNL     1       5.178   7.302  -2.771  1.00  0.00     0.047 A 
ATOM     78  C   UNL     1       4.890   4.942  -3.162  1.00  0.00    -0.002 A 
ATOM     79  C   UNL     1       4.375   6.221  -3.049  1.00  0.00     0.122 A 
ATOM     80  C   UNL     1       3.800   4.026  -3.568  1.00  0.00     0.081 C 
ATOM     81  O   UNL     1       3.023   6.300  -3.256  1.00  0.00    -0.493 OA
ATOM     82  C   UNL     1       2.596   4.919  -3.263  1.00  0.00     0.234 C 
ENDBRANCH  73  74
ENDBRANCH  72  73
ENDBRANCH  71  72
BRANCH  71  83
ATOM     83  C   UNL     1       9.951   8.445  -0.105  1.00  0.00     0.017 C 
BRANCH  83  84
ATOM     84  C   UNL     1      10.144   9.070   1.278  1.00  0.00     0.001 C 
BRANCH  84  85
ATOM     85  C   UNL     1      11.512   8.768   1.873  1.00  0.00     0.000 CG0
ATOM     86  G   UNL     1      11.705   7.314   2.274  1.00  0.00     0.000 G0
ENDBRANCH  84  85
ENDBRANCH  83  84
ENDBRANCH  71  83
BRANCH  71  87
ATOM     87  C   UNL     1      10.044   6.038   0.800  1.00  0.00     0.017 C 
BRANCH  87  88
ATOM     88  C   UNL     1      11.513   6.313   1.136  1.00  0.00     0.001 C 
BRANCH  88  89
ATOM     89  C   UNL     1      11.705   7.314   2.274  1.00  0.00     0.000 CG0
ATOM     90  G   UNL     1      11.512   8.768   1.873  1.00  0.00     0.000 G0
ENDBRANCH  88  89
ENDBRANCH  87  88
ENDBRANCH  71  87
ENDBRANCH  68  71
ENDBRANCH  66  67
ENDBRANCH  65  66
ENDBRANCH   1  65
TORSDOF 16
