REMARK SMILES CC[C@@H](C)[C@@H](C(=O)NCCCCCCNC(=O)c1ccc(-c2c3nc(c(-c4c(F)cccc4F)c4ccc([nH]4)c(-c4c(F)cccc4F)c4nc(c(-c5c(F)cccc5F)c5ccc2[nH]5)C=C4)C=C3)cc1)N1C(=O)/C(=C/c2ccc(O)cc2)SC1=S
REMARK SMILES IDX 11 1 10 2 9 3 8 4 6 5 7 6 5 8 3 9 4 10 2 11 1 12 72 13 73 14
REMARK SMILES IDX 85 15 74 16 75 17 84 18 86 19 76 20 77 21 78 22 83 23 79 24
REMARK SMILES IDX 82 25 80 26 81 27 12 29 13 30 14 31 15 32 16 33 17 35 18 36
REMARK SMILES IDX 19 37 71 38 20 39 70 40 21 41 22 42 23 43 64 44 24 45 69 46
REMARK SMILES IDX 63 47 65 48 25 49 68 50 62 51 61 52 26 54 52 55 35 56 51 57
REMARK SMILES IDX 36 58 39 59 50 60 66 61 37 62 38 63 49 65 67 66 40 67 27 68
REMARK SMILES IDX 28 69 33 70 29 71 30 72 32 73 34 74 31 75 53 76 54 77 59 78
REMARK SMILES IDX 55 79 56 80 58 81 60 82 57 83 41 84 42 85 47 86 43 87 44 88
REMARK SMILES IDX 46 89 48 90 45 91
REMARK H PARENT 8 7 81 28 15 34 65 53 39 64
REMARK Flexibility Score: inf
ROOT
ATOM      1  C   UNL     1       0.792   3.270   3.527  1.00  0.00     0.002 C 
ENDROOT
BRANCH   1   2
ATOM      2  C   UNL     1       0.583   2.586   2.176  1.00  0.00     0.021 C 
BRANCH   2   3
ATOM      3  C   UNL     1       0.055   3.506   1.062  1.00  0.00     0.116 C 
BRANCH   3   4
ATOM      4  N   UNL     1       1.177   4.098   0.348  1.00  0.00    -0.354 N 
ATOM      5  C   UNL     1       1.701   3.865  -0.892  1.00  0.00     0.243 C 
ATOM      6  O   UNL     1       2.804   4.374  -1.119  1.00  0.00    -0.273 OA
ATOM      7  H   UNL     1       1.646   4.799   0.855  1.00  0.00     0.163 HD
BRANCH   5   8
ATOM      8  C   UNL     1       0.933   3.074  -1.990  1.00  0.00     0.184 C 
BRANCH   8   9
ATOM      9  C   UNL     1       1.039   1.513  -1.981  1.00  0.00     0.018 C 
ATOM     10  C   UNL     1       0.110   0.908  -3.046  1.00  0.00     0.010 C 
BRANCH   9  11
ATOM     11  C   UNL     1       0.791   0.834  -0.629  1.00  0.00     0.002 C 
ATOM     12  C   UNL     1       1.217  -0.628  -0.564  1.00  0.00     0.004 C 
ENDBRANCH   9  11
ENDBRANCH   8   9
BRANCH   8  13
ATOM     13  N   UNL     1       1.366   3.712  -3.289  1.00  0.00    -0.280 N 
ATOM     14  C   UNL     1       0.762   4.922  -3.632  1.00  0.00     0.266 C 
ATOM     15  C   UNL     1       2.434   3.360  -4.101  1.00  0.00     0.149 C 
ATOM     16  O   UNL     1      -0.102   5.502  -2.985  1.00  0.00    -0.268 OA
ATOM     17  C   UNL     1       1.315   5.453  -4.912  1.00  0.00     0.081 C 
ATOM     18  S   UNL     1       2.390   4.302  -5.585  1.00  0.00    -0.054 SA
ATOM     19  S   UNL     1       3.668   2.252  -3.914  1.00  0.00    -0.052 S 
ATOM     20  C   UNL     1       1.019   6.651  -5.441  1.00  0.00     0.029 C 
BRANCH  20  21
ATOM     21  C   UNL     1       1.478   7.067  -6.776  1.00  0.00    -0.024 A 
ATOM     22  C   UNL     1       2.591   7.896  -6.956  1.00  0.00     0.012 A 
ATOM     23  C   UNL     1       0.824   6.543  -7.901  1.00  0.00     0.012 A 
ATOM     24  C   UNL     1       3.051   8.178  -8.248  1.00  0.00     0.047 A 
ATOM     25  C   UNL     1       1.287   6.817  -9.189  1.00  0.00     0.047 A 
ATOM     26  C   UNL     1       2.403   7.629  -9.351  1.00  0.00     0.115 A 
BRANCH  26  27
ATOM     27  O   UNL     1       2.902   7.903 -10.590  1.00  0.00    -0.508 OA
ATOM     28  H   UNL     1       3.655   8.453 -10.680  1.00  0.00     0.293 HD
ENDBRANCH  26  27
ENDBRANCH  20  21
ENDBRANCH   8  13
ENDBRANCH   5   8
ENDBRANCH   3   4
ENDBRANCH   2   3
ENDBRANCH   1   2
BRANCH   1  29
ATOM     29  C   UNL     1      -0.488   3.526   4.322  1.00  0.00     0.002 C 
BRANCH  29  30
ATOM     30  C   UNL     1      -1.353   2.292   4.598  1.00  0.00     0.021 C 
BRANCH  30  31
ATOM     31  C   UNL     1      -0.624   1.113   5.241  1.00  0.00     0.116 C 
BRANCH  31  32
ATOM     32  N   UNL     1      -0.078   1.451   6.546  1.00  0.00    -0.352 N 
ATOM     33  C   UNL     1      -0.385   0.939   7.782  1.00  0.00     0.251 C 
ATOM     34  H   UNL     1       0.614   2.150   6.542  1.00  0.00     0.163 HD
ATOM     35  O   UNL     1       0.016   1.496   8.798  1.00  0.00    -0.269 OA
BRANCH  33  36
ATOM     36  C   UNL     1      -1.213  -0.281   7.892  1.00  0.00     0.039 A 
ATOM     37  C   UNL     1      -2.251  -0.313   8.827  1.00  0.00     0.014 A 
ATOM     38  C   UNL     1      -0.954  -1.396   7.091  1.00  0.00     0.014 A 
ATOM     39  C   UNL     1      -3.066  -1.443   8.917  1.00  0.00     0.010 A 
ATOM     40  C   UNL     1      -1.811  -2.493   7.132  1.00  0.00     0.010 A 
ATOM     41  C   UNL     1      -2.873  -2.530   8.048  1.00  0.00    -0.014 A 
BRANCH  41  42
ATOM     42  C   UNL     1      -3.771  -3.712   8.085  1.00  0.00     0.031 A 
ATOM     43  C   UNL     1      -3.232  -5.062   8.469  1.00  0.00     0.074 A 
ATOM     44  C   UNL     1      -5.060  -3.580   7.717  1.00  0.00     0.049 A 
ATOM     45  N   UNL     1      -3.844  -6.218   8.502  1.00  0.00    -0.248 NA
ATOM     46  C   UNL     1      -1.809  -5.125   8.839  1.00  0.00     0.031 C 
ATOM     47  C   UNL     1      -5.694  -2.333   7.284  1.00  0.00     0.029 A 
ATOM     48  N   UNL     1      -6.068  -4.508   7.640  1.00  0.00    -0.354 N 
ATOM     49  C   UNL     1      -2.883  -7.144   8.888  1.00  0.00     0.074 A 
ATOM     50  C   UNL     1      -1.634  -6.426   9.019  1.00  0.00     0.031 C 
ATOM     51  C   UNL     1      -6.987  -2.568   7.013  1.00  0.00     0.029 A 
ATOM     52  C   UNL     1      -7.266  -3.987   7.213  1.00  0.00     0.049 A 
ATOM     53  H   UNL     1      -5.945  -5.458   7.869  1.00  0.00     0.167 HD
ATOM     54  C   UNL     1      -3.032  -8.468   9.135  1.00  0.00     0.037 A 
ATOM     55  C   UNL     1      -8.452  -4.587   7.001  1.00  0.00     0.037 A 
ATOM     56  C   UNL     1      -4.279  -9.177   9.017  1.00  0.00     0.049 A 
ATOM     57  C   UNL     1      -8.586  -6.062   7.258  1.00  0.00     0.074 A 
ATOM     58  C   UNL     1      -4.544 -10.507   9.293  1.00  0.00     0.029 A 
ATOM     59  N   UNL     1      -5.470  -8.614   8.585  1.00  0.00    -0.354 N 
ATOM     60  N   UNL     1      -7.684  -6.913   7.684  1.00  0.00    -0.248 NA
ATOM     61  C   UNL     1      -9.905  -6.660   7.008  1.00  0.00     0.031 C 
ATOM     62  C   UNL     1      -5.884 -10.760   8.980  1.00  0.00     0.029 A 
ATOM     63  C   UNL     1      -6.468  -9.575   8.562  1.00  0.00     0.049 A 
ATOM     64  H   UNL     1      -5.590  -7.670   8.332  1.00  0.00     0.167 HD
ATOM     65  C   UNL     1      -8.332  -8.137   7.783  1.00  0.00     0.074 A 
ATOM     66  C   UNL     1      -9.707  -7.915   7.385  1.00  0.00     0.031 C 
ATOM     67  C   UNL     1      -7.834  -9.338   8.169  1.00  0.00     0.037 A 
BRANCH  54  68
ATOM     68  C   UNL     1      -1.810  -9.233   9.557  1.00  0.00     0.057 A 
ATOM     69  C   UNL     1      -1.208  -9.033  10.807  1.00  0.00     0.134 A 
ATOM     70  C   UNL     1      -1.244 -10.201   8.718  1.00  0.00     0.134 A 
ATOM     71  F   UNL     1      -1.693  -8.114  11.656  1.00  0.00    -0.206 F 
ATOM     72  C   UNL     1      -0.070  -9.743  11.194  1.00  0.00     0.040 A 
ATOM     73  C   UNL     1      -0.123 -10.939   9.105  1.00  0.00     0.040 A 
ATOM     74  F   UNL     1      -1.773 -10.450   7.511  1.00  0.00    -0.206 F 
ATOM     75  C   UNL     1       0.472 -10.704  10.343  1.00  0.00     0.006 A 
ENDBRANCH  54  68
BRANCH  55  76
ATOM     76  C   UNL     1      -9.618  -3.789   6.542  1.00  0.00     0.057 A 
ATOM     77  C   UNL     1     -10.710  -3.557   7.386  1.00  0.00     0.134 A 
ATOM     78  C   UNL     1      -9.675  -3.247   5.252  1.00  0.00     0.134 A 
ATOM     79  F   UNL     1     -10.723  -4.066   8.627  1.00  0.00    -0.206 F 
ATOM     80  C   UNL     1     -11.825  -2.835   6.959  1.00  0.00     0.040 A 
ATOM     81  C   UNL     1     -10.772  -2.500   4.820  1.00  0.00     0.040 A 
ATOM     82  F   UNL     1      -8.657  -3.426   4.396  1.00  0.00    -0.206 F 
ATOM     83  C   UNL     1     -11.855  -2.299   5.673  1.00  0.00     0.006 A 
ENDBRANCH  55  76
BRANCH  67  84
ATOM     84  C   UNL     1      -8.789 -10.495   8.214  1.00  0.00     0.057 A 
ATOM     85  C   UNL     1      -9.290 -11.089   7.049  1.00  0.00     0.134 A 
ATOM     86  C   UNL     1      -9.183 -11.044   9.441  1.00  0.00     0.134 A 
ATOM     87  F   UNL     1      -8.963 -10.603   5.843  1.00  0.00    -0.206 F 
ATOM     88  C   UNL     1     -10.169 -12.173   7.104  1.00  0.00     0.040 A 
ATOM     89  C   UNL     1     -10.037 -12.146   9.508  1.00  0.00     0.040 A 
ATOM     90  F   UNL     1      -8.732 -10.529  10.595  1.00  0.00    -0.206 F 
ATOM     91  C   UNL     1     -10.538 -12.709   8.336  1.00  0.00     0.006 A 
ENDBRANCH  67  84
ENDBRANCH  41  42
ENDBRANCH  33  36
ENDBRANCH  31  32
ENDBRANCH  30  31
ENDBRANCH  29  30
ENDBRANCH   1  29
TORSDOF 18
