REMARK SMILES CCOC(=O)c1c(NC(=O)/C=C/C(=O)NCCCCCCNC(=O)c2ccc(-c3c4nc(c(-c5c(F)cccc5F)c5ccc([nH]5)c(-c5c(F)cccc5F)c5nc(c(-c6c(F)cccc6F)c6ccc3[nH]6)C=C5)C=C4)cc2)sc(C)c1-c1ccc(C)c(C)c1
REMARK SMILES IDX 17 1 16 2 15 3 13 4 14 5 12 7 11 8 9 9 8 10 10 12 7 13 6 14
REMARK SMILES IDX 82 15 79 16 80 17 81 18 4 19 5 20 3 21 2 22 1 23 83 24 84 25
REMARK SMILES IDX 90 26 85 27 88 28 86 29 89 30 87 31 18 32 19 33 20 34 21 35
REMARK SMILES IDX 22 36 23 37 24 39 25 40 26 41 78 42 27 43 77 44 28 45 29 46
REMARK SMILES IDX 30 47 71 48 31 49 76 50 70 51 72 52 32 53 75 54 69 55 68 56
REMARK SMILES IDX 33 58 59 59 42 60 58 61 43 62 46 63 57 64 73 65 44 66 45 67
REMARK SMILES IDX 56 69 74 70 47 71 34 72 35 73 40 74 36 75 37 76 39 77 41 78
REMARK SMILES IDX 38 79 60 80 61 81 66 82 62 83 63 84 65 85 67 86 64 87 48 88
REMARK SMILES IDX 49 89 54 90 50 91 51 92 53 93 55 94 52 95
REMARK H PARENT 15 6 8 11 22 38 72 57 46 68
REMARK Flexibility Score: inf
ROOT
ATOM      1  C   UNL     1       6.963   7.184   5.749  1.00  0.00     0.021 C 
ENDROOT
BRANCH   1   2
ATOM      2  C   UNL     1       7.387   5.723   5.628  1.00  0.00     0.116 C 
BRANCH   2   3
ATOM      3  N   UNL     1       6.635   4.913   6.562  1.00  0.00    -0.353 N 
ATOM      4  C   UNL     1       5.439   4.306   6.336  1.00  0.00     0.244 C 
ATOM      5  O   UNL     1       4.706   3.994   7.267  1.00  0.00    -0.270 OA
ATOM      6  H   UNL     1       7.030   4.788   7.455  1.00  0.00     0.163 HD
BRANCH   4   7
ATOM      7  C   UNL     1       5.049   4.013   4.944  1.00  0.00     0.077 C 
ATOM      8  C   UNL     1       5.874   3.235   4.226  1.00  0.00     0.077 C 
BRANCH   8   9
ATOM      9  C   UNL     1       5.437   2.642   2.957  1.00  0.00     0.249 C 
ATOM     10  N   UNL     1       4.579   1.580   2.932  1.00  0.00    -0.313 N 
ATOM     11  H   UNL     1       4.376   1.251   2.026  1.00  0.00     0.171 HD
ATOM     12  O   UNL     1       5.872   3.119   1.909  1.00  0.00    -0.270 OA
BRANCH  10  13
ATOM     13  C   UNL     1       3.939   0.876   3.943  1.00  0.00     0.111 A 
ATOM     14  C   UNL     1       2.882  -0.007   3.790  1.00  0.00     0.102 A 
ATOM     15  C   UNL     1       2.320  -0.369   5.076  1.00  0.00     0.012 A 
ATOM     16  S   UNL     1       4.432   0.953   5.560  1.00  0.00    -0.122 S 
ATOM     17  C   UNL     1       3.017   0.204   6.128  1.00  0.00     0.012 A 
ATOM     18  C   UNL     1       2.753   0.220   7.598  1.00  0.00     0.057 C 
BRANCH  14  19
ATOM     19  C   UNL     1       2.425  -0.430   2.474  1.00  0.00     0.341 C 
ATOM     20  O   UNL     1       3.207  -0.645   1.552  1.00  0.00    -0.246 OA
BRANCH  19  21
ATOM     21  O   UNL     1       1.071  -0.489   2.364  1.00  0.00    -0.462 OA
BRANCH  21  22
ATOM     22  C   UNL     1       0.563  -0.951   1.104  1.00  0.00     0.230 C 
ATOM     23  C   UNL     1       0.727   0.079  -0.003  1.00  0.00     0.049 C 
ENDBRANCH  21  22
ENDBRANCH  19  21
ENDBRANCH  14  19
BRANCH  15  24
ATOM     24  C   UNL     1       1.211  -1.276   5.321  1.00  0.00    -0.016 A 
ATOM     25  C   UNL     1       1.373  -2.633   5.043  1.00  0.00     0.009 A 
ATOM     26  C   UNL     1       0.002  -0.812   5.849  1.00  0.00     0.012 A 
ATOM     27  C   UNL     1       0.331  -3.521   5.294  1.00  0.00     0.004 A 
ATOM     28  C   UNL     1      -1.053  -1.701   6.119  1.00  0.00    -0.048 A 
ATOM     29  C   UNL     1      -0.885  -3.072   5.836  1.00  0.00    -0.048 A 
ATOM     30  C   UNL     1      -2.325  -1.157   6.707  1.00  0.00     0.044 C 
ATOM     31  C   UNL     1      -1.960  -4.098   6.067  1.00  0.00     0.044 C 
ENDBRANCH  15  24
ENDBRANCH  10  13
ENDBRANCH   8   9
ENDBRANCH   4   7
ENDBRANCH   2   3
ENDBRANCH   1   2
BRANCH   1  32
ATOM     32  C   UNL     1       7.369   7.837   7.076  1.00  0.00     0.002 C 
BRANCH  32  33
ATOM     33  C   UNL     1       8.863   7.767   7.407  1.00  0.00     0.002 C 
BRANCH  33  34
ATOM     34  C   UNL     1       9.803   8.186   6.276  1.00  0.00     0.021 C 
BRANCH  34  35
ATOM     35  C   UNL     1       9.531   9.570   5.702  1.00  0.00     0.116 C 
BRANCH  35  36
ATOM     36  N   UNL     1       9.790  10.624   6.664  1.00  0.00    -0.352 N 
ATOM     37  C   UNL     1      10.544  11.759   6.501  1.00  0.00     0.251 C 
ATOM     38  H   UNL     1       9.372  10.511   7.548  1.00  0.00     0.163 HD
ATOM     39  O   UNL     1      10.808  12.479   7.458  1.00  0.00    -0.269 OA
BRANCH  37  40
ATOM     40  C   UNL     1      11.061  12.093   5.158  1.00  0.00     0.039 A 
ATOM     41  C   UNL     1      12.416  12.397   5.013  1.00  0.00     0.014 A 
ATOM     42  C   UNL     1      10.212  12.088   4.047  1.00  0.00     0.014 A 
ATOM     43  C   UNL     1      12.934  12.647   3.741  1.00  0.00     0.010 A 
ATOM     44  C   UNL     1      10.741  12.277   2.774  1.00  0.00     0.010 A 
ATOM     45  C   UNL     1      12.105  12.564   2.610  1.00  0.00    -0.014 A 
BRANCH  45  46
ATOM     46  C   UNL     1      12.639  12.791   1.246  1.00  0.00     0.031 A 
ATOM     47  C   UNL     1      12.178  13.980   0.451  1.00  0.00     0.074 A 
ATOM     48  C   UNL     1      13.478  11.893   0.697  1.00  0.00     0.049 A 
ATOM     49  N   UNL     1      12.447  14.302  -0.788  1.00  0.00    -0.248 NA
ATOM     50  C   UNL     1      11.272  14.918   1.133  1.00  0.00     0.031 C 
ATOM     51  C   UNL     1      13.965  10.677   1.351  1.00  0.00     0.029 A 
ATOM     52  N   UNL     1      14.057  11.856  -0.547  1.00  0.00    -0.354 N 
ATOM     53  C   UNL     1      11.728  15.462  -1.041  1.00  0.00     0.074 A 
ATOM     54  C   UNL     1      10.979  15.767   0.159  1.00  0.00     0.031 C 
ATOM     55  C   UNL     1      14.778  10.020   0.507  1.00  0.00     0.029 A 
ATOM     56  C   UNL     1      14.843  10.749  -0.756  1.00  0.00     0.049 A 
ATOM     57  H   UNL     1      13.921  12.557  -1.225  1.00  0.00     0.167 HD
ATOM     58  C   UNL     1      11.707  16.216  -2.165  1.00  0.00     0.037 A 
ATOM     59  C   UNL     1      15.530  10.363  -1.847  1.00  0.00     0.037 A 
ATOM     60  C   UNL     1      12.480  15.931  -3.344  1.00  0.00     0.049 A 
ATOM     61  C   UNL     1      15.500  11.222  -3.079  1.00  0.00     0.074 A 
ATOM     62  C   UNL     1      12.580  16.671  -4.510  1.00  0.00     0.029 A 
ATOM     63  N   UNL     1      13.288  14.816  -3.506  1.00  0.00    -0.354 N 
ATOM     64  N   UNL     1      14.863  12.349  -3.284  1.00  0.00    -0.248 NA
ATOM     65  C   UNL     1      16.288  10.759  -4.231  1.00  0.00     0.031 C 
ATOM     66  C   UNL     1      13.425  15.986  -5.390  1.00  0.00     0.029 A 
ATOM     67  C   UNL     1      13.879  14.839  -4.758  1.00  0.00     0.049 A 
ATOM     68  H   UNL     1      13.422  14.112  -2.831  1.00  0.00     0.167 HD
ATOM     69  C   UNL     1      15.190  12.742  -4.575  1.00  0.00     0.074 A 
ATOM     70  C   UNL     1      16.091  11.738  -5.103  1.00  0.00     0.031 C 
ATOM     71  C   UNL     1      14.781  13.836  -5.261  1.00  0.00     0.037 A 
BRANCH  58  72
ATOM     72  C   UNL     1      10.822  17.426  -2.168  1.00  0.00     0.057 A 
ATOM     73  C   UNL     1      11.135  18.570  -1.423  1.00  0.00     0.134 A 
ATOM     74  C   UNL     1       9.658  17.458  -2.946  1.00  0.00     0.134 A 
ATOM     75  F   UNL     1      12.229  18.598  -0.647  1.00  0.00    -0.206 F 
ATOM     76  C   UNL     1      10.309  19.695  -1.432  1.00  0.00     0.040 A 
ATOM     77  C   UNL     1       8.836  18.586  -2.982  1.00  0.00     0.040 A 
ATOM     78  F   UNL     1       9.303  16.397  -3.686  1.00  0.00    -0.206 F 
ATOM     79  C   UNL     1       9.159  19.707  -2.219  1.00  0.00     0.006 A 
ENDBRANCH  58  72
BRANCH  59  80
ATOM     80  C   UNL     1      16.323   9.110  -1.816  1.00  0.00     0.057 A 
ATOM     81  C   UNL     1      17.722   9.144  -1.779  1.00  0.00     0.134 A 
ATOM     82  C   UNL     1      15.707   7.853  -1.824  1.00  0.00     0.134 A 
ATOM     83  F   UNL     1      18.367  10.320  -1.788  1.00  0.00    -0.206 F 
ATOM     84  C   UNL     1      18.481   7.974  -1.764  1.00  0.00     0.040 A 
ATOM     85  C   UNL     1      16.454   6.674  -1.790  1.00  0.00     0.040 A 
ATOM     86  F   UNL     1      14.370   7.755  -1.853  1.00  0.00    -0.206 F 
ATOM     87  C   UNL     1      17.846   6.733  -1.765  1.00  0.00     0.006 A 
ENDBRANCH  59  80
BRANCH  71  88
ATOM     88  C   UNL     1      15.329  14.022  -6.644  1.00  0.00     0.057 A 
ATOM     89  C   UNL     1      14.871  13.261  -7.726  1.00  0.00     0.134 A 
ATOM     90  C   UNL     1      16.290  15.008  -6.902  1.00  0.00     0.134 A 
ATOM     91  F   UNL     1      13.960  12.294  -7.539  1.00  0.00    -0.206 F 
ATOM     92  C   UNL     1      15.361  13.464  -9.016  1.00  0.00     0.040 A 
ATOM     93  C   UNL     1      16.772  15.234  -8.191  1.00  0.00     0.040 A 
ATOM     94  F   UNL     1      16.764  15.774  -5.908  1.00  0.00    -0.206 F 
ATOM     95  C   UNL     1      16.309  14.458  -9.253  1.00  0.00     0.006 A 
ENDBRANCH  71  88
ENDBRANCH  45  46
ENDBRANCH  37  40
ENDBRANCH  35  36
ENDBRANCH  34  35
ENDBRANCH  33  34
ENDBRANCH  32  33
ENDBRANCH   1  32
TORSDOF 19
