REMARK SMILES Cc1ccc(S(=O)(=O)n2cc(C(=O)C(=O)N[C@@H](Cc3c[nH]c4ccccc34)C(=O)NCCCCCCNC(=O)c3ccc(-c4c5nc(c(-c6c(F)cccc6F)c6ccc([nH]6)c(-c6c(F)cccc6F)c6nc(c(-c7c(F)cccc7F)c7ccc4[nH]7)C=C6)C=C5)cc3)c3ccccc32)cc1
REMARK SMILES IDX 32 1 31 2 30 3 28 4 29 5 17 7 16 8 14 9 15 10 12 12 13 13
REMARK SMILES IDX 11 14 9 15 10 16 99 17 94 18 98 19 95 20 97 21 96 22 6 23
REMARK SMILES IDX 7 24 8 25 5 26 1 27 2 28 3 29 101 30 4 31 100 32 18 33 19 34
REMARK SMILES IDX 20 35 27 36 21 37 22 38 26 39 23 41 25 42 24 43 33 44 34 45
REMARK SMILES IDX 35 46 36 47 37 48 38 49 39 51 40 52 41 53 93 54 42 55 92 56
REMARK SMILES IDX 43 57 44 58 45 59 86 60 46 61 91 62 85 63 87 64 47 65 90 66
REMARK SMILES IDX 84 67 83 68 48 70 74 71 57 72 73 73 58 74 61 75 72 76 88 77
REMARK SMILES IDX 59 78 60 79 71 81 89 82 62 83 49 84 50 85 55 86 51 87 52 88
REMARK SMILES IDX 54 89 56 90 53 91 75 92 76 93 81 94 77 95 78 96 80 97 82 98
REMARK SMILES IDX 79 99 63 100 64 101 69 102 65 103 66 104 68 105 70 106
REMARK SMILES IDX 67 107
REMARK H PARENT 30 6 16 11 21 40 37 50 87 69 61 80
REMARK Flexibility Score: inf
ROOT
ATOM      1  C   UNL     1     -12.258   5.392  -2.492  1.00  0.00     0.021 C 
ENDROOT
BRANCH   1   2
ATOM      2  C   UNL     1     -12.274   4.219  -1.519  1.00  0.00     0.116 C 
BRANCH   2   3
ATOM      3  N   UNL     1     -12.055   2.907  -2.077  1.00  0.00    -0.354 N 
ATOM      4  C   UNL     1     -11.603   1.791  -1.420  1.00  0.00     0.242 C 
ATOM      5  O   UNL     1     -12.068   0.709  -1.800  1.00  0.00    -0.273 OA
ATOM      6  H   UNL     1     -12.251   2.801  -3.035  1.00  0.00     0.163 HD
BRANCH   4   7
ATOM      7  C   UNL     1     -10.679   1.835  -0.162  1.00  0.00     0.176 C 
BRANCH   7   8
ATOM      8  N   UNL     1      -9.539   2.777  -0.208  1.00  0.00    -0.337 N 
ATOM      9  C   UNL     1      -8.191   2.555  -0.473  1.00  0.00     0.293 C 
ATOM     10  O   UNL     1      -7.372   3.454  -0.306  1.00  0.00    -0.265 OA
ATOM     11  H   UNL     1      -9.772   3.715  -0.021  1.00  0.00     0.164 HD
BRANCH   9  12
ATOM     12  C   UNL     1      -7.713   1.201  -1.012  1.00  0.00     0.252 C 
ATOM     13  O   UNL     1      -8.393   0.727  -1.922  1.00  0.00    -0.283 OA
BRANCH  12  14
ATOM     14  C   UNL     1      -6.591   0.442  -0.418  1.00  0.00     0.054 A 
ATOM     15  N   UNL     1      -4.638  -0.294   0.485  1.00  0.00    -0.240 N 
ATOM     16  C   UNL     1      -5.291   0.823  -0.048  1.00  0.00     0.117 A 
ATOM     17  C   UNL     1      -5.601  -1.307   0.637  1.00  0.00     0.065 A 
ATOM     18  C   UNL     1      -6.643  -0.974  -0.223  1.00  0.00     0.012 A 
ATOM     19  C   UNL     1      -5.510  -2.588   1.219  1.00  0.00     0.028 A 
ATOM     20  C   UNL     1      -7.499  -2.003  -0.671  1.00  0.00     0.011 A 
ATOM     21  C   UNL     1      -6.323  -3.599   0.711  1.00  0.00     0.002 A 
ATOM     22  C   UNL     1      -7.278  -3.320  -0.256  1.00  0.00     0.001 A 
BRANCH  15  23
ATOM     23  S   UNL     1      -3.100  -0.952  -0.042  1.00  0.00     0.268 S 
ATOM     24  O   UNL     1      -3.361  -1.336  -1.419  1.00  0.00    -0.201 OA
ATOM     25  O   UNL     1      -2.828  -1.956   0.980  1.00  0.00    -0.201 OA
BRANCH  23  26
ATOM     26  C   UNL     1      -1.560  -0.105  -0.084  1.00  0.00     0.088 A 
ATOM     27  C   UNL     1       2.619   1.008  -0.032  1.00  0.00     0.044 C 
ATOM     28  C   UNL     1       1.157   0.666  -0.090  1.00  0.00    -0.051 A 
ATOM     29  C   UNL     1       0.822  -0.653  -0.359  1.00  0.00     0.005 A 
ATOM     30  C   UNL     1       0.123   1.594   0.167  1.00  0.00     0.005 A 
ATOM     31  C   UNL     1      -0.513  -1.020  -0.367  1.00  0.00     0.022 A 
ATOM     32  C   UNL     1      -1.247   1.216   0.177  1.00  0.00     0.022 A 
ENDBRANCH  23  26
ENDBRANCH  15  23
ENDBRANCH  12  14
ENDBRANCH   9  12
ENDBRANCH   7   8
BRANCH   7  33
ATOM     33  C   UNL     1     -11.479   1.881   1.178  1.00  0.00     0.072 C 
BRANCH  33  34
ATOM     34  C   UNL     1     -12.271   3.124   1.511  1.00  0.00    -0.020 A 
ATOM     35  C   UNL     1     -13.652   3.205   1.586  1.00  0.00     0.087 A 
ATOM     36  C   UNL     1     -11.780   4.443   1.811  1.00  0.00     0.003 A 
ATOM     37  N   UNL     1     -14.006   4.510   1.813  1.00  0.00    -0.361 N 
ATOM     38  C   UNL     1     -12.883   5.301   1.851  1.00  0.00     0.046 A 
ATOM     39  C   UNL     1     -10.498   5.008   1.962  1.00  0.00     0.010 A 
ATOM     40  H   UNL     1     -14.928   4.832   1.932  1.00  0.00     0.166 HD
ATOM     41  C   UNL     1     -12.760   6.695   1.914  1.00  0.00     0.026 A 
ATOM     42  C   UNL     1     -10.354   6.399   1.996  1.00  0.00     0.001 A 
ATOM     43  C   UNL     1     -11.470   7.230   1.948  1.00  0.00     0.002 A 
ENDBRANCH  33  34
ENDBRANCH   7  33
ENDBRANCH   4   7
ENDBRANCH   2   3
ENDBRANCH   1   2
BRANCH   1  44
ATOM     44  C   UNL     1     -13.449   5.556  -3.444  1.00  0.00     0.002 C 
BRANCH  44  45
ATOM     45  C   UNL     1     -14.874   5.483  -2.870  1.00  0.00     0.002 C 
BRANCH  45  46
ATOM     46  C   UNL     1     -15.168   6.252  -1.583  1.00  0.00     0.021 C 
BRANCH  46  47
ATOM     47  C   UNL     1     -15.036   7.766  -1.663  1.00  0.00     0.116 C 
BRANCH  47  48
ATOM     48  N   UNL     1     -16.259   8.469  -2.033  1.00  0.00    -0.352 N 
ATOM     49  C   UNL     1     -16.468   9.831  -2.212  1.00  0.00     0.251 C 
ATOM     50  H   UNL     1     -17.047   7.897  -2.177  1.00  0.00     0.163 HD
ATOM     51  O   UNL     1     -17.565  10.252  -2.523  1.00  0.00    -0.269 OA
BRANCH  49  52
ATOM     52  C   UNL     1     -15.301  10.751  -2.162  1.00  0.00     0.039 A 
ATOM     53  C   UNL     1     -15.136  11.642  -3.229  1.00  0.00     0.014 A 
ATOM     54  C   UNL     1     -14.278  10.566  -1.238  1.00  0.00     0.014 A 
ATOM     55  C   UNL     1     -13.860  12.112  -3.528  1.00  0.00     0.010 A 
ATOM     56  C   UNL     1     -12.997  10.941  -1.589  1.00  0.00     0.010 A 
ATOM     57  C   UNL     1     -12.783  11.644  -2.778  1.00  0.00    -0.014 A 
BRANCH  57  58
ATOM     58  C   UNL     1     -11.405  11.719  -3.242  1.00  0.00     0.031 A 
ATOM     59  C   UNL     1     -10.459  12.679  -2.651  1.00  0.00     0.074 A 
ATOM     60  C   UNL     1     -10.967  10.848  -4.179  1.00  0.00     0.049 A 
ATOM     61  N   UNL     1      -9.424  13.135  -3.271  1.00  0.00    -0.248 NA
ATOM     62  C   UNL     1     -10.621  13.231  -1.313  1.00  0.00     0.031 C 
ATOM     63  C   UNL     1      -9.584  10.590  -4.570  1.00  0.00     0.029 A 
ATOM     64  N   UNL     1     -11.733  10.169  -5.135  1.00  0.00    -0.354 N 
ATOM     65  C   UNL     1      -8.640  13.785  -2.349  1.00  0.00     0.074 A 
ATOM     66  C   UNL     1      -9.463  13.882  -1.164  1.00  0.00     0.031 C 
ATOM     67  C   UNL     1      -9.574  10.079  -5.810  1.00  0.00     0.029 A 
ATOM     68  C   UNL     1     -10.938  10.122  -6.301  1.00  0.00     0.049 A 
ATOM     69  H   UNL     1     -12.638   9.800  -5.018  1.00  0.00     0.167 HD
ATOM     70  C   UNL     1      -7.333  14.039  -2.648  1.00  0.00     0.037 A 
ATOM     71  C   UNL     1     -11.333  10.720  -7.460  1.00  0.00     0.037 A 
ATOM     72  C   UNL     1      -6.991  13.587  -3.997  1.00  0.00     0.049 A 
ATOM     73  C   UNL     1     -10.364  11.742  -8.001  1.00  0.00     0.074 A 
ATOM     74  C   UNL     1      -6.329  12.470  -4.482  1.00  0.00     0.029 A 
ATOM     75  N   UNL     1      -7.595  14.183  -5.097  1.00  0.00    -0.354 N 
ATOM     76  N   UNL     1      -9.397  12.288  -7.317  1.00  0.00    -0.248 NA
ATOM     77  C   UNL     1     -10.440  12.258  -9.360  1.00  0.00     0.031 C 
ATOM     78  C   UNL     1      -6.500  12.423  -5.889  1.00  0.00     0.029 A 
ATOM     79  C   UNL     1      -7.274  13.508  -6.261  1.00  0.00     0.049 A 
ATOM     80  H   UNL     1      -8.174  14.978  -5.055  1.00  0.00     0.167 HD
ATOM     81  C   UNL     1      -8.751  13.233  -8.086  1.00  0.00     0.074 A 
ATOM     82  C   UNL     1      -9.432  13.146  -9.364  1.00  0.00     0.031 C 
ATOM     83  C   UNL     1      -7.739  13.996  -7.558  1.00  0.00     0.037 A 
BRANCH  70  84
ATOM     84  C   UNL     1      -6.304  14.427  -1.607  1.00  0.00     0.057 A 
ATOM     85  C   UNL     1      -4.957  14.030  -1.726  1.00  0.00     0.134 A 
ATOM     86  C   UNL     1      -6.588  15.154  -0.439  1.00  0.00     0.134 A 
ATOM     87  F   UNL     1      -4.485  13.444  -2.833  1.00  0.00    -0.206 F 
ATOM     88  C   UNL     1      -4.013  14.214  -0.707  1.00  0.00     0.040 A 
ATOM     89  C   UNL     1      -5.670  15.298   0.613  1.00  0.00     0.040 A 
ATOM     90  F   UNL     1      -7.750  15.802  -0.285  1.00  0.00    -0.206 F 
ATOM     91  C   UNL     1      -4.379  14.810   0.488  1.00  0.00     0.006 A 
ENDBRANCH  70  84
BRANCH  71  92
ATOM     92  C   UNL     1     -12.808  10.778  -7.622  1.00  0.00     0.057 A 
ATOM     93  C   UNL     1     -13.522   9.573  -7.745  1.00  0.00     0.134 A 
ATOM     94  C   UNL     1     -13.537  11.920  -7.279  1.00  0.00     0.134 A 
ATOM     95  F   UNL     1     -12.879   8.440  -8.071  1.00  0.00    -0.206 F 
ATOM     96  C   UNL     1     -14.878   9.484  -7.425  1.00  0.00     0.040 A 
ATOM     97  C   UNL     1     -14.899  11.845  -6.969  1.00  0.00     0.040 A 
ATOM     98  F   UNL     1     -12.921  13.101  -7.123  1.00  0.00    -0.206 F 
ATOM     99  C   UNL     1     -15.563  10.618  -7.002  1.00  0.00     0.006 A 
ENDBRANCH  71  92
BRANCH  83 100
ATOM    100  C   UNL     1      -7.027  15.220  -8.147  1.00  0.00     0.057 A 
ATOM    101  C   UNL     1      -7.283  15.821  -9.388  1.00  0.00     0.134 A 
ATOM    102  C   UNL     1      -6.032  15.903  -7.392  1.00  0.00     0.134 A 
ATOM    103  F   UNL     1      -8.191  15.349 -10.241  1.00  0.00    -0.206 F 
ATOM    104  C   UNL     1      -6.624  16.981  -9.836  1.00  0.00     0.040 A 
ATOM    105  C   UNL     1      -5.392  17.076  -7.814  1.00  0.00     0.040 A 
ATOM    106  F   UNL     1      -5.628  15.482  -6.186  1.00  0.00    -0.206 F 
ATOM    107  C   UNL     1      -5.684  17.622  -9.046  1.00  0.00     0.006 A 
ENDBRANCH  83 100
ENDBRANCH  57  58
ENDBRANCH  49  52
ENDBRANCH  47  48
ENDBRANCH  46  47
ENDBRANCH  45  46
ENDBRANCH  44  45
ENDBRANCH   1  44
TORSDOF 20
