REMARK SMILES O=C(CC1(C[S@](=O)C[C@H]2Cc3ccccc3S2)CC1)NCCCCCCNC(=O)c1ccc(-c2c3nc(c(-c4c(F)cccc4F)c4ccc([nH]4)c(-c4c(F)cccc4F)c4nc(c(-c5c(F)cccc5F)c5ccc2[nH]5)C=C4)C=C3)cc1
REMARK SMILES IDX 22 1 21 2 20 3 1 4 2 5 3 7 4 8 18 9 19 10 5 11 6 12 7 13
REMARK SMILES IDX 8 14 9 15 10 16 17 17 11 18 16 19 12 20 15 21 13 22 14 23
REMARK SMILES IDX 23 24 24 25 25 26 26 27 27 28 28 29 29 31 30 32 31 33 83 34
REMARK SMILES IDX 32 35 82 36 33 37 34 38 35 39 76 40 36 41 81 42 75 43 77 44
REMARK SMILES IDX 37 45 80 46 74 47 73 48 38 50 64 51 47 52 63 53 48 54 51 55
REMARK SMILES IDX 62 56 78 57 49 58 50 59 61 61 79 62 52 63 39 64 40 65 45 66
REMARK SMILES IDX 41 67 42 68 44 69 46 70 43 71 65 72 66 73 71 74 67 75 68 76
REMARK SMILES IDX 70 77 72 78 69 79 53 80 54 81 59 82 55 83 56 84 58 85 60 86
REMARK SMILES IDX 57 87
REMARK H PARENT 20 6 27 30 77 49 51 60
REMARK Flexibility Score: inf
ROOT
ATOM      1  C   UNL     1       2.805  -2.436  -0.211  1.00  0.00     0.021 C 
ENDROOT
BRANCH   1   2
ATOM      2  C   UNL     1       4.328  -2.312  -0.359  1.00  0.00     0.116 C 
BRANCH   2   3
ATOM      3  N   UNL     1       4.926  -1.134   0.248  1.00  0.00    -0.356 N 
ATOM      4  O   UNL     1       7.020  -2.011   0.434  1.00  0.00    -0.275 OA
ATOM      5  C   UNL     1       6.267  -1.043   0.542  1.00  0.00     0.220 C 
ATOM      6  H   UNL     1       4.345  -0.368   0.458  1.00  0.00     0.163 HD
BRANCH   5   7
ATOM      7  C   UNL     1       6.745   0.235   1.223  1.00  0.00     0.108 C 
BRANCH   7   8
ATOM      8  C   UNL     1       7.149   1.532   0.483  1.00  0.00    -0.009 C 
ATOM      9  C   UNL     1       8.156   2.317   1.352  1.00  0.00     0.009 C 
ATOM     10  C   UNL     1       8.584   1.803   0.031  1.00  0.00     0.009 C 
BRANCH   8  11
ATOM     11  C   UNL     1       6.068   2.450  -0.040  1.00  0.00     0.112 C 
BRANCH  11  12
ATOM     12  S   UNL     1       4.755   2.057  -1.125  1.00  0.00     0.023 S 
ATOM     13  O   UNL     1       3.857   0.991  -0.622  1.00  0.00    -0.260 OA
BRANCH  12  14
ATOM     14  C   UNL     1       5.226   1.972  -2.830  1.00  0.00     0.120 C 
BRANCH  14  15
ATOM     15  C   UNL     1       6.171   0.958  -3.475  1.00  0.00     0.068 C 
ATOM     16  C   UNL     1       7.670   1.148  -3.213  1.00  0.00     0.052 C 
ATOM     17  S   UNL     1       5.784  -0.810  -3.356  1.00  0.00    -0.121 SA
ATOM     18  C   UNL     1       8.258  -0.149  -2.748  1.00  0.00    -0.033 A 
ATOM     19  C   UNL     1       7.398  -1.243  -2.794  1.00  0.00     0.011 A 
ATOM     20  C   UNL     1       9.567  -0.312  -2.301  1.00  0.00     0.005 A 
ATOM     21  C   UNL     1       7.817  -2.501  -2.382  1.00  0.00     0.015 A 
ATOM     22  C   UNL     1       9.982  -1.562  -1.836  1.00  0.00     0.000 A 
ATOM     23  C   UNL     1       9.111  -2.653  -1.878  1.00  0.00     0.001 A 
ENDBRANCH  14  15
ENDBRANCH  12  14
ENDBRANCH  11  12
ENDBRANCH   8  11
ENDBRANCH   7   8
ENDBRANCH   5   7
ENDBRANCH   2   3
ENDBRANCH   1   2
BRANCH   1  24
ATOM     24  C   UNL     1       1.917  -1.283  -0.701  1.00  0.00     0.002 C 
BRANCH  24  25
ATOM     25  C   UNL     1       2.095  -0.824  -2.152  1.00  0.00     0.002 C 
BRANCH  25  26
ATOM     26  C   UNL     1       1.591  -1.772  -3.232  1.00  0.00     0.021 C 
BRANCH  26  27
ATOM     27  C   UNL     1       0.116  -2.135  -3.142  1.00  0.00     0.116 C 
BRANCH  27  28
ATOM     28  N   UNL     1      -0.794  -0.997  -3.227  1.00  0.00    -0.352 N 
ATOM     29  C   UNL     1      -2.005  -0.910  -3.880  1.00  0.00     0.251 C 
ATOM     30  H   UNL     1      -0.503  -0.182  -2.756  1.00  0.00     0.163 HD
ATOM     31  O   UNL     1      -2.634   0.143  -3.912  1.00  0.00    -0.269 OA
BRANCH  29  32
ATOM     32  C   UNL     1      -2.511  -2.099  -4.599  1.00  0.00     0.039 A 
ATOM     33  C   UNL     1      -2.498  -3.348  -3.980  1.00  0.00     0.014 A 
ATOM     34  C   UNL     1      -2.890  -1.978  -5.938  1.00  0.00     0.014 A 
ATOM     35  C   UNL     1      -2.638  -4.492  -4.754  1.00  0.00     0.010 A 
ATOM     36  C   UNL     1      -3.135  -3.129  -6.692  1.00  0.00     0.010 A 
ATOM     37  C   UNL     1      -2.939  -4.398  -6.123  1.00  0.00    -0.014 A 
BRANCH  37  38
ATOM     38  C   UNL     1      -3.001  -5.639  -6.942  1.00  0.00     0.031 A 
ATOM     39  C   UNL     1      -2.034  -5.865  -8.076  1.00  0.00     0.074 A 
ATOM     40  C   UNL     1      -3.886  -6.600  -6.615  1.00  0.00     0.049 A 
ATOM     41  N   UNL     1      -1.951  -6.879  -8.902  1.00  0.00    -0.248 NA
ATOM     42  C   UNL     1      -1.031  -4.816  -8.321  1.00  0.00     0.031 C 
ATOM     43  C   UNL     1      -4.858  -6.516  -5.523  1.00  0.00     0.029 A 
ATOM     44  N   UNL     1      -4.094  -7.845  -7.149  1.00  0.00    -0.354 N 
ATOM     45  C   UNL     1      -0.915  -6.577  -9.778  1.00  0.00     0.074 A 
ATOM     46  C   UNL     1      -0.410  -5.275  -9.399  1.00  0.00     0.031 C 
ATOM     47  C   UNL     1      -5.516  -7.680  -5.430  1.00  0.00     0.029 A 
ATOM     48  C   UNL     1      -5.071  -8.562  -6.502  1.00  0.00     0.049 A 
ATOM     49  H   UNL     1      -3.592  -8.192  -7.922  1.00  0.00     0.167 HD
ATOM     50  C   UNL     1      -0.422  -7.320 -10.800  1.00  0.00     0.037 A 
ATOM     51  C   UNL     1      -5.571  -9.784  -6.757  1.00  0.00     0.037 A 
ATOM     52  C   UNL     1      -0.900  -8.632 -11.154  1.00  0.00     0.049 A 
ATOM     53  C   UNL     1      -5.044 -10.561  -7.926  1.00  0.00     0.074 A 
ATOM     54  C   UNL     1      -0.445  -9.478 -12.152  1.00  0.00     0.029 A 
ATOM     55  N   UNL     1      -1.941  -9.291 -10.518  1.00  0.00    -0.354 N 
ATOM     56  N   UNL     1      -4.072 -10.256  -8.751  1.00  0.00    -0.248 NA
ATOM     57  C   UNL     1      -5.699 -11.845  -8.211  1.00  0.00     0.031 C 
ATOM     58  C   UNL     1      -1.238 -10.632 -12.145  1.00  0.00     0.029 A 
ATOM     59  C   UNL     1      -2.160 -10.521 -11.118  1.00  0.00     0.049 A 
ATOM     60  H   UNL     1      -2.450  -8.938  -9.753  1.00  0.00     0.167 HD
ATOM     61  C   UNL     1      -3.995 -11.310  -9.650  1.00  0.00     0.074 A 
ATOM     62  C   UNL     1      -5.000 -12.275  -9.251  1.00  0.00     0.031 C 
ATOM     63  C   UNL     1      -3.172 -11.463 -10.715  1.00  0.00     0.037 A 
BRANCH  50  64
ATOM     64  C   UNL     1       0.680  -6.723 -11.626  1.00  0.00     0.057 A 
ATOM     65  C   UNL     1       0.435  -6.300 -12.939  1.00  0.00     0.134 A 
ATOM     66  C   UNL     1       1.989  -6.599 -11.142  1.00  0.00     0.134 A 
ATOM     67  F   UNL     1      -0.794  -6.398 -13.468  1.00  0.00    -0.206 F 
ATOM     68  C   UNL     1       1.452  -5.777 -13.741  1.00  0.00     0.040 A 
ATOM     69  C   UNL     1       3.009  -6.056 -11.927  1.00  0.00     0.040 A 
ATOM     70  F   UNL     1       2.289  -6.974  -9.890  1.00  0.00    -0.206 F 
ATOM     71  C   UNL     1       2.742  -5.648 -13.233  1.00  0.00     0.006 A 
ENDBRANCH  50  64
BRANCH  51  72
ATOM     72  C   UNL     1      -6.656 -10.331  -5.906  1.00  0.00     0.057 A 
ATOM     73  C   UNL     1      -7.942  -9.778  -5.920  1.00  0.00     0.134 A 
ATOM     74  C   UNL     1      -6.430 -11.423  -5.061  1.00  0.00     0.134 A 
ATOM     75  F   UNL     1      -8.220  -8.728  -6.706  1.00  0.00    -0.206 F 
ATOM     76  C   UNL     1      -8.962 -10.281  -5.113  1.00  0.00     0.040 A 
ATOM     77  C   UNL     1      -7.449 -11.954  -4.268  1.00  0.00     0.040 A 
ATOM     78  F   UNL     1      -5.224 -12.008  -5.021  1.00  0.00    -0.206 F 
ATOM     79  C   UNL     1      -8.718 -11.378  -4.289  1.00  0.00     0.006 A 
ENDBRANCH  51  72
BRANCH  63  80
ATOM     80  C   UNL     1      -3.327 -12.724 -11.510  1.00  0.00     0.057 A 
ATOM     81  C   UNL     1      -2.375 -13.747 -11.424  1.00  0.00     0.134 A 
ATOM     82  C   UNL     1      -4.420 -12.924 -12.362  1.00  0.00     0.134 A 
ATOM     83  F   UNL     1      -1.303 -13.616 -10.629  1.00  0.00    -0.206 F 
ATOM     84  C   UNL     1      -2.507 -14.927 -12.156  1.00  0.00     0.040 A 
ATOM     85  C   UNL     1      -4.575 -14.110 -13.082  1.00  0.00     0.040 A 
ATOM     86  F   UNL     1      -5.376 -11.988 -12.473  1.00  0.00    -0.206 F 
ATOM     87  C   UNL     1      -3.614 -15.114 -12.983  1.00  0.00     0.006 A 
ENDBRANCH  63  80
ENDBRANCH  37  38
ENDBRANCH  29  32
ENDBRANCH  27  28
ENDBRANCH  26  27
ENDBRANCH  25  26
ENDBRANCH  24  25
ENDBRANCH   1  24
TORSDOF 18
