REMARK SMILES CC(C)[N@@H+](Cc1cccs1)[C@@H](C)c1ccc(C(=O)NCCCCCCNC(=O)c2ccc(-c3c4nc(c(-c5c(F)cccc5F)c5ccc([nH]5)c(-c5c(F)cccc5F)c5nc(c(-c6c(F)cccc6F)c6ccc3[nH]6)C=C5)C=C4)cc2)o1
REMARK SMILES IDX 21 1 20 2 19 3 17 4 18 5 16 7 13 8 14 9 83 10 15 11 11 12
REMARK SMILES IDX 12 13 4 14 2 16 1 17 3 18 5 19 6 20 7 21 10 22 8 23 9 24
REMARK SMILES IDX 22 25 23 26 24 27 25 28 26 29 27 30 28 32 29 33 30 34 82 35
REMARK SMILES IDX 31 36 81 37 32 38 33 39 34 40 75 41 35 42 80 43 74 44 76 45
REMARK SMILES IDX 36 46 79 47 73 48 72 49 37 51 63 52 46 53 62 54 47 55 50 56
REMARK SMILES IDX 61 57 77 58 48 59 49 60 60 62 78 63 51 64 38 65 39 66 44 67
REMARK SMILES IDX 40 68 41 69 43 70 45 71 42 72 64 73 65 74 70 75 66 76 67 77
REMARK SMILES IDX 69 78 71 79 68 80 52 81 53 82 58 83 54 84 55 85 57 86 59 87
REMARK SMILES IDX 56 88
REMARK H PARENT 19 6 4 15 26 31 76 50 50 61
REMARK Flexibility Score: inf
ROOT
ATOM      1  C   UNL     1       0.430  -6.037   1.608  1.00  0.00     0.021 C 
ENDROOT
BRANCH   1   2
ATOM      2  C   UNL     1       0.768  -5.470   0.233  1.00  0.00     0.116 C 
BRANCH   2   3
ATOM      3  N   UNL     1      -0.385  -5.492  -0.636  1.00  0.00    -0.349 N 
ATOM      4  C   UNL     1      -1.182  -4.449  -1.026  1.00  0.00     0.287 C 
ATOM      5  O   UNL     1      -2.011  -4.694  -1.916  1.00  0.00    -0.266 OA
ATOM      6  H   UNL     1      -0.632  -6.375  -0.995  1.00  0.00     0.163 HD
BRANCH   4   7
ATOM      7  C   UNL     1      -1.034  -3.142  -0.425  1.00  0.00     0.191 A 
ATOM      8  C   UNL     1      -1.155  -0.921  -0.506  1.00  0.00     0.162 A 
ATOM      9  C   UNL     1      -0.910  -1.263   0.809  1.00  0.00     0.053 A 
ATOM     10  O   UNL     1      -1.268  -2.072  -1.233  1.00  0.00    -0.450 OA
ATOM     11  C   UNL     1      -0.736  -2.672   0.842  1.00  0.00     0.057 A 
BRANCH   8  12
ATOM     12  C   UNL     1      -1.463   0.352  -1.252  1.00  0.00     0.248 C 
ATOM     13  C   UNL     1      -1.633   0.072  -2.753  1.00  0.00     0.084 C 
BRANCH  12  14
ATOM     14  N   UNL     1      -0.679   1.572  -0.964  1.00  0.00    -0.320 N 
ATOM     15  H   UNL     1      -0.476   1.050  -0.111  1.00  0.00     0.349 HD
BRANCH  14  16
ATOM     16  C   UNL     1       0.751   1.692  -0.639  1.00  0.00     0.178 C 
ATOM     17  C   UNL     1       1.468   0.535   0.068  1.00  0.00     0.075 C 
ATOM     18  C   UNL     1       1.657   2.116  -1.801  1.00  0.00     0.075 C 
ENDBRANCH  14  16
BRANCH  14  19
ATOM     19  C   UNL     1      -1.395   2.831  -1.261  1.00  0.00     0.310 C 
BRANCH  19  20
ATOM     20  C   UNL     1      -1.071   3.625  -2.518  1.00  0.00     0.059 A 
ATOM     21  C   UNL     1      -1.083   5.009  -2.631  1.00  0.00     0.021 A 
ATOM     22  S   UNL     1      -0.731   2.926  -4.051  1.00  0.00    -0.143 S 
ATOM     23  C   UNL     1      -0.741   5.472  -3.937  1.00  0.00     0.012 A 
ATOM     24  C   UNL     1      -0.489   4.433  -4.798  1.00  0.00     0.065 A 
ENDBRANCH  19  20
ENDBRANCH  14  19
ENDBRANCH  12  14
ENDBRANCH   8  12
ENDBRANCH   4   7
ENDBRANCH   2   3
ENDBRANCH   1   2
BRANCH   1  25
ATOM     25  C   UNL     1       0.305  -7.565   1.635  1.00  0.00     0.002 C 
BRANCH  25  26
ATOM     26  C   UNL     1       1.536  -8.322   1.123  1.00  0.00     0.002 C 
BRANCH  26  27
ATOM     27  C   UNL     1       2.861  -7.906   1.768  1.00  0.00     0.021 C 
BRANCH  27  28
ATOM     28  C   UNL     1       2.909  -8.107   3.278  1.00  0.00     0.116 C 
BRANCH  28  29
ATOM     29  N   UNL     1       2.762  -9.508   3.635  1.00  0.00    -0.352 N 
ATOM     30  C   UNL     1       3.601 -10.312   4.360  1.00  0.00     0.251 C 
ATOM     31  H   UNL     1       1.940  -9.942   3.309  1.00  0.00     0.163 HD
ATOM     32  O   UNL     1       3.447 -11.530   4.355  1.00  0.00    -0.269 OA
BRANCH  30  33
ATOM     33  C   UNL     1       4.697  -9.710   5.147  1.00  0.00     0.039 A 
ATOM     34  C   UNL     1       5.947 -10.333   5.153  1.00  0.00     0.014 A 
ATOM     35  C   UNL     1       4.481  -8.554   5.903  1.00  0.00     0.014 A 
ATOM     36  C   UNL     1       6.991  -9.775   5.891  1.00  0.00     0.010 A 
ATOM     37  C   UNL     1       5.543  -7.955   6.571  1.00  0.00     0.010 A 
ATOM     38  C   UNL     1       6.803  -8.570   6.588  1.00  0.00    -0.014 A 
BRANCH  38  39
ATOM     39  C   UNL     1       7.906  -7.956   7.367  1.00  0.00     0.031 A 
ATOM     40  C   UNL     1       7.787  -7.819   8.861  1.00  0.00     0.074 A 
ATOM     41  C   UNL     1       8.990  -7.479   6.727  1.00  0.00     0.049 A 
ATOM     42  N   UNL     1       8.618  -7.270   9.710  1.00  0.00    -0.248 NA
ATOM     43  C   UNL     1       6.557  -8.341   9.478  1.00  0.00     0.031 C 
ATOM     44  C   UNL     1       9.200  -7.513   5.278  1.00  0.00     0.029 A 
ATOM     45  N   UNL     1      10.117  -6.867   7.213  1.00  0.00    -0.354 N 
ATOM     46  C   UNL     1       8.007  -7.369  10.954  1.00  0.00     0.074 A 
ATOM     47  C   UNL     1       6.710  -7.973  10.741  1.00  0.00     0.031 C 
ATOM     48  C   UNL     1      10.395  -6.971   4.996  1.00  0.00     0.029 A 
ATOM     49  C   UNL     1      11.018  -6.519   6.236  1.00  0.00     0.049 A 
ATOM     50  H   UNL     1      10.266  -6.694   8.170  1.00  0.00     0.167 HD
ATOM     51  C   UNL     1       8.492  -7.014  12.167  1.00  0.00     0.037 A 
ATOM     52  C   UNL     1      12.210  -5.901   6.331  1.00  0.00     0.037 A 
ATOM     53  C   UNL     1       9.793  -6.433  12.375  1.00  0.00     0.049 A 
ATOM     54  C   UNL     1      12.726  -5.511   7.689  1.00  0.00     0.074 A 
ATOM     55  C   UNL     1      10.402  -6.087  13.568  1.00  0.00     0.029 A 
ATOM     56  N   UNL     1      10.684  -6.110  11.362  1.00  0.00    -0.354 N 
ATOM     57  N   UNL     1      12.167  -5.671   8.864  1.00  0.00    -0.248 NA
ATOM     58  C   UNL     1      14.043  -4.863   7.734  1.00  0.00     0.031 C 
ATOM     59  C   UNL     1      11.641  -5.508  13.274  1.00  0.00     0.029 A 
ATOM     60  C   UNL     1      11.829  -5.548  11.901  1.00  0.00     0.049 A 
ATOM     61  H   UNL     1      10.525  -6.258  10.402  1.00  0.00     0.167 HD
ATOM     62  C   UNL     1      13.077  -5.177   9.790  1.00  0.00     0.074 A 
ATOM     63  C   UNL     1      14.229  -4.722   9.039  1.00  0.00     0.031 C 
ATOM     64  C   UNL     1      12.971  -5.108  11.140  1.00  0.00     0.037 A 
BRANCH  51  65
ATOM     65  C   UNL     1       7.609  -7.245  13.361  1.00  0.00     0.057 A 
ATOM     66  C   UNL     1       7.298  -8.534  13.815  1.00  0.00     0.134 A 
ATOM     67  C   UNL     1       7.081  -6.165  14.079  1.00  0.00     0.134 A 
ATOM     68  F   UNL     1       7.761  -9.614  13.166  1.00  0.00    -0.206 F 
ATOM     69  C   UNL     1       6.468  -8.741  14.918  1.00  0.00     0.040 A 
ATOM     70  C   UNL     1       6.276  -6.359  15.203  1.00  0.00     0.040 A 
ATOM     71  F   UNL     1       7.343  -4.903  13.705  1.00  0.00    -0.206 F 
ATOM     72  C   UNL     1       5.960  -7.650  15.620  1.00  0.00     0.006 A 
ENDBRANCH  51  65
BRANCH  52  73
ATOM     73  C   UNL     1      13.010  -5.638   5.109  1.00  0.00     0.057 A 
ATOM     74  C   UNL     1      14.205  -6.326   4.866  1.00  0.00     0.134 A 
ATOM     75  C   UNL     1      12.606  -4.694   4.158  1.00  0.00     0.134 A 
ATOM     76  F   UNL     1      14.653  -7.232   5.748  1.00  0.00    -0.206 F 
ATOM     77  C   UNL     1      14.981  -6.069   3.735  1.00  0.00     0.040 A 
ATOM     78  C   UNL     1      13.358  -4.446   3.008  1.00  0.00     0.040 A 
ATOM     79  F   UNL     1      11.466  -4.009   4.325  1.00  0.00    -0.206 F 
ATOM     80  C   UNL     1      14.554  -5.129   2.799  1.00  0.00     0.006 A 
ENDBRANCH  52  73
BRANCH  64  81
ATOM     81  C   UNL     1      14.149  -4.563  11.895  1.00  0.00     0.057 A 
ATOM     82  C   UNL     1      14.498  -3.207  11.852  1.00  0.00     0.134 A 
ATOM     83  C   UNL     1      14.925  -5.405  12.702  1.00  0.00     0.134 A 
ATOM     84  F   UNL     1      13.803  -2.349  11.090  1.00  0.00    -0.206 F 
ATOM     85  C   UNL     1      15.593  -2.713  12.563  1.00  0.00     0.040 A 
ATOM     86  C   UNL     1      16.004  -4.918  13.441  1.00  0.00     0.040 A 
ATOM     87  F   UNL     1      14.640  -6.712  12.796  1.00  0.00    -0.206 F 
ATOM     88  C   UNL     1      16.345  -3.569  13.366  1.00  0.00     0.006 A 
ENDBRANCH  64  81
ENDBRANCH  38  39
ENDBRANCH  30  33
ENDBRANCH  28  29
ENDBRANCH  27  28
ENDBRANCH  26  27
ENDBRANCH  25  26
ENDBRANCH   1  25
TORSDOF 18
