REMARK SMILES O=C(NCCCCCCNC(=O)[C@H]1CC[C@H](CNC(=O)c2ccccc2O)O1)c1ccc(-c2c3nc(c(-c4c(F)cccc4F)c4ccc([nH]4)c(-c4c(F)cccc4F)c4nc(c(-c5c(F)cccc5F)c5ccc2[nH]5)C=C4)C=C3)cc1
REMARK SMILES IDX 7 1 6 2 5 3 4 4 3 5 1 6 2 7 29 9 30 10 82 11 31 12 81 13
REMARK SMILES IDX 32 14 33 15 34 16 75 17 35 18 80 19 74 20 76 21 36 22 79 23
REMARK SMILES IDX 73 24 72 25 37 27 63 28 46 29 62 30 47 31 50 32 61 33 77 34
REMARK SMILES IDX 48 35 49 36 60 38 78 39 51 40 38 41 39 42 44 43 40 44 41 45
REMARK SMILES IDX 43 46 45 47 42 48 64 49 65 50 70 51 66 52 67 53 69 54 71 55
REMARK SMILES IDX 68 56 52 57 53 58 58 59 54 60 55 61 57 62 59 63 56 64 8 65
REMARK SMILES IDX 9 66 10 67 11 68 12 70 13 71 14 72 28 73 15 74 16 75 17 76
REMARK SMILES IDX 18 77 19 78 20 80 21 81 22 82 26 83 23 84 25 85 24 86 27 87
REMARK H PARENT 3 8 76 26 50 37 10 69 18 79 27 88
REMARK Flexibility Score: inf
ROOT
ATOM      1  C   UNL     1      13.075   6.170   8.412  1.00  0.00     0.002 C 
ENDROOT
BRANCH   1   2
ATOM      2  C   UNL     1      14.444   5.498   8.243  1.00  0.00     0.002 C 
BRANCH   2   3
ATOM      3  C   UNL     1      15.100   5.705   6.876  1.00  0.00     0.021 C 
BRANCH   3   4
ATOM      4  C   UNL     1      15.288   7.165   6.490  1.00  0.00     0.116 C 
BRANCH   4   5
ATOM      5  N   UNL     1      16.122   7.872   7.447  1.00  0.00    -0.352 N 
ATOM      6  O   UNL     1      18.006   8.854   8.202  1.00  0.00    -0.269 OA
ATOM      7  C   UNL     1      17.323   8.504   7.250  1.00  0.00     0.251 C 
ATOM      8  H   UNL     1      15.775   7.902   8.368  1.00  0.00     0.163 HD
BRANCH   7   9
ATOM      9  C   UNL     1      17.784   8.757   5.870  1.00  0.00     0.039 A 
ATOM     10  C   UNL     1      16.898   9.260   4.913  1.00  0.00     0.014 A 
ATOM     11  C   UNL     1      19.119   8.514   5.542  1.00  0.00     0.014 A 
ATOM     12  C   UNL     1      17.318   9.415   3.599  1.00  0.00     0.010 A 
ATOM     13  C   UNL     1      19.563   8.755   4.241  1.00  0.00     0.010 A 
ATOM     14  C   UNL     1      18.662   9.197   3.259  1.00  0.00    -0.014 A 
BRANCH  14  15
ATOM     15  C   UNL     1      19.128   9.544   1.895  1.00  0.00     0.031 A 
ATOM     16  C   UNL     1      19.652   8.496   0.960  1.00  0.00     0.074 A 
ATOM     17  C   UNL     1      19.075  10.836   1.516  1.00  0.00     0.049 A 
ATOM     18  N   UNL     1      20.127   8.640  -0.251  1.00  0.00    -0.248 NA
ATOM     19  C   UNL     1      19.652   7.107   1.446  1.00  0.00     0.031 C 
ATOM     20  C   UNL     1      18.596  11.940   2.354  1.00  0.00     0.029 A 
ATOM     21  N   UNL     1      19.422  11.442   0.338  1.00  0.00    -0.354 N 
ATOM     22  C   UNL     1      20.499   7.369  -0.667  1.00  0.00     0.074 A 
ATOM     23  C   UNL     1      20.216   6.467   0.430  1.00  0.00     0.031 C 
ATOM     24  C   UNL     1      18.649  13.081   1.653  1.00  0.00     0.029 A 
ATOM     25  C   UNL     1      19.233  12.803   0.347  1.00  0.00     0.049 A 
ATOM     26  H   UNL     1      19.773  10.950  -0.440  1.00  0.00     0.167 HD
ATOM     27  C   UNL     1      21.025   6.995  -1.858  1.00  0.00     0.037 A 
ATOM     28  C   UNL     1      19.527  13.731  -0.581  1.00  0.00     0.037 A 
ATOM     29  C   UNL     1      21.294   7.905  -2.943  1.00  0.00     0.049 A 
ATOM     30  C   UNL     1      20.150  13.291  -1.872  1.00  0.00     0.074 A 
ATOM     31  C   UNL     1      21.778   7.617  -4.208  1.00  0.00     0.029 A 
ATOM     32  N   UNL     1      21.112   9.279  -2.889  1.00  0.00    -0.354 N 
ATOM     33  N   UNL     1      20.449  12.079  -2.273  1.00  0.00    -0.248 NA
ATOM     34  C   UNL     1      20.482  14.345  -2.838  1.00  0.00     0.031 C 
ATOM     35  C   UNL     1      21.947   8.823  -4.896  1.00  0.00     0.029 A 
ATOM     36  C   UNL     1      21.511   9.857  -4.084  1.00  0.00     0.049 A 
ATOM     37  H   UNL     1      20.754   9.771  -2.115  1.00  0.00     0.167 HD
ATOM     38  C   UNL     1      20.987  12.222  -3.543  1.00  0.00     0.074 A 
ATOM     39  C   UNL     1      20.953  13.637  -3.855  1.00  0.00     0.031 C 
ATOM     40  C   UNL     1      21.469  11.268  -4.376  1.00  0.00     0.037 A 
BRANCH  27  41
ATOM     41  C   UNL     1      21.370   5.546  -2.049  1.00  0.00     0.057 A 
ATOM     42  C   UNL     1      20.387   4.558  -2.188  1.00  0.00     0.134 A 
ATOM     43  C   UNL     1      22.708   5.141  -2.153  1.00  0.00     0.134 A 
ATOM     44  F   UNL     1      19.087   4.875  -2.089  1.00  0.00    -0.206 F 
ATOM     45  C   UNL     1      20.721   3.219  -2.404  1.00  0.00     0.040 A 
ATOM     46  C   UNL     1      23.054   3.811  -2.395  1.00  0.00     0.040 A 
ATOM     47  F   UNL     1      23.701   6.036  -2.037  1.00  0.00    -0.206 F 
ATOM     48  C   UNL     1      22.058   2.844  -2.517  1.00  0.00     0.006 A 
ENDBRANCH  27  41
BRANCH  28  49
ATOM     49  C   UNL     1      19.260  15.164  -0.303  1.00  0.00     0.057 A 
ATOM     50  C   UNL     1      18.282  15.870  -1.011  1.00  0.00     0.134 A 
ATOM     51  C   UNL     1      19.973  15.860   0.682  1.00  0.00     0.134 A 
ATOM     52  F   UNL     1      17.576  15.263  -1.975  1.00  0.00    -0.206 F 
ATOM     53  C   UNL     1      18.036  17.222  -0.764  1.00  0.00     0.040 A 
ATOM     54  C   UNL     1      19.716  17.202   0.961  1.00  0.00     0.040 A 
ATOM     55  F   UNL     1      20.916  15.237   1.404  1.00  0.00    -0.206 F 
ATOM     56  C   UNL     1      18.750  17.890   0.230  1.00  0.00     0.006 A 
ENDBRANCH  28  49
BRANCH  40  57
ATOM     57  C   UNL     1      21.971  11.723  -5.715  1.00  0.00     0.057 A 
ATOM     58  C   UNL     1      23.171  12.433  -5.852  1.00  0.00     0.134 A 
ATOM     59  C   UNL     1      21.264  11.414  -6.884  1.00  0.00     0.134 A 
ATOM     60  F   UNL     1      23.887  12.775  -4.770  1.00  0.00    -0.206 F 
ATOM     61  C   UNL     1      23.638  12.839  -7.103  1.00  0.00     0.040 A 
ATOM     62  C   UNL     1      21.735  11.789  -8.142  1.00  0.00     0.040 A 
ATOM     63  F   UNL     1      20.111  10.731  -6.822  1.00  0.00    -0.206 F 
ATOM     64  C   UNL     1      22.923  12.508  -8.253  1.00  0.00     0.006 A 
ENDBRANCH  40  57
ENDBRANCH  14  15
ENDBRANCH   7   9
ENDBRANCH   4   5
ENDBRANCH   3   4
ENDBRANCH   2   3
ENDBRANCH   1   2
BRANCH   1  65
ATOM     65  C   UNL     1      12.071   5.868   7.296  1.00  0.00     0.021 C 
BRANCH  65  66
ATOM     66  C   UNL     1      11.806   4.376   7.109  1.00  0.00     0.116 C 
BRANCH  66  67
ATOM     67  N   UNL     1      10.763   3.916   7.989  1.00  0.00    -0.354 N 
ATOM     68  C   UNL     1       9.549   3.367   7.710  1.00  0.00     0.249 C 
ATOM     69  H   UNL     1      10.960   4.014   8.949  1.00  0.00     0.163 HD
ATOM     70  O   UNL     1       8.832   3.091   8.678  1.00  0.00    -0.272 OA
BRANCH  68  71
ATOM     71  C   UNL     1       9.079   3.043   6.272  1.00  0.00     0.207 C 
ATOM     72  C   UNL     1       9.142   4.144   5.227  1.00  0.00     0.045 C 
ATOM     73  O   UNL     1       9.748   1.893   5.751  1.00  0.00    -0.363 OA
ATOM     74  C   UNL     1      10.073   3.635   4.147  1.00  0.00     0.037 C 
ATOM     75  C   UNL     1      10.235   2.151   4.432  1.00  0.00     0.138 C 
BRANCH  75  76
ATOM     76  C   UNL     1       9.493   1.290   3.405  1.00  0.00     0.148 C 
BRANCH  76  77
ATOM     77  N   UNL     1      10.163   1.324   2.110  1.00  0.00    -0.349 N 
ATOM     78  C   UNL     1      10.392   0.290   1.241  1.00  0.00     0.255 C 
ATOM     79  H   UNL     1      10.495   2.206   1.823  1.00  0.00     0.163 HD
ATOM     80  O   UNL     1      11.105   0.465   0.256  1.00  0.00    -0.269 OA
BRANCH  78  81
ATOM     81  C   UNL     1       9.850  -1.051   1.532  1.00  0.00     0.081 A 
ATOM     82  C   UNL     1      10.762  -2.112   1.593  1.00  0.00     0.018 A 
ATOM     83  C   UNL     1       8.486  -1.286   1.741  1.00  0.00     0.128 A 
ATOM     84  C   UNL     1      10.315  -3.393   1.910  1.00  0.00     0.001 A 
ATOM     85  C   UNL     1       8.042  -2.568   2.062  1.00  0.00     0.047 A 
ATOM     86  C   UNL     1       8.960  -3.618   2.154  1.00  0.00     0.004 A 
BRANCH  83  87
ATOM     87  O   UNL     1       7.580  -0.267   1.635  1.00  0.00    -0.507 OA
ATOM     88  H   UNL     1       7.871   0.597   1.420  1.00  0.00     0.293 HD
ENDBRANCH  83  87
ENDBRANCH  78  81
ENDBRANCH  76  77
ENDBRANCH  75  76
ENDBRANCH  68  71
ENDBRANCH  66  67
ENDBRANCH  65  66
ENDBRANCH   1  65
TORSDOF 17
