REMARK SMILES COc1ccc2c(c1)c(Cc1nc(-c3ccc(C(=O)NCCCCCCNC(=O)c4ccc(-c5c6nc(c(-c7c(F)cccc7F)c7ccc([nH]7)c(-c7c(F)cccc7F)c7nc(c(-c8c(F)cccc8F)c8ccc5[nH]8)C=C7)C=C6)cc4)cc3)cs1)c(C)n2C(=O)c1ccc(Cl)cc1
REMARK SMILES IDX 22 1 21 2 20 3 18 4 19 5 17 7 14 8 15 9 85 10 16 11 84 12
REMARK SMILES IDX 13 13 11 14 12 15 87 16 86 17 10 18 9 19 3 20 4 21 8 22 5 23
REMARK SMILES IDX 7 24 6 25 90 26 88 27 89 28 2 29 1 30 91 31 92 32 93 33
REMARK SMILES IDX 94 34 99 35 95 36 98 37 96 38 97 39 23 40 24 41 25 42 26 43
REMARK SMILES IDX 27 44 28 45 29 47 30 48 31 49 83 50 32 51 82 52 33 53 34 54
REMARK SMILES IDX 35 55 76 56 36 57 81 58 75 59 77 60 37 61 80 62 74 63 73 64
REMARK SMILES IDX 38 66 64 67 47 68 63 69 48 70 51 71 62 72 78 73 49 74 50 75
REMARK SMILES IDX 61 77 79 78 52 79 39 80 40 81 45 82 41 83 42 84 44 85 46 86
REMARK SMILES IDX 43 87 65 88 66 89 71 90 67 91 68 92 70 93 72 94 69 95 53 96
REMARK SMILES IDX 54 97 59 98 55 99 56 100 58 101 60 102 57 103
REMARK H PARENT 20 6 27 46 77 65 51 76
REMARK Flexibility Score: inf
ROOT
ATOM      1  C   UNL     1      -5.689   5.530   2.550  1.00  0.00     0.021 C 
ENDROOT
BRANCH   1   2
ATOM      2  C   UNL     1      -4.266   4.990   2.625  1.00  0.00     0.116 C 
BRANCH   2   3
ATOM      3  N   UNL     1      -3.421   5.696   3.570  1.00  0.00    -0.352 N 
ATOM      4  C   UNL     1      -2.563   5.236   4.542  1.00  0.00     0.251 C 
ATOM      5  O   UNL     1      -1.978   6.061   5.243  1.00  0.00    -0.269 OA
ATOM      6  H   UNL     1      -3.470   6.677   3.503  1.00  0.00     0.163 HD
BRANCH   4   7
ATOM      7  C   UNL     1      -2.383   3.786   4.825  1.00  0.00     0.039 A 
ATOM      8  C   UNL     1      -2.367   1.066   5.557  1.00  0.00     0.001 A 
ATOM      9  C   UNL     1      -2.143   2.056   6.519  1.00  0.00     0.011 A 
ATOM     10  C   UNL     1      -2.461   1.448   4.211  1.00  0.00     0.011 A 
ATOM     11  C   UNL     1      -2.159   3.407   6.156  1.00  0.00     0.014 A 
ATOM     12  C   UNL     1      -2.431   2.795   3.844  1.00  0.00     0.014 A 
BRANCH   8  13
ATOM     13  C   UNL     1      -2.497  -0.341   5.907  1.00  0.00     0.081 A 
ATOM     14  C   UNL     1      -2.360  -2.517   5.495  1.00  0.00     0.098 A 
ATOM     15  N   UNL     1      -2.241  -1.317   4.968  1.00  0.00    -0.241 NA
ATOM     16  S   UNL     1      -2.927  -2.540   7.116  1.00  0.00    -0.126 S 
ATOM     17  C   UNL     1      -2.941  -0.822   7.123  1.00  0.00     0.095 A 
BRANCH  14  18
ATOM     18  C   UNL     1      -2.069  -3.785   4.749  1.00  0.00     0.105 C 
BRANCH  18  19
ATOM     19  C   UNL     1      -0.604  -3.949   4.422  1.00  0.00    -0.012 A 
ATOM     20  C   UNL     1       0.713  -1.466   1.823  1.00  0.00     0.119 A 
ATOM     21  C   UNL     1       1.965  -2.038   1.693  1.00  0.00     0.048 A 
ATOM     22  C   UNL     1      -0.206  -2.039   2.700  1.00  0.00     0.057 A 
ATOM     23  C   UNL     1       2.316  -3.168   2.445  1.00  0.00     0.031 A 
ATOM     24  C   UNL     1       0.133  -3.160   3.495  1.00  0.00     0.008 A 
ATOM     25  C   UNL     1       1.419  -3.697   3.400  1.00  0.00     0.057 A 
ATOM     26  N   UNL     1       1.532  -4.732   4.352  1.00  0.00    -0.280 N 
ATOM     27  C   UNL     1       0.265  -4.905   4.936  1.00  0.00     0.028 A 
ATOM     28  C   UNL     1      -0.096  -5.938   5.960  1.00  0.00     0.065 C 
BRANCH  20  29
ATOM     29  O   UNL     1       0.274  -0.345   1.174  1.00  0.00    -0.497 OA
ATOM     30  C   UNL     1       0.915  -0.045  -0.059  1.00  0.00     0.278 C 
ENDBRANCH  20  29
BRANCH  26  31
ATOM     31  C   UNL     1       2.717  -5.472   4.646  1.00  0.00     0.262 C 
ATOM     32  O   UNL     1       2.646  -6.459   5.381  1.00  0.00    -0.268 OA
BRANCH  31  33
ATOM     33  C   UNL     1       4.058  -5.194   4.105  1.00  0.00     0.040 A 
ATOM     34  C   UNL     1       4.716  -3.989   4.378  1.00  0.00     0.015 A 
ATOM     35  C   UNL     1       4.645  -6.157   3.274  1.00  0.00     0.015 A 
ATOM     36  C   UNL     1       5.923  -3.709   3.731  1.00  0.00     0.021 A 
ATOM     37  C   UNL     1       5.855  -5.876   2.640  1.00  0.00     0.021 A 
ATOM     38  C   UNL     1       6.477  -4.645   2.853  1.00  0.00     0.041 A 
ATOM     39  Cl  UNL     1       7.924  -4.267   2.004  1.00  0.00    -0.084 Cl
ENDBRANCH  31  33
ENDBRANCH  26  31
ENDBRANCH  18  19
ENDBRANCH  14  18
ENDBRANCH   8  13
ENDBRANCH   4   7
ENDBRANCH   2   3
ENDBRANCH   1   2
BRANCH   1  40
ATOM     40  C   UNL     1      -5.844   6.944   1.991  1.00  0.00     0.002 C 
BRANCH  40  41
ATOM     41  C   UNL     1      -5.285   7.177   0.586  1.00  0.00     0.002 C 
BRANCH  41  42
ATOM     42  C   UNL     1      -5.746   6.193  -0.494  1.00  0.00     0.021 C 
BRANCH  42  43
ATOM     43  C   UNL     1      -7.260   5.982  -0.582  1.00  0.00     0.116 C 
BRANCH  43  44
ATOM     44  N   UNL     1      -8.019   7.188  -0.833  1.00  0.00    -0.352 N 
ATOM     45  C   UNL     1      -8.412   7.856  -1.957  1.00  0.00     0.251 C 
ATOM     46  H   UNL     1      -8.321   7.626  -0.004  1.00  0.00     0.163 HD
ATOM     47  O   UNL     1      -9.219   8.775  -1.796  1.00  0.00    -0.269 OA
BRANCH  45  48
ATOM     48  C   UNL     1      -7.867   7.616  -3.318  1.00  0.00     0.039 A 
ATOM     49  C   UNL     1      -7.005   6.579  -3.670  1.00  0.00     0.014 A 
ATOM     50  C   UNL     1      -8.185   8.587  -4.287  1.00  0.00     0.014 A 
ATOM     51  C   UNL     1      -6.346   6.603  -4.888  1.00  0.00     0.010 A 
ATOM     52  C   UNL     1      -7.558   8.596  -5.525  1.00  0.00     0.010 A 
ATOM     53  C   UNL     1      -6.584   7.642  -5.789  1.00  0.00    -0.014 A 
BRANCH  53  54
ATOM     54  C   UNL     1      -5.827   7.628  -7.032  1.00  0.00     0.031 A 
ATOM     55  C   UNL     1      -6.000   6.392  -7.845  1.00  0.00     0.074 A 
ATOM     56  C   UNL     1      -5.072   8.663  -7.447  1.00  0.00     0.049 A 
ATOM     57  N   UNL     1      -5.106   5.509  -8.148  1.00  0.00    -0.248 NA
ATOM     58  C   UNL     1      -7.367   6.021  -8.244  1.00  0.00     0.031 C 
ATOM     59  C   UNL     1      -4.985  10.016  -6.896  1.00  0.00     0.029 A 
ATOM     60  N   UNL     1      -4.267   8.731  -8.542  1.00  0.00    -0.354 N 
ATOM     61  C   UNL     1      -5.754   4.556  -8.930  1.00  0.00     0.074 A 
ATOM     62  C   UNL     1      -7.161   4.844  -8.837  1.00  0.00     0.031 C 
ATOM     63  C   UNL     1      -4.375  10.823  -7.794  1.00  0.00     0.029 A 
ATOM     64  C   UNL     1      -3.916  10.021  -8.914  1.00  0.00     0.049 A 
ATOM     65  H   UNL     1      -3.960   7.933  -9.029  1.00  0.00     0.167 HD
ATOM     66  C   UNL     1      -5.063   3.725  -9.759  1.00  0.00     0.037 A 
ATOM     67  C   UNL     1      -3.369  10.386 -10.101  1.00  0.00     0.037 A 
ATOM     68  C   UNL     1      -3.676   3.643  -9.381  1.00  0.00     0.049 A 
ATOM     69  C   UNL     1      -2.757   9.171 -10.703  1.00  0.00     0.074 A 
ATOM     70  C   UNL     1      -3.004   3.240  -8.242  1.00  0.00     0.029 A 
ATOM     71  N   UNL     1      -2.757   4.351 -10.117  1.00  0.00    -0.354 N 
ATOM     72  N   UNL     1      -1.695   8.585 -10.220  1.00  0.00    -0.248 NA
ATOM     73  C   UNL     1      -3.606   8.331 -11.539  1.00  0.00     0.031 C 
ATOM     74  C   UNL     1      -1.919   4.155  -8.116  1.00  0.00     0.029 A 
ATOM     75  C   UNL     1      -1.960   5.010  -9.218  1.00  0.00     0.049 A 
ATOM     76  H   UNL     1      -2.686   4.380 -11.099  1.00  0.00     0.167 HD
ATOM     77  C   UNL     1      -1.962   7.228 -10.321  1.00  0.00     0.074 A 
ATOM     78  C   UNL     1      -3.123   7.131 -11.205  1.00  0.00     0.031 C 
ATOM     79  C   UNL     1      -1.415   6.324  -9.455  1.00  0.00     0.037 A 
BRANCH  66  80
ATOM     80  C   UNL     1      -5.548   3.298 -11.124  1.00  0.00     0.057 A 
ATOM     81  C   UNL     1      -6.540   3.979 -11.857  1.00  0.00     0.134 A 
ATOM     82  C   UNL     1      -4.778   2.384 -11.868  1.00  0.00     0.134 A 
ATOM     83  F   UNL     1      -7.327   4.913 -11.311  1.00  0.00    -0.206 F 
ATOM     84  C   UNL     1      -6.713   3.813 -13.233  1.00  0.00     0.040 A 
ATOM     85  C   UNL     1      -4.911   2.245 -13.255  1.00  0.00     0.040 A 
ATOM     86  F   UNL     1      -3.807   1.665 -11.285  1.00  0.00    -0.206 F 
ATOM     87  C   UNL     1      -5.870   2.975 -13.944  1.00  0.00     0.006 A 
ENDBRANCH  66  80
BRANCH  67  88
ATOM     88  C   UNL     1      -3.627  11.626 -10.873  1.00  0.00     0.057 A 
ATOM     89  C   UNL     1      -4.828  12.347 -10.733  1.00  0.00     0.134 A 
ATOM     90  C   UNL     1      -2.814  12.000 -11.953  1.00  0.00     0.134 A 
ATOM     91  F   UNL     1      -5.730  12.023  -9.796  1.00  0.00    -0.206 F 
ATOM     92  C   UNL     1      -5.197  13.375 -11.606  1.00  0.00     0.040 A 
ATOM     93  C   UNL     1      -3.178  13.023 -12.842  1.00  0.00     0.040 A 
ATOM     94  F   UNL     1      -1.674  11.342 -12.207  1.00  0.00    -0.206 F 
ATOM     95  C   UNL     1      -4.376  13.710 -12.674  1.00  0.00     0.006 A 
ENDBRANCH  67  88
BRANCH  79  96
ATOM     96  C   UNL     1      -0.351   6.797  -8.504  1.00  0.00     0.057 A 
ATOM     97  C   UNL     1       0.869   6.113  -8.459  1.00  0.00     0.134 A 
ATOM     98  C   UNL     1      -0.558   7.785  -7.528  1.00  0.00     0.134 A 
ATOM     99  F   UNL     1       1.113   5.109  -9.316  1.00  0.00    -0.206 F 
ATOM    100  C   UNL     1       1.843   6.403  -7.501  1.00  0.00     0.040 A 
ATOM    101  C   UNL     1       0.423   8.110  -6.587  1.00  0.00     0.040 A 
ATOM    102  F   UNL     1      -1.734   8.414  -7.416  1.00  0.00    -0.206 F 
ATOM    103  C   UNL     1       1.627   7.413  -6.568  1.00  0.00     0.006 A 
ENDBRANCH  79  96
ENDBRANCH  53  54
ENDBRANCH  45  48
ENDBRANCH  43  44
ENDBRANCH  42  43
ENDBRANCH  41  42
ENDBRANCH  40  41
ENDBRANCH   1  40
TORSDOF 19
