REMARK SMILES O=C(NCCCCCCNC(=O)[C@@H]1CC=CC[C@H]1C(=O)N1CC[NH+](Cc2ccc3c(c2)OCO3)CC1)c1ccc(-c2c3nc(c(-c4c(F)cccc4F)c4ccc([nH]4)c(-c4c(F)cccc4F)c4nc(c(-c5c(F)cccc5F)c5ccc2[nH]5)C=C4)C=C3)cc1
REMARK SMILES IDX 7 1 6 2 5 3 4 4 3 5 1 6 2 7 37 9 38 10 90 11 39 12 89 13
REMARK SMILES IDX 40 14 41 15 42 16 83 17 43 18 88 19 82 20 84 21 44 22 87 23
REMARK SMILES IDX 81 24 80 25 45 27 71 28 54 29 70 30 55 31 58 32 69 33 85 34
REMARK SMILES IDX 56 35 57 36 68 38 86 39 59 40 46 41 47 42 52 43 48 44 49 45
REMARK SMILES IDX 51 46 53 47 50 48 72 49 73 50 78 51 74 52 75 53 77 54 79 55
REMARK SMILES IDX 76 56 60 57 61 58 66 59 62 60 63 61 65 62 67 63 64 64 8 65
REMARK SMILES IDX 9 66 10 67 11 68 12 70 13 71 14 72 18 73 15 74 17 75 16 76
REMARK SMILES IDX 19 77 20 78 21 79 22 80 36 81 23 82 35 83 24 84 25 86 26 87
REMARK SMILES IDX 27 88 31 89 28 90 30 91 29 92 32 93 34 94 33 95
REMARK H PARENT 3 8 84 26 58 37 10 69 24 85
REMARK Flexibility Score: inf
ROOT
ATOM      1  C   UNL     1      12.550   4.090   6.803  1.00  0.00     0.002 C 
ENDROOT
BRANCH   1   2
ATOM      2  C   UNL     1      14.052   3.870   7.013  1.00  0.00     0.002 C 
BRANCH   2   3
ATOM      3  C   UNL     1      14.825   3.519   5.742  1.00  0.00     0.021 C 
BRANCH   3   4
ATOM      4  C   UNL     1      14.718   4.576   4.651  1.00  0.00     0.116 C 
BRANCH   4   5
ATOM      5  N   UNL     1      15.343   5.827   5.058  1.00  0.00    -0.352 N 
ATOM      6  O   UNL     1      17.007   7.356   5.144  1.00  0.00    -0.269 OA
ATOM      7  C   UNL     1      16.451   6.443   4.537  1.00  0.00     0.251 C 
ATOM      8  H   UNL     1      14.912   6.293   5.810  1.00  0.00     0.163 HD
BRANCH   7   9
ATOM      9  C   UNL     1      16.976   5.993   3.234  1.00  0.00     0.039 A 
ATOM     10  C   UNL     1      16.095   5.750   2.177  1.00  0.00     0.014 A 
ATOM     11  C   UNL     1      18.351   5.817   3.065  1.00  0.00     0.014 A 
ATOM     12  C   UNL     1      16.572   5.201   0.996  1.00  0.00     0.010 A 
ATOM     13  C   UNL     1      18.840   5.360   1.840  1.00  0.00     0.010 A 
ATOM     14  C   UNL     1      17.951   5.030   0.803  1.00  0.00    -0.014 A 
BRANCH  14  15
ATOM     15  C   UNL     1      18.443   4.596  -0.526  1.00  0.00     0.031 A 
ATOM     16  C   UNL     1      19.177   3.300  -0.705  1.00  0.00     0.074 A 
ATOM     17  C   UNL     1      18.207   5.397  -1.583  1.00  0.00     0.049 A 
ATOM     18  N   UNL     1      19.680   2.784  -1.798  1.00  0.00    -0.248 NA
ATOM     19  C   UNL     1      19.384   2.480   0.498  1.00  0.00     0.031 C 
ATOM     20  C   UNL     1      17.517   6.689  -1.522  1.00  0.00     0.029 A 
ATOM     21  N   UNL     1      18.513   5.248  -2.910  1.00  0.00    -0.354 N 
ATOM     22  C   UNL     1      20.279   1.591  -1.415  1.00  0.00     0.074 A 
ATOM     23  C   UNL     1      20.101   1.473   0.017  1.00  0.00     0.031 C 
ATOM     24  C   UNL     1      17.421   7.197  -2.757  1.00  0.00     0.029 A 
ATOM     25  C   UNL     1      18.106   6.306  -3.685  1.00  0.00     0.049 A 
ATOM     26  H   UNL     1      18.978   4.460  -3.273  1.00  0.00     0.167 HD
ATOM     27  C   UNL     1      20.912   0.680  -2.193  1.00  0.00     0.037 A 
ATOM     28  C   UNL     1      18.290   6.553  -4.994  1.00  0.00     0.037 A 
ATOM     29  C   UNL     1      21.081   0.812  -3.619  1.00  0.00     0.049 A 
ATOM     30  C   UNL     1      19.028   5.545  -5.824  1.00  0.00     0.074 A 
ATOM     31  C   UNL     1      21.670  -0.075  -4.503  1.00  0.00     0.029 A 
ATOM     32  N   UNL     1      20.674   1.909  -4.367  1.00  0.00    -0.354 N 
ATOM     33  N   UNL     1      19.545   4.396  -5.459  1.00  0.00    -0.248 NA
ATOM     34  C   UNL     1      19.208   5.864  -7.245  1.00  0.00     0.031 C 
ATOM     35  C   UNL     1      21.675   0.511  -5.773  1.00  0.00     0.029 A 
ATOM     36  C   UNL     1      21.030   1.735  -5.696  1.00  0.00     0.049 A 
ATOM     37  H   UNL     1      20.202   2.694  -4.007  1.00  0.00     0.167 HD
ATOM     38  C   UNL     1      20.096   3.847  -6.607  1.00  0.00     0.074 A 
ATOM     39  C   UNL     1      19.830   4.780  -7.684  1.00  0.00     0.031 C 
ATOM     40  C   UNL     1      20.763   2.676  -6.756  1.00  0.00     0.037 A 
BRANCH  27  41
ATOM     41  C   UNL     1      21.500  -0.526  -1.514  1.00  0.00     0.057 A 
ATOM     42  C   UNL     1      20.700  -1.530  -0.952  1.00  0.00     0.134 A 
ATOM     43  C   UNL     1      22.889  -0.702  -1.452  1.00  0.00     0.134 A 
ATOM     44  F   UNL     1      19.362  -1.424  -0.968  1.00  0.00    -0.206 F 
ATOM     45  C   UNL     1      21.259  -2.648  -0.328  1.00  0.00     0.040 A 
ATOM     46  C   UNL     1      23.459  -1.829  -0.857  1.00  0.00     0.040 A 
ATOM     47  F   UNL     1      23.716   0.214  -1.977  1.00  0.00    -0.206 F 
ATOM     48  C   UNL     1      22.643  -2.802  -0.285  1.00  0.00     0.006 A 
ENDBRANCH  27  41
BRANCH  28  49
ATOM     49  C   UNL     1      17.785   7.818  -5.580  1.00  0.00     0.057 A 
ATOM     50  C   UNL     1      16.726   7.826  -6.494  1.00  0.00     0.134 A 
ATOM     51  C   UNL     1      18.335   9.056  -5.220  1.00  0.00     0.134 A 
ATOM     52  F   UNL     1      16.166   6.673  -6.888  1.00  0.00    -0.206 F 
ATOM     53  C   UNL     1      16.242   9.015  -7.040  1.00  0.00     0.040 A 
ATOM     54  C   UNL     1      17.841  10.254  -5.733  1.00  0.00     0.040 A 
ATOM     55  F   UNL     1      19.343   9.117  -4.337  1.00  0.00    -0.206 F 
ATOM     56  C   UNL     1      16.796  10.235  -6.654  1.00  0.00     0.006 A 
ENDBRANCH  28  49
BRANCH  40  57
ATOM     57  C   UNL     1      21.223   2.325  -8.142  1.00  0.00     0.057 A 
ATOM     58  C   UNL     1      22.271   3.009  -8.771  1.00  0.00     0.134 A 
ATOM     59  C   UNL     1      20.626   1.269  -8.843  1.00  0.00     0.134 A 
ATOM     60  F   UNL     1      22.874   4.041  -8.161  1.00  0.00    -0.206 F 
ATOM     61  C   UNL     1      22.692   2.672 -10.059  1.00  0.00     0.040 A 
ATOM     62  C   UNL     1      21.059   0.903 -10.117  1.00  0.00     0.040 A 
ATOM     63  F   UNL     1      19.622   0.569  -8.296  1.00  0.00    -0.206 F 
ATOM     64  C   UNL     1      22.090   1.610 -10.732  1.00  0.00     0.006 A 
ENDBRANCH  40  57
ENDBRANCH  14  15
ENDBRANCH   7   9
ENDBRANCH   4   5
ENDBRANCH   3   4
ENDBRANCH   2   3
ENDBRANCH   1   2
BRANCH   1  65
ATOM     65  C   UNL     1      11.829   2.947   6.077  1.00  0.00     0.021 C 
BRANCH  65  66
ATOM     66  C   UNL     1      11.898   1.612   6.818  1.00  0.00     0.116 C 
BRANCH  66  67
ATOM     67  N   UNL     1      10.930   1.588   7.894  1.00  0.00    -0.356 N 
ATOM     68  C   UNL     1       9.728   0.976   8.009  1.00  0.00     0.224 C 
ATOM     69  H   UNL     1      11.193   2.113   8.684  1.00  0.00     0.163 HD
ATOM     70  O   UNL     1       9.060   1.255   9.011  1.00  0.00    -0.275 OA
BRANCH  68  71
ATOM     71  C   UNL     1       9.222  -0.081   7.034  1.00  0.00     0.095 C 
ATOM     72  C   UNL     1      10.012  -1.386   7.221  1.00  0.00     0.041 C 
ATOM     73  C   UNL     1       9.113   0.306   5.559  1.00  0.00     0.095 C 
ATOM     74  C   UNL     1       9.613  -2.448   6.236  1.00  0.00    -0.030 C 
ATOM     75  C   UNL     1       8.450  -0.820   4.737  1.00  0.00     0.041 C 
ATOM     76  C   UNL     1       8.899  -2.194   5.130  1.00  0.00    -0.030 C 
BRANCH  73  77
ATOM     77  C   UNL     1       8.412   1.608   5.191  1.00  0.00     0.227 C 
ATOM     78  O   UNL     1       8.988   2.424   4.467  1.00  0.00    -0.275 OA
ATOM     79  N   UNL     1       7.053   1.681   5.424  1.00  0.00    -0.331 N 
ATOM     80  C   UNL     1       6.242   2.278   4.372  1.00  0.00     0.181 C 
ATOM     81  C   UNL     1       6.492   1.809   6.766  1.00  0.00     0.181 C 
ATOM     82  C   UNL     1       4.758   1.874   4.470  1.00  0.00     0.284 C 
ATOM     83  C   UNL     1       5.026   1.346   6.827  1.00  0.00     0.284 C 
ATOM     84  N   UNL     1       4.141   1.923   5.804  1.00  0.00    -0.328 N 
ATOM     85  H   UNL     1       3.327   1.311   5.752  1.00  0.00     0.348 HD
BRANCH  84  86
ATOM     86  C   UNL     1       3.492   3.190   6.169  1.00  0.00     0.299 C 
BRANCH  86  87
ATOM     87  C   UNL     1       4.401   4.355   6.488  1.00  0.00     0.010 A 
ATOM     88  C   UNL     1       4.947   5.141   5.448  1.00  0.00     0.013 A 
ATOM     89  C   UNL     1       4.788   4.608   7.817  1.00  0.00     0.060 A 
ATOM     90  C   UNL     1       5.961   6.070   5.701  1.00  0.00     0.051 A 
ATOM     91  C   UNL     1       5.781   5.538   8.037  1.00  0.00     0.166 A 
ATOM     92  C   UNL     1       6.369   6.230   7.006  1.00  0.00     0.165 A 
ATOM     93  O   UNL     1       6.333   5.837   9.243  1.00  0.00    -0.454 OA
ATOM     94  O   UNL     1       7.377   7.038   7.429  1.00  0.00    -0.454 OA
ATOM     95  C   UNL     1       7.366   6.762   8.845  1.00  0.00     0.468 C 
ENDBRANCH  86  87
ENDBRANCH  84  86
ENDBRANCH  73  77
ENDBRANCH  68  71
ENDBRANCH  66  67
ENDBRANCH  65  66
ENDBRANCH   1  65
TORSDOF 16
