REMARK SMILES C[C@@]1(Oc2c[nH]c3ccc(Br)c(Cl)c23)O[C@@H](C(=O)NCCCCCCNC(=O)c2ccc(-c3c4nc(c(-c5c(F)cccc5F)c5ccc([nH]5)c(-c5c(F)cccc5F)c5nc(c(-c6c(F)cccc6F)c6ccc3[nH]6)C=C5)C=C4)cc2)[C@@](C)(O)[C@@](C)(O)[C@@]1(C)O
REMARK SMILES IDX 22 1 21 2 20 3 19 4 17 5 18 6 16 8 1 9 2 10 15 11 89 12
REMARK SMILES IDX 86 13 90 14 83 15 87 16 84 17 3 18 4 19 5 20 14 21 6 22 7 23
REMARK SMILES IDX 12 24 8 26 10 27 13 28 9 29 11 30 91 31 88 33 85 35 23 37
REMARK SMILES IDX 24 38 25 39 26 40 27 41 28 43 29 44 30 45 82 46 31 47 81 48
REMARK SMILES IDX 32 49 33 50 34 51 75 52 35 53 80 54 74 55 76 56 36 57 79 58
REMARK SMILES IDX 73 59 72 60 37 62 63 63 46 64 62 65 47 66 50 67 61 68 77 69
REMARK SMILES IDX 48 70 49 71 60 73 78 74 51 75 38 76 39 77 44 78 40 79 41 80
REMARK SMILES IDX 43 81 45 82 42 83 64 84 65 85 70 86 66 87 67 88 69 89 71 90
REMARK SMILES IDX 68 91 52 92 53 93 58 94 54 95 55 96 57 97 59 98 56 99
REMARK H PARENT 19 7 6 25 91 32 88 34 85 36 26 42 76 61 50 72
REMARK Flexibility Score: inf
ROOT
ATOM      1  C   UNL     1       4.732  -1.506  -1.298  1.00  0.00     0.002 C 
ENDROOT
BRANCH   1   2
ATOM      2  C   UNL     1       3.660  -0.688  -2.013  1.00  0.00     0.021 C 
BRANCH   2   3
ATOM      3  C   UNL     1       3.453   0.698  -1.399  1.00  0.00     0.116 C 
BRANCH   3   4
ATOM      4  N   UNL     1       3.358   1.804  -2.335  1.00  0.00    -0.354 N 
ATOM      5  C   UNL     1       2.395   2.768  -2.458  1.00  0.00     0.252 C 
ATOM      6  O   UNL     1       2.628   3.712  -3.227  1.00  0.00    -0.272 OA
ATOM      7  H   UNL     1       4.099   1.871  -2.979  1.00  0.00     0.163 HD
BRANCH   5   8
ATOM      8  C   UNL     1       1.003   2.699  -1.761  1.00  0.00     0.246 C 
ATOM      9  C   UNL     1       1.041   0.441   1.123  1.00  0.00     0.094 C 
ATOM     10  C   UNL     1       0.197   1.290   0.143  1.00  0.00     0.240 C 
ATOM     11  O   UNL     1       1.143   2.166  -0.460  1.00  0.00    -0.322 OA
ATOM     12  C   UNL     1      -0.640   0.359  -0.873  1.00  0.00     0.158 C 
ATOM     13  C   UNL     1      -0.291   0.612  -2.388  1.00  0.00     0.128 C 
ATOM     14  C   UNL     1      -2.155   0.502  -0.614  1.00  0.00     0.053 C 
ATOM     15  C   UNL     1      -0.086   2.111  -2.710  1.00  0.00     0.129 C 
ATOM     16  C   UNL     1      -1.242  -0.114  -3.368  1.00  0.00     0.049 C 
ATOM     17  C   UNL     1      -1.369   2.956  -2.657  1.00  0.00     0.049 C 
BRANCH  10  18
ATOM     18  O   UNL     1      -0.705   1.894   1.096  1.00  0.00    -0.457 OA
BRANCH  18  19
ATOM     19  C   UNL     1      -0.640   3.216   1.333  1.00  0.00     0.150 A 
ATOM     20  C   UNL     1       0.462   4.033   1.407  1.00  0.00     0.130 A 
ATOM     21  C   UNL     1      -1.796   3.996   1.584  1.00  0.00     0.061 A 
ATOM     22  N   UNL     1      -0.001   5.322   1.470  1.00  0.00    -0.358 N 
ATOM     23  C   UNL     1      -1.380   5.326   1.489  1.00  0.00     0.051 A 
ATOM     24  C   UNL     1      -3.167   3.731   1.779  1.00  0.00     0.068 A 
ATOM     25  H   UNL     1       0.567   6.125   1.498  1.00  0.00     0.166 HD
ATOM     26  C   UNL     1      -2.288   6.387   1.430  1.00  0.00     0.028 A 
ATOM     27  C   UNL     1      -4.093   4.767   1.692  1.00  0.00     0.037 A 
ATOM     28  Cl  UNL     1      -3.576   2.112   2.176  1.00  0.00    -0.082 Cl
ATOM     29  C   UNL     1      -3.654   6.075   1.488  1.00  0.00     0.019 A 
ATOM     30  Br  UNL     1      -5.962   4.451   1.792  1.00  0.00    -0.049 Br
ENDBRANCH  18  19
ENDBRANCH  10  18
BRANCH  12  31
ATOM     31  O   UNL     1      -0.393  -1.055  -0.616  1.00  0.00    -0.380 OA
ATOM     32  H   UNL     1       0.547  -1.250  -0.754  1.00  0.00     0.211 HD
ENDBRANCH  12  31
BRANCH  13  33
ATOM     33  O   UNL     1       0.971  -0.011  -2.710  1.00  0.00    -0.384 OA
ATOM     34  H   UNL     1       1.669   0.365  -2.151  1.00  0.00     0.211 HD
ENDBRANCH  13  33
BRANCH  15  35
ATOM     35  O   UNL     1       0.336   2.182  -4.101  1.00  0.00    -0.384 OA
ATOM     36  H   UNL     1       1.149   1.667  -4.219  1.00  0.00     0.211 HD
ENDBRANCH  15  35
ENDBRANCH   5   8
ENDBRANCH   3   4
ENDBRANCH   2   3
ENDBRANCH   1   2
BRANCH   1  37
ATOM     37  C   UNL     1       4.529  -1.718   0.214  1.00  0.00     0.002 C 
BRANCH  37  38
ATOM     38  C   UNL     1       3.357  -2.597   0.673  1.00  0.00     0.021 C 
BRANCH  38  39
ATOM     39  C   UNL     1       3.273  -3.945  -0.004  1.00  0.00     0.116 C 
BRANCH  39  40
ATOM     40  N   UNL     1       4.499  -4.721   0.130  1.00  0.00    -0.352 N 
ATOM     41  C   UNL     1       4.729  -6.020  -0.246  1.00  0.00     0.251 C 
ATOM     42  H   UNL     1       5.260  -4.253   0.543  1.00  0.00     0.163 HD
ATOM     43  O   UNL     1       5.718  -6.629   0.164  1.00  0.00    -0.269 OA
BRANCH  41  44
ATOM     44  C   UNL     1       3.785  -6.677  -1.159  1.00  0.00     0.039 A 
ATOM     45  C   UNL     1       3.496  -8.038  -1.030  1.00  0.00     0.014 A 
ATOM     46  C   UNL     1       3.217  -5.919  -2.183  1.00  0.00     0.014 A 
ATOM     47  C   UNL     1       2.623  -8.621  -1.937  1.00  0.00     0.010 A 
ATOM     48  C   UNL     1       2.227  -6.444  -2.959  1.00  0.00     0.010 A 
ATOM     49  C   UNL     1       2.011  -7.811  -2.901  1.00  0.00    -0.014 A 
BRANCH  49  50
ATOM     50  C   UNL     1       1.135  -8.375  -3.902  1.00  0.00     0.031 A 
ATOM     51  C   UNL     1      -0.119  -8.962  -3.382  1.00  0.00     0.074 A 
ATOM     52  C   UNL     1       1.359  -8.174  -5.216  1.00  0.00     0.049 A 
ATOM     53  N   UNL     1      -0.437 -10.211  -3.340  1.00  0.00    -0.248 NA
ATOM     54  C   UNL     1      -1.073  -8.076  -2.699  1.00  0.00     0.031 C 
ATOM     55  C   UNL     1       2.368  -7.331  -5.869  1.00  0.00     0.029 A 
ATOM     56  N   UNL     1       0.623  -8.624  -6.260  1.00  0.00    -0.354 N 
ATOM     57  C   UNL     1      -1.724 -10.260  -2.816  1.00  0.00     0.074 A 
ATOM     58  C   UNL     1      -1.984  -8.953  -2.270  1.00  0.00     0.031 C 
ATOM     59  C   UNL     1       2.030  -7.150  -7.164  1.00  0.00     0.029 A 
ATOM     60  C   UNL     1       0.885  -7.987  -7.463  1.00  0.00     0.049 A 
ATOM     61  H   UNL     1      -0.043  -9.344  -6.172  1.00  0.00     0.167 HD
ATOM     62  C   UNL     1      -2.554 -11.304  -3.094  1.00  0.00     0.037 A 
ATOM     63  C   UNL     1       0.144  -8.110  -8.589  1.00  0.00     0.037 A 
ATOM     64  C   UNL     1      -1.822 -12.412  -3.662  1.00  0.00     0.049 A 
ATOM     65  C   UNL     1      -0.635  -9.376  -8.462  1.00  0.00     0.074 A 
ATOM     66  C   UNL     1      -0.758 -13.187  -3.240  1.00  0.00     0.029 A 
ATOM     67  N   UNL     1      -1.895 -12.600  -5.024  1.00  0.00    -0.354 N 
ATOM     68  N   UNL     1      -0.081 -10.560  -8.453  1.00  0.00    -0.248 NA
ATOM     69  C   UNL     1      -1.944  -9.302  -7.823  1.00  0.00     0.031 C 
ATOM     70  C   UNL     1       0.050 -13.361  -4.404  1.00  0.00     0.029 A 
ATOM     71  C   UNL     1      -0.608 -12.751  -5.474  1.00  0.00     0.049 A 
ATOM     72  H   UNL     1      -2.714 -12.621  -5.570  1.00  0.00     0.167 HD
ATOM     73  C   UNL     1      -0.753 -11.268  -7.463  1.00  0.00     0.074 A 
ATOM     74  C   UNL     1      -1.936 -10.463  -7.159  1.00  0.00     0.031 C 
ATOM     75  C   UNL     1      -0.148 -12.273  -6.759  1.00  0.00     0.037 A 
BRANCH  62  76
ATOM     76  C   UNL     1      -4.052 -11.198  -3.223  1.00  0.00     0.057 A 
ATOM     77  C   UNL     1      -4.745 -10.005  -3.507  1.00  0.00     0.134 A 
ATOM     78  C   UNL     1      -4.803 -12.378  -3.381  1.00  0.00     0.134 A 
ATOM     79  F   UNL     1      -4.160  -8.803  -3.464  1.00  0.00    -0.206 F 
ATOM     80  C   UNL     1      -6.065  -9.988  -3.963  1.00  0.00     0.040 A 
ATOM     81  C   UNL     1      -6.107 -12.374  -3.887  1.00  0.00     0.040 A 
ATOM     82  F   UNL     1      -4.258 -13.579  -3.134  1.00  0.00    -0.206 F 
ATOM     83  C   UNL     1      -6.738 -11.176  -4.194  1.00  0.00     0.006 A 
ENDBRANCH  62  76
BRANCH  63  84
ATOM     84  C   UNL     1      -0.155  -7.043  -9.570  1.00  0.00     0.057 A 
ATOM     85  C   UNL     1      -0.166  -5.683  -9.202  1.00  0.00     0.134 A 
ATOM     86  C   UNL     1      -0.663  -7.335 -10.841  1.00  0.00     0.134 A 
ATOM     87  F   UNL     1       0.210  -5.291  -7.975  1.00  0.00    -0.206 F 
ATOM     88  C   UNL     1      -0.639  -4.675 -10.047  1.00  0.00     0.040 A 
ATOM     89  C   UNL     1      -1.150  -6.334 -11.696  1.00  0.00     0.040 A 
ATOM     90  F   UNL     1      -0.746  -8.604 -11.264  1.00  0.00    -0.206 F 
ATOM     91  C   UNL     1      -1.143  -5.000 -11.298  1.00  0.00     0.006 A 
ENDBRANCH  63  84
BRANCH  75  92
ATOM     92  C   UNL     1       1.215 -12.739  -7.201  1.00  0.00     0.057 A 
ATOM     93  C   UNL     1       1.421 -14.100  -7.449  1.00  0.00     0.134 A 
ATOM     94  C   UNL     1       2.356 -11.922  -7.212  1.00  0.00     0.134 A 
ATOM     95  F   UNL     1       0.393 -14.961  -7.389  1.00  0.00    -0.206 F 
ATOM     96  C   UNL     1       2.692 -14.621  -7.711  1.00  0.00     0.040 A 
ATOM     97  C   UNL     1       3.628 -12.422  -7.505  1.00  0.00     0.040 A 
ATOM     98  F   UNL     1       2.286 -10.630  -6.875  1.00  0.00    -0.206 F 
ATOM     99  C   UNL     1       3.800 -13.779  -7.751  1.00  0.00     0.006 A 
ENDBRANCH  75  92
ENDBRANCH  49  50
ENDBRANCH  41  44
ENDBRANCH  39  40
ENDBRANCH  38  39
ENDBRANCH  37  38
ENDBRANCH   1  37
TORSDOF 18
