REMARK SMILES C[C@H]1CCC[C@H](C)N1C(=O)C[N@@H+](CC(=O)NCCCCCCNC(=O)c1ccc(-c2c3nc(c(-c4c(F)cccc4F)c4ccc([nH]4)c(-c4c(F)cccc4F)c4nc(c(-c5c(F)cccc5F)c5ccc2[nH]5)C=C4)C=C3)cc1)C(C)(C)C
REMARK SMILES IDX 19 1 18 2 17 3 16 4 14 5 15 6 13 8 12 9 11 11 9 12 1 13 2 14
REMARK SMILES IDX 3 15 8 16 4 17 6 18 5 19 7 20 10 21 80 22 81 23 82 24 83 25
REMARK SMILES IDX 20 26 21 27 22 28 23 29 24 30 25 32 26 33 27 34 79 35 28 36
REMARK SMILES IDX 78 37 29 38 30 39 31 40 72 41 32 42 77 43 71 44 73 45 33 46
REMARK SMILES IDX 76 47 70 48 69 49 34 51 60 52 43 53 59 54 44 55 47 56 58 57
REMARK SMILES IDX 74 58 45 59 46 60 57 62 75 63 48 64 35 65 36 66 41 67 37 68
REMARK SMILES IDX 38 69 40 70 42 71 39 72 61 73 62 74 67 75 63 76 64 77 66 78
REMARK SMILES IDX 68 79 65 80 49 81 50 82 55 83 51 84 52 85 54 86 56 87 53 88
REMARK H PARENT 16 7 12 10 23 31 73 50 47 61
REMARK Flexibility Score: inf
ROOT
ATOM      1  C   UNL     1      -6.897   0.156  -1.156  1.00  0.00     0.002 C 
ENDROOT
BRANCH   1   2
ATOM      2  C   UNL     1      -5.387   0.258  -1.365  1.00  0.00     0.021 C 
BRANCH   2   3
ATOM      3  C   UNL     1      -4.778  -0.768  -2.326  1.00  0.00     0.116 C 
BRANCH   3   4
ATOM      4  N   UNL     1      -4.773  -0.283  -3.693  1.00  0.00    -0.351 N 
ATOM      5  C   UNL     1      -3.762   0.131  -4.510  1.00  0.00     0.275 C 
ATOM      6  O   UNL     1      -4.075   0.394  -5.677  1.00  0.00    -0.269 OA
ATOM      7  H   UNL     1      -5.665  -0.246  -4.108  1.00  0.00     0.163 HD
BRANCH   5   8
ATOM      8  C   UNL     1      -2.292   0.205  -4.067  1.00  0.00     0.364 C 
BRANCH   8   9
ATOM      9  N   UNL     1      -1.845   1.386  -3.259  1.00  0.00    -0.315 N 
ATOM     10  H   UNL     1      -0.830   1.466  -3.324  1.00  0.00     0.349 HD
BRANCH   9  11
ATOM     11  C   UNL     1      -2.127   1.135  -1.837  1.00  0.00     0.364 C 
BRANCH  11  12
ATOM     12  C   UNL     1      -1.425   1.945  -0.761  1.00  0.00     0.278 C 
ATOM     13  C   UNL     1       0.663  -0.158  -2.006  1.00  0.00     0.031 C 
ATOM     14  C   UNL     1       0.994   0.994  -1.068  1.00  0.00     0.082 C 
ATOM     15  C   UNL     1       2.003   1.953  -1.721  1.00  0.00     0.025 C 
ATOM     16  N   UNL     1      -0.087   1.781  -0.420  1.00  0.00    -0.332 N 
ATOM     17  C   UNL     1       2.557   2.949  -0.699  1.00  0.00     0.004 C 
ATOM     18  C   UNL     1       0.405   2.686   0.648  1.00  0.00     0.082 C 
ATOM     19  C   UNL     1       1.442   3.657   0.066  1.00  0.00     0.025 C 
ATOM     20  C   UNL     1       0.906   1.924   1.879  1.00  0.00     0.031 C 
ATOM     21  O   UNL     1      -2.157   2.696  -0.093  1.00  0.00    -0.268 OA
ENDBRANCH  11  12
ENDBRANCH   9  11
BRANCH   9  22
ATOM     22  C   UNL     1      -2.115   2.738  -3.833  1.00  0.00     0.090 C 
ATOM     23  C   UNL     1      -3.606   3.127  -3.945  1.00  0.00     0.078 C 
ATOM     24  C   UNL     1      -1.445   3.870  -3.015  1.00  0.00     0.078 C 
ATOM     25  C   UNL     1      -1.476   2.829  -5.242  1.00  0.00     0.078 C 
ENDBRANCH   9  22
ENDBRANCH   8   9
ENDBRANCH   5   8
ENDBRANCH   3   4
ENDBRANCH   2   3
ENDBRANCH   1   2
BRANCH   1  26
ATOM     26  C   UNL     1      -7.378  -1.097  -0.422  1.00  0.00     0.002 C 
BRANCH  26  27
ATOM     27  C   UNL     1      -6.688  -1.397   0.913  1.00  0.00     0.021 C 
BRANCH  27  28
ATOM     28  C   UNL     1      -6.678  -0.253   1.926  1.00  0.00     0.116 C 
BRANCH  28  29
ATOM     29  N   UNL     1      -8.019   0.173   2.291  1.00  0.00    -0.352 N 
ATOM     30  C   UNL     1      -8.659   0.134   3.503  1.00  0.00     0.251 C 
ATOM     31  H   UNL     1      -8.550   0.549   1.553  1.00  0.00     0.163 HD
ATOM     32  O   UNL     1      -9.863   0.365   3.567  1.00  0.00    -0.269 OA
BRANCH  30  33
ATOM     33  C   UNL     1      -7.914  -0.199   4.737  1.00  0.00     0.039 A 
ATOM     34  C   UNL     1      -8.493  -1.086   5.650  1.00  0.00     0.014 A 
ATOM     35  C   UNL     1      -6.679   0.391   5.021  1.00  0.00     0.014 A 
ATOM     36  C   UNL     1      -7.812  -1.419   6.823  1.00  0.00     0.010 A 
ATOM     37  C   UNL     1      -5.974   0.011   6.162  1.00  0.00     0.010 A 
ATOM     38  C   UNL     1      -6.537  -0.891   7.077  1.00  0.00    -0.014 A 
BRANCH  38  39
ATOM     39  C   UNL     1      -5.787  -1.267   8.302  1.00  0.00     0.031 A 
ATOM     40  C   UNL     1      -5.510  -0.242   9.367  1.00  0.00     0.074 A 
ATOM     41  C   UNL     1      -5.311  -2.520   8.432  1.00  0.00     0.049 A 
ATOM     42  N   UNL     1      -4.846  -0.373  10.488  1.00  0.00    -0.248 NA
ATOM     43  C   UNL     1      -6.028   1.114   9.130  1.00  0.00     0.031 C 
ATOM     44  C   UNL     1      -5.474  -3.594   7.451  1.00  0.00     0.029 A 
ATOM     45  N   UNL     1      -4.589  -3.100   9.444  1.00  0.00    -0.354 N 
ATOM     46  C   UNL     1      -4.849   0.884  11.078  1.00  0.00     0.074 A 
ATOM     47  C   UNL     1      -5.544   1.774  10.172  1.00  0.00     0.031 C 
ATOM     48  C   UNL     1      -4.894  -4.710   7.921  1.00  0.00     0.029 A 
ATOM     49  C   UNL     1      -4.295  -4.423   9.221  1.00  0.00     0.049 A 
ATOM     50  H   UNL     1      -4.309  -2.615  10.254  1.00  0.00     0.167 HD
ATOM     51  C   UNL     1      -4.336   1.260  12.274  1.00  0.00     0.037 A 
ATOM     52  C   UNL     1      -3.620  -5.306   9.981  1.00  0.00     0.037 A 
ATOM     53  C   UNL     1      -3.676   0.367  13.190  1.00  0.00     0.049 A 
ATOM     54  C   UNL     1      -3.070  -4.867  11.309  1.00  0.00     0.074 A 
ATOM     55  C   UNL     1      -3.192   0.635  14.459  1.00  0.00     0.029 A 
ATOM     56  N   UNL     1      -3.405  -0.968  12.932  1.00  0.00    -0.354 N 
ATOM     57  N   UNL     1      -3.144  -3.693  11.887  1.00  0.00    -0.248 NA
ATOM     58  C   UNL     1      -2.346  -5.879  12.091  1.00  0.00     0.031 C 
ATOM     59  C   UNL     1      -2.595  -0.530  14.954  1.00  0.00     0.029 A 
ATOM     60  C   UNL     1      -2.741  -1.532  14.008  1.00  0.00     0.049 A 
ATOM     61  H   UNL     1      -3.648  -1.444  12.105  1.00  0.00     0.167 HD
ATOM     62  C   UNL     1      -2.503  -3.831  13.111  1.00  0.00     0.074 A 
ATOM     63  C   UNL     1      -2.054  -5.206  13.195  1.00  0.00     0.031 C 
ATOM     64  C   UNL     1      -2.305  -2.903  14.079  1.00  0.00     0.037 A 
BRANCH  51  65
ATOM     65  C   UNL     1      -4.472   2.704  12.658  1.00  0.00     0.057 A 
ATOM     66  C   UNL     1      -5.706   3.260  13.019  1.00  0.00     0.134 A 
ATOM     67  C   UNL     1      -3.351   3.543  12.689  1.00  0.00     0.134 A 
ATOM     68  F   UNL     1      -6.820   2.513  12.999  1.00  0.00    -0.206 F 
ATOM     69  C   UNL     1      -5.826   4.607  13.368  1.00  0.00     0.040 A 
ATOM     70  C   UNL     1      -3.454   4.885  13.060  1.00  0.00     0.040 A 
ATOM     71  F   UNL     1      -2.138   3.073  12.361  1.00  0.00    -0.206 F 
ATOM     72  C   UNL     1      -4.696   5.422  13.394  1.00  0.00     0.006 A 
ENDBRANCH  51  65
BRANCH  52  73
ATOM     73  C   UNL     1      -3.463  -6.708   9.525  1.00  0.00     0.057 A 
ATOM     74  C   UNL     1      -4.175  -7.745  10.140  1.00  0.00     0.134 A 
ATOM     75  C   UNL     1      -2.604  -7.048   8.474  1.00  0.00     0.134 A 
ATOM     76  F   UNL     1      -4.999  -7.482  11.165  1.00  0.00    -0.206 F 
ATOM     77  C   UNL     1      -4.028  -9.072   9.736  1.00  0.00     0.040 A 
ATOM     78  C   UNL     1      -2.463  -8.369   8.046  1.00  0.00     0.040 A 
ATOM     79  F   UNL     1      -1.900  -6.098   7.841  1.00  0.00    -0.206 F 
ATOM     80  C   UNL     1      -3.172  -9.386   8.681  1.00  0.00     0.006 A 
ENDBRANCH  52  73
BRANCH  64  81
ATOM     81  C   UNL     1      -1.600  -3.355  15.322  1.00  0.00     0.057 A 
ATOM     82  C   UNL     1      -0.222  -3.603  15.340  1.00  0.00     0.134 A 
ATOM     83  C   UNL     1      -2.305  -3.520  16.521  1.00  0.00     0.134 A 
ATOM     84  F   UNL     1       0.506  -3.478  14.220  1.00  0.00    -0.206 F 
ATOM     85  C   UNL     1       0.427  -4.021  16.503  1.00  0.00     0.040 A 
ATOM     86  C   UNL     1      -1.663  -3.915  17.695  1.00  0.00     0.040 A 
ATOM     87  F   UNL     1      -3.626  -3.292  16.572  1.00  0.00    -0.206 F 
ATOM     88  C   UNL     1      -0.293  -4.172  17.686  1.00  0.00     0.006 A 
ENDBRANCH  64  81
ENDBRANCH  38  39
ENDBRANCH  30  33
ENDBRANCH  28  29
ENDBRANCH  27  28
ENDBRANCH  26  27
ENDBRANCH   1  26
TORSDOF 17
