REMARK SMILES COc1ccccc1CNC(=O)[C@@H]1[C@H]2CC[C@H](CC2)[C@@H]1C(=O)NCCCCCCNC(=O)c1ccc(-c2c3nc(c(-c4c(F)cccc4F)c4ccc([nH]4)c(-c4c(F)cccc4F)c4nc(c(-c5c(F)cccc5F)c5ccc2[nH]5)C=C4)C=C3)cc1
REMARK SMILES IDX 25 1 24 2 23 3 21 4 22 5 20 7 13 8 14 9 15 10 19 11 17 12
REMARK SMILES IDX 16 13 18 14 11 15 10 16 12 18 9 19 8 20 3 21 4 22 5 23 7 24
REMARK SMILES IDX 6 25 2 26 1 27 26 28 27 29 28 30 29 31 30 32 31 33 32 35
REMARK SMILES IDX 33 36 34 37 86 38 35 39 85 40 36 41 37 42 38 43 79 44 39 45
REMARK SMILES IDX 84 46 78 47 80 48 40 49 83 50 77 51 76 52 41 54 67 55 50 56
REMARK SMILES IDX 66 57 51 58 54 59 65 60 81 61 52 62 53 63 64 65 82 66 55 67
REMARK SMILES IDX 42 68 43 69 48 70 44 71 45 72 47 73 49 74 46 75 68 76 69 77
REMARK SMILES IDX 74 78 70 79 71 80 73 81 75 82 72 83 56 84 57 85 62 86 58 87
REMARK SMILES IDX 59 88 61 89 63 90 60 91
REMARK H PARENT 23 6 10 17 30 34 80 53 54 64
REMARK Flexibility Score: inf
ROOT
ATOM      1  C   UNL     1       0.868  -2.924  -0.035  1.00  0.00     0.021 C 
ENDROOT
BRANCH   1   2
ATOM      2  C   UNL     1       1.904  -4.023  -0.258  1.00  0.00     0.116 C 
BRANCH   2   3
ATOM      3  N   UNL     1       2.699  -3.760  -1.440  1.00  0.00    -0.356 N 
ATOM      4  C   UNL     1       4.013  -3.417  -1.546  1.00  0.00     0.224 C 
ATOM      5  O   UNL     1       4.481  -3.252  -2.673  1.00  0.00    -0.275 OA
ATOM      6  H   UNL     1       2.217  -3.842  -2.295  1.00  0.00     0.163 HD
BRANCH   4   7
ATOM      7  C   UNL     1       4.872  -3.412  -0.279  1.00  0.00     0.094 C 
ATOM      8  C   UNL     1       6.069  -2.404  -0.257  1.00  0.00     0.094 C 
ATOM      9  C   UNL     1       7.376  -3.228  -0.227  1.00  0.00     0.002 C 
ATOM     10  C   UNL     1       7.407  -4.018   1.108  1.00  0.00     0.005 C 
ATOM     11  C   UNL     1       7.394  -4.236  -1.388  1.00  0.00     0.005 C 
ATOM     12  C   UNL     1       5.369  -4.876  -0.069  1.00  0.00     0.002 C 
ATOM     13  C   UNL     1       6.188  -4.943   1.224  1.00  0.00     0.005 C 
ATOM     14  C   UNL     1       6.308  -5.295  -1.214  1.00  0.00     0.005 C 
BRANCH   8  15
ATOM     15  C   UNL     1       5.866  -1.261  -1.265  1.00  0.00     0.224 C 
ATOM     16  N   UNL     1       6.868  -0.760  -2.033  1.00  0.00    -0.352 N 
ATOM     17  H   UNL     1       6.711  -0.729  -3.005  1.00  0.00     0.163 HD
ATOM     18  O   UNL     1       4.761  -0.714  -1.358  1.00  0.00    -0.275 OA
BRANCH  16  19
ATOM     19  C   UNL     1       8.145  -0.268  -1.560  1.00  0.00     0.155 C 
BRANCH  19  20
ATOM     20  C   UNL     1       9.352  -0.738  -2.332  1.00  0.00     0.013 A 
ATOM     21  C   UNL     1      10.581  -0.065  -2.242  1.00  0.00     0.123 A 
ATOM     22  C   UNL     1      11.724  -0.564  -2.879  1.00  0.00     0.047 A 
ATOM     23  C   UNL     1      11.667  -1.755  -3.600  1.00  0.00     0.004 A 
ATOM     24  C   UNL     1       9.309  -1.896  -3.125  1.00  0.00     0.009 A 
ATOM     25  C   UNL     1      10.453  -2.414  -3.736  1.00  0.00     0.001 A 
BRANCH  21  26
ATOM     26  O   UNL     1      10.696   1.183  -1.686  1.00  0.00    -0.496 OA
ATOM     27  C   UNL     1      10.692   1.169  -0.262  1.00  0.00     0.278 C 
ENDBRANCH  21  26
ENDBRANCH  19  20
ENDBRANCH  16  19
ENDBRANCH   8  15
ENDBRANCH   4   7
ENDBRANCH   2   3
ENDBRANCH   1   2
BRANCH   1  28
ATOM     28  C   UNL     1      -0.164  -2.807  -1.165  1.00  0.00     0.002 C 
BRANCH  28  29
ATOM     29  C   UNL     1      -0.884  -4.112  -1.521  1.00  0.00     0.002 C 
BRANCH  29  30
ATOM     30  C   UNL     1      -1.573  -4.808  -0.345  1.00  0.00     0.021 C 
BRANCH  30  31
ATOM     31  C   UNL     1      -2.623  -3.959   0.358  1.00  0.00     0.116 C 
BRANCH  31  32
ATOM     32  N   UNL     1      -3.734  -3.629  -0.519  1.00  0.00    -0.352 N 
ATOM     33  C   UNL     1      -5.080  -3.823  -0.328  1.00  0.00     0.251 C 
ATOM     34  H   UNL     1      -3.486  -3.206  -1.373  1.00  0.00     0.163 HD
ATOM     35  O   UNL     1      -5.866  -3.669  -1.254  1.00  0.00    -0.269 OA
BRANCH  33  36
ATOM     36  C   UNL     1      -5.575  -4.241   1.001  1.00  0.00     0.039 A 
ATOM     37  C   UNL     1      -6.533  -5.254   1.075  1.00  0.00     0.014 A 
ATOM     38  C   UNL     1      -5.095  -3.637   2.167  1.00  0.00     0.014 A 
ATOM     39  C   UNL     1      -6.968  -5.702   2.324  1.00  0.00     0.010 A 
ATOM     40  C   UNL     1      -5.468  -4.139   3.409  1.00  0.00     0.010 A 
ATOM     41  C   UNL     1      -6.414  -5.172   3.501  1.00  0.00    -0.014 A 
BRANCH  41  42
ATOM     42  C   UNL     1      -6.811  -5.688   4.835  1.00  0.00     0.031 A 
ATOM     43  C   UNL     1      -7.490  -4.784   5.825  1.00  0.00     0.074 A 
ATOM     44  C   UNL     1      -6.500  -6.952   5.178  1.00  0.00     0.049 A 
ATOM     45  N   UNL     1      -7.858  -5.034   7.056  1.00  0.00    -0.248 NA
ATOM     46  C   UNL     1      -7.766  -3.408   5.384  1.00  0.00     0.031 C 
ATOM     47  C   UNL     1      -5.793  -7.910   4.327  1.00  0.00     0.029 A 
ATOM     48  N   UNL     1      -6.728  -7.645   6.341  1.00  0.00    -0.354 N 
ATOM     49  C   UNL     1      -8.397  -3.847   7.538  1.00  0.00     0.074 A 
ATOM     50  C   UNL     1      -8.250  -2.861   6.489  1.00  0.00     0.031 C 
ATOM     51  C   UNL     1      -5.659  -9.070   4.989  1.00  0.00     0.029 A 
ATOM     52  C   UNL     1      -6.233  -8.927   6.323  1.00  0.00     0.049 A 
ATOM     53  H   UNL     1      -7.200  -7.260   7.114  1.00  0.00     0.167 HD
ATOM     54  C   UNL     1      -8.983  -3.607   8.735  1.00  0.00     0.037 A 
ATOM     55  C   UNL     1      -6.230  -9.876   7.278  1.00  0.00     0.037 A 
ATOM     56  C   UNL     1      -9.136  -4.594   9.771  1.00  0.00     0.049 A 
ATOM     57  C   UNL     1      -6.877  -9.585   8.604  1.00  0.00     0.074 A 
ATOM     58  C   UNL     1      -9.767  -4.469  10.996  1.00  0.00     0.029 A 
ATOM     59  N   UNL     1      -8.640  -5.889   9.709  1.00  0.00    -0.354 N 
ATOM     60  N   UNL     1      -7.454  -8.483   9.018  1.00  0.00    -0.248 NA
ATOM     61  C   UNL     1      -6.880 -10.672   9.592  1.00  0.00     0.031 C 
ATOM     62  C   UNL     1      -9.604  -5.668  11.697  1.00  0.00     0.029 A 
ATOM     63  C   UNL     1      -8.925  -6.563  10.886  1.00  0.00     0.049 A 
ATOM     64  H   UNL     1      -8.158  -6.272   8.941  1.00  0.00     0.167 HD
ATOM     65  C   UNL     1      -7.911  -8.750  10.302  1.00  0.00     0.074 A 
ATOM     66  C   UNL     1      -7.557 -10.124  10.591  1.00  0.00     0.031 C 
ATOM     67  C   UNL     1      -8.565  -7.931  11.163  1.00  0.00     0.037 A 
BRANCH  54  68
ATOM     68  C   UNL     1      -9.493  -2.215   8.985  1.00  0.00     0.057 A 
ATOM     69  C   UNL     1     -10.583  -1.685   8.279  1.00  0.00     0.134 A 
ATOM     70  C   UNL     1      -8.897  -1.397   9.953  1.00  0.00     0.134 A 
ATOM     71  F   UNL     1     -11.196  -2.410   7.330  1.00  0.00    -0.206 F 
ATOM     72  C   UNL     1     -11.033  -0.382   8.497  1.00  0.00     0.040 A 
ATOM     73  C   UNL     1      -9.359  -0.104  10.204  1.00  0.00     0.040 A 
ATOM     74  F   UNL     1      -7.856  -1.841  10.674  1.00  0.00    -0.206 F 
ATOM     75  C   UNL     1     -10.423   0.411   9.466  1.00  0.00     0.006 A 
ENDBRANCH  54  68
BRANCH  55  76
ATOM     76  C   UNL     1      -5.601 -11.193   7.006  1.00  0.00     0.057 A 
ATOM     77  C   UNL     1      -6.372 -12.353   6.870  1.00  0.00     0.134 A 
ATOM     78  C   UNL     1      -4.214 -11.321   6.864  1.00  0.00     0.134 A 
ATOM     79  F   UNL     1      -7.705 -12.297   7.012  1.00  0.00    -0.206 F 
ATOM     80  C   UNL     1      -5.787 -13.595   6.621  1.00  0.00     0.040 A 
ATOM     81  C   UNL     1      -3.617 -12.552   6.587  1.00  0.00     0.040 A 
ATOM     82  F   UNL     1      -3.419 -10.246   6.972  1.00  0.00    -0.206 F 
ATOM     83  C   UNL     1      -4.405 -13.695   6.472  1.00  0.00     0.006 A 
ENDBRANCH  55  76
BRANCH  67  84
ATOM     84  C   UNL     1      -8.967  -8.509  12.489  1.00  0.00     0.057 A 
ATOM     85  C   UNL     1      -8.029  -8.808  13.485  1.00  0.00     0.134 A 
ATOM     86  C   UNL     1     -10.318  -8.731  12.788  1.00  0.00     0.134 A 
ATOM     87  F   UNL     1      -6.718  -8.631  13.260  1.00  0.00    -0.206 F 
ATOM     88  C   UNL     1      -8.417  -9.331  14.720  1.00  0.00     0.040 A 
ATOM     89  C   UNL     1     -10.721  -9.225  14.030  1.00  0.00     0.040 A 
ATOM     90  F   UNL     1     -11.270  -8.458  11.883  1.00  0.00    -0.206 F 
ATOM     91  C   UNL     1      -9.768  -9.534  14.997  1.00  0.00     0.006 A 
ENDBRANCH  67  84
ENDBRANCH  41  42
ENDBRANCH  33  36
ENDBRANCH  31  32
ENDBRANCH  30  31
ENDBRANCH  29  30
ENDBRANCH  28  29
ENDBRANCH   1  28
TORSDOF 17
