REMARK SMILES COCc1cccc(C[NH2+][C@H](C)[C@H](C)C(=O)NCCCCCCNC(=O)c2ccc(-c3c4nc(c(-c5c(F)cccc5F)c5ccc([nH]5)c(-c5c(F)cccc5F)c5nc(c(-c6c(F)cccc6F)c6ccc3[nH]6)C=C5)C=C4)cc2)c1
REMARK SMILES IDX 18 1 17 2 15 3 16 4 13 6 14 7 11 8 12 9 10 10 9 13 8 14 4 15
REMARK SMILES IDX 5 16 81 17 6 18 7 19 3 20 2 21 1 22 19 23 20 24 21 25 22 26
REMARK SMILES IDX 23 27 24 28 25 29 26 31 27 32 28 33 80 34 29 35 79 36 30 37
REMARK SMILES IDX 31 38 32 39 73 40 33 41 78 42 72 43 74 44 34 45 77 46 71 47
REMARK SMILES IDX 70 48 35 50 61 51 44 52 60 53 45 54 48 55 59 56 75 57 46 58
REMARK SMILES IDX 47 59 58 61 76 62 49 63 36 64 37 65 42 66 38 67 39 68 41 69
REMARK SMILES IDX 43 70 40 71 62 72 63 73 68 74 64 75 65 76 67 77 69 78 66 79
REMARK SMILES IDX 50 80 51 81 56 82 52 83 53 84 55 85 57 86 54 87
REMARK H PARENT 17 5 10 11 10 12 24 30 74 49 48 60
REMARK Flexibility Score: inf
ROOT
ATOM      1  C   UNL     1      -5.137   6.449   1.916  1.00  0.00     0.116 C 
ENDROOT
BRANCH   1   2
ATOM      2  N   UNL     1      -4.811   5.953   3.230  1.00  0.00    -0.356 N 
ATOM      3  C   UNL     1      -3.771   5.204   3.659  1.00  0.00     0.228 C 
ATOM      4  O   UNL     1      -3.860   4.742   4.801  1.00  0.00    -0.275 OA
ATOM      5  H   UNL     1      -5.454   6.203   3.933  1.00  0.00     0.163 HD
BRANCH   3   6
ATOM      6  C   UNL     1      -2.519   4.954   2.823  1.00  0.00     0.133 C 
ATOM      7  C   UNL     1      -2.779   4.080   1.596  1.00  0.00     0.024 C 
BRANCH   6   8
ATOM      8  C   UNL     1      -1.598   6.191   2.601  1.00  0.00     0.191 C 
ATOM      9  C   UNL     1      -1.917   7.081   1.394  1.00  0.00     0.076 C 
BRANCH   8  10
ATOM     10  N   UNL     1      -1.478   7.103   3.752  1.00  0.00    -0.340 N 
ATOM     11  H   UNL     1      -0.878   7.882   3.483  1.00  0.00     0.346 HD
ATOM     12  H   UNL     1      -2.423   7.402   3.993  1.00  0.00     0.346 HD
BRANCH  10  13
ATOM     13  C   UNL     1      -0.913   6.476   4.946  1.00  0.00     0.297 C 
BRANCH  13  14
ATOM     14  C   UNL     1      -0.877   7.458   6.091  1.00  0.00     0.006 A 
ATOM     15  C   UNL     1      -1.809   8.292   8.191  1.00  0.00    -0.022 A 
ATOM     16  C   UNL     1      -0.826   9.291   8.211  1.00  0.00     0.006 A 
ATOM     17  C   UNL     1      -1.809   7.365   7.137  1.00  0.00     0.015 A 
ATOM     18  C   UNL     1       0.101   9.394   7.173  1.00  0.00     0.001 A 
ATOM     19  C   UNL     1       0.067   8.491   6.112  1.00  0.00     0.009 A 
BRANCH  15  20
ATOM     20  C   UNL     1      -2.819   8.202   9.310  1.00  0.00     0.195 C 
BRANCH  20  21
ATOM     21  O   UNL     1      -4.095   7.709   8.890  1.00  0.00    -0.380 OA
ATOM     22  C   UNL     1      -4.817   8.641   8.095  1.00  0.00     0.195 C 
ENDBRANCH  20  21
ENDBRANCH  15  20
ENDBRANCH  13  14
ENDBRANCH  10  13
ENDBRANCH   8  10
ENDBRANCH   6   8
ENDBRANCH   3   6
ENDBRANCH   1   2
BRANCH   1  23
ATOM     23  C   UNL     1      -6.444   5.845   1.419  1.00  0.00     0.021 C 
BRANCH  23  24
ATOM     24  C   UNL     1      -7.680   6.325   2.187  1.00  0.00     0.002 C 
BRANCH  24  25
ATOM     25  C   UNL     1      -7.858   7.846   2.242  1.00  0.00     0.002 C 
BRANCH  25  26
ATOM     26  C   UNL     1      -7.797   8.553   0.886  1.00  0.00     0.021 C 
BRANCH  26  27
ATOM     27  C   UNL     1      -8.779   8.017  -0.147  1.00  0.00     0.116 C 
BRANCH  27  28
ATOM     28  N   UNL     1     -10.161   8.188   0.270  1.00  0.00    -0.352 N 
ATOM     29  C   UNL     1     -11.195   8.776  -0.412  1.00  0.00     0.251 C 
ATOM     30  H   UNL     1     -10.384   7.833   1.161  1.00  0.00     0.163 HD
ATOM     31  O   UNL     1     -12.261   9.013   0.148  1.00  0.00    -0.269 OA
BRANCH  29  32
ATOM     32  C   UNL     1     -11.002   9.146  -1.827  1.00  0.00     0.039 A 
ATOM     33  C   UNL     1     -11.353  10.430  -2.248  1.00  0.00     0.014 A 
ATOM     34  C   UNL     1     -10.441   8.233  -2.725  1.00  0.00     0.014 A 
ATOM     35  C   UNL     1     -11.082  10.822  -3.560  1.00  0.00     0.010 A 
ATOM     36  C   UNL     1     -10.104   8.649  -4.007  1.00  0.00     0.010 A 
ATOM     37  C   UNL     1     -10.421   9.947  -4.438  1.00  0.00    -0.014 A 
BRANCH  37  38
ATOM     38  C   UNL     1     -10.046  10.362  -5.812  1.00  0.00     0.031 A 
ATOM     39  C   UNL     1     -10.636   9.649  -6.996  1.00  0.00     0.074 A 
ATOM     40  C   UNL     1      -9.111  11.315  -5.991  1.00  0.00     0.049 A 
ATOM     41  N   UNL     1     -10.345   9.772  -8.265  1.00  0.00    -0.248 NA
ATOM     42  C   UNL     1     -11.670   8.640  -6.712  1.00  0.00     0.031 C 
ATOM     43  C   UNL     1      -8.435  12.052  -4.921  1.00  0.00     0.029 A 
ATOM     44  N   UNL     1      -8.549  11.812  -7.141  1.00  0.00    -0.354 N 
ATOM     45  C   UNL     1     -11.140   8.844  -8.926  1.00  0.00     0.074 A 
ATOM     46  C   UNL     1     -11.893   8.134  -7.916  1.00  0.00     0.031 C 
ATOM     47  C   UNL     1      -7.556  12.909  -5.465  1.00  0.00     0.029 A 
ATOM     48  C   UNL     1      -7.572  12.752  -6.916  1.00  0.00     0.049 A 
ATOM     49  H   UNL     1      -8.820  11.522  -8.042  1.00  0.00     0.167 HD
ATOM     50  C   UNL     1     -11.244   8.618 -10.257  1.00  0.00     0.037 A 
ATOM     51  C   UNL     1      -6.765  13.398  -7.779  1.00  0.00     0.037 A 
ATOM     52  C   UNL     1     -10.514   9.349 -11.259  1.00  0.00     0.049 A 
ATOM     53  C   UNL     1      -6.894  13.120  -9.252  1.00  0.00     0.074 A 
ATOM     54  C   UNL     1     -10.605   9.245 -12.636  1.00  0.00     0.029 A 
ATOM     55  N   UNL     1      -9.556  10.314 -10.992  1.00  0.00    -0.354 N 
ATOM     56  N   UNL     1      -7.702  12.291  -9.869  1.00  0.00    -0.248 NA
ATOM     57  C   UNL     1      -6.002  13.867 -10.150  1.00  0.00     0.031 C 
ATOM     58  C   UNL     1      -9.661  10.107 -13.201  1.00  0.00     0.029 A 
ATOM     59  C   UNL     1      -9.025  10.792 -12.178  1.00  0.00     0.049 A 
ATOM     60  H   UNL     1      -9.292  10.616 -10.092  1.00  0.00     0.167 HD
ATOM     61  C   UNL     1      -7.439  12.441 -11.225  1.00  0.00     0.074 A 
ATOM     62  C   UNL     1      -6.405  13.447 -11.342  1.00  0.00     0.031 C 
ATOM     63  C   UNL     1      -8.005  11.804 -12.279  1.00  0.00     0.037 A 
BRANCH  50  64
ATOM     64  C   UNL     1     -12.178   7.533 -10.710  1.00  0.00     0.057 A 
ATOM     65  C   UNL     1     -13.569   7.662 -10.612  1.00  0.00     0.134 A 
ATOM     66  C   UNL     1     -11.678   6.365 -11.301  1.00  0.00     0.134 A 
ATOM     67  F   UNL     1     -14.114   8.750 -10.047  1.00  0.00    -0.206 F 
ATOM     68  C   UNL     1     -14.429   6.659 -11.064  1.00  0.00     0.040 A 
ATOM     69  C   UNL     1     -12.528   5.369 -11.784  1.00  0.00     0.040 A 
ATOM     70  F   UNL     1     -10.355   6.180 -11.433  1.00  0.00    -0.206 F 
ATOM     71  C   UNL     1     -13.908   5.512 -11.661  1.00  0.00     0.006 A 
ENDBRANCH  50  64
BRANCH  51  72
ATOM     72  C   UNL     1      -5.759  14.368  -7.277  1.00  0.00     0.057 A 
ATOM     73  C   UNL     1      -5.880  15.738  -7.538  1.00  0.00     0.134 A 
ATOM     74  C   UNL     1      -4.643  13.950  -6.542  1.00  0.00     0.134 A 
ATOM     75  F   UNL     1      -6.917  16.200  -8.253  1.00  0.00    -0.206 F 
ATOM     76  C   UNL     1      -4.917  16.653  -7.109  1.00  0.00     0.040 A 
ATOM     77  C   UNL     1      -3.687  14.857  -6.082  1.00  0.00     0.040 A 
ATOM     78  F   UNL     1      -4.471  12.652  -6.249  1.00  0.00    -0.206 F 
ATOM     79  C   UNL     1      -3.817  16.213  -6.375  1.00  0.00     0.006 A 
ENDBRANCH  51  72
BRANCH  63  80
ATOM     80  C   UNL     1      -7.554  12.203 -13.654  1.00  0.00     0.057 A 
ATOM     81  C   UNL     1      -6.295  11.849 -14.153  1.00  0.00     0.134 A 
ATOM     82  C   UNL     1      -8.419  12.896 -14.510  1.00  0.00     0.134 A 
ATOM     83  F   UNL     1      -5.415  11.195 -13.380  1.00  0.00    -0.206 F 
ATOM     84  C   UNL     1      -5.905  12.187 -15.451  1.00  0.00     0.040 A 
ATOM     85  C   UNL     1      -8.053  13.214 -15.818  1.00  0.00     0.040 A 
ATOM     86  F   UNL     1      -9.644  13.256 -14.097  1.00  0.00    -0.206 F 
ATOM     87  C   UNL     1      -6.790  12.862 -16.290  1.00  0.00     0.006 A 
ENDBRANCH  63  80
ENDBRANCH  37  38
ENDBRANCH  29  32
ENDBRANCH  27  28
ENDBRANCH  26  27
ENDBRANCH  25  26
ENDBRANCH  24  25
ENDBRANCH  23  24
ENDBRANCH   1  23
TORSDOF 19
