REMARK SMILES O=C(NCCCCCCNC(=O)c1cc2c(cc1NS(=O)(=O)c1cc(Cl)ccc1Cl)OCCCO2)c1ccc(-c2c3nc(c(-c4c(F)cccc4F)c4ccc([nH]4)c(-c4c(F)cccc4F)c4nc(c(-c5c(F)cccc5F)c5ccc2[nH]5)C=C4)C=C3)cc1
REMARK SMILES IDX 7 1 6 2 5 3 4 4 3 5 1 6 2 7 36 9 37 10 89 11 38 12 88 13
REMARK SMILES IDX 39 14 40 15 41 16 82 17 42 18 87 19 81 20 83 21 43 22 86 23
REMARK SMILES IDX 80 24 79 25 44 27 70 28 53 29 69 30 54 31 57 32 68 33 84 34
REMARK SMILES IDX 55 35 56 36 67 38 85 39 58 40 45 41 46 42 51 43 47 44 48 45
REMARK SMILES IDX 50 46 52 47 49 48 71 49 72 50 77 51 73 52 74 53 76 54 78 55
REMARK SMILES IDX 75 56 59 57 60 58 65 59 61 60 62 61 64 62 66 63 63 64 8 65
REMARK SMILES IDX 9 66 10 67 11 68 12 70 13 71 14 72 18 73 15 74 17 75 16 76
REMARK SMILES IDX 19 77 20 79 21 80 22 81 23 82 24 83 29 84 25 85 28 86 30 87
REMARK SMILES IDX 26 88 27 89 35 90 34 91 33 92 31 94 32 95
REMARK H PARENT 3 8 83 26 57 37 10 69 19 78
REMARK Flexibility Score: 100.00
ROOT
ATOM      1  C   UNL     1       5.177  -0.434   3.761  1.00  0.00     0.002 C 
ENDROOT
BRANCH   1   2
ATOM      2  C   UNL     1       4.726   0.979   3.371  1.00  0.00     0.002 C 
BRANCH   2   3
ATOM      3  C   UNL     1       4.932   1.388   1.915  1.00  0.00     0.021 C 
BRANCH   3   4
ATOM      4  C   UNL     1       4.465   0.373   0.888  1.00  0.00     0.116 C 
BRANCH   4   5
ATOM      5  N   UNL     1       3.033   0.146   0.905  1.00  0.00    -0.352 N 
ATOM      6  O   UNL     1       1.001  -0.201  -0.029  1.00  0.00    -0.269 OA
ATOM      7  C   UNL     1       2.217  -0.122  -0.167  1.00  0.00     0.251 C 
ATOM      8  H   UNL     1       2.596   0.189   1.786  1.00  0.00     0.163 HD
BRANCH   7   9
ATOM      9  C   UNL     1       2.823  -0.281  -1.508  1.00  0.00     0.039 A 
ATOM     10  C   UNL     1       2.262   0.403  -2.588  1.00  0.00     0.014 A 
ATOM     11  C   UNL     1       3.951  -1.086  -1.692  1.00  0.00     0.014 A 
ATOM     12  C   UNL     1       2.849   0.300  -3.850  1.00  0.00     0.010 A 
ATOM     13  C   UNL     1       4.587  -1.116  -2.928  1.00  0.00     0.010 A 
ATOM     14  C   UNL     1       4.022  -0.451  -4.027  1.00  0.00    -0.014 A 
BRANCH  14  15
ATOM     15  C   UNL     1       4.617  -0.647  -5.371  1.00  0.00     0.031 A 
ATOM     16  C   UNL     1       4.637  -2.031  -5.965  1.00  0.00     0.074 A 
ATOM     17  C   UNL     1       5.159   0.387  -6.040  1.00  0.00     0.049 A 
ATOM     18  N   UNL     1       5.180  -2.450  -7.079  1.00  0.00    -0.248 NA
ATOM     19  C   UNL     1       3.980  -3.093  -5.183  1.00  0.00     0.031 C 
ATOM     20  C   UNL     1       5.214   1.771  -5.568  1.00  0.00     0.029 A 
ATOM     21  N   UNL     1       5.769   0.430  -7.268  1.00  0.00    -0.354 N 
ATOM     22  C   UNL     1       4.944  -3.818  -7.120  1.00  0.00     0.074 A 
ATOM     23  C   UNL     1       4.272  -4.172  -5.891  1.00  0.00     0.031 C 
ATOM     24  C   UNL     1       5.795   2.533  -6.511  1.00  0.00     0.029 A 
ATOM     25  C   UNL     1       6.189   1.686  -7.633  1.00  0.00     0.049 A 
ATOM     26  H   UNL     1       5.894  -0.365  -7.835  1.00  0.00     0.167 HD
ATOM     27  C   UNL     1       5.230  -4.700  -8.107  1.00  0.00     0.037 A 
ATOM     28  C   UNL     1       6.823   2.099  -8.746  1.00  0.00     0.037 A 
ATOM     29  C   UNL     1       5.869  -4.342  -9.344  1.00  0.00     0.049 A 
ATOM     30  C   UNL     1       7.171   1.092  -9.809  1.00  0.00     0.074 A 
ATOM     31  C   UNL     1       6.172  -5.150 -10.425  1.00  0.00     0.029 A 
ATOM     32  N   UNL     1       6.297  -3.063  -9.665  1.00  0.00    -0.354 N 
ATOM     33  N   UNL     1       6.915  -0.194  -9.849  1.00  0.00    -0.248 NA
ATOM     34  C   UNL     1       7.901   1.596 -10.980  1.00  0.00     0.031 C 
ATOM     35  C   UNL     1       6.818  -4.366 -11.387  1.00  0.00     0.029 A 
ATOM     36  C   UNL     1       6.879  -3.062 -10.921  1.00  0.00     0.049 A 
ATOM     37  H   UNL     1       6.201  -2.272  -9.086  1.00  0.00     0.167 HD
ATOM     38  C   UNL     1       7.426  -0.646 -11.059  1.00  0.00     0.074 A 
ATOM     39  C   UNL     1       7.993   0.506 -11.729  1.00  0.00     0.031 C 
ATOM     40  C   UNL     1       7.430  -1.901 -11.571  1.00  0.00     0.037 A 
BRANCH  27  41
ATOM     41  C   UNL     1       4.842  -6.132  -7.881  1.00  0.00     0.057 A 
ATOM     42  C   UNL     1       5.817  -7.116  -7.680  1.00  0.00     0.134 A 
ATOM     43  C   UNL     1       3.501  -6.538  -7.862  1.00  0.00     0.134 A 
ATOM     44  F   UNL     1       7.120  -6.797  -7.688  1.00  0.00    -0.206 F 
ATOM     45  C   UNL     1       5.472  -8.452  -7.465  1.00  0.00     0.040 A 
ATOM     46  C   UNL     1       3.142  -7.865  -7.619  1.00  0.00     0.040 A 
ATOM     47  F   UNL     1       2.516  -5.642  -8.030  1.00  0.00    -0.206 F 
ATOM     48  C   UNL     1       4.131  -8.827  -7.425  1.00  0.00     0.006 A 
ENDBRANCH  27  41
BRANCH  28  49
ATOM     49  C   UNL     1       7.160   3.533  -8.932  1.00  0.00     0.057 A 
ATOM     50  C   UNL     1       8.152   4.162  -8.171  1.00  0.00     0.134 A 
ATOM     51  C   UNL     1       6.518   4.300  -9.912  1.00  0.00     0.134 A 
ATOM     52  F   UNL     1       8.804   3.484  -7.214  1.00  0.00    -0.206 F 
ATOM     53  C   UNL     1       8.493   5.500  -8.376  1.00  0.00     0.040 A 
ATOM     54  C   UNL     1       6.866   5.631 -10.145  1.00  0.00     0.040 A 
ATOM     55  F   UNL     1       5.574   3.748 -10.689  1.00  0.00    -0.206 F 
ATOM     56  C   UNL     1       7.856   6.236  -9.373  1.00  0.00     0.006 A 
ENDBRANCH  28  49
BRANCH  40  57
ATOM     57  C   UNL     1       8.037  -2.082 -12.931  1.00  0.00     0.057 A 
ATOM     58  C   UNL     1       7.229  -2.352 -14.042  1.00  0.00     0.134 A 
ATOM     59  C   UNL     1       9.421  -2.019 -13.136  1.00  0.00     0.134 A 
ATOM     60  F   UNL     1       5.896  -2.434 -13.911  1.00  0.00    -0.206 F 
ATOM     61  C   UNL     1       7.775  -2.555 -15.309  1.00  0.00     0.040 A 
ATOM     62  C   UNL     1       9.978  -2.193 -14.403  1.00  0.00     0.040 A 
ATOM     63  F   UNL     1      10.248  -1.749 -12.114  1.00  0.00    -0.206 F 
ATOM     64  C   UNL     1       9.154  -2.468 -15.493  1.00  0.00     0.006 A 
ENDBRANCH  40  57
ENDBRANCH  14  15
ENDBRANCH   7   9
ENDBRANCH   4   5
ENDBRANCH   3   4
ENDBRANCH   2   3
ENDBRANCH   1   2
BRANCH   1  65
ATOM     65  C   UNL     1       6.598  -0.868   3.384  1.00  0.00     0.021 C 
BRANCH  65  66
ATOM     66  C   UNL     1       7.698   0.111   3.719  1.00  0.00     0.116 C 
BRANCH  66  67
ATOM     67  N   UNL     1       7.606   0.647   5.042  1.00  0.00    -0.352 N 
ATOM     68  C   UNL     1       8.199   0.036   6.121  1.00  0.00     0.253 C 
ATOM     69  H   UNL     1       7.101   1.480   5.185  1.00  0.00     0.163 HD
ATOM     70  O   UNL     1       8.057  -1.148   6.388  1.00  0.00    -0.269 OA
BRANCH  68  71
ATOM     71  C   UNL     1       9.195   0.892   6.834  1.00  0.00     0.067 A 
ATOM     72  C   UNL     1      10.273   0.178   7.367  1.00  0.00     0.066 A 
ATOM     73  C   UNL     1       9.292   2.279   6.610  1.00  0.00     0.066 A 
ATOM     74  C   UNL     1      11.508   0.791   7.505  1.00  0.00     0.162 A 
ATOM     75  C   UNL     1      10.566   2.869   6.675  1.00  0.00     0.078 A 
ATOM     76  C   UNL     1      11.684   2.109   7.079  1.00  0.00     0.163 A 
BRANCH  73  77
ATOM     77  N   UNL     1       8.184   2.977   6.018  1.00  0.00    -0.279 N 
ATOM     78  H   UNL     1       8.150   3.011   5.034  1.00  0.00     0.180 HD
BRANCH  77  79
ATOM     79  S   UNL     1       6.931   3.746   6.857  1.00  0.00     0.263 S 
ATOM     80  O   UNL     1       7.561   4.840   7.561  1.00  0.00    -0.201 OA
ATOM     81  O   UNL     1       5.950   3.995   5.822  1.00  0.00    -0.201 OA
BRANCH  79  82
ATOM     82  C   UNL     1       6.147   2.622   7.998  1.00  0.00     0.107 A 
ATOM     83  C   UNL     1       5.716   1.362   7.550  1.00  0.00     0.044 A 
ATOM     84  C   UNL     1       5.825   2.994   9.309  1.00  0.00     0.061 A 
ATOM     85  C   UNL     1       5.162   0.430   8.435  1.00  0.00     0.042 A 
ATOM     86  C   UNL     1       5.250   2.057  10.188  1.00  0.00     0.023 A 
ATOM     87  Cl  UNL     1       5.940   4.598   9.935  1.00  0.00    -0.083 Cl
ATOM     88  Cl  UNL     1       4.699  -1.131   7.879  1.00  0.00    -0.084 Cl
ATOM     89  C   UNL     1       4.956   0.763   9.765  1.00  0.00     0.022 A 
ENDBRANCH  79  82
ENDBRANCH  77  79
ENDBRANCH  73  77
BRANCH  74  90
ATOM     90  O   UNL     1      12.521  -0.026   7.916  1.00  0.00    -0.490 OA
BRANCH  90  91
ATOM     91  C   UNL     1      13.232   0.560   9.002  1.00  0.00     0.233 C 
BRANCH  91  92
ATOM     92  C   UNL     1      14.361   1.411   8.464  1.00  0.00     0.083 CG0
ATOM     93  G   UNL     1      13.848   2.715   7.859  1.00  0.00     0.000 G0
ENDBRANCH  91  92
ENDBRANCH  90  91
ENDBRANCH  74  90
BRANCH  76  94
ATOM     94  O   UNL     1      12.929   2.600   6.772  1.00  0.00    -0.489 OA
BRANCH  94  95
ATOM     95  C   UNL     1      13.848   2.715   7.859  1.00  0.00     0.233 CG0
ATOM     96  G   UNL     1      14.361   1.411   8.464  1.00  0.00     0.000 G0
ENDBRANCH  94  95
ENDBRANCH  76  94
ENDBRANCH  68  71
ENDBRANCH  66  67
ENDBRANCH  65  66
ENDBRANCH   1  65
TORSDOF 16
