REMARK SMILES Cc1ccc(F)cc1S(=O)(=O)Nc1ccc(N(C)C)c(C(=O)NCCCCCCNC(=O)c2ccc(-c3c4nc(c(-c5c(F)cccc5F)c5ccc([nH]5)c(-c5c(F)cccc5F)c5nc(c(-c6c(F)cccc6F)c6ccc3[nH]6)C=C5)C=C4)cc2)c1
REMARK SMILES IDX 26 1 25 2 24 3 23 4 21 5 22 6 20 8 13 9 14 10 87 11 15 12
REMARK SMILES IDX 16 13 12 14 9 16 10 17 11 18 8 19 1 20 2 21 3 22 4 23 7 24
REMARK SMILES IDX 5 25 6 26 17 27 18 28 19 29 27 30 28 31 29 32 30 33 31 34
REMARK SMILES IDX 32 36 33 37 34 38 86 39 35 40 85 41 36 42 37 43 38 44 79 45
REMARK SMILES IDX 39 46 84 47 78 48 80 49 40 50 83 51 77 52 76 53 41 55 67 56
REMARK SMILES IDX 50 57 66 58 51 59 54 60 65 61 81 62 52 63 53 64 64 66 82 67
REMARK SMILES IDX 55 68 42 69 43 70 48 71 44 72 45 73 47 74 49 75 46 76 68 77
REMARK SMILES IDX 69 78 74 79 70 80 71 81 73 82 75 83 72 84 56 85 57 86 62 87
REMARK SMILES IDX 58 88 59 89 61 90 63 91 60 92
REMARK H PARENT 23 7 12 15 30 35 80 54 54 65
REMARK Flexibility Score: inf
ROOT
ATOM      1  C   UNL     1       0.909   0.670   5.179  1.00  0.00     0.002 C 
ENDROOT
BRANCH   1   2
ATOM      2  C   UNL     1       1.603   0.009   3.981  1.00  0.00     0.021 C 
BRANCH   2   3
ATOM      3  C   UNL     1       1.775   0.971   2.800  1.00  0.00     0.116 C 
BRANCH   3   4
ATOM      4  N   UNL     1       2.947   1.797   3.034  1.00  0.00    -0.352 N 
ATOM      5  C   UNL     1       4.255   1.657   2.629  1.00  0.00     0.253 C 
ATOM      6  O   UNL     1       5.118   2.234   3.289  1.00  0.00    -0.269 OA
ATOM      7  H   UNL     1       2.774   2.599   3.579  1.00  0.00     0.163 HD
BRANCH   5   8
ATOM      8  C   UNL     1       4.632   0.887   1.409  1.00  0.00     0.065 A 
ATOM      9  C   UNL     1       4.382  -1.173   0.155  1.00  0.00     0.050 A 
ATOM     10  C   UNL     1       5.369  -0.751  -0.721  1.00  0.00     0.029 A 
ATOM     11  C   UNL     1       4.144  -0.434   1.301  1.00  0.00     0.042 A 
ATOM     12  C   UNL     1       5.901   0.532  -0.598  1.00  0.00     0.029 A 
ATOM     13  C   UNL     1       5.485   1.437   0.404  1.00  0.00     0.049 A 
BRANCH   9  14
ATOM     14  N   UNL     1       3.607  -2.285  -0.257  1.00  0.00    -0.280 N 
ATOM     15  H   UNL     1       4.050  -2.942  -0.842  1.00  0.00     0.180 HD
BRANCH  14  16
ATOM     16  S   UNL     1       2.020  -2.589   0.149  1.00  0.00     0.262 S 
ATOM     17  O   UNL     1       1.965  -2.749   1.589  1.00  0.00    -0.201 OA
ATOM     18  O   UNL     1       1.607  -3.664  -0.730  1.00  0.00    -0.201 OA
BRANCH  16  19
ATOM     19  C   UNL     1       0.923  -1.220  -0.227  1.00  0.00     0.093 A 
ATOM     20  C   UNL     1       2.390   0.198  -1.832  1.00  0.00     0.046 C 
ATOM     21  C   UNL     1       1.181  -0.068  -0.991  1.00  0.00    -0.030 A 
ATOM     22  C   UNL     1       0.222   0.975  -0.982  1.00  0.00     0.008 A 
ATOM     23  C   UNL     1      -0.999   0.842  -0.325  1.00  0.00     0.039 A 
ATOM     24  C   UNL     1      -0.337  -1.355   0.398  1.00  0.00     0.061 A 
ATOM     25  C   UNL     1      -1.280  -0.339   0.334  1.00  0.00     0.124 A 
ATOM     26  F   UNL     1      -2.463  -0.495   0.940  1.00  0.00    -0.207 F 
ENDBRANCH  16  19
ENDBRANCH  14  16
ENDBRANCH   9  14
BRANCH  13  27
ATOM     27  N   UNL     1       5.852   2.774   0.274  1.00  0.00    -0.377 N 
ATOM     28  C   UNL     1       7.068   3.210  -0.409  1.00  0.00     0.143 C 
ATOM     29  C   UNL     1       5.077   3.862   0.867  1.00  0.00     0.143 C 
ENDBRANCH  13  27
ENDBRANCH   5   8
ENDBRANCH   3   4
ENDBRANCH   2   3
ENDBRANCH   1   2
BRANCH   1  30
ATOM     30  C   UNL     1      -0.585   0.939   4.970  1.00  0.00     0.002 C 
BRANCH  30  31
ATOM     31  C   UNL     1      -1.428  -0.300   4.653  1.00  0.00     0.021 C 
BRANCH  31  32
ATOM     32  C   UNL     1      -1.348  -1.408   5.698  1.00  0.00     0.116 C 
BRANCH  32  33
ATOM     33  N   UNL     1      -1.885  -0.986   6.982  1.00  0.00    -0.352 N 
ATOM     34  C   UNL     1      -2.770  -1.641   7.801  1.00  0.00     0.251 C 
ATOM     35  H   UNL     1      -1.570  -0.112   7.309  1.00  0.00     0.163 HD
ATOM     36  O   UNL     1      -3.267  -1.071   8.767  1.00  0.00    -0.269 OA
BRANCH  34  37
ATOM     37  C   UNL     1      -3.136  -3.040   7.502  1.00  0.00     0.039 A 
ATOM     38  C   UNL     1      -4.484  -3.406   7.511  1.00  0.00     0.014 A 
ATOM     39  C   UNL     1      -2.146  -3.988   7.226  1.00  0.00     0.014 A 
ATOM     40  C   UNL     1      -4.846  -4.717   7.197  1.00  0.00     0.010 A 
ATOM     41  C   UNL     1      -2.511  -5.279   6.862  1.00  0.00     0.010 A 
ATOM     42  C   UNL     1      -3.863  -5.657   6.852  1.00  0.00    -0.014 A 
BRANCH  42  43
ATOM     43  C   UNL     1      -4.214  -7.055   6.507  1.00  0.00     0.031 A 
ATOM     44  C   UNL     1      -3.791  -8.173   7.416  1.00  0.00     0.074 A 
ATOM     45  C   UNL     1      -4.839  -7.323   5.346  1.00  0.00     0.049 A 
ATOM     46  N   UNL     1      -3.884  -9.466   7.238  1.00  0.00    -0.248 NA
ATOM     47  C   UNL     1      -3.152  -7.782   8.683  1.00  0.00     0.031 C 
ATOM     48  C   UNL     1      -5.275  -6.327   4.367  1.00  0.00     0.029 A 
ATOM     49  N   UNL     1      -5.199  -8.523   4.786  1.00  0.00    -0.354 N 
ATOM     50  C   UNL     1      -3.291 -10.041   8.354  1.00  0.00     0.074 A 
ATOM     51  C   UNL     1      -2.811  -8.959   9.186  1.00  0.00     0.031 C 
ATOM     52  C   UNL     1      -5.853  -6.955   3.331  1.00  0.00     0.029 A 
ATOM     53  C   UNL     1      -5.797  -8.397   3.556  1.00  0.00     0.049 A 
ATOM     54  H   UNL     1      -5.044  -9.390   5.223  1.00  0.00     0.167 HD
ATOM     55  C   UNL     1      -3.169 -11.354   8.664  1.00  0.00     0.037 A 
ATOM     56  C   UNL     1      -6.239  -9.340   2.704  1.00  0.00     0.037 A 
ATOM     57  C   UNL     1      -3.676 -12.427   7.850  1.00  0.00     0.049 A 
ATOM     58  C   UNL     1      -6.102 -10.790   3.073  1.00  0.00     0.074 A 
ATOM     59  C   UNL     1      -3.651 -13.787   8.102  1.00  0.00     0.029 A 
ATOM     60  N   UNL     1      -4.305 -12.257   6.626  1.00  0.00    -0.354 N 
ATOM     61  N   UNL     1      -5.576 -11.322   4.149  1.00  0.00    -0.248 NA
ATOM     62  C   UNL     1      -6.622 -11.771   2.109  1.00  0.00     0.031 C 
ATOM     63  C   UNL     1      -4.242 -14.443   7.016  1.00  0.00     0.029 A 
ATOM     64  C   UNL     1      -4.665 -13.488   6.105  1.00  0.00     0.049 A 
ATOM     65  H   UNL     1      -4.471 -11.389   6.192  1.00  0.00     0.167 HD
ATOM     66  C   UNL     1      -5.726 -12.694   4.007  1.00  0.00     0.074 A 
ATOM     67  C   UNL     1      -6.396 -12.914   2.742  1.00  0.00     0.031 C 
ATOM     68  C   UNL     1      -5.345 -13.684   4.851  1.00  0.00     0.037 A 
BRANCH  55  69
ATOM     69  C   UNL     1      -2.456 -11.693   9.938  1.00  0.00     0.057 A 
ATOM     70  C   UNL     1      -3.034 -11.457  11.192  1.00  0.00     0.134 A 
ATOM     71  C   UNL     1      -1.179 -12.268   9.911  1.00  0.00     0.134 A 
ATOM     72  F   UNL     1      -4.248 -10.895  11.286  1.00  0.00    -0.206 F 
ATOM     73  C   UNL     1      -2.354 -11.752  12.375  1.00  0.00     0.040 A 
ATOM     74  C   UNL     1      -0.500 -12.589  11.088  1.00  0.00     0.040 A 
ATOM     75  F   UNL     1      -0.571 -12.524   8.743  1.00  0.00    -0.206 F 
ATOM     76  C   UNL     1      -1.085 -12.324  12.325  1.00  0.00     0.006 A 
ENDBRANCH  55  69
BRANCH  56  77
ATOM     77  C   UNL     1      -6.881  -8.938   1.429  1.00  0.00     0.057 A 
ATOM     78  C   UNL     1      -8.265  -9.056   1.256  1.00  0.00     0.134 A 
ATOM     79  C   UNL     1      -6.137  -8.421   0.363  1.00  0.00     0.134 A 
ATOM     80  F   UNL     1      -9.026  -9.562   2.237  1.00  0.00    -0.206 F 
ATOM     81  C   UNL     1      -8.886  -8.682   0.064  1.00  0.00     0.040 A 
ATOM     82  C   UNL     1      -6.747  -8.025  -0.828  1.00  0.00     0.040 A 
ATOM     83  F   UNL     1      -4.808  -8.280   0.471  1.00  0.00    -0.206 F 
ATOM     84  C   UNL     1      -8.126  -8.159  -0.981  1.00  0.00     0.006 A 
ENDBRANCH  56  77
BRANCH  68  85
ATOM     85  C   UNL     1      -5.683 -15.089   4.455  1.00  0.00     0.057 A 
ATOM     86  C   UNL     1      -4.963 -15.771   3.468  1.00  0.00     0.134 A 
ATOM     87  C   UNL     1      -6.713 -15.781   5.105  1.00  0.00     0.134 A 
ATOM     88  F   UNL     1      -3.974 -15.157   2.801  1.00  0.00    -0.206 F 
ATOM     89  C   UNL     1      -5.264 -17.092   3.131  1.00  0.00     0.040 A 
ATOM     90  C   UNL     1      -7.010 -17.108   4.791  1.00  0.00     0.040 A 
ATOM     91  F   UNL     1      -7.436 -15.184   6.064  1.00  0.00    -0.206 F 
ATOM     92  C   UNL     1      -6.286 -17.765   3.798  1.00  0.00     0.006 A 
ENDBRANCH  68  85
ENDBRANCH  42  43
ENDBRANCH  34  37
ENDBRANCH  32  33
ENDBRANCH  31  32
ENDBRANCH  30  31
ENDBRANCH   1  30
TORSDOF 17
