REMARK SMILES COCc1cccc(O[C@@H](C)c2ccc(C(=O)NCCCCCCNC(=O)c3ccc(-c4c5nc(c(-c6c(F)cccc6F)c6ccc([nH]6)c(-c6c(F)cccc6F)c6nc(c(-c7c(F)cccc7F)c7ccc4[nH]7)C=C6)C=C5)cc3)o2)c1
REMARK SMILES IDX 20 1 19 2 18 3 16 4 17 5 15 7 12 8 13 9 82 10 14 11 10 12
REMARK SMILES IDX 11 13 9 14 8 15 4 16 5 17 83 18 6 19 7 20 3 21 2 22 1 23
REMARK SMILES IDX 21 24 22 25 23 26 24 27 25 28 26 29 27 31 28 32 29 33 81 34
REMARK SMILES IDX 30 35 80 36 31 37 32 38 33 39 74 40 34 41 79 42 73 43 75 44
REMARK SMILES IDX 35 45 78 46 72 47 71 48 36 50 62 51 45 52 61 53 46 54 49 55
REMARK SMILES IDX 60 56 76 57 47 58 48 59 59 61 77 62 50 63 37 64 38 65 43 66
REMARK SMILES IDX 39 67 40 68 42 69 44 70 41 71 63 72 64 73 69 74 65 75 66 76
REMARK SMILES IDX 68 77 70 78 67 79 51 80 52 81 57 82 53 83 54 84 56 85 58 86
REMARK SMILES IDX 55 87
REMARK H PARENT 18 6 25 30 75 49 49 60
REMARK Flexibility Score: inf
ROOT
ATOM      1  C   UNL     1       5.304  -0.004   6.697  1.00  0.00     0.021 C 
ENDROOT
BRANCH   1   2
ATOM      2  C   UNL     1       6.134  -0.582   5.555  1.00  0.00     0.116 C 
BRANCH   2   3
ATOM      3  N   UNL     1       6.227  -2.022   5.646  1.00  0.00    -0.349 N 
ATOM      4  C   UNL     1       5.649  -3.038   4.920  1.00  0.00     0.286 C 
ATOM      5  O   UNL     1       5.824  -4.169   5.379  1.00  0.00    -0.266 OA
ATOM      6  H   UNL     1       6.818  -2.337   6.368  1.00  0.00     0.163 HD
BRANCH   4   7
ATOM      7  C   UNL     1       4.927  -2.795   3.681  1.00  0.00     0.191 A 
ATOM      8  C   UNL     1       3.702  -3.481   1.955  1.00  0.00     0.145 A 
ATOM      9  C   UNL     1       4.089  -2.188   1.680  1.00  0.00     0.050 A 
ATOM     10  O   UNL     1       4.244  -3.869   3.145  1.00  0.00    -0.452 OA
ATOM     11  C   UNL     1       4.775  -1.724   2.818  1.00  0.00     0.057 A 
BRANCH   8  12
ATOM     12  C   UNL     1       2.857  -4.475   1.219  1.00  0.00     0.236 C 
ATOM     13  C   UNL     1       2.740  -4.195  -0.278  1.00  0.00     0.062 C 
BRANCH  12  14
ATOM     14  O   UNL     1       1.560  -4.673   1.824  1.00  0.00    -0.483 OA
BRANCH  14  15
ATOM     15  C   UNL     1       0.716  -3.661   2.175  1.00  0.00     0.120 A 
ATOM     16  C   UNL     1       0.042  -1.325   2.436  1.00  0.00    -0.019 A 
ATOM     17  C   UNL     1      -1.078  -1.728   3.163  1.00  0.00     0.006 A 
ATOM     18  C   UNL     1       0.884  -2.310   1.900  1.00  0.00     0.052 A 
ATOM     19  C   UNL     1      -1.312  -3.087   3.380  1.00  0.00     0.004 A 
ATOM     20  C   UNL     1      -0.409  -4.044   2.904  1.00  0.00     0.046 A 
BRANCH  16  21
ATOM     21  C   UNL     1       0.396   0.131   2.257  1.00  0.00     0.195 C 
BRANCH  21  22
ATOM     22  O   UNL     1      -0.079   0.688   1.035  1.00  0.00    -0.380 OA
ATOM     23  C   UNL     1       0.670   0.289  -0.105  1.00  0.00     0.195 C 
ENDBRANCH  21  22
ENDBRANCH  16  21
ENDBRANCH  14  15
ENDBRANCH  12  14
ENDBRANCH   8  12
ENDBRANCH   4   7
ENDBRANCH   2   3
ENDBRANCH   1   2
BRANCH   1  24
ATOM     24  C   UNL     1       6.144   0.355   7.923  1.00  0.00     0.002 C 
BRANCH  24  25
ATOM     25  C   UNL     1       7.220   1.420   7.671  1.00  0.00     0.002 C 
BRANCH  25  26
ATOM     26  C   UNL     1       6.707   2.735   7.074  1.00  0.00     0.021 C 
BRANCH  26  27
ATOM     27  C   UNL     1       5.682   3.456   7.944  1.00  0.00     0.116 C 
BRANCH  27  28
ATOM     28  N   UNL     1       6.238   3.808   9.242  1.00  0.00    -0.352 N 
ATOM     29  C   UNL     1       6.421   5.043   9.811  1.00  0.00     0.251 C 
ATOM     30  H   UNL     1       6.525   3.046   9.795  1.00  0.00     0.163 HD
ATOM     31  O   UNL     1       7.139   5.169  10.796  1.00  0.00    -0.269 OA
BRANCH  29  32
ATOM     32  C   UNL     1       5.760   6.225   9.222  1.00  0.00     0.039 A 
ATOM     33  C   UNL     1       6.495   7.402   9.063  1.00  0.00     0.014 A 
ATOM     34  C   UNL     1       4.419   6.169   8.832  1.00  0.00     0.014 A 
ATOM     35  C   UNL     1       5.905   8.502   8.439  1.00  0.00     0.010 A 
ATOM     36  C   UNL     1       3.855   7.242   8.149  1.00  0.00     0.010 A 
ATOM     37  C   UNL     1       4.597   8.413   7.935  1.00  0.00    -0.014 A 
BRANCH  37  38
ATOM     38  C   UNL     1       4.008   9.512   7.132  1.00  0.00     0.031 A 
ATOM     39  C   UNL     1       2.803  10.259   7.624  1.00  0.00     0.074 A 
ATOM     40  C   UNL     1       4.522   9.780   5.915  1.00  0.00     0.049 A 
ATOM     41  N   UNL     1       2.109  11.192   7.023  1.00  0.00    -0.248 NA
ATOM     42  C   UNL     1       2.295   9.894   8.955  1.00  0.00     0.031 C 
ATOM     43  C   UNL     1       5.666   9.091   5.311  1.00  0.00     0.029 A 
ATOM     44  N   UNL     1       4.143  10.690   4.962  1.00  0.00    -0.354 N 
ATOM     45  C   UNL     1       1.083  11.522   7.898  1.00  0.00     0.074 A 
ATOM     46  C   UNL     1       1.213  10.654   9.049  1.00  0.00     0.031 C 
ATOM     47  C   UNL     1       5.906   9.617   4.101  1.00  0.00     0.029 A 
ATOM     48  C   UNL     1       4.907  10.643   3.822  1.00  0.00     0.049 A 
ATOM     49  H   UNL     1       3.393  11.317   5.084  1.00  0.00     0.167 HD
ATOM     50  C   UNL     1       0.130  12.476   7.760  1.00  0.00     0.037 A 
ATOM     51  C   UNL     1       4.805  11.336   2.672  1.00  0.00     0.037 A 
ATOM     52  C   UNL     1       0.012  13.340   6.614  1.00  0.00     0.049 A 
ATOM     53  C   UNL     1       3.711  12.356   2.527  1.00  0.00     0.074 A 
ATOM     54  C   UNL     1      -0.877  14.381   6.410  1.00  0.00     0.029 A 
ATOM     55  N   UNL     1       0.796  13.254   5.474  1.00  0.00    -0.354 N 
ATOM     56  N   UNL     1       2.796  12.715   3.395  1.00  0.00    -0.248 NA
ATOM     57  C   UNL     1       3.631  13.064   1.242  1.00  0.00     0.031 C 
ATOM     58  C   UNL     1      -0.669  14.886   5.122  1.00  0.00     0.029 A 
ATOM     59  C   UNL     1       0.384  14.195   4.544  1.00  0.00     0.049 A 
ATOM     60  H   UNL     1       1.537  12.618   5.344  1.00  0.00     0.167 HD
ATOM     61  C   UNL     1       2.043  13.699   2.769  1.00  0.00     0.074 A 
ATOM     62  C   UNL     1       2.623  13.897   1.456  1.00  0.00     0.031 C 
ATOM     63  C   UNL     1       0.965  14.374   3.237  1.00  0.00     0.037 A 
BRANCH  50  64
ATOM     64  C   UNL     1      -0.864  12.631   8.875  1.00  0.00     0.057 A 
ATOM     65  C   UNL     1      -0.498  13.144  10.127  1.00  0.00     0.134 A 
ATOM     66  C   UNL     1      -2.212  12.303   8.682  1.00  0.00     0.134 A 
ATOM     67  F   UNL     1       0.778  13.470  10.382  1.00  0.00    -0.206 F 
ATOM     68  C   UNL     1      -1.431  13.299  11.154  1.00  0.00     0.040 A 
ATOM     69  C   UNL     1      -3.159  12.481   9.692  1.00  0.00     0.040 A 
ATOM     70  F   UNL     1      -2.633  11.814   7.506  1.00  0.00    -0.206 F 
ATOM     71  C   UNL     1      -2.768  12.974  10.935  1.00  0.00     0.006 A 
ENDBRANCH  50  64
BRANCH  51  72
ATOM     72  C   UNL     1       5.765  11.086   1.567  1.00  0.00     0.057 A 
ATOM     73  C   UNL     1       6.709  12.051   1.200  1.00  0.00     0.134 A 
ATOM     74  C   UNL     1       5.763   9.881   0.854  1.00  0.00     0.134 A 
ATOM     75  F   UNL     1       6.748  13.232   1.834  1.00  0.00    -0.206 F 
ATOM     76  C   UNL     1       7.607  11.835   0.153  1.00  0.00     0.040 A 
ATOM     77  C   UNL     1       6.673   9.640  -0.177  1.00  0.00     0.040 A 
ATOM     78  F   UNL     1       4.889   8.912   1.161  1.00  0.00    -0.206 F 
ATOM     79  C   UNL     1       7.593  10.623  -0.535  1.00  0.00     0.006 A 
ENDBRANCH  51  72
BRANCH  63  80
ATOM     80  C   UNL     1       0.343  15.391   2.325  1.00  0.00     0.057 A 
ATOM     81  C   UNL     1      -0.396  15.014   1.197  1.00  0.00     0.134 A 
ATOM     82  C   UNL     1       0.446  16.761   2.602  1.00  0.00     0.134 A 
ATOM     83  F   UNL     1      -0.519  13.719   0.867  1.00  0.00    -0.206 F 
ATOM     84  C   UNL     1      -0.997  15.962   0.368  1.00  0.00     0.040 A 
ATOM     85  C   UNL     1      -0.174  17.717   1.796  1.00  0.00     0.040 A 
ATOM     86  F   UNL     1       1.134  17.190   3.671  1.00  0.00    -0.206 F 
ATOM     87  C   UNL     1      -0.894  17.318   0.672  1.00  0.00     0.006 A 
ENDBRANCH  63  80
ENDBRANCH  37  38
ENDBRANCH  29  32
ENDBRANCH  27  28
ENDBRANCH  26  27
ENDBRANCH  25  26
ENDBRANCH  24  25
ENDBRANCH   1  24
TORSDOF 18
