REMARK SMILES O=C(NCCCCCCNC(=O)c1ccc(-c2c3nc(c(-c4c(F)cccc4F)c4ccc([nH]4)c(-c4c(F)cccc4F)c4nc(c(-c5c(F)cccc5F)c5ccc2[nH]5)C=C4)C=C3)cc1)C1=Cc2cc(OC(F)(F)F)ccc2O[C@@H]1C(F)(F)F
REMARK SMILES IDX 6 1 5 2 4 3 3 4 1 5 2 6 67 8 68 9 81 10 69 11 80 12 70 13
REMARK SMILES IDX 79 14 71 15 78 16 77 17 82 18 83 19 84 20 85 21 72 22 73 23
REMARK SMILES IDX 74 24 75 25 76 26 7 27 8 28 9 29 10 30 11 31 12 33 13 34
REMARK SMILES IDX 14 35 66 36 15 37 65 38 16 39 17 40 18 41 59 42 19 43 64 44
REMARK SMILES IDX 58 45 60 46 20 47 63 48 57 49 56 50 21 52 47 53 30 54 46 55
REMARK SMILES IDX 31 56 34 57 45 58 61 59 32 60 33 61 44 63 62 64 35 65 22 66
REMARK SMILES IDX 23 67 28 68 24 69 25 70 27 71 29 72 26 73 48 74 49 75 54 76
REMARK SMILES IDX 50 77 51 78 53 79 55 80 52 81 36 82 37 83 42 84 38 85 39 86
REMARK SMILES IDX 41 87 43 88 40 89
REMARK H PARENT 3 7 10 32 60 51 34 62
REMARK Flexibility Score: inf
ROOT
ATOM      1  C   UNL     1       3.792   3.366   2.845  1.00  0.00     0.002 C 
ENDROOT
BRANCH   1   2
ATOM      2  C   UNL     1       4.183   3.093   1.394  1.00  0.00     0.021 C 
BRANCH   2   3
ATOM      3  C   UNL     1       3.917   1.685   0.875  1.00  0.00     0.116 C 
BRANCH   3   4
ATOM      4  N   UNL     1       2.615   1.477   0.271  1.00  0.00    -0.352 N 
ATOM      5  O   UNL     1       1.016   0.430  -0.906  1.00  0.00    -0.270 OA
ATOM      6  C   UNL     1       2.211   0.527  -0.627  1.00  0.00     0.251 C 
ATOM      7  H   UNL     1       1.918   2.115   0.547  1.00  0.00     0.163 HD
BRANCH   6   8
ATOM      8  C   UNL     1       3.151  -0.472  -1.219  1.00  0.00     0.067 C 
ATOM      9  C   UNL     1       4.371  -0.137  -1.679  1.00  0.00     0.025 C 
ATOM     10  C   UNL     1       2.949  -1.859  -0.648  1.00  0.00     0.314 C 
ATOM     11  C   UNL     1       5.437  -0.606  -0.753  1.00  0.00     0.021 A 
ATOM     12  O   UNL     1       3.921  -2.137   0.399  1.00  0.00    -0.475 OA
ATOM     13  C   UNL     1       6.675   0.049  -0.770  1.00  0.00     0.058 A 
ATOM     14  C   UNL     1       5.120  -1.474   0.300  1.00  0.00     0.128 A 
ATOM     15  C   UNL     1       7.545  -0.055   0.321  1.00  0.00     0.130 A 
ATOM     16  C   UNL     1       5.992  -1.595   1.377  1.00  0.00     0.051 A 
ATOM     17  C   UNL     1       7.186  -0.860   1.404  1.00  0.00     0.050 A 
BRANCH  10  18
ATOM     18  C   UNL     1       2.948  -2.948  -1.734  1.00  0.00     0.429 C 
ATOM     19  F   UNL     1       2.610  -4.155  -1.221  1.00  0.00    -0.167 F 
ATOM     20  F   UNL     1       2.055  -2.674  -2.715  1.00  0.00    -0.167 F 
ATOM     21  F   UNL     1       4.157  -3.090  -2.328  1.00  0.00    -0.167 F 
ENDBRANCH  10  18
BRANCH  15  22
ATOM     22  O   UNL     1       8.686   0.683   0.196  1.00  0.00    -0.406 OA
BRANCH  22  23
ATOM     23  C   UNL     1       9.415   1.001   1.370  1.00  0.00     0.573 C 
ATOM     24  F   UNL     1       8.660   1.747   2.204  1.00  0.00    -0.132 F 
ATOM     25  F   UNL     1       9.840  -0.105   2.013  1.00  0.00    -0.132 F 
ATOM     26  F   UNL     1      10.496   1.731   1.022  1.00  0.00    -0.132 F 
ENDBRANCH  22  23
ENDBRANCH  15  22
ENDBRANCH   6   8
ENDBRANCH   3   4
ENDBRANCH   2   3
ENDBRANCH   1   2
BRANCH   1  27
ATOM     27  C   UNL     1       4.436   2.473   3.913  1.00  0.00     0.002 C 
BRANCH  27  28
ATOM     28  C   UNL     1       5.958   2.315   3.857  1.00  0.00     0.021 C 
BRANCH  28  29
ATOM     29  C   UNL     1       6.775   3.604   3.865  1.00  0.00     0.116 C 
BRANCH  29  30
ATOM     30  N   UNL     1       6.569   4.411   5.053  1.00  0.00    -0.352 N 
ATOM     31  C   UNL     1       7.486   4.951   5.924  1.00  0.00     0.251 C 
ATOM     32  H   UNL     1       5.627   4.601   5.270  1.00  0.00     0.163 HD
ATOM     33  O   UNL     1       7.097   5.503   6.947  1.00  0.00    -0.269 OA
BRANCH  31  34
ATOM     34  C   UNL     1       8.942   4.849   5.657  1.00  0.00     0.039 A 
ATOM     35  C   UNL     1       9.795   4.558   6.727  1.00  0.00     0.014 A 
ATOM     36  C   UNL     1       9.479   5.069   4.386  1.00  0.00     0.014 A 
ATOM     37  C   UNL     1      11.171   4.435   6.512  1.00  0.00     0.010 A 
ATOM     38  C   UNL     1      10.841   4.870   4.157  1.00  0.00     0.010 A 
ATOM     39  C   UNL     1      11.705   4.559   5.219  1.00  0.00    -0.014 A 
BRANCH  39  40
ATOM     40  C   UNL     1      13.161   4.377   4.971  1.00  0.00     0.031 A 
ATOM     41  C   UNL     1      13.998   5.520   4.462  1.00  0.00     0.074 A 
ATOM     42  C   UNL     1      13.728   3.169   5.167  1.00  0.00     0.049 A 
ATOM     43  N   UNL     1      15.272   5.543   4.158  1.00  0.00    -0.248 NA
ATOM     44  C   UNL     1      13.309   6.802   4.244  1.00  0.00     0.031 C 
ATOM     45  C   UNL     1      13.025   1.968   5.622  1.00  0.00     0.029 A 
ATOM     46  N   UNL     1      15.026   2.751   5.004  1.00  0.00    -0.354 N 
ATOM     47  C   UNL     1      15.530   6.830   3.701  1.00  0.00     0.074 A 
ATOM     48  C   UNL     1      14.273   7.544   3.719  1.00  0.00     0.031 C 
ATOM     49  C   UNL     1      13.904   0.959   5.731  1.00  0.00     0.029 A 
ATOM     50  C   UNL     1      15.223   1.426   5.314  1.00  0.00     0.049 A 
ATOM     51  H   UNL     1      15.748   3.344   4.694  1.00  0.00     0.167 HD
ATOM     52  C   UNL     1      16.711   7.374   3.320  1.00  0.00     0.037 A 
ATOM     53  C   UNL     1      16.337   0.671   5.263  1.00  0.00     0.037 A 
ATOM     54  C   UNL     1      17.968   6.671   3.327  1.00  0.00     0.049 A 
ATOM     55  C   UNL     1      17.631   1.297   4.817  1.00  0.00     0.074 A 
ATOM     56  C   UNL     1      19.228   7.159   3.025  1.00  0.00     0.029 A 
ATOM     57  N   UNL     1      18.124   5.331   3.645  1.00  0.00    -0.354 N 
ATOM     58  N   UNL     1      17.874   2.535   4.463  1.00  0.00    -0.248 NA
ATOM     59  C   UNL     1      18.809   0.417   4.767  1.00  0.00     0.031 C 
ATOM     60  C   UNL     1      20.138   6.099   3.104  1.00  0.00     0.029 A 
ATOM     61  C   UNL     1      19.454   4.967   3.515  1.00  0.00     0.049 A 
ATOM     62  H   UNL     1      17.397   4.728   3.922  1.00  0.00     0.167 HD
ATOM     63  C   UNL     1      19.234   2.592   4.183  1.00  0.00     0.074 A 
ATOM     64  C   UNL     1      19.766   1.267   4.422  1.00  0.00     0.031 C 
ATOM     65  C   UNL     1      19.976   3.647   3.767  1.00  0.00     0.037 A 
BRANCH  52  66
ATOM     66  C   UNL     1      16.704   8.803   2.856  1.00  0.00     0.057 A 
ATOM     67  C   UNL     1      16.482   9.869   3.738  1.00  0.00     0.134 A 
ATOM     68  C   UNL     1      16.974   9.120   1.518  1.00  0.00     0.134 A 
ATOM     69  F   UNL     1      16.209   9.636   5.031  1.00  0.00    -0.206 F 
ATOM     70  C   UNL     1      16.501  11.195   3.302  1.00  0.00     0.040 A 
ATOM     71  C   UNL     1      17.025  10.443   1.076  1.00  0.00     0.040 A 
ATOM     72  F   UNL     1      17.205   8.150   0.621  1.00  0.00    -0.206 F 
ATOM     73  C   UNL     1      16.782  11.485   1.968  1.00  0.00     0.006 A 
ENDBRANCH  52  66
BRANCH  53  74
ATOM     74  C   UNL     1      16.293  -0.760   5.661  1.00  0.00     0.057 A 
ATOM     75  C   UNL     1      16.956  -1.212   6.808  1.00  0.00     0.134 A 
ATOM     76  C   UNL     1      15.615  -1.714   4.892  1.00  0.00     0.134 A 
ATOM     77  F   UNL     1      17.640  -0.351   7.575  1.00  0.00    -0.206 F 
ATOM     78  C   UNL     1      16.970  -2.562   7.162  1.00  0.00     0.040 A 
ATOM     79  C   UNL     1      15.596  -3.063   5.250  1.00  0.00     0.040 A 
ATOM     80  F   UNL     1      14.954  -1.346   3.785  1.00  0.00    -0.206 F 
ATOM     81  C   UNL     1      16.285  -3.492   6.383  1.00  0.00     0.006 A 
ENDBRANCH  53  74
BRANCH  65  82
ATOM     82  C   UNL     1      21.450   3.427   3.586  1.00  0.00     0.057 A 
ATOM     83  C   UNL     1      21.964   2.655   2.536  1.00  0.00     0.134 A 
ATOM     84  C   UNL     1      22.371   4.029   4.454  1.00  0.00     0.134 A 
ATOM     85  F   UNL     1      21.137   2.040   1.676  1.00  0.00    -0.206 F 
ATOM     86  C   UNL     1      23.338   2.469   2.371  1.00  0.00     0.040 A 
ATOM     87  C   UNL     1      23.747   3.876   4.282  1.00  0.00     0.040 A 
ATOM     88  F   UNL     1      21.948   4.790   5.475  1.00  0.00    -0.206 F 
ATOM     89  C   UNL     1      24.234   3.087   3.242  1.00  0.00     0.006 A 
ENDBRANCH  65  82
ENDBRANCH  39  40
ENDBRANCH  31  34
ENDBRANCH  29  30
ENDBRANCH  28  29
ENDBRANCH  27  28
ENDBRANCH   1  27
TORSDOF 16
