REMARK SMILES CC[C@](C)(NC(=O)CCSc1ccccc1Cl)C(=O)NCCCCCCNC(=O)c1ccc(-c2c3nc(c(-c4c(F)cccc4F)c4ccc([nH]4)c(-c4c(F)cccc4F)c4nc(c(-c5c(F)cccc5F)c5ccc2[nH]5)C=C4)C=C3)cc1
REMARK SMILES IDX 22 1 21 2 20 3 18 4 19 5 3 7 4 8 2 9 1 10 5 11 6 12 7 14
REMARK SMILES IDX 8 15 9 16 10 17 11 18 12 19 16 20 13 21 15 22 17 23 14 24
REMARK SMILES IDX 23 25 24 26 25 27 26 28 27 29 28 30 29 32 30 33 31 34 83 35
REMARK SMILES IDX 32 36 82 37 33 38 34 39 35 40 76 41 36 42 81 43 75 44 77 45
REMARK SMILES IDX 37 46 80 47 74 48 73 49 38 51 64 52 47 53 63 54 48 55 51 56
REMARK SMILES IDX 62 57 78 58 49 59 50 60 61 62 79 63 52 64 39 65 40 66 45 67
REMARK SMILES IDX 41 68 42 69 44 70 46 71 43 72 65 73 66 74 71 75 67 76 68 77
REMARK SMILES IDX 70 78 72 79 69 80 53 81 54 82 59 83 55 84 56 85 58 86 60 87
REMARK SMILES IDX 57 88
REMARK H PARENT 20 6 5 13 27 31 77 50 51 61
REMARK Flexibility Score: inf
ROOT
ATOM      1  C   UNL     1       3.300   5.374   3.028  1.00  0.00     0.021 C 
ENDROOT
BRANCH   1   2
ATOM      2  C   UNL     1       2.782   5.063   1.627  1.00  0.00     0.116 C 
BRANCH   2   3
ATOM      3  N   UNL     1       3.402   3.881   1.061  1.00  0.00    -0.354 N 
ATOM      4  C   UNL     1       2.878   2.667   0.729  1.00  0.00     0.245 C 
ATOM      5  O   UNL     1       3.638   1.866   0.179  1.00  0.00    -0.272 OA
ATOM      6  H   UNL     1       4.366   3.971   0.885  1.00  0.00     0.163 HD
BRANCH   4   7
ATOM      7  C   UNL     1       1.366   2.361   0.927  1.00  0.00     0.116 C 
ATOM      8  C   UNL     1       1.079   0.867   0.758  1.00  0.00     0.045 C 
BRANCH   7   9
ATOM      9  C   UNL     1       0.569   3.163  -0.147  1.00  0.00     0.035 C 
ATOM     10  C   UNL     1       0.938   2.872  -1.599  1.00  0.00     0.007 C 
ENDBRANCH   7   9
BRANCH   7  11
ATOM     11  N   UNL     1       0.923   2.834   2.263  1.00  0.00    -0.342 N 
ATOM     12  C   UNL     1       1.411   2.630   3.514  1.00  0.00     0.221 C 
ATOM     13  H   UNL     1       0.122   3.406   2.237  1.00  0.00     0.164 HD
ATOM     14  O   UNL     1       0.883   3.263   4.435  1.00  0.00    -0.275 OA
BRANCH  12  15
ATOM     15  C   UNL     1       2.592   1.740   3.786  1.00  0.00     0.111 C 
BRANCH  15  16
ATOM     16  C   UNL     1       2.290   0.464   4.566  1.00  0.00     0.085 C 
BRANCH  16  17
ATOM     17  S   UNL     1       1.380  -0.929   3.801  1.00  0.00    -0.124 SA
BRANCH  17  18
ATOM     18  C   UNL     1      -0.389  -0.591   3.769  1.00  0.00     0.026 A 
ATOM     19  C   UNL     1      -0.956   0.655   4.045  1.00  0.00     0.016 A 
ATOM     20  C   UNL     1      -1.276  -1.599   3.332  1.00  0.00     0.054 A 
ATOM     21  C   UNL     1      -2.288   0.957   3.721  1.00  0.00     0.001 A 
ATOM     22  C   UNL     1      -2.627  -1.320   3.068  1.00  0.00     0.022 A 
ATOM     23  Cl  UNL     1      -0.783  -3.248   3.112  1.00  0.00    -0.083 Cl
ATOM     24  C   UNL     1      -3.121  -0.029   3.216  1.00  0.00     0.002 A 
ENDBRANCH  17  18
ENDBRANCH  16  17
ENDBRANCH  15  16
ENDBRANCH  12  15
ENDBRANCH   7  11
ENDBRANCH   4   7
ENDBRANCH   2   3
ENDBRANCH   1   2
BRANCH   1  25
ATOM     25  C   UNL     1       4.812   5.577   3.102  1.00  0.00     0.002 C 
BRANCH  25  26
ATOM     26  C   UNL     1       5.346   6.617   2.118  1.00  0.00     0.002 C 
BRANCH  26  27
ATOM     27  C   UNL     1       4.611   7.958   2.167  1.00  0.00     0.021 C 
BRANCH  27  28
ATOM     28  C   UNL     1       4.537   8.566   3.559  1.00  0.00     0.116 C 
BRANCH  28  29
ATOM     29  N   UNL     1       5.864   8.850   4.075  1.00  0.00    -0.352 N 
ATOM     30  C   UNL     1       6.386  10.066   4.433  1.00  0.00     0.251 C 
ATOM     31  H   UNL     1       6.461   8.075   4.182  1.00  0.00     0.163 HD
ATOM     32  O   UNL     1       7.589  10.217   4.581  1.00  0.00    -0.269 OA
BRANCH  30  33
ATOM     33  C   UNL     1       5.456  11.195   4.625  1.00  0.00     0.039 A 
ATOM     34  C   UNL     1       5.736  12.417   4.015  1.00  0.00     0.014 A 
ATOM     35  C   UNL     1       4.293  11.020   5.383  1.00  0.00     0.014 A 
ATOM     36  C   UNL     1       4.823  13.463   4.138  1.00  0.00     0.010 A 
ATOM     37  C   UNL     1       3.348  12.036   5.433  1.00  0.00     0.010 A 
ATOM     38  C   UNL     1       3.612  13.272   4.826  1.00  0.00    -0.014 A 
BRANCH  38  39
ATOM     39  C   UNL     1       2.619  14.366   4.938  1.00  0.00     0.031 A 
ATOM     40  C   UNL     1       2.281  14.936   6.287  1.00  0.00     0.074 A 
ATOM     41  C   UNL     1       1.990  14.809   3.833  1.00  0.00     0.049 A 
ATOM     42  N   UNL     1       1.416  15.866   6.597  1.00  0.00    -0.248 NA
ATOM     43  C   UNL     1       2.991  14.367   7.445  1.00  0.00     0.031 C 
ATOM     44  C   UNL     1       2.200  14.298   2.477  1.00  0.00     0.029 A 
ATOM     45  N   UNL     1       1.043  15.787   3.677  1.00  0.00    -0.354 N 
ATOM     46  C   UNL     1       1.470  15.986   7.980  1.00  0.00     0.074 A 
ATOM     47  C   UNL     1       2.406  14.991   8.456  1.00  0.00     0.031 C 
ATOM     48  C   UNL     1       1.427  14.988   1.624  1.00  0.00     0.029 A 
ATOM     49  C   UNL     1       0.638  15.959   2.376  1.00  0.00     0.049 A 
ATOM     50  H   UNL     1       0.686  16.317   4.426  1.00  0.00     0.167 HD
ATOM     51  C   UNL     1       0.819  16.864   8.779  1.00  0.00     0.037 A 
ATOM     52  C   UNL     1      -0.270  16.802   1.851  1.00  0.00     0.037 A 
ATOM     53  C   UNL     1      -0.097  17.862   8.296  1.00  0.00     0.049 A 
ATOM     54  C   UNL     1      -0.992  17.757   2.762  1.00  0.00     0.074 A 
ATOM     55  C   UNL     1      -0.767  18.837   9.015  1.00  0.00     0.029 A 
ATOM     56  N   UNL     1      -0.477  18.010   6.970  1.00  0.00    -0.354 N 
ATOM     57  N   UNL     1      -0.877  17.909   4.059  1.00  0.00    -0.248 NA
ATOM     58  C   UNL     1      -1.965  18.661   2.134  1.00  0.00     0.031 C 
ATOM     59  C   UNL     1      -1.593  19.539   8.132  1.00  0.00     0.029 A 
ATOM     60  C   UNL     1      -1.393  19.042   6.854  1.00  0.00     0.049 A 
ATOM     61  H   UNL     1      -0.144  17.462   6.222  1.00  0.00     0.167 HD
ATOM     62  C   UNL     1      -1.738  18.945   4.398  1.00  0.00     0.074 A 
ATOM     63  C   UNL     1      -2.357  19.392   3.168  1.00  0.00     0.031 C 
ATOM     64  C   UNL     1      -1.994  19.478   5.618  1.00  0.00     0.037 A 
BRANCH  51  65
ATOM     65  C   UNL     1       1.078  16.781  10.256  1.00  0.00     0.057 A 
ATOM     66  C   UNL     1       2.314  17.135  10.813  1.00  0.00     0.134 A 
ATOM     67  C   UNL     1       0.069  16.371  11.136  1.00  0.00     0.134 A 
ATOM     68  F   UNL     1       3.329  17.523  10.025  1.00  0.00    -0.206 F 
ATOM     69  C   UNL     1       2.546  17.058  12.187  1.00  0.00     0.040 A 
ATOM     70  C   UNL     1       0.279  16.320  12.515  1.00  0.00     0.040 A 
ATOM     71  F   UNL     1      -1.141  16.023  10.672  1.00  0.00    -0.206 F 
ATOM     72  C   UNL     1       1.524  16.656  13.043  1.00  0.00     0.006 A 
ENDBRANCH  51  65
BRANCH  52  73
ATOM     73  C   UNL     1      -0.534  16.797   0.389  1.00  0.00     0.057 A 
ATOM     74  C   UNL     1      -0.161  17.879  -0.417  1.00  0.00     0.134 A 
ATOM     75  C   UNL     1      -1.172  15.718  -0.235  1.00  0.00     0.134 A 
ATOM     76  F   UNL     1       0.440  18.949   0.125  1.00  0.00    -0.206 F 
ATOM     77  C   UNL     1      -0.433  17.899  -1.786  1.00  0.00     0.040 A 
ATOM     78  C   UNL     1      -1.425  15.713  -1.608  1.00  0.00     0.040 A 
ATOM     79  F   UNL     1      -1.546  14.646   0.479  1.00  0.00    -0.206 F 
ATOM     80  C   UNL     1      -1.063  16.811  -2.385  1.00  0.00     0.006 A 
ENDBRANCH  52  73
BRANCH  64  81
ATOM     81  C   UNL     1      -2.956  20.629   5.677  1.00  0.00     0.057 A 
ATOM     82  C   UNL     1      -4.330  20.460   5.466  1.00  0.00     0.134 A 
ATOM     83  C   UNL     1      -2.503  21.918   5.990  1.00  0.00     0.134 A 
ATOM     84  F   UNL     1      -4.827  19.254   5.150  1.00  0.00    -0.206 F 
ATOM     85  C   UNL     1      -5.216  21.536   5.537  1.00  0.00     0.040 A 
ATOM     86  C   UNL     1      -3.384  22.995   6.095  1.00  0.00     0.040 A 
ATOM     87  F   UNL     1      -1.201  22.147   6.214  1.00  0.00    -0.206 F 
ATOM     88  C   UNL     1      -4.744  22.807   5.861  1.00  0.00     0.006 A 
ENDBRANCH  64  81
ENDBRANCH  38  39
ENDBRANCH  30  33
ENDBRANCH  28  29
ENDBRANCH  27  28
ENDBRANCH  26  27
ENDBRANCH  25  26
ENDBRANCH   1  25
TORSDOF 19
