REMARK SMILES Cc1ccc(NC(=O)N2CCCC[C@@H]2C(=O)NCCCCCCNC(=O)c2ccc(-c3c4nc(c(-c5c(F)cccc5F)c5ccc([nH]5)c(-c5c(F)cccc5F)c5nc(c(-c6c(F)cccc6F)c6ccc3[nH]6)C=C5)C=C4)cc2)cc1
REMARK SMILES IDX 20 1 19 2 18 3 17 4 15 5 16 6 14 8 9 9 10 10 11 11 13 12
REMARK SMILES IDX 12 13 7 14 6 15 8 17 5 18 1 19 2 20 3 21 82 22 4 23 81 24
REMARK SMILES IDX 21 25 22 26 23 27 24 28 25 29 26 31 27 32 28 33 80 34 29 35
REMARK SMILES IDX 79 36 30 37 31 38 32 39 73 40 33 41 78 42 72 43 74 44 34 45
REMARK SMILES IDX 77 46 71 47 70 48 35 50 61 51 44 52 60 53 45 54 48 55 59 56
REMARK SMILES IDX 75 57 46 58 47 59 58 61 76 62 49 63 36 64 37 65 42 66 38 67
REMARK SMILES IDX 39 68 41 69 43 70 40 71 62 72 63 73 68 74 64 75 65 76 67 77
REMARK SMILES IDX 69 78 66 79 50 80 51 81 56 82 52 83 53 84 55 85 57 86 54 87
REMARK H PARENT 17 7 6 16 24 30 74 49 48 60
REMARK Flexibility Score: inf
ROOT
ATOM      1  C   UNL     1      -5.444  -1.438   5.077  1.00  0.00     0.002 C 
ENDROOT
BRANCH   1   2
ATOM      2  C   UNL     1      -5.087  -2.525   4.053  1.00  0.00     0.021 C 
BRANCH   2   3
ATOM      3  C   UNL     1      -4.626  -2.005   2.689  1.00  0.00     0.116 C 
BRANCH   3   4
ATOM      4  N   UNL     1      -3.330  -1.370   2.797  1.00  0.00    -0.354 N 
ATOM      5  C   UNL     1      -2.149  -1.686   2.194  1.00  0.00     0.242 C 
ATOM      6  O   UNL     1      -1.128  -1.180   2.673  1.00  0.00    -0.273 OA
ATOM      7  H   UNL     1      -3.296  -0.590   3.397  1.00  0.00     0.163 HD
BRANCH   5   8
ATOM      8  C   UNL     1      -2.054  -2.760   1.081  1.00  0.00     0.176 C 
ATOM      9  N   UNL     1      -3.084  -2.660   0.008  1.00  0.00    -0.313 N 
ATOM     10  C   UNL     1      -3.350  -3.847  -0.801  1.00  0.00     0.122 C 
ATOM     11  C   UNL     1      -3.400  -5.145  -0.016  1.00  0.00     0.022 C 
ATOM     12  C   UNL     1      -2.052  -4.128   1.799  1.00  0.00     0.035 C 
ATOM     13  C   UNL     1      -2.152  -5.298   0.835  1.00  0.00     0.004 C 
BRANCH   9  14
ATOM     14  C   UNL     1      -3.557  -1.476  -0.534  1.00  0.00     0.322 C 
ATOM     15  N   UNL     1      -2.850  -0.323  -0.412  1.00  0.00    -0.308 N 
ATOM     16  H   UNL     1      -3.393   0.477  -0.229  1.00  0.00     0.171 HD
ATOM     17  O   UNL     1      -4.677  -1.415  -1.049  1.00  0.00    -0.248 OA
BRANCH  15  18
ATOM     18  C   UNL     1      -1.469  -0.088  -0.505  1.00  0.00     0.042 A 
ATOM     19  C   UNL     1       2.772   0.490  -0.144  1.00  0.00     0.044 C 
ATOM     20  C   UNL     1       1.298   0.354  -0.385  1.00  0.00    -0.051 A 
ATOM     21  C   UNL     1       0.791  -0.785  -1.017  1.00  0.00     0.005 A 
ATOM     22  C   UNL     1       0.406   1.312   0.107  1.00  0.00     0.005 A 
ATOM     23  C   UNL     1      -0.587  -0.990  -1.101  1.00  0.00     0.026 A 
ATOM     24  C   UNL     1      -0.973   1.102   0.028  1.00  0.00     0.026 A 
ENDBRANCH  15  18
ENDBRANCH   9  14
ENDBRANCH   5   8
ENDBRANCH   3   4
ENDBRANCH   2   3
ENDBRANCH   1   2
BRANCH   1  25
ATOM     25  C   UNL     1      -6.484  -0.397   4.632  1.00  0.00     0.002 C 
BRANCH  25  26
ATOM     26  C   UNL     1      -7.747  -0.947   3.961  1.00  0.00     0.021 C 
BRANCH  26  27
ATOM     27  C   UNL     1      -8.610  -1.814   4.868  1.00  0.00     0.116 C 
BRANCH  27  28
ATOM     28  N   UNL     1      -9.737  -1.114   5.471  1.00  0.00    -0.352 N 
ATOM     29  C   UNL     1     -10.590  -1.541   6.476  1.00  0.00     0.251 C 
ATOM     30  H   UNL     1      -9.917  -0.213   5.116  1.00  0.00     0.163 HD
ATOM     31  O   UNL     1     -11.505  -0.828   6.857  1.00  0.00    -0.269 OA
BRANCH  29  32
ATOM     32  C   UNL     1     -10.293  -2.814   7.179  1.00  0.00     0.039 A 
ATOM     33  C   UNL     1     -10.243  -2.783   8.576  1.00  0.00     0.014 A 
ATOM     34  C   UNL     1      -9.851  -3.936   6.482  1.00  0.00     0.014 A 
ATOM     35  C   UNL     1      -9.510  -3.753   9.252  1.00  0.00     0.010 A 
ATOM     36  C   UNL     1      -9.052  -4.854   7.139  1.00  0.00     0.010 A 
ATOM     37  C   UNL     1      -8.819  -4.713   8.511  1.00  0.00    -0.014 A 
BRANCH  37  38
ATOM     38  C   UNL     1      -7.721  -5.488   9.076  1.00  0.00     0.031 A 
ATOM     39  C   UNL     1      -7.904  -6.900   9.457  1.00  0.00     0.074 A 
ATOM     40  C   UNL     1      -6.512  -4.903   9.225  1.00  0.00     0.049 A 
ATOM     41  N   UNL     1      -7.241  -7.495  10.392  1.00  0.00    -0.248 NA
ATOM     42  C   UNL     1      -8.900  -7.751   8.823  1.00  0.00     0.031 C 
ATOM     43  C   UNL     1      -5.248  -5.551   9.561  1.00  0.00     0.029 A 
ATOM     44  N   UNL     1      -6.237  -3.531   9.310  1.00  0.00    -0.354 N 
ATOM     45  C   UNL     1      -7.507  -8.844  10.301  1.00  0.00     0.074 A 
ATOM     46  C   UNL     1      -8.604  -8.937   9.362  1.00  0.00     0.031 C 
ATOM     47  C   UNL     1      -4.418  -4.633  10.081  1.00  0.00     0.029 A 
ATOM     48  C   UNL     1      -5.171  -3.398  10.223  1.00  0.00     0.049 A 
ATOM     49  H   UNL     1      -6.696  -2.806   8.829  1.00  0.00     0.167 HD
ATOM     50  C   UNL     1      -6.673  -9.738  10.911  1.00  0.00     0.037 A 
ATOM     51  C   UNL     1      -5.314  -2.698  11.385  1.00  0.00     0.037 A 
ATOM     52  C   UNL     1      -5.621  -9.053  11.665  1.00  0.00     0.049 A 
ATOM     53  C   UNL     1      -5.077  -3.517  12.631  1.00  0.00     0.074 A 
ATOM     54  C   UNL     1      -4.304  -8.753  11.355  1.00  0.00     0.029 A 
ATOM     55  N   UNL     1      -5.939  -8.306  12.794  1.00  0.00    -0.354 N 
ATOM     56  N   UNL     1      -5.079  -4.821  12.655  1.00  0.00    -0.248 NA
ATOM     57  C   UNL     1      -4.872  -2.934  13.956  1.00  0.00     0.031 C 
ATOM     58  C   UNL     1      -3.846  -7.778  12.271  1.00  0.00     0.029 A 
ATOM     59  C   UNL     1      -4.878  -7.494  13.148  1.00  0.00     0.049 A 
ATOM     60  H   UNL     1      -6.798  -8.349  13.273  1.00  0.00     0.167 HD
ATOM     61  C   UNL     1      -4.932  -5.252  13.947  1.00  0.00     0.074 A 
ATOM     62  C   UNL     1      -4.777  -4.035  14.721  1.00  0.00     0.031 C 
ATOM     63  C   UNL     1      -4.973  -6.577  14.272  1.00  0.00     0.037 A 
BRANCH  50  64
ATOM     64  C   UNL     1      -6.604 -11.207  10.534  1.00  0.00     0.057 A 
ATOM     65  C   UNL     1      -5.392 -11.924  10.623  1.00  0.00     0.134 A 
ATOM     66  C   UNL     1      -7.669 -11.955  10.006  1.00  0.00     0.134 A 
ATOM     67  F   UNL     1      -4.317 -11.421  11.243  1.00  0.00    -0.206 F 
ATOM     68  C   UNL     1      -5.217 -13.205  10.083  1.00  0.00     0.040 A 
ATOM     69  C   UNL     1      -7.499 -13.216   9.413  1.00  0.00     0.040 A 
ATOM     70  F   UNL     1      -8.935 -11.530  10.095  1.00  0.00    -0.206 F 
ATOM     71  C   UNL     1      -6.260 -13.838   9.428  1.00  0.00     0.006 A 
ENDBRANCH  50  64
BRANCH  51  72
ATOM     72  C   UNL     1      -6.279  -1.573  11.289  1.00  0.00     0.057 A 
ATOM     73  C   UNL     1      -5.976  -0.491  10.444  1.00  0.00     0.134 A 
ATOM     74  C   UNL     1      -7.604  -1.701  11.712  1.00  0.00     0.134 A 
ATOM     75  F   UNL     1      -4.721  -0.313  10.001  1.00  0.00    -0.206 F 
ATOM     76  C   UNL     1      -6.966   0.364   9.957  1.00  0.00     0.040 A 
ATOM     77  C   UNL     1      -8.603  -0.843  11.238  1.00  0.00     0.040 A 
ATOM     78  F   UNL     1      -7.975  -2.721  12.499  1.00  0.00    -0.206 F 
ATOM     79  C   UNL     1      -8.292   0.168  10.330  1.00  0.00     0.006 A 
ENDBRANCH  51  72
BRANCH  63  80
ATOM     80  C   UNL     1      -5.013  -7.129  15.671  1.00  0.00     0.057 A 
ATOM     81  C   UNL     1      -5.659  -6.498  16.744  1.00  0.00     0.134 A 
ATOM     82  C   UNL     1      -4.504  -8.416  15.945  1.00  0.00     0.134 A 
ATOM     83  F   UNL     1      -6.276  -5.318  16.592  1.00  0.00    -0.206 F 
ATOM     84  C   UNL     1      -5.745  -7.081  18.015  1.00  0.00     0.040 A 
ATOM     85  C   UNL     1      -4.626  -9.028  17.196  1.00  0.00     0.040 A 
ATOM     86  F   UNL     1      -3.884  -9.140  15.002  1.00  0.00    -0.206 F 
ATOM     87  C   UNL     1      -5.236  -8.355  18.242  1.00  0.00     0.006 A 
ENDBRANCH  63  80
ENDBRANCH  37  38
ENDBRANCH  29  32
ENDBRANCH  27  28
ENDBRANCH  26  27
ENDBRANCH  25  26
ENDBRANCH   1  25
TORSDOF 15
