REMARK SMILES O=C(NCCCCCCNC(=O)[C@H]1CSCN1C(=O)c1cnc2ccccn2c1=O)c1ccc(-c2c3nc(c(-c4c(F)cccc4F)c4ccc([nH]4)c(-c4c(F)cccc4F)c4nc(c(-c5c(F)cccc5F)c5ccc2[nH]5)C=C4)C=C3)cc1
REMARK SMILES IDX 6 1 5 2 4 3 3 4 1 5 2 6 31 8 32 9 84 10 33 11 83 12 34 13
REMARK SMILES IDX 35 14 36 15 77 16 37 17 82 18 76 19 78 20 38 21 81 22 75 23
REMARK SMILES IDX 74 24 39 26 65 27 48 28 64 29 49 30 52 31 63 32 79 33 50 34
REMARK SMILES IDX 51 35 62 37 80 38 53 39 40 40 41 41 46 42 42 43 43 44 45 45
REMARK SMILES IDX 47 46 44 47 66 48 67 49 72 50 68 51 69 52 71 53 73 54 70 55
REMARK SMILES IDX 54 56 55 57 60 58 56 59 57 60 59 61 61 62 58 63 7 64 8 65
REMARK SMILES IDX 9 66 10 67 11 68 12 70 13 71 14 72 17 73 15 74 16 75 18 76
REMARK SMILES IDX 19 77 20 78 21 79 29 80 22 81 28 82 30 83 23 84 27 85 24 86
REMARK SMILES IDX 26 87 25 88
REMARK H PARENT 3 7 78 25 52 36 10 69
REMARK Flexibility Score: inf
ROOT
ATOM      1  C   UNL     1       4.109  -3.252  -2.254  1.00  0.00     0.002 C 
ENDROOT
BRANCH   1   2
ATOM      2  C   UNL     1       4.554  -2.643  -0.925  1.00  0.00     0.021 C 
BRANCH   2   3
ATOM      3  C   UNL     1       4.412  -1.128  -0.837  1.00  0.00     0.116 C 
BRANCH   3   4
ATOM      4  N   UNL     1       3.026  -0.690  -0.880  1.00  0.00    -0.352 N 
ATOM      5  O   UNL     1       1.130   0.263  -0.103  1.00  0.00    -0.269 OA
ATOM      6  C   UNL     1       2.344   0.117  -0.001  1.00  0.00     0.251 C 
ATOM      7  H   UNL     1       2.502  -1.018  -1.646  1.00  0.00     0.163 HD
BRANCH   6   8
ATOM      8  C   UNL     1       3.079   0.789   1.092  1.00  0.00     0.039 A 
ATOM      9  C   UNL     1       4.291   1.434   0.841  1.00  0.00     0.014 A 
ATOM     10  C   UNL     1       2.553   0.762   2.387  1.00  0.00     0.014 A 
ATOM     11  C   UNL     1       5.051   1.911   1.903  1.00  0.00     0.010 A 
ATOM     12  C   UNL     1       3.278   1.322   3.443  1.00  0.00     0.010 A 
ATOM     13  C   UNL     1       4.551   1.865   3.215  1.00  0.00    -0.014 A 
BRANCH  13  14
ATOM     14  C   UNL     1       5.371   2.427   4.319  1.00  0.00     0.031 A 
ATOM     15  C   UNL     1       5.908   1.550   5.417  1.00  0.00     0.074 A 
ATOM     16  C   UNL     1       5.668   3.741   4.299  1.00  0.00     0.049 A 
ATOM     17  N   UNL     1       6.688   1.871   6.420  1.00  0.00    -0.248 NA
ATOM     18  C   UNL     1       5.516   0.133   5.395  1.00  0.00     0.031 C 
ATOM     19  C   UNL     1       5.193   4.695   3.294  1.00  0.00     0.029 A 
ATOM     20  N   UNL     1       6.460   4.495   5.125  1.00  0.00    -0.354 N 
ATOM     21  C   UNL     1       6.857   0.707   7.160  1.00  0.00     0.074 A 
ATOM     22  C   UNL     1       6.082  -0.324   6.503  1.00  0.00     0.031 C 
ATOM     23  C   UNL     1       5.750   5.892   3.527  1.00  0.00     0.029 A 
ATOM     24  C   UNL     1       6.574   5.805   4.727  1.00  0.00     0.049 A 
ATOM     25  H   UNL     1       6.904   4.134   5.926  1.00  0.00     0.167 HD
ATOM     26  C   UNL     1       7.595   0.517   8.280  1.00  0.00     0.037 A 
ATOM     27  C   UNL     1       7.263   6.825   5.268  1.00  0.00     0.037 A 
ATOM     28  C   UNL     1       8.385   1.541   8.917  1.00  0.00     0.049 A 
ATOM     29  C   UNL     1       8.071   6.585   6.508  1.00  0.00     0.074 A 
ATOM     30  C   UNL     1       9.205   1.433  10.028  1.00  0.00     0.029 A 
ATOM     31  N   UNL     1       8.450   2.863   8.501  1.00  0.00    -0.354 N 
ATOM     32  N   UNL     1       8.255   5.469   7.171  1.00  0.00    -0.248 NA
ATOM     33  C   UNL     1       8.765   7.747   7.078  1.00  0.00     0.031 C 
ATOM     34  C   UNL     1       9.733   2.698  10.308  1.00  0.00     0.029 A 
ATOM     35  C   UNL     1       9.279   3.584   9.345  1.00  0.00     0.049 A 
ATOM     36  H   UNL     1       7.978   3.233   7.721  1.00  0.00     0.167 HD
ATOM     37  C   UNL     1       9.100   5.789   8.224  1.00  0.00     0.074 A 
ATOM     38  C   UNL     1       9.408   7.200   8.100  1.00  0.00     0.031 C 
ATOM     39  C   UNL     1       9.577   4.987   9.207  1.00  0.00     0.037 A 
BRANCH  26  40
ATOM     40  C   UNL     1       7.569  -0.847   8.908  1.00  0.00     0.057 A 
ATOM     41  C   UNL     1       8.222  -1.944   8.332  1.00  0.00     0.134 A 
ATOM     42  C   UNL     1       6.916  -1.054  10.130  1.00  0.00     0.134 A 
ATOM     43  F   UNL     1       8.857  -1.819   7.157  1.00  0.00    -0.206 F 
ATOM     44  C   UNL     1       8.209  -3.203   8.939  1.00  0.00     0.040 A 
ATOM     45  C   UNL     1       6.915  -2.301  10.757  1.00  0.00     0.040 A 
ATOM     46  F   UNL     1       6.276  -0.045  10.740  1.00  0.00    -0.206 F 
ATOM     47  C   UNL     1       7.559  -3.382  10.159  1.00  0.00     0.006 A 
ENDBRANCH  26  40
BRANCH  27  48
ATOM     48  C   UNL     1       7.227   8.162   4.626  1.00  0.00     0.057 A 
ATOM     49  C   UNL     1       8.354   8.685   3.983  1.00  0.00     0.134 A 
ATOM     50  C   UNL     1       6.064   8.942   4.629  1.00  0.00     0.134 A 
ATOM     51  F   UNL     1       9.502   7.990   3.962  1.00  0.00    -0.206 F 
ATOM     52  C   UNL     1       8.331   9.941   3.376  1.00  0.00     0.040 A 
ATOM     53  C   UNL     1       6.019  10.188   4.004  1.00  0.00     0.040 A 
ATOM     54  F   UNL     1       4.948   8.492   5.222  1.00  0.00    -0.206 F 
ATOM     55  C   UNL     1       7.158  10.693   3.380  1.00  0.00     0.006 A 
ENDBRANCH  27  48
BRANCH  39  56
ATOM     56  C   UNL     1      10.507   5.615  10.202  1.00  0.00     0.057 A 
ATOM     57  C   UNL     1      10.049   6.505  11.181  1.00  0.00     0.134 A 
ATOM     58  C   UNL     1      11.875   5.316  10.185  1.00  0.00     0.134 A 
ATOM     59  F   UNL     1       8.753   6.845  11.239  1.00  0.00    -0.206 F 
ATOM     60  C   UNL     1      10.925   7.098  12.093  1.00  0.00     0.040 A 
ATOM     61  C   UNL     1      12.756   5.882  11.107  1.00  0.00     0.040 A 
ATOM     62  F   UNL     1      12.376   4.465   9.277  1.00  0.00    -0.206 F 
ATOM     63  C   UNL     1      12.282   6.782  12.060  1.00  0.00     0.006 A 
ENDBRANCH  39  56
ENDBRANCH  13  14
ENDBRANCH   6   8
ENDBRANCH   3   4
ENDBRANCH   2   3
ENDBRANCH   1   2
BRANCH   1  64
ATOM     64  C   UNL     1       4.793  -2.676  -3.499  1.00  0.00     0.002 C 
BRANCH  64  65
ATOM     65  C   UNL     1       6.325  -2.657  -3.457  1.00  0.00     0.021 C 
BRANCH  65  66
ATOM     66  C   UNL     1       6.973  -4.029  -3.275  1.00  0.00     0.116 C 
BRANCH  66  67
ATOM     67  N   UNL     1       6.774  -4.850  -4.453  1.00  0.00    -0.354 N 
ATOM     68  C   UNL     1       7.682  -5.431  -5.288  1.00  0.00     0.243 C 
ATOM     69  H   UNL     1       5.832  -5.014  -4.688  1.00  0.00     0.163 HD
ATOM     70  O   UNL     1       7.270  -5.817  -6.387  1.00  0.00    -0.273 OA
BRANCH  68  71
ATOM     71  C   UNL     1       9.194  -5.424  -4.981  1.00  0.00     0.185 C 
ATOM     72  C   UNL     1       9.746  -4.062  -5.396  1.00  0.00     0.106 C 
ATOM     73  N   UNL     1       9.555  -5.718  -3.589  1.00  0.00    -0.316 N 
ATOM     74  S   UNL     1      11.054  -3.634  -4.227  1.00  0.00    -0.138 SA
ATOM     75  C   UNL     1      10.681  -4.965  -3.080  1.00  0.00     0.190 C 
BRANCH  73  76
ATOM     76  C   UNL     1       9.121  -6.913  -3.039  1.00  0.00     0.262 C 
ATOM     77  O   UNL     1       8.445  -7.720  -3.677  1.00  0.00    -0.269 OA
BRANCH  76  78
ATOM     78  C   UNL     1       9.514  -7.247  -1.653  1.00  0.00     0.124 A 
ATOM     79  C   UNL     1      10.076  -8.442  -1.440  1.00  0.00     0.133 A 
ATOM     80  C   UNL     1       9.236  -6.398  -0.477  1.00  0.00     0.270 A 
ATOM     81  N   UNL     1      10.488  -8.915  -0.226  1.00  0.00    -0.237 NA
ATOM     82  N   UNL     1       9.701  -6.891   0.741  1.00  0.00    -0.267 N 
ATOM     83  O   UNL     1       8.635  -5.331  -0.611  1.00  0.00    -0.268 OA
ATOM     84  C   UNL     1      10.299  -8.147   0.803  1.00  0.00     0.139 A 
ATOM     85  C   UNL     1       9.548  -6.119   1.889  1.00  0.00     0.096 A 
ATOM     86  C   UNL     1      10.747  -8.620   2.142  1.00  0.00     0.048 A 
ATOM     87  C   UNL     1       9.968  -6.544   3.087  1.00  0.00     0.019 A 
ATOM     88  C   UNL     1      10.584  -7.838   3.215  1.00  0.00     0.005 A 
ENDBRANCH  76  78
ENDBRANCH  73  76
ENDBRANCH  68  71
ENDBRANCH  66  67
ENDBRANCH  65  66
ENDBRANCH  64  65
ENDBRANCH   1  64
TORSDOF 15
