REMARK SMILES Cc1ccccc1CSCC(=O)Nc1ccc(C)c(C(=O)NCCCCCCNC(=O)c2ccc(-c3c4nc(c(-c5c(F)cccc5F)c5ccc([nH]5)c(-c5c(F)cccc5F)c5nc(c(-c6c(F)cccc6F)c6ccc3[nH]6)C=C5)C=C4)cc2)c1
REMARK SMILES IDX 24 1 23 2 22 3 20 4 21 5 19 7 14 8 15 9 86 10 16 11 17 12
REMARK SMILES IDX 18 13 13 14 11 15 12 16 10 18 9 19 8 20 7 21 1 22 2 23 3 24
REMARK SMILES IDX 4 25 6 26 5 27 25 28 26 29 27 30 28 31 29 32 30 33 31 35
REMARK SMILES IDX 32 36 33 37 85 38 34 39 84 40 35 41 36 42 37 43 78 44 38 45
REMARK SMILES IDX 83 46 77 47 79 48 39 49 82 50 76 51 75 52 40 54 66 55 49 56
REMARK SMILES IDX 65 57 50 58 53 59 64 60 80 61 51 62 52 63 63 65 81 66 54 67
REMARK SMILES IDX 41 68 42 69 47 70 43 71 44 72 46 73 48 74 45 75 67 76 68 77
REMARK SMILES IDX 73 78 69 79 70 80 72 81 74 82 71 83 55 84 56 85 61 86 57 87
REMARK SMILES IDX 58 88 60 89 62 90 59 91
REMARK H PARENT 22 6 13 17 29 34 79 53 53 64
REMARK Flexibility Score: inf
ROOT
ATOM      1  C   UNL     1       3.420  11.473  -3.558  1.00  0.00     0.021 C 
ENDROOT
BRANCH   1   2
ATOM      2  C   UNL     1       2.791  10.100  -3.756  1.00  0.00     0.116 C 
BRANCH   2   3
ATOM      3  N   UNL     1       3.343   9.235  -4.766  1.00  0.00    -0.352 N 
ATOM      4  C   UNL     1       3.253   7.861  -4.887  1.00  0.00     0.251 C 
ATOM      5  O   UNL     1       3.664   7.357  -5.934  1.00  0.00    -0.269 OA
ATOM      6  H   UNL     1       3.859   9.687  -5.472  1.00  0.00     0.163 HD
BRANCH   4   7
ATOM      7  C   UNL     1       2.800   6.949  -3.780  1.00  0.00     0.044 A 
ATOM      8  C   UNL     1       3.120   4.757  -2.766  1.00  0.00     0.042 A 
ATOM      9  C   UNL     1       2.403   5.171  -1.658  1.00  0.00     0.026 A 
ATOM     10  C   UNL     1       3.443   5.688  -3.749  1.00  0.00     0.040 A 
ATOM     11  C   UNL     1       1.703   6.364  -1.703  1.00  0.00     0.006 A 
ATOM     12  C   UNL     1       1.780   7.183  -2.837  1.00  0.00    -0.038 A 
ATOM     13  C   UNL     1       0.648   8.155  -2.994  1.00  0.00     0.045 C 
BRANCH   8  14
ATOM     14  N   UNL     1       3.533   3.428  -2.873  1.00  0.00    -0.325 N 
ATOM     15  C   UNL     1       2.763   2.298  -2.704  1.00  0.00     0.234 C 
ATOM     16  O   UNL     1       3.346   1.223  -2.526  1.00  0.00    -0.274 OA
ATOM     17  H   UNL     1       4.481   3.281  -3.096  1.00  0.00     0.169 HD
BRANCH  15  18
ATOM     18  C   UNL     1       1.257   2.319  -2.986  1.00  0.00     0.170 C 
BRANCH  18  19
ATOM     19  S   UNL     1       0.131   3.021  -1.755  1.00  0.00    -0.147 SA
BRANCH  19  20
ATOM     20  C   UNL     1       0.699   2.212  -0.225  1.00  0.00     0.105 C 
BRANCH  20  21
ATOM     21  C   UNL     1       0.108   0.839  -0.038  1.00  0.00    -0.035 A 
ATOM     22  C   UNL     1       2.381  -0.380   0.008  1.00  0.00     0.044 C 
ATOM     23  C   UNL     1       0.877  -0.338   0.050  1.00  0.00    -0.047 A 
ATOM     24  C   UNL     1       0.214  -1.574   0.163  1.00  0.00     0.004 A 
ATOM     25  C   UNL     1      -1.176  -1.650   0.235  1.00  0.00     0.000 A 
ATOM     26  C   UNL     1      -1.297   0.742   0.072  1.00  0.00     0.005 A 
ATOM     27  C   UNL     1      -1.933  -0.489   0.204  1.00  0.00     0.000 A 
ENDBRANCH  20  21
ENDBRANCH  19  20
ENDBRANCH  18  19
ENDBRANCH  15  18
ENDBRANCH   8  14
ENDBRANCH   4   7
ENDBRANCH   2   3
ENDBRANCH   1   2
BRANCH   1  28
ATOM     28  C   UNL     1       3.418  12.480  -4.712  1.00  0.00     0.002 C 
BRANCH  28  29
ATOM     29  C   UNL     1       2.171  12.645  -5.590  1.00  0.00     0.002 C 
BRANCH  29  30
ATOM     30  C   UNL     1       0.807  12.776  -4.917  1.00  0.00     0.021 C 
BRANCH  30  31
ATOM     31  C   UNL     1       0.614  13.972  -3.998  1.00  0.00     0.116 C 
BRANCH  31  32
ATOM     32  N   UNL     1       0.196  15.197  -4.666  1.00  0.00    -0.352 N 
ATOM     33  C   UNL     1      -0.104  16.442  -4.134  1.00  0.00     0.251 C 
ATOM     34  H   UNL     1       0.115  15.131  -5.645  1.00  0.00     0.163 HD
ATOM     35  O   UNL     1      -0.486  17.341  -4.868  1.00  0.00    -0.269 OA
BRANCH  33  36
ATOM     36  C   UNL     1       0.192  16.734  -2.705  1.00  0.00     0.039 A 
ATOM     37  C   UNL     1       0.806  17.960  -2.411  1.00  0.00     0.014 A 
ATOM     38  C   UNL     1       0.111  15.751  -1.727  1.00  0.00     0.014 A 
ATOM     39  C   UNL     1       1.592  18.074  -1.269  1.00  0.00     0.010 A 
ATOM     40  C   UNL     1       0.980  15.812  -0.660  1.00  0.00     0.010 A 
ATOM     41  C   UNL     1       1.783  16.943  -0.484  1.00  0.00    -0.014 A 
BRANCH  41  42
ATOM     42  C   UNL     1       2.885  16.781   0.453  1.00  0.00     0.031 A 
ATOM     43  C   UNL     1       2.626  16.735   1.903  1.00  0.00     0.074 A 
ATOM     44  C   UNL     1       4.106  16.482  -0.042  1.00  0.00     0.049 A 
ATOM     45  N   UNL     1       3.537  16.806   2.812  1.00  0.00    -0.248 NA
ATOM     46  C   UNL     1       1.278  16.663   2.450  1.00  0.00     0.031 C 
ATOM     47  C   UNL     1       5.237  15.893   0.668  1.00  0.00     0.029 A 
ATOM     48  N   UNL     1       4.634  16.859  -1.286  1.00  0.00    -0.354 N 
ATOM     49  C   UNL     1       2.953  16.498   4.021  1.00  0.00     0.074 A 
ATOM     50  C   UNL     1       1.536  16.522   3.752  1.00  0.00     0.031 C 
ATOM     51  C   UNL     1       6.366  16.181   0.001  1.00  0.00     0.029 A 
ATOM     52  C   UNL     1       6.005  17.108  -1.058  1.00  0.00     0.049 A 
ATOM     53  H   UNL     1       4.149  16.934  -2.139  1.00  0.00     0.167 HD
ATOM     54  C   UNL     1       3.761  16.123   5.056  1.00  0.00     0.037 A 
ATOM     55  C   UNL     1       6.529  18.361  -1.194  1.00  0.00     0.037 A 
ATOM     56  C   UNL     1       5.169  16.367   4.718  1.00  0.00     0.049 A 
ATOM     57  C   UNL     1       7.161  18.900   0.068  1.00  0.00     0.074 A 
ATOM     58  C   UNL     1       6.198  15.542   4.292  1.00  0.00     0.029 A 
ATOM     59  N   UNL     1       5.601  17.673   4.503  1.00  0.00    -0.354 N 
ATOM     60  N   UNL     1       6.880  18.467   1.266  1.00  0.00    -0.248 NA
ATOM     61  C   UNL     1       8.152  19.972   0.079  1.00  0.00     0.031 C 
ATOM     62  C   UNL     1       7.225  16.361   3.756  1.00  0.00     0.029 A 
ATOM     63  C   UNL     1       6.833  17.683   3.879  1.00  0.00     0.049 A 
ATOM     64  H   UNL     1       5.098  18.479   4.761  1.00  0.00     0.167 HD
ATOM     65  C   UNL     1       7.609  19.171   2.191  1.00  0.00     0.074 A 
ATOM     66  C   UNL     1       8.403  20.089   1.395  1.00  0.00     0.031 C 
ATOM     67  C   UNL     1       7.487  18.938   3.533  1.00  0.00     0.037 A 
BRANCH  54  68
ATOM     68  C   UNL     1       3.324  15.277   6.243  1.00  0.00     0.057 A 
ATOM     69  C   UNL     1       4.274  14.540   6.984  1.00  0.00     0.134 A 
ATOM     70  C   UNL     1       1.999  15.058   6.663  1.00  0.00     0.134 A 
ATOM     71  F   UNL     1       5.591  14.691   6.791  1.00  0.00    -0.206 F 
ATOM     72  C   UNL     1       3.928  13.598   7.967  1.00  0.00     0.040 A 
ATOM     73  C   UNL     1       1.634  14.100   7.622  1.00  0.00     0.040 A 
ATOM     74  F   UNL     1       0.976  15.788   6.217  1.00  0.00    -0.206 F 
ATOM     75  C   UNL     1       2.600  13.351   8.269  1.00  0.00     0.006 A 
ENDBRANCH  54  68
BRANCH  55  76
ATOM     76  C   UNL     1       5.829  19.180  -2.219  1.00  0.00     0.057 A 
ATOM     77  C   UNL     1       5.899  18.772  -3.563  1.00  0.00     0.134 A 
ATOM     78  C   UNL     1       4.808  20.071  -1.877  1.00  0.00     0.134 A 
ATOM     79  F   UNL     1       6.857  17.917  -3.958  1.00  0.00    -0.206 F 
ATOM     80  C   UNL     1       4.926  19.136  -4.498  1.00  0.00     0.040 A 
ATOM     81  C   UNL     1       3.835  20.454  -2.810  1.00  0.00     0.040 A 
ATOM     82  F   UNL     1       4.660  20.488  -0.611  1.00  0.00    -0.206 F 
ATOM     83  C   UNL     1       3.869  19.953  -4.111  1.00  0.00     0.006 A 
ENDBRANCH  55  76
BRANCH  67  84
ATOM     84  C   UNL     1       8.036  19.804   4.646  1.00  0.00     0.057 A 
ATOM     85  C   UNL     1       8.300  21.177   4.531  1.00  0.00     0.134 A 
ATOM     86  C   UNL     1       8.175  19.284   5.955  1.00  0.00     0.134 A 
ATOM     87  F   UNL     1       8.100  21.839   3.384  1.00  0.00    -0.206 F 
ATOM     88  C   UNL     1       8.728  21.958   5.615  1.00  0.00     0.040 A 
ATOM     89  C   UNL     1       8.544  20.065   7.054  1.00  0.00     0.040 A 
ATOM     90  F   UNL     1       7.930  17.995   6.234  1.00  0.00    -0.206 F 
ATOM     91  C   UNL     1       8.839  21.407   6.884  1.00  0.00     0.006 A 
ENDBRANCH  67  84
ENDBRANCH  41  42
ENDBRANCH  33  36
ENDBRANCH  31  32
ENDBRANCH  30  31
ENDBRANCH  29  30
ENDBRANCH  28  29
ENDBRANCH   1  28
TORSDOF 18
