REMARK SMILES COc1cc(NC(=O)c2ccc([N+](=O)[O-])cc2)c(C(=O)NCCCCCCNC(=O)c2ccc(-c3c4nc(c(-c5c(F)cccc5F)c5ccc([nH]5)c(-c5c(F)cccc5F)c5nc(c(-c6c(F)cccc6F)c6ccc3[nH]6)C=C5)C=C4)cc2)cc1OC
REMARK SMILES IDX 24 1 23 2 22 3 21 4 19 5 20 6 18 8 3 9 4 10 86 11 5 12 85 13
REMARK SMILES IDX 2 14 1 15 87 16 88 17 6 18 7 19 8 21 9 22 10 23 17 24 11 25
REMARK SMILES IDX 16 26 12 27 13 28 14 29 15 30 25 31 26 32 27 33 28 34 29 35
REMARK SMILES IDX 30 37 31 38 32 39 84 40 33 41 83 42 34 43 35 44 36 45 77 46
REMARK SMILES IDX 37 47 82 48 76 49 78 50 38 51 81 52 75 53 74 54 39 56 65 57
REMARK SMILES IDX 48 58 64 59 49 60 52 61 63 62 79 63 50 64 51 65 62 67 80 68
REMARK SMILES IDX 53 69 40 70 41 71 46 72 42 73 43 74 45 75 47 76 44 77 66 78
REMARK SMILES IDX 67 79 72 80 68 81 69 82 71 83 73 84 70 85 54 86 55 87 60 88
REMARK SMILES IDX 56 89 57 90 59 91 61 92 58 93
REMARK H PARENT 21 7 6 20 28 36 78 55 52 66
REMARK Flexibility Score: inf
ROOT
ATOM      1  C   UNL     1       5.962  -6.733   3.518  1.00  0.00     0.002 C 
ENDROOT
BRANCH   1   2
ATOM      2  C   UNL     1       5.261  -5.493   2.950  1.00  0.00     0.021 C 
BRANCH   2   3
ATOM      3  C   UNL     1       4.111  -5.848   2.002  1.00  0.00     0.116 C 
BRANCH   3   4
ATOM      4  N   UNL     1       2.914  -6.112   2.773  1.00  0.00    -0.352 N 
ATOM      5  C   UNL     1       1.869  -5.332   3.189  1.00  0.00     0.253 C 
ATOM      6  O   UNL     1       1.056  -5.883   3.936  1.00  0.00    -0.269 OA
ATOM      7  H   UNL     1       2.836  -7.051   3.058  1.00  0.00     0.163 HD
BRANCH   5   8
ATOM      8  C   UNL     1       1.628  -3.912   2.756  1.00  0.00     0.067 A 
ATOM      9  C   UNL     1       1.161  -1.316   1.760  1.00  0.00     0.162 A 
ATOM     10  C   UNL     1       0.145  -2.034   2.408  1.00  0.00     0.077 A 
ATOM     11  C   UNL     1       2.442  -1.844   1.701  1.00  0.00     0.161 A 
ATOM     12  C   UNL     1       0.331  -3.347   2.872  1.00  0.00     0.058 A 
ATOM     13  C   UNL     1       2.664  -3.107   2.257  1.00  0.00     0.066 A 
BRANCH   9  14
ATOM     14  O   UNL     1       0.889  -0.040   1.348  1.00  0.00    -0.493 OA
ATOM     15  C   UNL     1       0.159  -0.018   0.118  1.00  0.00     0.278 C 
ENDBRANCH   9  14
BRANCH  11  16
ATOM     16  O   UNL     1       3.576  -1.263   1.207  1.00  0.00    -0.493 OA
ATOM     17  C   UNL     1       3.426  -0.307   0.165  1.00  0.00     0.278 C 
ENDBRANCH  11  16
BRANCH  12  18
ATOM     18  N   UNL     1      -0.698  -4.104   3.504  1.00  0.00    -0.321 N 
ATOM     19  C   UNL     1      -2.037  -3.917   3.752  1.00  0.00     0.255 C 
ATOM     20  H   UNL     1      -0.371  -4.967   3.846  1.00  0.00     0.170 HD
ATOM     21  O   UNL     1      -2.665  -4.672   4.490  1.00  0.00    -0.269 OA
BRANCH  19  22
ATOM     22  C   UNL     1      -2.767  -2.811   3.130  1.00  0.00     0.040 A 
ATOM     23  C   UNL     1      -3.226  -1.771   3.947  1.00  0.00     0.021 A 
ATOM     24  C   UNL     1      -2.893  -2.757   1.737  1.00  0.00     0.021 A 
ATOM     25  C   UNL     1      -3.705  -0.602   3.357  1.00  0.00     0.086 A 
ATOM     26  C   UNL     1      -3.364  -1.587   1.144  1.00  0.00     0.086 A 
ATOM     27  C   UNL     1      -3.731  -0.501   1.957  1.00  0.00     0.269 A 
BRANCH  27  28
ATOM     28  N   UNL     1      -4.060   0.784   1.333  1.00  0.00     0.062 N 
ATOM     29  O   UNL     1      -4.566   1.660   2.047  1.00  0.00    -0.258 OA
ATOM     30  O   UNL     1      -3.777   0.924   0.134  1.00  0.00    -0.258 OA
ENDBRANCH  27  28
ENDBRANCH  19  22
ENDBRANCH  12  18
ENDBRANCH   5   8
ENDBRANCH   3   4
ENDBRANCH   2   3
ENDBRANCH   1   2
BRANCH   1  31
ATOM     31  C   UNL     1       6.636  -7.617   2.461  1.00  0.00     0.002 C 
BRANCH  31  32
ATOM     32  C   UNL     1       7.626  -6.879   1.559  1.00  0.00     0.021 C 
BRANCH  32  33
ATOM     33  C   UNL     1       8.819  -6.305   2.312  1.00  0.00     0.116 C 
BRANCH  33  34
ATOM     34  N   UNL     1       9.656  -7.364   2.858  1.00  0.00    -0.352 N 
ATOM     35  C   UNL     1      10.984  -7.609   2.623  1.00  0.00     0.251 C 
ATOM     36  H   UNL     1       9.210  -7.985   3.478  1.00  0.00     0.163 HD
ATOM     37  O   UNL     1      11.493  -8.680   2.943  1.00  0.00    -0.269 OA
BRANCH  35  38
ATOM     38  C   UNL     1      11.794  -6.566   1.969  1.00  0.00     0.039 A 
ATOM     39  C   UNL     1      12.637  -6.909   0.911  1.00  0.00     0.014 A 
ATOM     40  C   UNL     1      11.695  -5.240   2.402  1.00  0.00     0.014 A 
ATOM     41  C   UNL     1      13.348  -5.907   0.248  1.00  0.00     0.010 A 
ATOM     42  C   UNL     1      12.338  -4.238   1.691  1.00  0.00     0.010 A 
ATOM     43  C   UNL     1      13.181  -4.562   0.616  1.00  0.00    -0.014 A 
BRANCH  43  44
ATOM     44  C   UNL     1      13.905  -3.463  -0.068  1.00  0.00     0.031 A 
ATOM     45  C   UNL     1      14.871  -2.621   0.716  1.00  0.00     0.074 A 
ATOM     46  C   UNL     1      13.623  -3.164  -1.350  1.00  0.00     0.049 A 
ATOM     47  N   UNL     1      15.482  -1.518   0.367  1.00  0.00    -0.248 NA
ATOM     48  C   UNL     1      15.159  -3.059   2.092  1.00  0.00     0.031 C 
ATOM     49  C   UNL     1      12.685  -3.891  -2.206  1.00  0.00     0.029 A 
ATOM     50  N   UNL     1      14.086  -2.149  -2.150  1.00  0.00    -0.354 N 
ATOM     51  C   UNL     1      16.203  -1.120   1.486  1.00  0.00     0.074 A 
ATOM     52  C   UNL     1      15.909  -2.065   2.540  1.00  0.00     0.031 C 
ATOM     53  C   UNL     1      12.649  -3.305  -3.414  1.00  0.00     0.029 A 
ATOM     54  C   UNL     1      13.521  -2.135  -3.402  1.00  0.00     0.049 A 
ATOM     55  H   UNL     1      14.758  -1.494  -1.854  1.00  0.00     0.167 HD
ATOM     56  C   UNL     1      17.049  -0.071   1.617  1.00  0.00     0.037 A 
ATOM     57  C   UNL     1      13.675  -1.263  -4.417  1.00  0.00     0.037 A 
ATOM     58  C   UNL     1      17.353   0.850   0.555  1.00  0.00     0.049 A 
ATOM     59  C   UNL     1      14.604  -0.092  -4.242  1.00  0.00     0.074 A 
ATOM     60  C   UNL     1      18.234   1.917   0.566  1.00  0.00     0.029 A 
ATOM     61  N   UNL     1      16.781   0.814  -0.709  1.00  0.00    -0.354 N 
ATOM     62  N   UNL     1      15.317   0.249  -3.196  1.00  0.00    -0.248 NA
ATOM     63  C   UNL     1      14.752   0.815  -5.390  1.00  0.00     0.031 C 
ATOM     64  C   UNL     1      18.156   2.558  -0.674  1.00  0.00     0.029 A 
ATOM     65  C   UNL     1      17.276   1.852  -1.479  1.00  0.00     0.049 A 
ATOM     66  H   UNL     1      16.122   0.149  -1.012  1.00  0.00     0.167 HD
ATOM     67  C   UNL     1      16.030   1.381  -3.573  1.00  0.00     0.074 A 
ATOM     68  C   UNL     1      15.662   1.669  -4.943  1.00  0.00     0.031 C 
ATOM     69  C   UNL     1      16.916   2.110  -2.851  1.00  0.00     0.037 A 
BRANCH  56  70
ATOM     70  C   UNL     1      17.694   0.136   2.957  1.00  0.00     0.057 A 
ATOM     71  C   UNL     1      18.644  -0.758   3.470  1.00  0.00     0.134 A 
ATOM     72  C   UNL     1      17.375   1.254   3.737  1.00  0.00     0.134 A 
ATOM     73  F   UNL     1      18.987  -1.856   2.780  1.00  0.00    -0.206 F 
ATOM     74  C   UNL     1      19.227  -0.566   4.724  1.00  0.00     0.040 A 
ATOM     75  C   UNL     1      17.976   1.475   4.978  1.00  0.00     0.040 A 
ATOM     76  F   UNL     1      16.479   2.154   3.305  1.00  0.00    -0.206 F 
ATOM     77  C   UNL     1      18.897   0.558   5.478  1.00  0.00     0.006 A 
ENDBRANCH  56  70
BRANCH  57  78
ATOM     78  C   UNL     1      12.946  -1.473  -5.694  1.00  0.00     0.057 A 
ATOM     79  C   UNL     1      13.629  -1.830  -6.862  1.00  0.00     0.134 A 
ATOM     80  C   UNL     1      11.557  -1.319  -5.780  1.00  0.00     0.134 A 
ATOM     81  F   UNL     1      14.962  -1.977  -6.847  1.00  0.00    -0.206 F 
ATOM     82  C   UNL     1      12.961  -2.007  -8.075  1.00  0.00     0.040 A 
ATOM     83  C   UNL     1      10.873  -1.519  -6.981  1.00  0.00     0.040 A 
ATOM     84  F   UNL     1      10.842  -0.987  -4.695  1.00  0.00    -0.206 F 
ATOM     85  C   UNL     1      11.577  -1.856  -8.135  1.00  0.00     0.006 A 
ENDBRANCH  57  78
BRANCH  69  86
ATOM     86  C   UNL     1      17.605   3.252  -3.541  1.00  0.00     0.057 A 
ATOM     87  C   UNL     1      16.942   4.444  -3.855  1.00  0.00     0.134 A 
ATOM     88  C   UNL     1      18.975   3.177  -3.827  1.00  0.00     0.134 A 
ATOM     89  F   UNL     1      15.629   4.575  -3.618  1.00  0.00    -0.206 F 
ATOM     90  C   UNL     1      17.616   5.517  -4.441  1.00  0.00     0.040 A 
ATOM     91  C   UNL     1      19.665   4.253  -4.385  1.00  0.00     0.040 A 
ATOM     92  F   UNL     1      19.671   2.066  -3.542  1.00  0.00    -0.206 F 
ATOM     93  C   UNL     1      18.983   5.427  -4.698  1.00  0.00     0.006 A 
ENDBRANCH  69  86
ENDBRANCH  43  44
ENDBRANCH  35  38
ENDBRANCH  33  34
ENDBRANCH  32  33
ENDBRANCH  31  32
ENDBRANCH   1  31
TORSDOF 18
