REMARK SMILES Cc1ccc(C(=O)C[C@@H](C(=O)NCCCCCCNC(=O)c2ccc(-c3c4nc(c(-c5c(F)cccc5F)c5ccc([nH]5)c(-c5c(F)cccc5F)c5nc(c(-c6c(F)cccc6F)c6ccc3[nH]6)C=C5)C=C4)cc2)[NH+]2CC[NH+](Cc3ccccc3)CC2)cc1
REMARK SMILES IDX 15 1 14 2 13 3 12 4 10 5 11 6 9 8 8 9 6 10 7 11 5 12 1 13
REMARK SMILES IDX 2 14 3 15 90 16 4 17 89 18 76 19 77 20 88 21 78 23 87 24
REMARK SMILES IDX 79 25 80 27 81 28 82 29 86 30 83 31 85 32 84 33 16 34 17 35
REMARK SMILES IDX 18 36 19 37 20 38 21 40 22 41 23 42 75 43 24 44 74 45 25 46
REMARK SMILES IDX 26 47 27 48 68 49 28 50 73 51 67 52 69 53 29 54 72 55 66 56
REMARK SMILES IDX 65 57 30 59 56 60 39 61 55 62 40 63 43 64 54 65 70 66 41 67
REMARK SMILES IDX 42 68 53 70 71 71 44 72 31 73 32 74 37 75 33 76 34 77 36 78
REMARK SMILES IDX 38 79 35 80 57 81 58 82 63 83 59 84 60 85 62 86 64 87 61 88
REMARK SMILES IDX 45 89 46 90 51 91 47 92 48 93 50 94 52 95 49 96
REMARK H PARENT 12 7 76 22 79 26 19 39 69 58 43 69
REMARK Flexibility Score: inf
ROOT
ATOM      1  C   UNL     1       0.359  -1.031   1.854  1.00  0.00     0.002 C 
ENDROOT
BRANCH   1   2
ATOM      2  C   UNL     1      -1.173  -0.931   1.889  1.00  0.00     0.021 C 
BRANCH   2   3
ATOM      3  C   UNL     1      -1.694   0.151   2.830  1.00  0.00     0.116 C 
BRANCH   3   4
ATOM      4  N   UNL     1      -1.323   1.463   2.341  1.00  0.00    -0.351 N 
ATOM      5  C   UNL     1      -1.891   2.199   1.343  1.00  0.00     0.278 C 
ATOM      6  O   UNL     1      -1.210   3.113   0.867  1.00  0.00    -0.268 OA
ATOM      7  H   UNL     1      -0.554   1.881   2.791  1.00  0.00     0.163 HD
BRANCH   5   8
ATOM      8  C   UNL     1      -3.367   1.962   0.919  1.00  0.00     0.282 C 
BRANCH   8   9
ATOM      9  C   UNL     1      -3.547   2.048  -0.610  1.00  0.00     0.156 C 
BRANCH   9  10
ATOM     10  C   UNL     1      -3.038   0.785  -1.294  1.00  0.00     0.169 C 
ATOM     11  O   UNL     1      -3.775  -0.190  -1.446  1.00  0.00    -0.294 OA
BRANCH  10  12
ATOM     12  C   UNL     1      -1.593   0.659  -1.650  1.00  0.00     0.018 A 
ATOM     13  C   UNL     1       2.655   0.112  -1.427  1.00  0.00     0.044 C 
ATOM     14  C   UNL     1       1.184   0.301  -1.634  1.00  0.00    -0.051 A 
ATOM     15  C   UNL     1       0.335  -0.804  -1.754  1.00  0.00     0.004 A 
ATOM     16  C   UNL     1       0.638   1.585  -1.678  1.00  0.00     0.004 A 
ATOM     17  C   UNL     1      -1.049  -0.627  -1.768  1.00  0.00     0.012 A 
ATOM     18  C   UNL     1      -0.744   1.764  -1.704  1.00  0.00     0.012 A 
ENDBRANCH  10  12
ENDBRANCH   9  10
ENDBRANCH   8   9
BRANCH   8  19
ATOM     19  N   UNL     1      -4.245   2.976   1.584  1.00  0.00    -0.315 N 
ATOM     20  C   UNL     1      -4.770   2.519   2.878  1.00  0.00     0.325 C 
ATOM     21  C   UNL     1      -3.709   4.349   1.632  1.00  0.00     0.325 C 
ATOM     22  H   UNL     1      -5.043   3.053   0.953  1.00  0.00     0.349 HD
ATOM     23  C   UNL     1      -5.052   3.619   3.922  1.00  0.00     0.324 C 
ATOM     24  C   UNL     1      -4.601   5.409   2.331  1.00  0.00     0.324 C 
ATOM     25  N   UNL     1      -5.467   4.913   3.396  1.00  0.00    -0.322 N 
ATOM     26  H   UNL     1      -5.302   5.552   4.174  1.00  0.00     0.348 HD
BRANCH  25  27
ATOM     27  C   UNL     1      -6.901   5.121   3.214  1.00  0.00     0.299 C 
BRANCH  27  28
ATOM     28  C   UNL     1      -7.679   4.314   2.191  1.00  0.00     0.006 A 
ATOM     29  C   UNL     1      -8.982   3.897   2.513  1.00  0.00     0.009 A 
ATOM     30  C   UNL     1      -7.231   4.071   0.885  1.00  0.00     0.009 A 
ATOM     31  C   UNL     1      -9.784   3.234   1.579  1.00  0.00     0.001 A 
ATOM     32  C   UNL     1      -8.019   3.386  -0.043  1.00  0.00     0.001 A 
ATOM     33  C   UNL     1      -9.297   2.970   0.303  1.00  0.00     0.000 A 
ENDBRANCH  27  28
ENDBRANCH  25  27
ENDBRANCH   8  19
ENDBRANCH   5   8
ENDBRANCH   3   4
ENDBRANCH   2   3
ENDBRANCH   1   2
BRANCH   1  34
ATOM     34  C   UNL     1       0.994  -1.755   3.047  1.00  0.00     0.002 C 
BRANCH  34  35
ATOM     35  C   UNL     1       0.519  -3.194   3.264  1.00  0.00     0.021 C 
BRANCH  35  36
ATOM     36  C   UNL     1       0.797  -4.135   2.098  1.00  0.00     0.116 C 
BRANCH  36  37
ATOM     37  N   UNL     1       2.137  -4.698   2.102  1.00  0.00    -0.352 N 
ATOM     38  C   UNL     1       2.756  -5.558   1.225  1.00  0.00     0.251 C 
ATOM     39  H   UNL     1       2.697  -4.415   2.861  1.00  0.00     0.163 HD
ATOM     40  O   UNL     1       3.873  -5.983   1.527  1.00  0.00    -0.269 OA
BRANCH  38  41
ATOM     41  C   UNL     1       2.193  -5.887  -0.117  1.00  0.00     0.039 A 
ATOM     42  C   UNL     1       3.098  -6.280  -1.120  1.00  0.00     0.014 A 
ATOM     43  C   UNL     1       0.858  -5.692  -0.463  1.00  0.00     0.014 A 
ATOM     44  C   UNL     1       2.720  -6.257  -2.463  1.00  0.00     0.010 A 
ATOM     45  C   UNL     1       0.494  -5.601  -1.793  1.00  0.00     0.010 A 
ATOM     46  C   UNL     1       1.442  -5.815  -2.791  1.00  0.00    -0.014 A 
BRANCH  46  47
ATOM     47  C   UNL     1       1.050  -5.394  -4.127  1.00  0.00     0.031 A 
ATOM     48  C   UNL     1       0.249  -6.252  -5.012  1.00  0.00     0.074 A 
ATOM     49  C   UNL     1       1.329  -4.129  -4.508  1.00  0.00     0.049 A 
ATOM     50  N   UNL     1       0.260  -6.146  -6.299  1.00  0.00    -0.248 NA
ATOM     51  C   UNL     1      -0.623  -7.312  -4.516  1.00  0.00     0.031 C 
ATOM     52  C   UNL     1       0.779  -3.397  -5.644  1.00  0.00     0.029 A 
ATOM     53  N   UNL     1       2.354  -3.308  -4.025  1.00  0.00    -0.354 N 
ATOM     54  C   UNL     1      -0.783  -6.898  -6.773  1.00  0.00     0.074 A 
ATOM     55  C   UNL     1      -1.251  -7.670  -5.641  1.00  0.00     0.031 C 
ATOM     56  C   UNL     1       1.616  -2.395  -5.953  1.00  0.00     0.029 A 
ATOM     57  C   UNL     1       2.803  -2.555  -5.131  1.00  0.00     0.049 A 
ATOM     58  H   UNL     1       2.693  -3.265  -3.102  1.00  0.00     0.167 HD
ATOM     59  C   UNL     1      -1.255  -6.699  -8.034  1.00  0.00     0.037 A 
ATOM     60  C   UNL     1       4.076  -2.707  -5.599  1.00  0.00     0.037 A 
ATOM     61  C   UNL     1      -0.549  -5.640  -8.745  1.00  0.00     0.049 A 
ATOM     62  C   UNL     1       4.172  -3.184  -7.031  1.00  0.00     0.074 A 
ATOM     63  C   UNL     1      -0.824  -4.309  -9.014  1.00  0.00     0.029 A 
ATOM     64  N   UNL     1       0.792  -5.812  -9.042  1.00  0.00    -0.354 N 
ATOM     65  N   UNL     1       3.155  -3.546  -7.762  1.00  0.00    -0.248 NA
ATOM     66  C   UNL     1       5.449  -3.393  -7.713  1.00  0.00     0.031 C 
ATOM     67  C   UNL     1       0.363  -3.691  -9.498  1.00  0.00     0.029 A 
ATOM     68  C   UNL     1       1.359  -4.647  -9.522  1.00  0.00     0.049 A 
ATOM     69  H   UNL     1       1.281  -6.658  -8.926  1.00  0.00     0.167 HD
ATOM     70  C   UNL     1       3.609  -4.085  -8.936  1.00  0.00     0.074 A 
ATOM     71  C   UNL     1       5.052  -3.963  -8.863  1.00  0.00     0.031 C 
ATOM     72  C   UNL     1       2.772  -4.638  -9.860  1.00  0.00     0.037 A 
BRANCH  59  73
ATOM     73  C   UNL     1      -2.544  -7.324  -8.478  1.00  0.00     0.057 A 
ATOM     74  C   UNL     1      -3.521  -6.590  -9.169  1.00  0.00     0.134 A 
ATOM     75  C   UNL     1      -2.884  -8.658  -8.192  1.00  0.00     0.134 A 
ATOM     76  F   UNL     1      -3.308  -5.328  -9.560  1.00  0.00    -0.206 F 
ATOM     77  C   UNL     1      -4.785  -7.113  -9.466  1.00  0.00     0.040 A 
ATOM     78  C   UNL     1      -4.160  -9.180  -8.441  1.00  0.00     0.040 A 
ATOM     79  F   UNL     1      -1.988  -9.496  -7.646  1.00  0.00    -0.206 F 
ATOM     80  C   UNL     1      -5.121  -8.400  -9.070  1.00  0.00     0.006 A 
ENDBRANCH  59  73
BRANCH  60  81
ATOM     81  C   UNL     1       5.048  -3.069  -4.531  1.00  0.00     0.057 A 
ATOM     82  C   UNL     1       5.282  -2.158  -3.487  1.00  0.00     0.134 A 
ATOM     83  C   UNL     1       5.442  -4.393  -4.322  1.00  0.00     0.134 A 
ATOM     84  F   UNL     1       4.949  -0.866  -3.635  1.00  0.00    -0.206 F 
ATOM     85  C   UNL     1       5.760  -2.571  -2.242  1.00  0.00     0.040 A 
ATOM     86  C   UNL     1       5.951  -4.813  -3.089  1.00  0.00     0.040 A 
ATOM     87  F   UNL     1       5.244  -5.323  -5.267  1.00  0.00    -0.206 F 
ATOM     88  C   UNL     1       6.068  -3.911  -2.032  1.00  0.00     0.006 A 
ENDBRANCH  60  81
BRANCH  72  89
ATOM     89  C   UNL     1       3.227  -5.229 -11.164  1.00  0.00     0.057 A 
ATOM     90  C   UNL     1       4.188  -4.620 -11.982  1.00  0.00     0.134 A 
ATOM     91  C   UNL     1       2.614  -6.380 -11.700  1.00  0.00     0.134 A 
ATOM     92  F   UNL     1       4.781  -3.474 -11.617  1.00  0.00    -0.206 F 
ATOM     93  C   UNL     1       4.556  -5.152 -13.224  1.00  0.00     0.040 A 
ATOM     94  C   UNL     1       2.936  -6.891 -12.960  1.00  0.00     0.040 A 
ATOM     95  F   UNL     1       1.689  -7.070 -11.018  1.00  0.00    -0.206 F 
ATOM     96  C   UNL     1       3.922  -6.285 -13.722  1.00  0.00     0.006 A 
ENDBRANCH  72  89
ENDBRANCH  46  47
ENDBRANCH  38  41
ENDBRANCH  36  37
ENDBRANCH  35  36
ENDBRANCH  34  35
ENDBRANCH   1  34
TORSDOF 19
