REMARK SMILES COc1cccc(C2=NN3[C@@H](c4ccc(OC)c(OC)c4C(=O)NCCCCCCNC(=O)c4ccc(-c5c6nc(c(-c7c(F)cccc7F)c7ccc([nH]7)c(-c7c(F)cccc7F)c7nc(c(-c8c(F)cccc8F)c8ccc5[nH]8)C=C7)C=C6)cc4)Oc4c(OC)cccc4[C@@H]3C2)c1
REMARK SMILES IDX 27 1 26 2 25 3 24 4 22 5 23 6 21 8 12 9 13 10 14 11 18 12
REMARK SMILES IDX 15 13 11 14 8 15 9 16 98 17 10 18 97 19 96 20 88 21 89 22
REMARK SMILES IDX 95 23 90 24 94 25 93 26 7 27 3 28 4 29 99 30 5 31 6 32 2 33
REMARK SMILES IDX 1 34 91 35 92 36 19 37 20 38 16 39 17 40 28 41 29 42 30 43
REMARK SMILES IDX 31 44 32 45 33 47 34 48 35 49 87 50 36 51 86 52 37 53 38 54
REMARK SMILES IDX 39 55 80 56 40 57 85 58 79 59 81 60 41 61 84 62 78 63 77 64
REMARK SMILES IDX 42 66 68 67 51 68 67 69 52 70 55 71 66 72 82 73 53 74 54 75
REMARK SMILES IDX 65 77 83 78 56 79 43 80 44 81 49 82 45 83 46 84 48 85 50 86
REMARK SMILES IDX 47 87 69 88 70 89 75 90 71 91 72 92 74 93 76 94 73 95 57 96
REMARK SMILES IDX 58 97 63 98 59 99 60 100 62 101 64 102 61 103
REMARK H PARENT 24 7 31 46 81 65 55 76
REMARK Flexibility Score: inf
ROOT
ATOM      1  C   UNL     1       2.959   4.439  -2.058  1.00  0.00     0.002 C 
ENDROOT
BRANCH   1   2
ATOM      2  C   UNL     1       4.428   4.091  -2.327  1.00  0.00     0.021 C 
BRANCH   2   3
ATOM      3  C   UNL     1       5.271   5.183  -3.010  1.00  0.00     0.116 C 
BRANCH   3   4
ATOM      4  N   UNL     1       6.680   5.074  -2.586  1.00  0.00    -0.352 N 
ATOM      5  C   UNL     1       7.743   5.348  -3.433  1.00  0.00     0.255 C 
ATOM      6  O   UNL     1       7.892   6.454  -3.929  1.00  0.00    -0.269 OA
ATOM      7  H   UNL     1       6.873   4.794  -1.662  1.00  0.00     0.163 HD
BRANCH   5   8
ATOM      8  C   UNL     1       8.772   4.255  -3.603  1.00  0.00     0.094 A 
ATOM      9  C   UNL     1       8.409   3.006  -4.184  1.00  0.00     0.032 A 
ATOM     10  C   UNL     1       9.421   2.086  -4.505  1.00  0.00     0.014 A 
ATOM     11  C   UNL     1      10.760   2.405  -4.305  1.00  0.00     0.051 A 
ATOM     12  C   UNL     1      10.143   4.548  -3.364  1.00  0.00     0.173 A 
ATOM     13  C   UNL     1      11.140   3.634  -3.755  1.00  0.00     0.161 A 
BRANCH   9  14
ATOM     14  C   UNL     1       7.030   2.794  -4.769  1.00  0.00     0.321 C 
ATOM     15  C   UNL     1       4.763   0.185  -4.537  1.00  0.00     0.070 C 
ATOM     16  N   UNL     1       5.559   1.000  -3.903  1.00  0.00    -0.178 NA
ATOM     17  C   UNL     1       5.241  -0.140  -5.932  1.00  0.00     0.090 C 
ATOM     18  N   UNL     1       6.525   1.390  -4.838  1.00  0.00    -0.246 NA
ATOM     19  C   UNL     1       6.029   1.119  -6.209  1.00  0.00     0.146 C 
ATOM     20  C   UNL     1       5.240   2.307  -6.730  1.00  0.00     0.023 A 
ATOM     21  O   UNL     1       7.153   3.469  -6.044  1.00  0.00    -0.460 OA
ATOM     22  C   UNL     1       5.935   3.520  -6.654  1.00  0.00     0.169 A 
ATOM     23  C   UNL     1       3.934   2.321  -7.216  1.00  0.00     0.010 A 
ATOM     24  C   UNL     1       5.399   4.723  -7.104  1.00  0.00     0.161 A 
ATOM     25  C   UNL     1       3.352   3.533  -7.604  1.00  0.00     0.004 A 
ATOM     26  C   UNL     1       4.081   4.726  -7.546  1.00  0.00     0.050 A 
BRANCH  15  27
ATOM     27  C   UNL     1       3.510  -0.412  -3.998  1.00  0.00     0.001 A 
ATOM     28  C   UNL     1       2.001  -0.967  -2.181  1.00  0.00     0.119 A 
ATOM     29  C   UNL     1       1.204  -1.695  -3.065  1.00  0.00     0.046 A 
ATOM     30  C   UNL     1       3.164  -0.329  -2.638  1.00  0.00     0.056 A 
ATOM     31  C   UNL     1       1.536  -1.762  -4.410  1.00  0.00     0.005 A 
ATOM     32  C   UNL     1       2.662  -1.099  -4.877  1.00  0.00     0.010 A 
BRANCH  28  33
ATOM     33  O   UNL     1       1.586  -1.043  -0.880  1.00  0.00    -0.497 OA
ATOM     34  C   UNL     1       1.718   0.146  -0.117  1.00  0.00     0.278 C 
ENDBRANCH  28  33
ENDBRANCH  15  27
BRANCH  24  35
ATOM     35  O   UNL     1       6.016   5.941  -7.049  1.00  0.00    -0.493 OA
ATOM     36  C   UNL     1       7.386   5.934  -7.450  1.00  0.00     0.278 C 
ENDBRANCH  24  35
ENDBRANCH   9  14
BRANCH  12  37
ATOM     37  O   UNL     1      10.526   5.767  -2.863  1.00  0.00    -0.492 OA
ATOM     38  C   UNL     1      10.175   5.946  -1.493  1.00  0.00     0.278 C 
ENDBRANCH  12  37
BRANCH  13  39
ATOM     39  O   UNL     1      12.504   3.753  -3.709  1.00  0.00    -0.493 OA
ATOM     40  C   UNL     1      13.095   4.964  -3.270  1.00  0.00     0.278 C 
ENDBRANCH  13  39
ENDBRANCH   5   8
ENDBRANCH   3   4
ENDBRANCH   2   3
ENDBRANCH   1   2
BRANCH   1  41
ATOM     41  C   UNL     1       2.103   4.800  -3.274  1.00  0.00     0.002 C 
BRANCH  41  42
ATOM     42  C   UNL     1       1.815   3.658  -4.258  1.00  0.00     0.021 C 
BRANCH  42  43
ATOM     43  C   UNL     1       0.754   2.640  -3.822  1.00  0.00     0.116 C 
BRANCH  43  44
ATOM     44  N   UNL     1      -0.582   3.221  -3.736  1.00  0.00    -0.352 N 
ATOM     45  C   UNL     1      -1.755   2.909  -4.385  1.00  0.00     0.251 C 
ATOM     46  H   UNL     1      -0.657   3.970  -3.102  1.00  0.00     0.163 HD
ATOM     47  O   UNL     1      -2.716   3.667  -4.287  1.00  0.00    -0.269 OA
BRANCH  45  48
ATOM     48  C   UNL     1      -1.893   1.679  -5.202  1.00  0.00     0.039 A 
ATOM     49  C   UNL     1      -2.608   1.723  -6.404  1.00  0.00     0.014 A 
ATOM     50  C   UNL     1      -1.403   0.455  -4.760  1.00  0.00     0.014 A 
ATOM     51  C   UNL     1      -2.745   0.569  -7.196  1.00  0.00     0.010 A 
ATOM     52  C   UNL     1      -1.492  -0.673  -5.584  1.00  0.00     0.010 A 
ATOM     53  C   UNL     1      -2.130  -0.641  -6.832  1.00  0.00    -0.014 A 
BRANCH  53  54
ATOM     54  C   UNL     1      -2.104  -1.839  -7.745  1.00  0.00     0.031 A 
ATOM     55  C   UNL     1      -2.477  -3.231  -7.266  1.00  0.00     0.074 A 
ATOM     56  C   UNL     1      -1.637  -1.718  -9.009  1.00  0.00     0.049 A 
ATOM     57  N   UNL     1      -2.404  -4.375  -7.908  1.00  0.00    -0.248 NA
ATOM     58  C   UNL     1      -2.932  -3.368  -5.875  1.00  0.00     0.031 C 
ATOM     59  C   UNL     1      -1.116  -0.490  -9.614  1.00  0.00     0.029 A 
ATOM     60  N   UNL     1      -1.525  -2.647 -10.021  1.00  0.00    -0.354 N 
ATOM     61  C   UNL     1      -2.759  -5.359  -6.990  1.00  0.00     0.074 A 
ATOM     62  C   UNL     1      -2.971  -4.685  -5.727  1.00  0.00     0.031 C 
ATOM     63  C   UNL     1      -0.813  -0.721 -10.901  1.00  0.00     0.029 A 
ATOM     64  C   UNL     1      -1.070  -2.123 -11.210  1.00  0.00     0.049 A 
ATOM     65  H   UNL     1      -1.749  -3.598  -9.904  1.00  0.00     0.167 HD
ATOM     66  C   UNL     1      -2.943  -6.691  -7.176  1.00  0.00     0.037 A 
ATOM     67  C   UNL     1      -0.887  -2.690 -12.419  1.00  0.00     0.037 A 
ATOM     68  C   UNL     1      -2.837  -7.373  -8.441  1.00  0.00     0.049 A 
ATOM     69  C   UNL     1      -1.183  -4.151 -12.624  1.00  0.00     0.074 A 
ATOM     70  C   UNL     1      -3.111  -8.701  -8.730  1.00  0.00     0.029 A 
ATOM     71  N   UNL     1      -2.451  -6.781  -9.631  1.00  0.00    -0.354 N 
ATOM     72  N   UNL     1      -1.603  -5.039 -11.760  1.00  0.00    -0.248 NA
ATOM     73  C   UNL     1      -0.984  -4.684 -13.982  1.00  0.00     0.031 C 
ATOM     74  C   UNL     1      -2.873  -8.917 -10.090  1.00  0.00     0.029 A 
ATOM     75  C   UNL     1      -2.485  -7.715 -10.655  1.00  0.00     0.049 A 
ATOM     76  H   UNL     1      -2.192  -5.837  -9.735  1.00  0.00     0.167 HD
ATOM     77  C   UNL     1      -1.759  -6.220 -12.476  1.00  0.00     0.074 A 
ATOM     78  C   UNL     1      -1.397  -5.936 -13.847  1.00  0.00     0.031 C 
ATOM     79  C   UNL     1      -2.164  -7.432 -12.029  1.00  0.00     0.037 A 
BRANCH  66  80
ATOM     80  C   UNL     1      -3.348  -7.514  -5.982  1.00  0.00     0.057 A 
ATOM     81  C   UNL     1      -4.615  -7.384  -5.398  1.00  0.00     0.134 A 
ATOM     82  C   UNL     1      -2.495  -8.494  -5.457  1.00  0.00     0.134 A 
ATOM     83  F   UNL     1      -5.481  -6.465  -5.853  1.00  0.00    -0.206 F 
ATOM     84  C   UNL     1      -5.006  -8.171  -4.315  1.00  0.00     0.040 A 
ATOM     85  C   UNL     1      -2.888  -9.311  -4.395  1.00  0.00     0.040 A 
ATOM     86  F   UNL     1      -1.276  -8.690  -5.981  1.00  0.00    -0.206 F 
ATOM     87  C   UNL     1      -4.144  -9.145  -3.815  1.00  0.00     0.006 A 
ENDBRANCH  66  80
BRANCH  67  88
ATOM     88  C   UNL     1      -0.452  -1.863 -13.575  1.00  0.00     0.057 A 
ATOM     89  C   UNL     1      -1.341  -1.577 -14.619  1.00  0.00     0.134 A 
ATOM     90  C   UNL     1       0.856  -1.382 -13.689  1.00  0.00     0.134 A 
ATOM     91  F   UNL     1      -2.603  -2.030 -14.574  1.00  0.00    -0.206 F 
ATOM     92  C   UNL     1      -0.937  -0.870 -15.752  1.00  0.00     0.040 A 
ATOM     93  C   UNL     1       1.267  -0.651 -14.805  1.00  0.00     0.040 A 
ATOM     94  F   UNL     1       1.750  -1.615 -12.718  1.00  0.00    -0.206 F 
ATOM     95  C   UNL     1       0.373  -0.404 -15.845  1.00  0.00     0.006 A 
ENDBRANCH  67  88
BRANCH  79  96
ATOM     96  C   UNL     1      -2.309  -8.536 -13.035  1.00  0.00     0.057 A 
ATOM     97  C   UNL     1      -1.201  -9.165 -13.615  1.00  0.00     0.134 A 
ATOM     98  C   UNL     1      -3.580  -9.004 -13.397  1.00  0.00     0.134 A 
ATOM     99  F   UNL     1       0.043  -8.757 -13.322  1.00  0.00    -0.206 F 
ATOM    100  C   UNL     1      -1.351 -10.206 -14.534  1.00  0.00     0.040 A 
ATOM    101  C   UNL     1      -3.742 -10.059 -14.296  1.00  0.00     0.040 A 
ATOM    102  F   UNL     1      -4.684  -8.450 -12.874  1.00  0.00    -0.206 F 
ATOM    103  C   UNL     1      -2.624 -10.661 -14.871  1.00  0.00     0.006 A 
ENDBRANCH  79  96
ENDBRANCH  53  54
ENDBRANCH  45  48
ENDBRANCH  43  44
ENDBRANCH  42  43
ENDBRANCH  41  42
ENDBRANCH   1  41
TORSDOF 19
