REMARK SMILES Cc1ccc(C(=O)NCCCCCCNC(=O)c2ccc(-c3c4nc(c(-c5c(F)cccc5F)c5ccc([nH]5)c(-c5c(F)cccc5F)c5nc(c(-c6c(F)cccc6F)c6ccc3[nH]6)C=C5)C=C4)cc2)cc1NC(=O)c1ccc(Br)o1
REMARK SMILES IDX 11 1 10 2 9 3 8 4 6 5 7 6 5 8 1 9 2 10 3 11 73 12 4 13 72 14
REMARK SMILES IDX 74 15 75 16 76 18 77 19 78 20 82 21 79 22 80 23 81 24 12 25
REMARK SMILES IDX 13 26 14 27 15 28 16 29 17 31 18 32 19 33 71 34 20 35 70 36
REMARK SMILES IDX 21 37 22 38 23 39 64 40 24 41 69 42 63 43 65 44 25 45 68 46
REMARK SMILES IDX 62 47 61 48 26 50 52 51 35 52 51 53 36 54 39 55 50 56 66 57
REMARK SMILES IDX 37 58 38 59 49 61 67 62 40 63 27 64 28 65 33 66 29 67 30 68
REMARK SMILES IDX 32 69 34 70 31 71 53 72 54 73 59 74 55 75 56 76 58 77 60 78
REMARK SMILES IDX 57 79 41 80 42 81 47 82 43 83 44 84 46 85 48 86 45 87
REMARK H PARENT 8 7 74 17 15 30 65 49 39 60
REMARK Flexibility Score: inf
ROOT
ATOM      1  C   UNL     1      -6.097   3.295  -1.205  1.00  0.00     0.002 C 
ENDROOT
BRANCH   1   2
ATOM      2  C   UNL     1      -4.588   3.002  -1.295  1.00  0.00     0.021 C 
BRANCH   2   3
ATOM      3  C   UNL     1      -3.946   2.206  -0.150  1.00  0.00     0.116 C 
BRANCH   3   4
ATOM      4  N   UNL     1      -3.970   0.777  -0.385  1.00  0.00    -0.352 N 
ATOM      5  C   UNL     1      -3.066  -0.254  -0.364  1.00  0.00     0.251 C 
ATOM      6  O   UNL     1      -3.578  -1.370  -0.518  1.00  0.00    -0.269 OA
ATOM      7  H   UNL     1      -4.873   0.463  -0.623  1.00  0.00     0.163 HD
BRANCH   5   8
ATOM      8  C   UNL     1      -1.571  -0.195  -0.167  1.00  0.00     0.041 A 
ATOM      9  C   UNL     1       2.742  -0.750   0.166  1.00  0.00     0.046 C 
ATOM     10  C   UNL     1       1.261  -0.460   0.094  1.00  0.00    -0.027 A 
ATOM     11  C   UNL     1       0.431  -1.585   0.059  1.00  0.00     0.006 A 
ATOM     12  C   UNL     1       0.670   0.824   0.047  1.00  0.00     0.045 A 
ATOM     13  C   UNL     1      -0.952  -1.452  -0.049  1.00  0.00     0.014 A 
ATOM     14  C   UNL     1      -0.733   0.933  -0.138  1.00  0.00     0.040 A 
BRANCH  12  15
ATOM     15  N   UNL     1       1.540   1.927   0.181  1.00  0.00    -0.319 N 
ATOM     16  C   UNL     1       1.417   3.283   0.317  1.00  0.00     0.291 C 
ATOM     17  H   UNL     1       2.483   1.647   0.176  1.00  0.00     0.170 HD
ATOM     18  O   UNL     1       2.469   3.925   0.382  1.00  0.00    -0.265 OA
BRANCH  16  19
ATOM     19  C   UNL     1       0.142   3.923   0.393  1.00  0.00     0.193 A 
ATOM     20  C   UNL     1      -0.797   4.042   1.399  1.00  0.00     0.057 A 
ATOM     21  O   UNL     1      -0.232   4.666  -0.683  1.00  0.00    -0.444 OA
ATOM     22  C   UNL     1      -1.792   4.927   0.907  1.00  0.00     0.059 A 
ATOM     23  C   UNL     1      -1.395   5.273  -0.364  1.00  0.00     0.170 A 
ATOM     24  Br  UNL     1      -2.281   6.410  -1.527  1.00  0.00    -0.008 Br
ENDBRANCH  16  19
ENDBRANCH  12  15
ENDBRANCH   5   8
ENDBRANCH   3   4
ENDBRANCH   2   3
ENDBRANCH   1   2
BRANCH   1  25
ATOM     25  C   UNL     1      -6.638   3.975   0.066  1.00  0.00     0.002 C 
BRANCH  25  26
ATOM     26  C   UNL     1      -5.937   5.251   0.540  1.00  0.00     0.021 C 
BRANCH  26  27
ATOM     27  C   UNL     1      -6.090   6.472  -0.372  1.00  0.00     0.116 C 
BRANCH  27  28
ATOM     28  N   UNL     1      -6.901   7.542   0.196  1.00  0.00    -0.352 N 
ATOM     29  C   UNL     1      -7.121   8.830  -0.305  1.00  0.00     0.251 C 
ATOM     30  H   UNL     1      -7.355   7.330   1.043  1.00  0.00     0.163 HD
ATOM     31  O   UNL     1      -7.924   9.574   0.212  1.00  0.00    -0.269 OA
BRANCH  29  32
ATOM     32  C   UNL     1      -6.423   9.221  -1.551  1.00  0.00     0.039 A 
ATOM     33  C   UNL     1      -7.196   9.573  -2.659  1.00  0.00     0.014 A 
ATOM     34  C   UNL     1      -5.051   9.042  -1.678  1.00  0.00     0.014 A 
ATOM     35  C   UNL     1      -6.644   9.459  -3.935  1.00  0.00     0.010 A 
ATOM     36  C   UNL     1      -4.515   8.885  -2.946  1.00  0.00     0.010 A 
ATOM     37  C   UNL     1      -5.337   8.987  -4.070  1.00  0.00    -0.014 A 
BRANCH  37  38
ATOM     38  C   UNL     1      -4.851   8.380  -5.307  1.00  0.00     0.031 A 
ATOM     39  C   UNL     1      -3.894   9.062  -6.195  1.00  0.00     0.074 A 
ATOM     40  C   UNL     1      -5.296   7.157  -5.682  1.00  0.00     0.049 A 
ATOM     41  N   UNL     1      -3.954   8.988  -7.486  1.00  0.00    -0.248 NA
ATOM     42  C   UNL     1      -2.796   9.885  -5.704  1.00  0.00     0.031 C 
ATOM     43  C   UNL     1      -4.814   6.346  -6.799  1.00  0.00     0.029 A 
ATOM     44  N   UNL     1      -6.460   6.505  -5.256  1.00  0.00    -0.354 N 
ATOM     45  C   UNL     1      -2.781   9.502  -7.972  1.00  0.00     0.074 A 
ATOM     46  C   UNL     1      -2.131  10.125  -6.839  1.00  0.00     0.031 C 
ATOM     47  C   UNL     1      -5.795   5.513  -7.180  1.00  0.00     0.029 A 
ATOM     48  C   UNL     1      -6.968   5.832  -6.387  1.00  0.00     0.049 A 
ATOM     49  H   UNL     1      -6.846   6.514  -4.350  1.00  0.00     0.167 HD
ATOM     50  C   UNL     1      -2.376   9.231  -9.243  1.00  0.00     0.037 A 
ATOM     51  C   UNL     1      -8.216   6.073  -6.875  1.00  0.00     0.037 A 
ATOM     52  C   UNL     1      -3.273   8.324  -9.944  1.00  0.00     0.049 A 
ATOM     53  C   UNL     1      -8.251   6.482  -8.326  1.00  0.00     0.074 A 
ATOM     54  C   UNL     1      -3.220   6.961 -10.191  1.00  0.00     0.029 A 
ATOM     55  N   UNL     1      -4.567   8.725 -10.258  1.00  0.00    -0.354 N 
ATOM     56  N   UNL     1      -7.213   6.900  -8.993  1.00  0.00    -0.248 NA
ATOM     57  C   UNL     1      -9.469   6.495  -9.129  1.00  0.00     0.031 C 
ATOM     58  C   UNL     1      -4.483   6.542 -10.668  1.00  0.00     0.029 A 
ATOM     59  C   UNL     1      -5.309   7.650 -10.710  1.00  0.00     0.049 A 
ATOM     60  H   UNL     1      -4.906   9.645 -10.172  1.00  0.00     0.167 HD
ATOM     61  C   UNL     1      -7.595   7.272 -10.262  1.00  0.00     0.074 A 
ATOM     62  C   UNL     1      -9.011   6.962 -10.304  1.00  0.00     0.031 C 
ATOM     63  C   UNL     1      -6.692   7.812 -11.139  1.00  0.00     0.037 A 
BRANCH  50  64
ATOM     64  C   UNL     1      -0.985   9.579  -9.693  1.00  0.00     0.057 A 
ATOM     65  C   UNL     1      -0.168   8.666 -10.380  1.00  0.00     0.134 A 
ATOM     66  C   UNL     1      -0.390  10.820  -9.409  1.00  0.00     0.134 A 
ATOM     67  F   UNL     1      -0.619   7.469 -10.773  1.00  0.00    -0.206 F 
ATOM     68  C   UNL     1       1.175   8.930 -10.673  1.00  0.00     0.040 A 
ATOM     69  C   UNL     1       0.963  11.082  -9.658  1.00  0.00     0.040 A 
ATOM     70  F   UNL     1      -1.105  11.815  -8.859  1.00  0.00    -0.206 F 
ATOM     71  C   UNL     1       1.756  10.127 -10.281  1.00  0.00     0.006 A 
ENDBRANCH  50  64
BRANCH  51  72
ATOM     72  C   UNL     1      -9.184   6.518  -5.843  1.00  0.00     0.057 A 
ATOM     73  C   UNL     1      -9.511   5.638  -4.795  1.00  0.00     0.134 A 
ATOM     74  C   UNL     1      -9.510   7.864  -5.670  1.00  0.00     0.134 A 
ATOM     75  F   UNL     1      -9.220   4.331  -4.896  1.00  0.00    -0.206 F 
ATOM     76  C   UNL     1     -10.039   6.094  -3.585  1.00  0.00     0.040 A 
ATOM     77  C   UNL     1     -10.054   8.331  -4.468  1.00  0.00     0.040 A 
ATOM     78  F   UNL     1      -9.205   8.767  -6.613  1.00  0.00    -0.206 F 
ATOM     79  C   UNL     1     -10.283   7.452  -3.409  1.00  0.00     0.006 A 
ENDBRANCH  51  72
BRANCH  63  80
ATOM     80  C   UNL     1      -6.947   8.444 -12.500  1.00  0.00     0.057 A 
ATOM     81  C   UNL     1      -8.192   8.867 -12.987  1.00  0.00     0.134 A 
ATOM     82  C   UNL     1      -5.859   8.751 -13.360  1.00  0.00     0.134 A 
ATOM     83  F   UNL     1      -9.311   8.759 -12.264  1.00  0.00    -0.206 F 
ATOM     84  C   UNL     1      -8.351   9.489 -14.238  1.00  0.00     0.040 A 
ATOM     85  C   UNL     1      -5.998   9.415 -14.583  1.00  0.00     0.040 A 
ATOM     86  F   UNL     1      -4.592   8.440 -13.046  1.00  0.00    -0.206 F 
ATOM     87  C   UNL     1      -7.253   9.776 -15.036  1.00  0.00     0.006 A 
ENDBRANCH  63  80
ENDBRANCH  37  38
ENDBRANCH  29  32
ENDBRANCH  27  28
ENDBRANCH  26  27
ENDBRANCH  25  26
ENDBRANCH   1  25
TORSDOF 15
