REMARK SMILES CN1C(=O)C[C@H](C(=O)Nc2ccc(C(=O)NCCCCCCNC(=O)c3ccc(-c4c5nc(c(-c6c(F)cccc6F)c6ccc([nH]6)c(-c6c(F)cccc6F)c6nc(c(-c7c(F)cccc7F)c7ccc4[nH]7)C=C6)C=C5)cc3)cc2)S/C1=[NH+]\c1cccc(C(F)(F)F)c1
REMARK SMILES IDX 18 1 17 2 16 3 14 4 15 5 13 7 10 8 11 9 81 10 12 11 80 12
REMARK SMILES IDX 9 13 7 14 8 15 6 17 1 18 2 19 3 20 83 21 4 22 5 23 82 24
REMARK SMILES IDX 84 25 85 27 86 28 94 29 87 30 89 31 88 32 90 33 91 34 92 35
REMARK SMILES IDX 93 36 19 37 20 38 21 39 22 40 23 41 24 42 25 44 26 45 27 46
REMARK SMILES IDX 79 47 28 48 78 49 29 50 30 51 31 52 72 53 32 54 77 55 71 56
REMARK SMILES IDX 73 57 33 58 76 59 70 60 69 61 34 63 60 64 43 65 59 66 44 67
REMARK SMILES IDX 47 68 58 69 74 70 45 71 46 72 57 74 75 75 48 76 35 77 36 78
REMARK SMILES IDX 41 79 37 80 38 81 40 82 42 83 39 84 61 85 62 86 67 87 63 88
REMARK SMILES IDX 64 89 66 90 68 91 65 92 49 93 50 94 55 95 51 96 52 97 54 98
REMARK SMILES IDX 56 99 53 100
REMARK H PARENT 16 6 9 16 84 26 23 43 73 62 47 73
REMARK Flexibility Score: inf
ROOT
ATOM      1  C   UNL     1       0.931   8.464  -0.501  1.00  0.00     0.021 C 
ENDROOT
BRANCH   1   2
ATOM      2  C   UNL     1       0.780   7.093   0.161  1.00  0.00     0.116 C 
BRANCH   2   3
ATOM      3  N   UNL     1      -0.494   7.026   0.851  1.00  0.00    -0.352 N 
ATOM      4  C   UNL     1      -1.699   6.474   0.503  1.00  0.00     0.251 C 
ATOM      5  O   UNL     1      -2.649   6.615   1.272  1.00  0.00    -0.269 OA
ATOM      6  H   UNL     1      -0.493   7.459   1.736  1.00  0.00     0.163 HD
BRANCH   4   7
ATOM      7  C   UNL     1      -1.865   5.633  -0.709  1.00  0.00     0.039 A 
ATOM      8  C   UNL     1      -1.945   3.689  -2.698  1.00  0.00     0.041 A 
ATOM      9  C   UNL     1      -2.787   3.574  -1.596  1.00  0.00     0.027 A 
ATOM     10  C   UNL     1      -1.222   4.861  -2.911  1.00  0.00     0.027 A 
ATOM     11  C   UNL     1      -2.720   4.530  -0.587  1.00  0.00     0.016 A 
ATOM     12  C   UNL     1      -1.205   5.848  -1.922  1.00  0.00     0.016 A 
BRANCH   8  13
ATOM     13  N   UNL     1      -1.850   2.588  -3.538  1.00  0.00    -0.325 N 
ATOM     14  C   UNL     1      -0.760   1.982  -4.081  1.00  0.00     0.238 C 
ATOM     15  O   UNL     1      -1.005   1.143  -4.956  1.00  0.00    -0.273 OA
ATOM     16  H   UNL     1      -2.712   2.179  -3.780  1.00  0.00     0.169 HD
BRANCH  14  17
ATOM     17  C   UNL     1       0.694   2.289  -3.643  1.00  0.00     0.160 C 
ATOM     18  C   UNL     1       0.604  -0.528  -0.268  1.00  0.00     0.301 C 
ATOM     19  N   UNL     1       0.743   0.364  -1.415  1.00  0.00    -0.194 N 
ATOM     20  C   UNL     1       0.611   1.724  -1.159  1.00  0.00     0.311 C 
ATOM     21  C   UNL     1       0.964  -0.226  -2.662  1.00  0.00     0.319 C 
ATOM     22  O   UNL     1       0.202   2.175  -0.087  1.00  0.00    -0.247 OA
ATOM     23  C   UNL     1       1.056   2.683  -2.228  1.00  0.00     0.153 C 
ATOM     24  S   UNL     1       1.698   0.791  -3.895  1.00  0.00    -0.024 SA
ATOM     25  N   UNL     1       0.661  -1.477  -2.821  1.00  0.00    -0.235 N 
ATOM     26  H   UNL     1       0.326  -1.995  -2.054  1.00  0.00     0.313 HD
BRANCH  25  27
ATOM     27  C   UNL     1       0.804  -2.101  -4.063  1.00  0.00     0.126 A 
ATOM     28  C   UNL     1      -0.325  -2.388  -4.834  1.00  0.00     0.052 A 
ATOM     29  C   UNL     1       2.066  -2.458  -4.536  1.00  0.00     0.064 A 
ATOM     30  C   UNL     1      -0.190  -2.983  -6.088  1.00  0.00     0.005 A 
ATOM     31  C   UNL     1       2.223  -3.010  -5.812  1.00  0.00     0.060 A 
ATOM     32  C   UNL     1       1.081  -3.283  -6.580  1.00  0.00     0.013 A 
BRANCH  31  33
ATOM     33  C   UNL     1       3.600  -3.281  -6.351  1.00  0.00     0.416 C 
ATOM     34  F   UNL     1       3.873  -4.611  -6.444  1.00  0.00    -0.166 F 
ATOM     35  F   UNL     1       3.785  -2.771  -7.601  1.00  0.00    -0.166 F 
ATOM     36  F   UNL     1       4.597  -2.750  -5.587  1.00  0.00    -0.166 F 
ENDBRANCH  31  33
ENDBRANCH  25  27
ENDBRANCH  14  17
ENDBRANCH   8  13
ENDBRANCH   4   7
ENDBRANCH   2   3
ENDBRANCH   1   2
BRANCH   1  37
ATOM     37  C   UNL     1       1.216   9.589   0.503  1.00  0.00     0.002 C 
BRANCH  37  38
ATOM     38  C   UNL     1       2.545   9.455   1.254  1.00  0.00     0.002 C 
BRANCH  38  39
ATOM     39  C   UNL     1       3.777   9.336   0.354  1.00  0.00     0.021 C 
BRANCH  39  40
ATOM     40  C   UNL     1       3.990  10.532  -0.566  1.00  0.00     0.116 C 
BRANCH  40  41
ATOM     41  N   UNL     1       4.293  11.742   0.183  1.00  0.00    -0.352 N 
ATOM     42  C   UNL     1       5.388  12.567   0.084  1.00  0.00     0.251 C 
ATOM     43  H   UNL     1       3.622  12.005   0.853  1.00  0.00     0.163 HD
ATOM     44  O   UNL     1       5.609  13.416   0.936  1.00  0.00    -0.269 OA
BRANCH  42  45
ATOM     45  C   UNL     1       6.308  12.405  -1.060  1.00  0.00     0.039 A 
ATOM     46  C   UNL     1       7.685  12.375  -0.830  1.00  0.00     0.014 A 
ATOM     47  C   UNL     1       5.804  12.270  -2.357  1.00  0.00     0.014 A 
ATOM     48  C   UNL     1       8.556  12.144  -1.896  1.00  0.00     0.010 A 
ATOM     49  C   UNL     1       6.666  11.963  -3.402  1.00  0.00     0.010 A 
ATOM     50  C   UNL     1       8.051  11.900  -3.184  1.00  0.00    -0.014 A 
BRANCH  50  51
ATOM     51  C   UNL     1       8.948  11.585  -4.324  1.00  0.00     0.031 A 
ATOM     52  C   UNL     1       9.006  12.511  -5.507  1.00  0.00     0.074 A 
ATOM     53  C   UNL     1       9.649  10.435  -4.328  1.00  0.00     0.049 A 
ATOM     54  N   UNL     1       9.634  12.362  -6.645  1.00  0.00    -0.248 NA
ATOM     55  C   UNL     1       8.232  13.760  -5.408  1.00  0.00     0.031 C 
ATOM     56  C   UNL     1       9.653   9.440  -3.254  1.00  0.00     0.029 A 
ATOM     57  N   UNL     1      10.485   9.901  -5.277  1.00  0.00    -0.354 N 
ATOM     58  C   UNL     1       9.324  13.488  -7.397  1.00  0.00     0.074 A 
ATOM     59  C   UNL     1       8.404  14.281  -6.613  1.00  0.00     0.031 C 
ATOM     60  C   UNL     1      10.468   8.428  -3.595  1.00  0.00     0.029 A 
ATOM     61  C   UNL     1      11.005   8.678  -4.928  1.00  0.00     0.049 A 
ATOM     62  H   UNL     1      10.693  10.352  -6.127  1.00  0.00     0.167 HD
ATOM     63  C   UNL     1       9.785  13.841  -8.620  1.00  0.00     0.037 A 
ATOM     64  C   UNL     1      11.812   7.845  -5.614  1.00  0.00     0.037 A 
ATOM     65  C   UNL     1      10.714  13.056  -9.390  1.00  0.00     0.049 A 
ATOM     66  C   UNL     1      12.274   8.242  -6.991  1.00  0.00     0.074 A 
ATOM     67  C   UNL     1      11.270  13.345 -10.624  1.00  0.00     0.029 A 
ATOM     68  N   UNL     1      11.222  11.827  -8.999  1.00  0.00    -0.354 N 
ATOM     69  N   UNL     1      12.015   9.335  -7.668  1.00  0.00    -0.248 NA
ATOM     70  C   UNL     1      13.145   7.291  -7.697  1.00  0.00     0.031 C 
ATOM     71  C   UNL     1      12.077  12.268 -11.002  1.00  0.00     0.029 A 
ATOM     72  C   UNL     1      12.069  11.335  -9.978  1.00  0.00     0.049 A 
ATOM     73  H   UNL     1      11.012  11.372  -8.152  1.00  0.00     0.167 HD
ATOM     74  C   UNL     1      12.721   9.220  -8.860  1.00  0.00     0.074 A 
ATOM     75  C   UNL     1      13.425   7.956  -8.809  1.00  0.00     0.031 C 
ATOM     76  C   UNL     1      12.781  10.085  -9.902  1.00  0.00     0.037 A 
BRANCH  63  77
ATOM     77  C   UNL     1       9.296  15.138  -9.199  1.00  0.00     0.057 A 
ATOM     78  C   UNL     1       9.678  16.375  -8.663  1.00  0.00     0.134 A 
ATOM     79  C   UNL     1       8.467  15.152 -10.328  1.00  0.00     0.134 A 
ATOM     80  F   UNL     1      10.461  16.433  -7.575  1.00  0.00    -0.206 F 
ATOM     81  C   UNL     1       9.233  17.578  -9.213  1.00  0.00     0.040 A 
ATOM     82  C   UNL     1       8.041  16.349 -10.905  1.00  0.00     0.040 A 
ATOM     83  F   UNL     1       8.068  14.004 -10.896  1.00  0.00    -0.206 F 
ATOM     84  C   UNL     1       8.419  17.567 -10.344  1.00  0.00     0.006 A 
ENDBRANCH  63  77
BRANCH  64  85
ATOM     85  C   UNL     1      12.247   6.557  -5.015  1.00  0.00     0.057 A 
ATOM     86  C   UNL     1      13.587   6.338  -4.674  1.00  0.00     0.134 A 
ATOM     87  C   UNL     1      11.348   5.506  -4.798  1.00  0.00     0.134 A 
ATOM     88  F   UNL     1      14.500   7.299  -4.874  1.00  0.00    -0.206 F 
ATOM     89  C   UNL     1      14.024   5.112  -4.168  1.00  0.00     0.040 A 
ATOM     90  C   UNL     1      11.765   4.285  -4.266  1.00  0.00     0.040 A 
ATOM     91  F   UNL     1      10.048   5.653  -5.095  1.00  0.00    -0.206 F 
ATOM     92  C   UNL     1      13.109   4.082  -3.960  1.00  0.00     0.006 A 
ENDBRANCH  64  85
BRANCH  76  93
ATOM     93  C   UNL     1      13.681   9.725 -11.049  1.00  0.00     0.057 A 
ATOM     94  C   UNL     1      13.367   8.699 -11.948  1.00  0.00     0.134 A 
ATOM     95  C   UNL     1      14.852  10.458 -11.286  1.00  0.00     0.134 A 
ATOM     96  F   UNL     1      12.267   7.952 -11.770  1.00  0.00    -0.206 F 
ATOM     97  C   UNL     1      14.195   8.402 -13.031  1.00  0.00     0.040 A 
ATOM     98  C   UNL     1      15.672  10.189 -12.382  1.00  0.00     0.040 A 
ATOM     99  F   UNL     1      15.206  11.460 -10.468  1.00  0.00    -0.206 F 
ATOM    100  C   UNL     1      15.346   9.154 -13.256  1.00  0.00     0.006 A 
ENDBRANCH  76  93
ENDBRANCH  50  51
ENDBRANCH  42  45
ENDBRANCH  40  41
ENDBRANCH  39  40
ENDBRANCH  38  39
ENDBRANCH  37  38
ENDBRANCH   1  37
TORSDOF 17
