REMARK SMILES CO[C@@H]1C[C@@H](C(=O)NCCCCCCNC(=O)c2ccc(-c3c4nc(c(-c5c(F)cccc5F)c5ccc([nH]5)c(-c5c(F)cccc5F)c5nc(c(-c6c(F)cccc6F)c6ccc3[nH]6)C=C5)C=C4)cc2)N(S(=O)(=O)c2ccc(Cl)cc2F)C1
REMARK SMILES IDX 11 1 10 2 9 3 8 4 6 5 7 6 5 8 3 9 4 10 84 11 72 12 2 13 1 14
REMARK SMILES IDX 73 15 74 16 75 17 76 18 77 19 82 20 78 21 81 22 83 23 79 24
REMARK SMILES IDX 80 25 12 26 13 27 14 28 15 29 16 30 17 32 18 33 19 34 71 35
REMARK SMILES IDX 20 36 70 37 21 38 22 39 23 40 64 41 24 42 69 43 63 44 65 45
REMARK SMILES IDX 25 46 68 47 62 48 61 49 26 51 52 52 35 53 51 54 36 55 39 56
REMARK SMILES IDX 50 57 66 58 37 59 38 60 49 62 67 63 40 64 27 65 28 66 33 67
REMARK SMILES IDX 29 68 30 69 32 70 34 71 31 72 53 73 54 74 59 75 55 76 56 77
REMARK SMILES IDX 58 78 60 79 57 80 41 81 42 82 47 83 43 84 44 85 46 86 48 87
REMARK SMILES IDX 45 88
REMARK H PARENT 8 7 15 31 65 50 39 61
REMARK Flexibility Score: inf
ROOT
ATOM      1  C   UNL     1      -2.409   7.318   0.462  1.00  0.00     0.002 C 
ENDROOT
BRANCH   1   2
ATOM      2  C   UNL     1      -2.005   5.838   0.427  1.00  0.00     0.021 C 
BRANCH   2   3
ATOM      3  C   UNL     1      -2.154   5.175  -0.941  1.00  0.00     0.116 C 
BRANCH   3   4
ATOM      4  N   UNL     1      -1.205   5.684  -1.905  1.00  0.00    -0.355 N 
ATOM      5  C   UNL     1      -0.099   5.117  -2.452  1.00  0.00     0.238 C 
ATOM      6  O   UNL     1       0.301   5.638  -3.500  1.00  0.00    -0.273 OA
ATOM      7  H   UNL     1      -1.392   6.598  -2.219  1.00  0.00     0.163 HD
BRANCH   5   8
ATOM      8  C   UNL     1       0.552   3.846  -1.921  1.00  0.00     0.165 C 
ATOM      9  C   UNL     1       1.358   2.211  -0.390  1.00  0.00     0.135 C 
ATOM     10  C   UNL     1       0.477   3.457  -0.451  1.00  0.00     0.064 C 
ATOM     11  C   UNL     1       2.330   2.334  -1.579  1.00  0.00     0.135 C 
ATOM     12  N   UNL     1       2.022   3.657  -2.242  1.00  0.00    -0.183 NA
BRANCH   9  13
ATOM     13  O   UNL     1       0.485   1.086  -0.570  1.00  0.00    -0.380 OA
ATOM     14  C   UNL     1       0.982  -0.095   0.045  1.00  0.00     0.195 C 
ENDBRANCH   9  13
BRANCH  12  15
ATOM     15  S   UNL     1       3.179   4.844  -1.772  1.00  0.00     0.246 S 
ATOM     16  O   UNL     1       2.982   5.122  -0.362  1.00  0.00    -0.207 OA
ATOM     17  O   UNL     1       4.466   4.328  -2.196  1.00  0.00    -0.207 OA
BRANCH  15  18
ATOM     18  C   UNL     1       2.925   6.325  -2.687  1.00  0.00     0.118 A 
ATOM     19  C   UNL     1       3.628   6.529  -3.883  1.00  0.00     0.026 A 
ATOM     20  C   UNL     1       2.152   7.355  -2.159  1.00  0.00     0.144 A 
ATOM     21  C   UNL     1       3.501   7.742  -4.565  1.00  0.00     0.022 A 
ATOM     22  C   UNL     1       2.002   8.556  -2.848  1.00  0.00     0.061 A 
ATOM     23  F   UNL     1       1.481   7.205  -1.008  1.00  0.00    -0.205 F 
ATOM     24  C   UNL     1       2.676   8.744  -4.051  1.00  0.00     0.044 A 
ATOM     25  Cl  UNL     1       2.500  10.227  -4.905  1.00  0.00    -0.084 Cl
ENDBRANCH  15  18
ENDBRANCH  12  15
ENDBRANCH   5   8
ENDBRANCH   3   4
ENDBRANCH   2   3
ENDBRANCH   1   2
BRANCH   1  26
ATOM     26  C   UNL     1      -3.802   7.640  -0.093  1.00  0.00     0.002 C 
BRANCH  26  27
ATOM     27  C   UNL     1      -4.950   6.809   0.486  1.00  0.00     0.021 C 
BRANCH  27  28
ATOM     28  C   UNL     1      -5.154   6.958   1.990  1.00  0.00     0.116 C 
BRANCH  28  29
ATOM     29  N   UNL     1      -5.574   8.301   2.352  1.00  0.00    -0.352 N 
ATOM     30  C   UNL     1      -6.679   8.716   3.052  1.00  0.00     0.251 C 
ATOM     31  H   UNL     1      -4.975   9.022   2.050  1.00  0.00     0.163 HD
ATOM     32  O   UNL     1      -6.971   9.908   3.082  1.00  0.00    -0.269 OA
BRANCH  30  33
ATOM     33  C   UNL     1      -7.534   7.734   3.755  1.00  0.00     0.039 A 
ATOM     34  C   UNL     1      -8.922   7.888   3.692  1.00  0.00     0.014 A 
ATOM     35  C   UNL     1      -6.982   6.687   4.499  1.00  0.00     0.014 A 
ATOM     36  C   UNL     1      -9.753   6.963   4.326  1.00  0.00     0.010 A 
ATOM     37  C   UNL     1      -7.812   5.725   5.071  1.00  0.00     0.010 A 
ATOM     38  C   UNL     1      -9.206   5.855   4.994  1.00  0.00    -0.014 A 
BRANCH  38  39
ATOM     39  C   UNL     1     -10.089   4.824   5.599  1.00  0.00     0.031 A 
ATOM     40  C   UNL     1     -10.107   4.605   7.086  1.00  0.00     0.074 A 
ATOM     41  C   UNL     1     -10.848   4.054   4.796  1.00  0.00     0.049 A 
ATOM     42  N   UNL     1     -10.811   3.750   7.786  1.00  0.00    -0.248 NA
ATOM     43  C   UNL     1      -9.200   5.436   7.892  1.00  0.00     0.031 C 
ATOM     44  C   UNL     1     -10.877   4.128   3.334  1.00  0.00     0.029 A 
ATOM     45  N   UNL     1     -11.742   3.056   5.095  1.00  0.00    -0.354 N 
ATOM     46  C   UNL     1     -10.429   3.937   9.108  1.00  0.00     0.074 A 
ATOM     47  C   UNL     1      -9.391   4.945   9.108  1.00  0.00     0.031 C 
ATOM     48  C   UNL     1     -11.767   3.239   2.866  1.00  0.00     0.029 A 
ATOM     49  C   UNL     1     -12.347   2.510   3.989  1.00  0.00     0.049 A 
ATOM     50  H   UNL     1     -11.932   2.760   6.014  1.00  0.00     0.167 HD
ATOM     51  C   UNL     1     -10.915   3.341  10.224  1.00  0.00     0.037 A 
ATOM     52  C   UNL     1     -13.267   1.532   3.890  1.00  0.00     0.037 A 
ATOM     53  C   UNL     1     -11.961   2.350  10.223  1.00  0.00     0.049 A 
ATOM     54  C   UNL     1     -13.791   0.887   5.142  1.00  0.00     0.074 A 
ATOM     55  C   UNL     1     -12.565   1.733  11.305  1.00  0.00     0.029 A 
ATOM     56  N   UNL     1     -12.553   1.826   9.084  1.00  0.00    -0.354 N 
ATOM     57  N   UNL     1     -13.476   1.130   6.392  1.00  0.00    -0.248 NA
ATOM     58  C   UNL     1     -14.805  -0.162   4.970  1.00  0.00     0.031 C 
ATOM     59  C   UNL     1     -13.489   0.802  10.819  1.00  0.00     0.029 A 
ATOM     60  C   UNL     1     -13.497   0.875   9.435  1.00  0.00     0.049 A 
ATOM     61  H   UNL     1     -12.334   2.091   8.161  1.00  0.00     0.167 HD
ATOM     62  C   UNL     1     -14.267   0.282   7.155  1.00  0.00     0.074 A 
ATOM     63  C   UNL     1     -15.092  -0.466   6.228  1.00  0.00     0.031 C 
ATOM     64  C   UNL     1     -14.306   0.133   8.502  1.00  0.00     0.037 A 
BRANCH  51  65
ATOM     65  C   UNL     1     -10.322   3.749  11.542  1.00  0.00     0.057 A 
ATOM     66  C   UNL     1     -10.551   5.017  12.094  1.00  0.00     0.134 A 
ATOM     67  C   UNL     1      -9.541   2.854  12.284  1.00  0.00     0.134 A 
ATOM     68  F   UNL     1     -11.281   5.926  11.430  1.00  0.00    -0.206 F 
ATOM     69  C   UNL     1     -10.003   5.389  13.323  1.00  0.00     0.040 A 
ATOM     70  C   UNL     1      -9.011   3.205  13.528  1.00  0.00     0.040 A 
ATOM     71  F   UNL     1      -9.287   1.622  11.819  1.00  0.00    -0.206 F 
ATOM     72  C   UNL     1      -9.236   4.479  14.047  1.00  0.00     0.006 A 
ENDBRANCH  51  65
BRANCH  52  73
ATOM     73  C   UNL     1     -13.773   1.122   2.556  1.00  0.00     0.057 A 
ATOM     74  C   UNL     1     -15.084   1.412   2.161  1.00  0.00     0.134 A 
ATOM     75  C   UNL     1     -12.964   0.429   1.648  1.00  0.00     0.134 A 
ATOM     76  F   UNL     1     -15.913   2.058   2.995  1.00  0.00    -0.206 F 
ATOM     77  C   UNL     1     -15.580   1.012   0.919  1.00  0.00     0.040 A 
ATOM     78  C   UNL     1     -13.438   0.045   0.393  1.00  0.00     0.040 A 
ATOM     79  F   UNL     1     -11.696   0.128   1.963  1.00  0.00    -0.206 F 
ATOM     80  C   UNL     1     -14.753   0.330   0.029  1.00  0.00     0.006 A 
ENDBRANCH  52  73
BRANCH  64  81
ATOM     81  C   UNL     1     -15.286  -0.864   9.049  1.00  0.00     0.057 A 
ATOM     82  C   UNL     1     -15.100  -2.244   8.896  1.00  0.00     0.134 A 
ATOM     83  C   UNL     1     -16.421  -0.439   9.751  1.00  0.00     0.134 A 
ATOM     84  F   UNL     1     -14.040  -2.717   8.223  1.00  0.00    -0.206 F 
ATOM     85  C   UNL     1     -16.023  -3.164   9.396  1.00  0.00     0.040 A 
ATOM     86  C   UNL     1     -17.337  -1.350  10.279  1.00  0.00     0.040 A 
ATOM     87  F   UNL     1     -16.656   0.868   9.941  1.00  0.00    -0.206 F 
ATOM     88  C   UNL     1     -17.143  -2.717  10.094  1.00  0.00     0.006 A 
ENDBRANCH  64  81
ENDBRANCH  38  39
ENDBRANCH  30  33
ENDBRANCH  28  29
ENDBRANCH  27  28
ENDBRANCH  26  27
ENDBRANCH   1  26
TORSDOF 16
