REMARK SMILES O=C(CC1(CC(=O)Nc2ccc3ccccc3n2)CCCCC1)NCCCCCCNC(=O)c1ccc(-c2c3nc(c(-c4c(F)cccc4F)c4ccc([nH]4)c(-c4c(F)cccc4F)c4nc(c(-c5c(F)cccc5F)c5ccc2[nH]5)C=C4)C=C3)cc1
REMARK SMILES IDX 26 1 25 2 24 3 1 4 2 5 3 7 4 8 19 9 23 10 20 11 22 12 21 13
REMARK SMILES IDX 5 14 6 15 7 16 8 17 9 19 10 20 18 21 11 22 17 23 12 24 16 25
REMARK SMILES IDX 13 26 15 27 14 28 27 29 28 30 29 31 30 32 31 33 32 34 33 36
REMARK SMILES IDX 34 37 35 38 87 39 36 40 86 41 37 42 38 43 39 44 80 45 40 46
REMARK SMILES IDX 85 47 79 48 81 49 41 50 84 51 78 52 77 53 42 55 68 56 51 57
REMARK SMILES IDX 67 58 52 59 55 60 66 61 82 62 53 63 54 64 65 66 83 67 56 68
REMARK SMILES IDX 43 69 44 70 49 71 45 72 46 73 48 74 50 75 47 76 69 77 70 78
REMARK SMILES IDX 75 79 71 80 72 81 74 82 76 83 73 84 57 85 58 86 63 87 59 88
REMARK SMILES IDX 60 89 62 90 64 91 61 92
REMARK H PARENT 24 6 8 18 31 35 81 54 55 65
REMARK Flexibility Score: inf
ROOT
ATOM      1  C   UNL     1       2.724   0.834   3.417  1.00  0.00     0.021 C 
ENDROOT
BRANCH   1   2
ATOM      2  C   UNL     1       2.088   1.237   2.090  1.00  0.00     0.116 C 
BRANCH   2   3
ATOM      3  N   UNL     1       2.630   0.477   0.987  1.00  0.00    -0.356 N 
ATOM      4  O   UNL     1       0.681   0.370  -0.214  1.00  0.00    -0.275 OA
ATOM      5  C   UNL     1       1.885   0.155  -0.120  1.00  0.00     0.220 C 
ATOM      6  H   UNL     1       3.568   0.180   1.031  1.00  0.00     0.163 HD
BRANCH   5   7
ATOM      7  C   UNL     1       2.688  -0.463  -1.253  1.00  0.00     0.107 C 
BRANCH   7   8
ATOM      8  C   UNL     1       3.585   0.521  -2.066  1.00  0.00    -0.012 C 
ATOM      9  C   UNL     1       2.855   1.883  -2.297  1.00  0.00     0.008 C 
ATOM     10  C   UNL     1       4.846   0.905  -1.287  1.00  0.00     0.008 C 
ATOM     11  C   UNL     1       3.711   2.978  -2.955  1.00  0.00     0.001 C 
ATOM     12  C   UNL     1       5.781   1.805  -2.099  1.00  0.00     0.001 C 
ATOM     13  C   UNL     1       5.104   3.139  -2.349  1.00  0.00     0.000 C 
BRANCH   8  14
ATOM     14  C   UNL     1       3.936  -0.175  -3.423  1.00  0.00     0.108 C 
BRANCH  14  15
ATOM     15  C   UNL     1       4.428  -1.643  -3.478  1.00  0.00     0.226 C 
ATOM     16  O   UNL     1       3.599  -2.550  -3.623  1.00  0.00    -0.275 OA
ATOM     17  N   UNL     1       5.748  -1.958  -3.664  1.00  0.00    -0.311 N 
ATOM     18  H   UNL     1       5.916  -2.672  -4.321  1.00  0.00     0.171 HD
BRANCH  17  19
ATOM     19  C   UNL     1       6.893  -1.426  -3.068  1.00  0.00     0.133 A 
ATOM     20  C   UNL     1       8.021  -1.243  -3.847  1.00  0.00     0.048 A 
ATOM     21  N   UNL     1       6.895  -1.159  -1.753  1.00  0.00    -0.231 NA
ATOM     22  C   UNL     1       9.090  -0.527  -3.305  1.00  0.00     0.014 A 
ATOM     23  C   UNL     1       7.917  -0.457  -1.220  1.00  0.00     0.073 A 
ATOM     24  C   UNL     1       9.010  -0.041  -1.993  1.00  0.00     0.000 A 
ATOM     25  C   UNL     1       7.819   0.008   0.091  1.00  0.00     0.029 A 
ATOM     26  C   UNL     1       9.923   0.897  -1.472  1.00  0.00     0.010 A 
ATOM     27  C   UNL     1       8.683   0.986   0.589  1.00  0.00     0.002 A 
ATOM     28  C   UNL     1       9.728   1.444  -0.203  1.00  0.00     0.001 A 
ENDBRANCH  17  19
ENDBRANCH  14  15
ENDBRANCH   8  14
ENDBRANCH   7   8
ENDBRANCH   5   7
ENDBRANCH   2   3
ENDBRANCH   1   2
BRANCH   1  29
ATOM     29  C   UNL     1       4.231   1.103   3.518  1.00  0.00     0.002 C 
BRANCH  29  30
ATOM     30  C   UNL     1       4.653   2.568   3.362  1.00  0.00     0.002 C 
BRANCH  30  31
ATOM     31  C   UNL     1       3.988   3.546   4.332  1.00  0.00     0.021 C 
BRANCH  31  32
ATOM     32  C   UNL     1       4.134   3.196   5.810  1.00  0.00     0.116 C 
BRANCH  32  33
ATOM     33  N   UNL     1       5.520   3.191   6.250  1.00  0.00    -0.352 N 
ATOM     34  C   UNL     1       6.089   3.787   7.345  1.00  0.00     0.251 C 
ATOM     35  H   UNL     1       6.141   2.686   5.677  1.00  0.00     0.163 HD
ATOM     36  O   UNL     1       7.319   3.804   7.461  1.00  0.00    -0.269 OA
BRANCH  34  37
ATOM     37  C   UNL     1       5.249   4.435   8.374  1.00  0.00     0.039 A 
ATOM     38  C   UNL     1       5.657   5.665   8.896  1.00  0.00     0.014 A 
ATOM     39  C   UNL     1       4.073   3.837   8.838  1.00  0.00     0.014 A 
ATOM     40  C   UNL     1       4.859   6.321   9.835  1.00  0.00     0.010 A 
ATOM     41  C   UNL     1       3.239   4.528   9.716  1.00  0.00     0.010 A 
ATOM     42  C   UNL     1       3.624   5.776  10.226  1.00  0.00    -0.014 A 
BRANCH  42  43
ATOM     43  C   UNL     1       2.727   6.520  11.149  1.00  0.00     0.031 A 
ATOM     44  C   UNL     1       2.389   5.971  12.507  1.00  0.00     0.074 A 
ATOM     45  C   UNL     1       2.181   7.683  10.742  1.00  0.00     0.049 A 
ATOM     46  N   UNL     1       1.645   6.495  13.449  1.00  0.00    -0.248 NA
ATOM     47  C   UNL     1       2.938   4.649  12.845  1.00  0.00     0.031 C 
ATOM     48  C   UNL     1       2.382   8.296   9.427  1.00  0.00     0.029 A 
ATOM     49  N   UNL     1       1.351   8.560  11.394  1.00  0.00    -0.354 N 
ATOM     50  C   UNL     1       1.627   5.566  14.481  1.00  0.00     0.074 A 
ATOM     51  C   UNL     1       2.389   4.422  14.029  1.00  0.00     0.031 C 
ATOM     52  C   UNL     1       1.735   9.471   9.387  1.00  0.00     0.029 A 
ATOM     53  C   UNL     1       1.043   9.677  10.655  1.00  0.00     0.049 A 
ATOM     54  H   UNL     1       1.010   8.405  12.304  1.00  0.00     0.167 HD
ATOM     55  C   UNL     1       1.046   5.663  15.702  1.00  0.00     0.037 A 
ATOM     56  C   UNL     1       0.294  10.751  10.967  1.00  0.00     0.037 A 
ATOM     57  C   UNL     1       0.300   6.810  16.155  1.00  0.00     0.049 A 
ATOM     58  C   UNL     1      -0.343  10.833  12.326  1.00  0.00     0.074 A 
ATOM     59  C   UNL     1      -0.260   7.038  17.401  1.00  0.00     0.029 A 
ATOM     60  N   UNL     1      -0.002   7.916  15.375  1.00  0.00    -0.354 N 
ATOM     61  N   UNL     1      -0.274   9.989  13.326  1.00  0.00    -0.248 NA
ATOM     62  C   UNL     1      -1.159  12.024  12.598  1.00  0.00     0.031 C 
ATOM     63  C   UNL     1      -0.952   8.254  17.355  1.00  0.00     0.029 A 
ATOM     64  C   UNL     1      -0.771   8.813  16.100  1.00  0.00     0.049 A 
ATOM     65  H   UNL     1       0.287   8.046  14.443  1.00  0.00     0.167 HD
ATOM     66  C   UNL     1      -1.012  10.558  14.356  1.00  0.00     0.074 A 
ATOM     67  C   UNL     1      -1.501  11.830  13.863  1.00  0.00     0.031 C 
ATOM     68  C   UNL     1      -1.262  10.072  15.597  1.00  0.00     0.037 A 
BRANCH  55  69
ATOM     69  C   UNL     1       1.187   4.489  16.631  1.00  0.00     0.057 A 
ATOM     70  C   UNL     1       2.418   4.130  17.197  1.00  0.00     0.134 A 
ATOM     71  C   UNL     1       0.071   3.719  16.980  1.00  0.00     0.134 A 
ATOM     72  F   UNL     1       3.531   4.819  16.899  1.00  0.00    -0.206 F 
ATOM     73  C   UNL     1       2.541   3.028  18.046  1.00  0.00     0.040 A 
ATOM     74  C   UNL     1       0.174   2.633  17.853  1.00  0.00     0.040 A 
ATOM     75  F   UNL     1      -1.141   4.009  16.483  1.00  0.00    -0.206 F 
ATOM     76  C   UNL     1       1.414   2.280  18.380  1.00  0.00     0.006 A 
ENDBRANCH  55  69
BRANCH  56  77
ATOM     77  C   UNL     1       0.141  11.860   9.991  1.00  0.00     0.057 A 
ATOM     78  C   UNL     1       0.735  13.107  10.222  1.00  0.00     0.134 A 
ATOM     79  C   UNL     1      -0.599  11.706   8.813  1.00  0.00     0.134 A 
ATOM     80  F   UNL     1       1.440  13.321  11.342  1.00  0.00    -0.206 F 
ATOM     81  C   UNL     1       0.582  14.167   9.328  1.00  0.00     0.040 A 
ATOM     82  C   UNL     1      -0.737  12.749   7.896  1.00  0.00     0.040 A 
ATOM     83  F   UNL     1      -1.185  10.534   8.530  1.00  0.00    -0.206 F 
ATOM     84  C   UNL     1      -0.151  13.987   8.157  1.00  0.00     0.006 A 
ENDBRANCH  56  77
BRANCH  68  85
ATOM     85  C   UNL     1      -2.082  10.936  16.514  1.00  0.00     0.057 A 
ATOM     86  C   UNL     1      -3.446  11.169  16.293  1.00  0.00     0.134 A 
ATOM     87  C   UNL     1      -1.499  11.543  17.634  1.00  0.00     0.134 A 
ATOM     88  F   UNL     1      -4.065  10.631  15.231  1.00  0.00    -0.206 F 
ATOM     89  C   UNL     1      -4.189  12.005  17.128  1.00  0.00     0.040 A 
ATOM     90  C   UNL     1      -2.239  12.353  18.495  1.00  0.00     0.040 A 
ATOM     91  F   UNL     1      -0.200  11.355  17.913  1.00  0.00    -0.206 F 
ATOM     92  C   UNL     1      -3.586  12.596  18.237  1.00  0.00     0.006 A 
ENDBRANCH  68  85
ENDBRANCH  42  43
ENDBRANCH  34  37
ENDBRANCH  32  33
ENDBRANCH  31  32
ENDBRANCH  30  31
ENDBRANCH  29  30
ENDBRANCH   1  29
TORSDOF 17
