REMARK SMILES Cc1ccc(-c2nn(-c3ccccc3)cc2[C@@H]2[NH2+][C@H](C(=O)NCCCCCCNC(=O)c3ccc(-c4c5nc(c(-c6c(F)cccc6F)c6ccc([nH]6)c(-c6c(F)cccc6F)c6nc(c(-c7c(F)cccc7F)c7ccc4[nH]7)C=C6)C=C5)cc3)CS2)cc1
REMARK SMILES IDX 25 1 24 2 23 3 22 4 20 5 21 6 19 8 17 9 18 10 87 11 86 14
REMARK SMILES IDX 16 15 6 16 7 17 8 18 15 19 5 20 1 21 2 22 3 23 89 24 4 25
REMARK SMILES IDX 88 26 9 27 10 28 14 29 11 30 13 31 12 32 26 33 27 34 28 35
REMARK SMILES IDX 29 36 30 37 31 39 32 40 33 41 85 42 34 43 84 44 35 45 36 46
REMARK SMILES IDX 37 47 78 48 38 49 83 50 77 51 79 52 39 53 82 54 76 55 75 56
REMARK SMILES IDX 40 58 66 59 49 60 65 61 50 62 53 63 64 64 80 65 51 66 52 67
REMARK SMILES IDX 63 69 81 70 54 71 41 72 42 73 47 74 43 75 44 76 46 77 48 78
REMARK SMILES IDX 45 79 67 80 68 81 73 82 69 83 70 84 72 85 74 86 71 87 55 88
REMARK SMILES IDX 56 89 61 90 57 91 58 92 60 93 62 94 59 95
REMARK H PARENT 22 7 18 12 18 13 29 38 79 57 53 68
REMARK Flexibility Score: inf
ROOT
ATOM      1  C   UNL     1      -4.751  -1.367  -3.497  1.00  0.00     0.002 C 
ENDROOT
BRANCH   1   2
ATOM      2  C   UNL     1      -4.324  -2.094  -2.191  1.00  0.00     0.021 C 
BRANCH   2   3
ATOM      3  C   UNL     1      -4.950  -1.816  -0.822  1.00  0.00     0.116 C 
BRANCH   3   4
ATOM      4  N   UNL     1      -5.859  -2.826  -0.297  1.00  0.00    -0.351 N 
ATOM      5  C   UNL     1      -6.160  -3.223   0.977  1.00  0.00     0.279 C 
ATOM      6  O   UNL     1      -7.191  -3.909   1.077  1.00  0.00    -0.268 OA
ATOM      7  H   UNL     1      -6.351  -3.318  -0.994  1.00  0.00     0.163 HD
BRANCH   5   8
ATOM      8  C   UNL     1      -5.355  -2.963   2.282  1.00  0.00     0.283 C 
ATOM      9  C   UNL     1      -4.059  -1.003   2.881  1.00  0.00     0.278 C 
ATOM     10  N   UNL     1      -4.047  -2.277   2.153  1.00  0.00    -0.320 N 
ATOM     11  S   UNL     1      -5.129  -1.256   4.307  1.00  0.00    -0.087 SA
ATOM     12  H   UNL     1      -3.316  -2.875   2.537  1.00  0.00     0.348 HD
ATOM     13  H   UNL     1      -3.869  -2.091   1.166  1.00  0.00     0.348 HD
ATOM     14  C   UNL     1      -6.236  -2.342   3.375  1.00  0.00     0.151 C 
BRANCH   9  15
ATOM     15  C   UNL     1      -4.518   0.069   1.946  1.00  0.00     0.067 A 
ATOM     16  C   UNL     1      -3.748   0.804   0.970  1.00  0.00     0.103 A 
ATOM     17  N   UNL     1      -4.537   1.696   0.323  1.00  0.00    -0.167 NA
ATOM     18  N   UNL     1      -5.800   1.392   0.721  1.00  0.00    -0.240 N 
ATOM     19  C   UNL     1      -5.806   0.535   1.777  1.00  0.00     0.126 A 
BRANCH  16  20
ATOM     20  C   UNL     1      -2.313   0.638   0.626  1.00  0.00     0.003 A 
ATOM     21  C   UNL     1       1.929   0.130  -0.199  1.00  0.00     0.044 C 
ATOM     22  C   UNL     1       0.462   0.322   0.055  1.00  0.00    -0.051 A 
ATOM     23  C   UNL     1      -0.342  -0.790   0.286  1.00  0.00     0.004 A 
ATOM     24  C   UNL     1      -0.135   1.588   0.063  1.00  0.00     0.004 A 
ATOM     25  C   UNL     1      -1.703  -0.627   0.568  1.00  0.00     0.011 A 
ATOM     26  C   UNL     1      -1.507   1.744   0.338  1.00  0.00     0.011 A 
ENDBRANCH  16  20
BRANCH  18  27
ATOM     27  C   UNL     1      -6.954   1.714  -0.032  1.00  0.00     0.065 A 
ATOM     28  C   UNL     1      -7.767   0.673  -0.521  1.00  0.00     0.028 A 
ATOM     29  C   UNL     1      -7.289   3.042  -0.281  1.00  0.00     0.028 A 
ATOM     30  C   UNL     1      -8.861   0.961  -1.335  1.00  0.00     0.002 A 
ATOM     31  C   UNL     1      -8.442   3.322  -1.023  1.00  0.00     0.002 A 
ATOM     32  C   UNL     1      -9.207   2.288  -1.575  1.00  0.00     0.000 A 
ENDBRANCH  18  27
ENDBRANCH   9  15
ENDBRANCH   5   8
ENDBRANCH   3   4
ENDBRANCH   2   3
ENDBRANCH   1   2
BRANCH   1  33
ATOM     33  C   UNL     1      -5.833  -0.279  -3.588  1.00  0.00     0.002 C 
BRANCH  33  34
ATOM     34  C   UNL     1      -5.484   1.120  -3.075  1.00  0.00     0.021 C 
BRANCH  34  35
ATOM     35  C   UNL     1      -4.642   2.033  -3.969  1.00  0.00     0.116 C 
BRANCH  35  36
ATOM     36  N   UNL     1      -5.398   2.978  -4.808  1.00  0.00    -0.352 N 
ATOM     37  C   UNL     1      -4.900   3.977  -5.645  1.00  0.00     0.251 C 
ATOM     38  H   UNL     1      -6.378   2.895  -4.773  1.00  0.00     0.163 HD
ATOM     39  O   UNL     1      -5.628   4.686  -6.315  1.00  0.00    -0.269 OA
BRANCH  37  40
ATOM     40  C   UNL     1      -3.428   4.067  -5.794  1.00  0.00     0.039 A 
ATOM     41  C   UNL     1      -2.904   3.618  -7.010  1.00  0.00     0.014 A 
ATOM     42  C   UNL     1      -2.651   4.119  -4.642  1.00  0.00     0.014 A 
ATOM     43  C   UNL     1      -1.722   2.892  -6.989  1.00  0.00     0.010 A 
ATOM     44  C   UNL     1      -1.523   3.323  -4.605  1.00  0.00     0.010 A 
ATOM     45  C   UNL     1      -1.130   2.625  -5.756  1.00  0.00    -0.014 A 
BRANCH  45  46
ATOM     46  C   UNL     1      -0.190   1.528  -5.558  1.00  0.00     0.031 A 
ATOM     47  C   UNL     1       1.242   1.822  -5.378  1.00  0.00     0.074 A 
ATOM     48  C   UNL     1      -0.616   0.245  -5.538  1.00  0.00     0.049 A 
ATOM     49  N   UNL     1       2.185   0.963  -5.562  1.00  0.00    -0.248 NA
ATOM     50  C   UNL     1       1.729   3.164  -5.088  1.00  0.00     0.031 C 
ATOM     51  C   UNL     1       0.136  -0.931  -5.108  1.00  0.00     0.029 A 
ATOM     52  N   UNL     1      -1.765  -0.281  -6.140  1.00  0.00    -0.354 N 
ATOM     53  C   UNL     1       3.364   1.544  -5.166  1.00  0.00     0.074 A 
ATOM     54  C   UNL     1       3.044   2.942  -5.023  1.00  0.00     0.031 C 
ATOM     55  C   UNL     1      -0.395  -2.021  -5.682  1.00  0.00     0.029 A 
ATOM     56  C   UNL     1      -1.425  -1.574  -6.600  1.00  0.00     0.049 A 
ATOM     57  H   UNL     1      -2.640   0.163  -6.227  1.00  0.00     0.167 HD
ATOM     58  C   UNL     1       4.428   0.738  -4.893  1.00  0.00     0.037 A 
ATOM     59  C   UNL     1      -1.495  -1.891  -7.925  1.00  0.00     0.037 A 
ATOM     60  C   UNL     1       4.199  -0.620  -5.405  1.00  0.00     0.049 A 
ATOM     61  C   UNL     1      -0.169  -2.256  -8.559  1.00  0.00     0.074 A 
ATOM     62  C   UNL     1       3.864  -1.841  -4.843  1.00  0.00     0.029 A 
ATOM     63  N   UNL     1       4.065  -0.786  -6.775  1.00  0.00    -0.354 N 
ATOM     64  N   UNL     1       0.973  -2.257  -7.928  1.00  0.00    -0.248 NA
ATOM     65  C   UNL     1      -0.014  -2.554  -9.985  1.00  0.00     0.031 C 
ATOM     66  C   UNL     1       3.483  -2.725  -5.898  1.00  0.00     0.029 A 
ATOM     67  C   UNL     1       3.604  -2.047  -7.097  1.00  0.00     0.049 A 
ATOM     68  H   UNL     1       4.273  -0.089  -7.438  1.00  0.00     0.167 HD
ATOM     69  C   UNL     1       1.986  -2.443  -8.829  1.00  0.00     0.074 A 
ATOM     70  C   UNL     1       1.322  -2.651 -10.101  1.00  0.00     0.031 C 
ATOM     71  C   UNL     1       3.302  -2.352  -8.487  1.00  0.00     0.037 A 
BRANCH  58  72
ATOM     72  C   UNL     1       5.606   1.105  -4.005  1.00  0.00     0.057 A 
ATOM     73  C   UNL     1       6.518   0.108  -3.599  1.00  0.00     0.134 A 
ATOM     74  C   UNL     1       5.855   2.363  -3.418  1.00  0.00     0.134 A 
ATOM     75  F   UNL     1       6.458  -1.141  -4.084  1.00  0.00    -0.206 F 
ATOM     76  C   UNL     1       7.534   0.329  -2.656  1.00  0.00     0.040 A 
ATOM     77  C   UNL     1       6.874   2.601  -2.486  1.00  0.00     0.040 A 
ATOM     78  F   UNL     1       5.131   3.449  -3.684  1.00  0.00    -0.206 F 
ATOM     79  C   UNL     1       7.710   1.579  -2.086  1.00  0.00     0.006 A 
ENDBRANCH  58  72
BRANCH  59  80
ATOM     80  C   UNL     1      -2.609  -1.193  -8.616  1.00  0.00     0.057 A 
ATOM     81  C   UNL     1      -3.928  -1.509  -8.244  1.00  0.00     0.134 A 
ATOM     82  C   UNL     1      -2.405   0.007  -9.301  1.00  0.00     0.134 A 
ATOM     83  F   UNL     1      -4.188  -2.648  -7.583  1.00  0.00    -0.206 F 
ATOM     84  C   UNL     1      -4.979  -0.610  -8.432  1.00  0.00     0.040 A 
ATOM     85  C   UNL     1      -3.454   0.909  -9.505  1.00  0.00     0.040 A 
ATOM     86  F   UNL     1      -1.172   0.382  -9.670  1.00  0.00    -0.206 F 
ATOM     87  C   UNL     1      -4.734   0.621  -9.033  1.00  0.00     0.006 A 
ENDBRANCH  59  80
BRANCH  71  88
ATOM     88  C   UNL     1       4.413  -2.540  -9.473  1.00  0.00     0.057 A 
ATOM     89  C   UNL     1       4.502  -3.676 -10.287  1.00  0.00     0.134 A 
ATOM     90  C   UNL     1       5.497  -1.646  -9.535  1.00  0.00     0.134 A 
ATOM     91  F   UNL     1       3.529  -4.599 -10.287  1.00  0.00    -0.206 F 
ATOM     92  C   UNL     1       5.606  -3.909 -11.116  1.00  0.00     0.040 A 
ATOM     93  C   UNL     1       6.623  -1.888 -10.325  1.00  0.00     0.040 A 
ATOM     94  F   UNL     1       5.492  -0.495  -8.845  1.00  0.00    -0.206 F 
ATOM     95  C   UNL     1       6.680  -3.024 -11.121  1.00  0.00     0.006 A 
ENDBRANCH  71  88
ENDBRANCH  45  46
ENDBRANCH  37  40
ENDBRANCH  35  36
ENDBRANCH  34  35
ENDBRANCH  33  34
ENDBRANCH   1  33
TORSDOF 16
