REMARK SMILES CCC[NH2+][C@]1(C(=O)NCCCCCCNC(=O)c2ccc(-c3c4nc(c(-c5c(F)cccc5F)c5ccc([nH]5)c(-c5c(F)cccc5F)c5nc(c(-c6c(F)cccc6F)c6ccc3[nH]6)C=C5)C=C4)cc2)CCC[C@H](Sc2nnc(C)o2)C1
REMARK SMILES IDX 11 1 10 2 9 3 8 4 6 5 7 6 5 8 72 9 83 10 73 11 75 12 74 13
REMARK SMILES IDX 4 14 3 17 2 18 1 19 76 20 77 21 78 22 82 23 79 24 80 25
REMARK SMILES IDX 81 26 12 27 13 28 14 29 15 30 16 31 17 33 18 34 19 35 71 36
REMARK SMILES IDX 20 37 70 38 21 39 22 40 23 41 64 42 24 43 69 44 63 45 65 46
REMARK SMILES IDX 25 47 68 48 62 49 61 50 26 52 52 53 35 54 51 55 36 56 39 57
REMARK SMILES IDX 50 58 66 59 37 60 38 61 49 63 67 64 40 65 27 66 28 67 33 68
REMARK SMILES IDX 29 69 30 70 32 71 34 72 31 73 53 74 54 75 59 76 55 77 56 78
REMARK SMILES IDX 58 79 60 80 57 81 41 82 42 83 47 84 43 85 44 86 46 87 48 88
REMARK SMILES IDX 45 89
REMARK H PARENT 8 7 4 15 4 16 15 32 65 51 39 62
REMARK Flexibility Score: inf
ROOT
ATOM      1  C   UNL     1      -3.490  -0.365   1.777  1.00  0.00     0.002 C 
ENDROOT
BRANCH   1   2
ATOM      2  C   UNL     1      -2.823   0.182   3.045  1.00  0.00     0.021 C 
BRANCH   2   3
ATOM      3  C   UNL     1      -1.480  -0.475   3.356  1.00  0.00     0.116 C 
BRANCH   3   4
ATOM      4  N   UNL     1      -0.399   0.171   2.639  1.00  0.00    -0.351 N 
ATOM      5  C   UNL     1       0.675   0.922   2.964  1.00  0.00     0.281 C 
ATOM      6  O   UNL     1       1.383   1.236   1.989  1.00  0.00    -0.268 OA
ATOM      7  H   UNL     1      -0.465   0.024   1.668  1.00  0.00     0.163 HD
BRANCH   5   8
ATOM      8  C   UNL     1       1.107   1.448   4.400  1.00  0.00     0.176 C 
ATOM      9  C   UNL     1       0.543   2.880   4.529  1.00  0.00     0.079 C 
ATOM     10  C   UNL     1       0.525   0.630   5.573  1.00  0.00     0.094 C 
ATOM     11  C   UNL     1       0.710   3.529   5.907  1.00  0.00     0.008 C 
ATOM     12  C   UNL     1       0.837   1.127   6.993  1.00  0.00     0.063 C 
ATOM     13  C   UNL     1       0.463   2.617   7.112  1.00  0.00     0.015 C 
BRANCH   8  14
ATOM     14  N   UNL     1       2.603   1.313   4.369  1.00  0.00    -0.334 N 
ATOM     15  H   UNL     1       2.842   0.505   4.945  1.00  0.00     0.347 HD
ATOM     16  H   UNL     1       2.822   1.246   3.375  1.00  0.00     0.347 HD
BRANCH  14  17
ATOM     17  C   UNL     1       3.426   2.427   4.833  1.00  0.00     0.261 C 
BRANCH  17  18
ATOM     18  C   UNL     1       4.917   2.074   4.818  1.00  0.00     0.058 C 
ATOM     19  C   UNL     1       5.542   2.159   3.437  1.00  0.00     0.010 C 
ENDBRANCH  17  18
ENDBRANCH  14  17
ENDBRANCH   8  14
BRANCH  12  20
ATOM     20  S   UNL     1       2.480   0.516   7.476  1.00  0.00    -0.062 SA
BRANCH  20  21
ATOM     21  C   UNL     1       2.847   1.265   8.980  1.00  0.00     0.276 A 
ATOM     22  N   UNL     1       1.996   1.802   9.830  1.00  0.00    -0.101 NA
ATOM     23  O   UNL     1       4.139   1.333   9.428  1.00  0.00    -0.416 OA
ATOM     24  N   UNL     1       2.745   2.277  10.893  1.00  0.00    -0.112 NA
ATOM     25  C   UNL     1       3.996   1.976  10.621  1.00  0.00     0.214 A 
ATOM     26  C   UNL     1       5.224   2.216  11.395  1.00  0.00     0.113 C 
ENDBRANCH  20  21
ENDBRANCH  12  20
ENDBRANCH   5   8
ENDBRANCH   3   4
ENDBRANCH   2   3
ENDBRANCH   1   2
BRANCH   1  27
ATOM     27  C   UNL     1      -3.780  -1.873   1.790  1.00  0.00     0.002 C 
BRANCH  27  28
ATOM     28  C   UNL     1      -4.541  -2.386   3.017  1.00  0.00     0.021 C 
BRANCH  28  29
ATOM     29  C   UNL     1      -5.915  -1.755   3.222  1.00  0.00     0.116 C 
BRANCH  29  30
ATOM     30  N   UNL     1      -6.810  -2.035   2.112  1.00  0.00    -0.352 N 
ATOM     31  C   UNL     1      -8.059  -2.600   2.113  1.00  0.00     0.251 C 
ATOM     32  H   UNL     1      -6.467  -1.782   1.225  1.00  0.00     0.163 HD
ATOM     33  O   UNL     1      -8.572  -2.952   1.056  1.00  0.00    -0.269 OA
BRANCH  31  34
ATOM     34  C   UNL     1      -8.790  -2.796   3.384  1.00  0.00     0.039 A 
ATOM     35  C   UNL     1      -9.491  -3.989   3.577  1.00  0.00     0.014 A 
ATOM     36  C   UNL     1      -8.825  -1.796   4.361  1.00  0.00     0.014 A 
ATOM     37  C   UNL     1     -10.191  -4.198   4.766  1.00  0.00     0.010 A 
ATOM     38  C   UNL     1      -9.470  -2.031   5.573  1.00  0.00     0.010 A 
ATOM     39  C   UNL     1     -10.166  -3.230   5.784  1.00  0.00    -0.014 A 
BRANCH  39  40
ATOM     40  C   UNL     1     -10.870  -3.462   7.070  1.00  0.00     0.031 A 
ATOM     41  C   UNL     1     -12.049  -2.613   7.456  1.00  0.00     0.074 A 
ATOM     42  C   UNL     1     -10.415  -4.409   7.911  1.00  0.00     0.049 A 
ATOM     43  N   UNL     1     -12.771  -2.649   8.547  1.00  0.00    -0.248 NA
ATOM     44  C   UNL     1     -12.456  -1.569   6.502  1.00  0.00     0.031 C 
ATOM     45  C   UNL     1      -9.249  -5.263   7.673  1.00  0.00     0.029 A 
ATOM     46  N   UNL     1     -10.876  -4.809   9.140  1.00  0.00    -0.354 N 
ATOM     47  C   UNL     1     -13.705  -1.629   8.417  1.00  0.00     0.074 A 
ATOM     48  C   UNL     1     -13.428  -0.961   7.164  1.00  0.00     0.031 C 
ATOM     49  C   UNL     1      -9.102  -6.103   8.710  1.00  0.00     0.029 A 
ATOM     50  C   UNL     1     -10.142  -5.828   9.697  1.00  0.00     0.049 A 
ATOM     51  H   UNL     1     -11.658  -4.405   9.580  1.00  0.00     0.167 HD
ATOM     52  C   UNL     1     -14.715  -1.295   9.255  1.00  0.00     0.037 A 
ATOM     53  C   UNL     1     -10.293  -6.470  10.871  1.00  0.00     0.037 A 
ATOM     54  C   UNL     1     -15.005  -1.979  10.488  1.00  0.00     0.049 A 
ATOM     55  C   UNL     1     -11.429  -6.088  11.776  1.00  0.00     0.074 A 
ATOM     56  C   UNL     1     -16.046  -1.758  11.374  1.00  0.00     0.029 A 
ATOM     57  N   UNL     1     -14.251  -3.018  11.010  1.00  0.00    -0.354 N 
ATOM     58  N   UNL     1     -12.349  -5.169  11.607  1.00  0.00    -0.248 NA
ATOM     59  C   UNL     1     -11.554  -6.839  13.033  1.00  0.00     0.031 C 
ATOM     60  C   UNL     1     -15.899  -2.639  12.451  1.00  0.00     0.029 A 
ATOM     61  C   UNL     1     -14.791  -3.437  12.216  1.00  0.00     0.049 A 
ATOM     62  H   UNL     1     -13.449  -3.403  10.587  1.00  0.00     0.167 HD
ATOM     63  C   UNL     1     -13.174  -5.247  12.720  1.00  0.00     0.074 A 
ATOM     64  C   UNL     1     -12.655  -6.315  13.550  1.00  0.00     0.031 C 
ATOM     65  C   UNL     1     -14.263  -4.502  13.029  1.00  0.00     0.037 A 
BRANCH  52  66
ATOM     66  C   UNL     1     -15.585  -0.136   8.862  1.00  0.00     0.057 A 
ATOM     67  C   UNL     1     -16.493  -0.223   7.798  1.00  0.00     0.134 A 
ATOM     68  C   UNL     1     -15.537   1.069   9.574  1.00  0.00     0.134 A 
ATOM     69  F   UNL     1     -16.580  -1.345   7.068  1.00  0.00    -0.206 F 
ATOM     70  C   UNL     1     -17.305   0.855   7.441  1.00  0.00     0.040 A 
ATOM     71  C   UNL     1     -16.362   2.145   9.242  1.00  0.00     0.040 A 
ATOM     72  F   UNL     1     -14.694   1.218  10.607  1.00  0.00    -0.206 F 
ATOM     73  C   UNL     1     -17.245   2.042   8.169  1.00  0.00     0.006 A 
ENDBRANCH  52  66
BRANCH  53  74
ATOM     74  C   UNL     1      -9.362  -7.563  11.243  1.00  0.00     0.057 A 
ATOM     75  C   UNL     1      -9.786  -8.897  11.253  1.00  0.00     0.134 A 
ATOM     76  C   UNL     1      -8.033  -7.304  11.599  1.00  0.00     0.134 A 
ATOM     77  F   UNL     1     -11.053  -9.204  10.938  1.00  0.00    -0.206 F 
ATOM     78  C   UNL     1      -8.928  -9.934  11.623  1.00  0.00     0.040 A 
ATOM     79  C   UNL     1      -7.158  -8.334  11.949  1.00  0.00     0.040 A 
ATOM     80  F   UNL     1      -7.565  -6.048  11.600  1.00  0.00    -0.206 F 
ATOM     81  C   UNL     1      -7.607  -9.653  11.968  1.00  0.00     0.006 A 
ENDBRANCH  53  74
BRANCH  65  82
ATOM     82  C   UNL     1     -14.978  -4.836  14.304  1.00  0.00     0.057 A 
ATOM     83  C   UNL     1     -14.437  -4.525  15.558  1.00  0.00     0.134 A 
ATOM     84  C   UNL     1     -16.233  -5.458  14.277  1.00  0.00     0.134 A 
ATOM     85  F   UNL     1     -13.232  -3.942  15.652  1.00  0.00    -0.206 F 
ATOM     86  C   UNL     1     -15.106  -4.845  16.740  1.00  0.00     0.040 A 
ATOM     87  C   UNL     1     -16.923  -5.759  15.451  1.00  0.00     0.040 A 
ATOM     88  F   UNL     1     -16.811  -5.775  13.108  1.00  0.00    -0.206 F 
ATOM     89  C   UNL     1     -16.356  -5.459  16.688  1.00  0.00     0.006 A 
ENDBRANCH  65  82
ENDBRANCH  39  40
ENDBRANCH  31  34
ENDBRANCH  29  30
ENDBRANCH  28  29
ENDBRANCH  27  28
ENDBRANCH   1  27
TORSDOF 18
