REMARK SMILES Cc1cccc(-c2ncc(C[NH+]3CCC4(CC3)NC(=O)C[C@H]4C(=O)NCCCCCCNC(=O)c3ccc(-c4c5nc(c(-c6c(F)cccc6F)c6ccc([nH]6)c(-c6c(F)cccc6F)c6nc(c(-c7c(F)cccc7F)c7ccc4[nH]7)C=C6)C=C5)cc3)cn2)c1
REMARK SMILES IDX 28 1 27 2 26 3 25 4 23 5 24 6 22 8 12 9 13 10 17 11 14 13
REMARK SMILES IDX 16 14 15 15 18 16 19 17 21 19 20 20 11 21 10 22 7 23 8 24
REMARK SMILES IDX 90 25 9 26 89 27 6 28 1 29 2 30 3 31 91 32 4 33 5 34 29 35
REMARK SMILES IDX 30 36 31 37 32 38 33 39 34 41 35 42 36 43 88 44 37 45 87 46
REMARK SMILES IDX 38 47 39 48 40 49 81 50 41 51 86 52 80 53 82 54 42 55 85 56
REMARK SMILES IDX 79 57 78 58 43 60 69 61 52 62 68 63 53 64 56 65 67 66 83 67
REMARK SMILES IDX 54 68 55 69 66 71 84 72 57 73 44 74 45 75 50 76 46 77 47 78
REMARK SMILES IDX 49 79 51 80 48 81 70 82 71 83 76 84 72 85 73 86 75 87 77 88
REMARK SMILES IDX 74 89 58 90 59 91 64 92 60 93 61 94 63 95 65 96 62 97
REMARK H PARENT 25 7 12 12 18 18 32 40 82 59 56 70
REMARK Flexibility Score: inf
ROOT
ATOM      1  C   UNL     1      -0.643   3.087  -4.884  1.00  0.00     0.002 C 
ENDROOT
BRANCH   1   2
ATOM      2  C   UNL     1      -0.553   3.284  -3.373  1.00  0.00     0.021 C 
BRANCH   2   3
ATOM      3  C   UNL     1       0.730   3.966  -2.858  1.00  0.00     0.116 C 
BRANCH   3   4
ATOM      4  N   UNL     1       0.847   5.388  -3.179  1.00  0.00    -0.356 N 
ATOM      5  C   UNL     1       0.890   6.528  -2.426  1.00  0.00     0.226 C 
ATOM      6  O   UNL     1       0.941   7.593  -3.055  1.00  0.00    -0.275 OA
ATOM      7  H   UNL     1       0.906   5.561  -4.146  1.00  0.00     0.163 HD
BRANCH   5   8
ATOM      8  C   UNL     1       0.864   6.588  -0.881  1.00  0.00     0.114 C 
ATOM      9  N   UNL     1      -3.143   6.903   0.172  1.00  0.00    -0.331 N 
ATOM     10  C   UNL     1      -2.129   7.359   1.115  1.00  0.00     0.264 C 
ATOM     11  C   UNL     1      -2.559   6.694  -1.134  1.00  0.00     0.264 C 
ATOM     12  H   UNL     1      -3.789   7.692   0.132  1.00  0.00     0.348 HD
ATOM     13  C   UNL     1      -0.819   6.560   1.174  1.00  0.00     0.091 C 
ATOM     14  C   UNL     1      -1.474   5.638  -1.101  1.00  0.00     0.091 C 
ATOM     15  C   UNL     1      -0.313   5.902  -0.143  1.00  0.00     0.063 C 
ATOM     16  N   UNL     1       0.326   4.671   0.311  1.00  0.00    -0.349 N 
ATOM     17  C   UNL     1       1.704   4.683   0.285  1.00  0.00     0.221 C 
ATOM     18  H   UNL     1      -0.190   3.889   0.614  1.00  0.00     0.164 HD
ATOM     19  C   UNL     1       2.155   5.977  -0.325  1.00  0.00     0.116 C 
ATOM     20  O   UNL     1       2.418   3.787   0.679  1.00  0.00    -0.275 OA
BRANCH   9  21
ATOM     21  C   UNL     1      -4.166   5.924   0.588  1.00  0.00     0.302 C 
BRANCH  21  22
ATOM     22  C   UNL     1      -3.783   4.468   0.570  1.00  0.00     0.043 A 
ATOM     23  C   UNL     1      -2.551   2.051   0.332  1.00  0.00     0.159 A 
ATOM     24  N   UNL     1      -2.409   2.723   1.492  1.00  0.00    -0.236 NA
ATOM     25  N   UNL     1      -3.341   2.444  -0.686  1.00  0.00    -0.236 NA
ATOM     26  C   UNL     1      -3.070   3.894   1.598  1.00  0.00     0.124 A 
ATOM     27  C   UNL     1      -3.949   3.647  -0.537  1.00  0.00     0.124 A 
BRANCH  23  28
ATOM     28  C   UNL     1      -1.686   0.880   0.132  1.00  0.00     0.019 A 
ATOM     29  C   UNL     1       2.060   0.049  -0.009  1.00  0.00     0.044 C 
ATOM     30  C   UNL     1       0.566  -0.109  -0.018  1.00  0.00    -0.050 A 
ATOM     31  C   UNL     1      -0.007  -1.378  -0.111  1.00  0.00     0.003 A 
ATOM     32  C   UNL     1      -0.280   1.004   0.107  1.00  0.00     0.015 A 
ATOM     33  C   UNL     1      -1.395  -1.525  -0.107  1.00  0.00     0.001 A 
ATOM     34  C   UNL     1      -2.227  -0.406   0.001  1.00  0.00     0.012 A 
ENDBRANCH  23  28
ENDBRANCH  21  22
ENDBRANCH   9  21
ENDBRANCH   5   8
ENDBRANCH   3   4
ENDBRANCH   2   3
ENDBRANCH   1   2
BRANCH   1  35
ATOM     35  C   UNL     1       0.560   2.390  -5.519  1.00  0.00     0.002 C 
BRANCH  35  36
ATOM     36  C   UNL     1       1.007   1.102  -4.830  1.00  0.00     0.021 C 
BRANCH  36  37
ATOM     37  C   UNL     1       0.004  -0.030  -4.923  1.00  0.00     0.116 C 
BRANCH  37  38
ATOM     38  N   UNL     1      -0.046  -0.625  -6.249  1.00  0.00    -0.352 N 
ATOM     39  C   UNL     1      -0.603  -1.803  -6.697  1.00  0.00     0.251 C 
ATOM     40  H   UNL     1       0.397  -0.094  -6.949  1.00  0.00     0.163 HD
ATOM     41  O   UNL     1      -0.373  -2.158  -7.851  1.00  0.00    -0.269 OA
BRANCH  39  42
ATOM     42  C   UNL     1      -1.640  -2.518  -5.906  1.00  0.00     0.039 A 
ATOM     43  C   UNL     1      -2.632  -3.176  -6.655  1.00  0.00     0.014 A 
ATOM     44  C   UNL     1      -1.892  -2.170  -4.589  1.00  0.00     0.014 A 
ATOM     45  C   UNL     1      -3.944  -3.151  -6.211  1.00  0.00     0.010 A 
ATOM     46  C   UNL     1      -3.192  -1.964  -4.231  1.00  0.00     0.010 A 
ATOM     47  C   UNL     1      -4.210  -2.407  -5.074  1.00  0.00    -0.014 A 
BRANCH  47  48
ATOM     48  C   UNL     1      -5.520  -2.119  -4.553  1.00  0.00     0.031 A 
ATOM     49  C   UNL     1      -5.991  -2.998  -3.476  1.00  0.00     0.074 A 
ATOM     50  C   UNL     1      -6.070  -0.927  -4.869  1.00  0.00     0.049 A 
ATOM     51  N   UNL     1      -7.189  -3.010  -3.029  1.00  0.00    -0.248 NA
ATOM     52  C   UNL     1      -5.130  -3.986  -2.824  1.00  0.00     0.031 C 
ATOM     53  C   UNL     1      -7.118  -0.201  -4.167  1.00  0.00     0.029 A 
ATOM     54  N   UNL     1      -5.881  -0.198  -6.050  1.00  0.00    -0.354 N 
ATOM     55  C   UNL     1      -7.190  -3.738  -1.859  1.00  0.00     0.074 A 
ATOM     56  C   UNL     1      -5.920  -4.414  -1.837  1.00  0.00     0.031 C 
ATOM     57  C   UNL     1      -7.694   0.664  -5.021  1.00  0.00     0.029 A 
ATOM     58  C   UNL     1      -7.128   0.402  -6.334  1.00  0.00     0.049 A 
ATOM     59  H   UNL     1      -5.051  -0.120  -6.573  1.00  0.00     0.167 HD
ATOM     60  C   UNL     1      -8.229  -3.538  -1.002  1.00  0.00     0.037 A 
ATOM     61  C   UNL     1      -7.851  -0.007  -7.421  1.00  0.00     0.037 A 
ATOM     62  C   UNL     1      -9.203  -2.647  -1.632  1.00  0.00     0.049 A 
ATOM     63  C   UNL     1      -9.158  -0.658  -7.027  1.00  0.00     0.074 A 
ATOM     64  C   UNL     1      -9.403  -1.278  -1.554  1.00  0.00     0.029 A 
ATOM     65  N   UNL     1      -9.865  -3.083  -2.772  1.00  0.00    -0.354 N 
ATOM     66  N   UNL     1      -9.358  -1.255  -5.882  1.00  0.00    -0.248 NA
ATOM     67  C   UNL     1     -10.359  -0.625  -7.856  1.00  0.00     0.031 C 
ATOM     68  C   UNL     1     -10.147  -0.885  -2.698  1.00  0.00     0.029 A 
ATOM     69  C   UNL     1     -10.413  -2.016  -3.452  1.00  0.00     0.049 A 
ATOM     70  H   UNL     1      -9.934  -4.024  -3.054  1.00  0.00     0.167 HD
ATOM     71  C   UNL     1     -10.672  -1.641  -5.788  1.00  0.00     0.074 A 
ATOM     72  C   UNL     1     -11.253  -1.233  -7.054  1.00  0.00     0.031 C 
ATOM     73  C   UNL     1     -11.181  -2.238  -4.668  1.00  0.00     0.037 A 
BRANCH  60  74
ATOM     74  C   UNL     1      -8.291  -3.912   0.460  1.00  0.00     0.057 A 
ATOM     75  C   UNL     1      -9.255  -3.305   1.295  1.00  0.00     0.134 A 
ATOM     76  C   UNL     1      -7.437  -4.804   1.132  1.00  0.00     0.134 A 
ATOM     77  F   UNL     1     -10.179  -2.464   0.811  1.00  0.00    -0.206 F 
ATOM     78  C   UNL     1      -9.325  -3.522   2.676  1.00  0.00     0.040 A 
ATOM     79  C   UNL     1      -7.486  -5.019   2.518  1.00  0.00     0.040 A 
ATOM     80  F   UNL     1      -6.530  -5.547   0.496  1.00  0.00    -0.206 F 
ATOM     81  C   UNL     1      -8.429  -4.373   3.298  1.00  0.00     0.006 A 
ENDBRANCH  60  74
BRANCH  61  82
ATOM     82  C   UNL     1      -6.960  -0.395  -8.556  1.00  0.00     0.057 A 
ATOM     83  C   UNL     1      -6.172   0.629  -9.120  1.00  0.00     0.134 A 
ATOM     84  C   UNL     1      -6.487  -1.705  -8.692  1.00  0.00     0.134 A 
ATOM     85  F   UNL     1      -6.582   1.906  -9.051  1.00  0.00    -0.206 F 
ATOM     86  C   UNL     1      -4.884   0.386  -9.607  1.00  0.00     0.040 A 
ATOM     87  C   UNL     1      -5.207  -1.960  -9.204  1.00  0.00     0.040 A 
ATOM     88  F   UNL     1      -7.182  -2.738  -8.195  1.00  0.00    -0.206 F 
ATOM     89  C   UNL     1      -4.378  -0.909  -9.599  1.00  0.00     0.006 A 
ENDBRANCH  61  82
BRANCH  73  90
ATOM     90  C   UNL     1     -12.479  -3.014  -4.555  1.00  0.00     0.057 A 
ATOM     91  C   UNL     1     -13.172  -3.561  -5.642  1.00  0.00     0.134 A 
ATOM     92  C   UNL     1     -12.989  -3.388  -3.284  1.00  0.00     0.134 A 
ATOM     93  F   UNL     1     -12.752  -3.402  -6.902  1.00  0.00    -0.206 F 
ATOM     94  C   UNL     1     -14.312  -4.363  -5.483  1.00  0.00     0.040 A 
ATOM     95  C   UNL     1     -14.077  -4.247  -3.115  1.00  0.00     0.040 A 
ATOM     96  F   UNL     1     -12.438  -2.964  -2.137  1.00  0.00    -0.206 F 
ATOM     97  C   UNL     1     -14.758  -4.723  -4.218  1.00  0.00     0.006 A 
ENDBRANCH  73  90
ENDBRANCH  47  48
ENDBRANCH  39  42
ENDBRANCH  37  38
ENDBRANCH  36  37
ENDBRANCH  35  36
ENDBRANCH   1  35
TORSDOF 16
