REMARK SMILES C[C@@H](C(=O)NCCCCCCNC(=O)c1ccc(-c2c3nc(c(-c4c(F)cccc4F)c4ccc([nH]4)c(-c4c(F)cccc4F)c4nc(c(-c5c(F)cccc5F)c5ccc2[nH]5)C=C4)C=C3)cc1)c1ccc(NC2CCCC2)cc1F
REMARK SMILES IDX 8 1 7 2 6 3 5 4 3 5 4 6 2 8 1 9 69 10 70 11 80 12 71 13
REMARK SMILES IDX 79 14 81 15 72 16 73 17 74 19 75 20 78 21 76 22 77 23 9 24
REMARK SMILES IDX 10 25 11 26 12 27 13 28 14 30 15 31 16 32 68 33 17 34 67 35
REMARK SMILES IDX 18 36 19 37 20 38 61 39 21 40 66 41 60 42 62 43 22 44 65 45
REMARK SMILES IDX 59 46 58 47 23 49 49 50 32 51 48 52 33 53 36 54 47 55 63 56
REMARK SMILES IDX 34 57 35 58 46 60 64 61 37 62 24 63 25 64 30 65 26 66 27 67
REMARK SMILES IDX 29 68 31 69 28 70 50 71 51 72 56 73 52 74 53 75 55 76 57 77
REMARK SMILES IDX 54 78 38 79 39 80 44 81 40 82 41 83 43 84 45 85 42 86
REMARK H PARENT 5 7 73 18 12 29 62 48 36 59
REMARK Flexibility Score: inf
ROOT
ATOM      1  C   UNL     1       5.083  -2.771   0.137  1.00  0.00     0.002 C 
ENDROOT
BRANCH   1   2
ATOM      2  C   UNL     1       4.338  -1.443  -0.045  1.00  0.00     0.021 C 
BRANCH   2   3
ATOM      3  C   UNL     1       3.514  -1.365  -1.338  1.00  0.00     0.116 C 
BRANCH   3   4
ATOM      4  N   UNL     1       2.464  -2.364  -1.313  1.00  0.00    -0.356 N 
ATOM      5  C   UNL     1       1.229  -2.215  -0.735  1.00  0.00     0.227 C 
ATOM      6  O   UNL     1       0.788  -3.170  -0.098  1.00  0.00    -0.274 OA
ATOM      7  H   UNL     1       2.654  -3.226  -1.749  1.00  0.00     0.163 HD
BRANCH   5   8
ATOM      8  C   UNL     1       0.541  -0.853  -0.858  1.00  0.00     0.108 C 
ATOM      9  C   UNL     1       0.934  -0.026   0.381  1.00  0.00     0.023 C 
BRANCH   8  10
ATOM     10  C   UNL     1      -0.974  -0.842  -1.025  1.00  0.00     0.000 A 
ATOM     11  C   UNL     1      -1.625   0.400  -1.028  1.00  0.00     0.009 A 
ATOM     12  C   UNL     1      -1.788  -1.965  -1.178  1.00  0.00     0.129 A 
ATOM     13  C   UNL     1      -3.018   0.495  -1.022  1.00  0.00     0.026 A 
ATOM     14  C   UNL     1      -3.184  -1.868  -1.141  1.00  0.00     0.065 A 
ATOM     15  F   UNL     1      -1.274  -3.179  -1.403  1.00  0.00    -0.207 F 
ATOM     16  C   UNL     1      -3.830  -0.637  -1.010  1.00  0.00     0.037 A 
BRANCH  16  17
ATOM     17  N   UNL     1      -5.207  -0.603  -0.941  1.00  0.00    -0.382 N 
ATOM     18  H   UNL     1      -5.651  -1.479  -0.869  1.00  0.00     0.160 HD
BRANCH  17  19
ATOM     19  C   UNL     1      -6.090   0.551  -0.959  1.00  0.00     0.079 C 
ATOM     20  C   UNL     1      -5.919   1.504   0.219  1.00  0.00     0.025 C 
ATOM     21  C   UNL     1      -5.963   1.393  -2.227  1.00  0.00     0.025 C 
ATOM     22  C   UNL     1      -6.468   2.825  -0.298  1.00  0.00     0.002 C 
ATOM     23  C   UNL     1      -6.202   2.837  -1.800  1.00  0.00     0.002 C 
ENDBRANCH  17  19
ENDBRANCH  16  17
ENDBRANCH   8  10
ENDBRANCH   5   8
ENDBRANCH   3   4
ENDBRANCH   2   3
ENDBRANCH   1   2
BRANCH   1  24
ATOM     24  C   UNL     1       6.048  -3.116  -0.999  1.00  0.00     0.002 C 
BRANCH  24  25
ATOM     25  C   UNL     1       7.092  -2.037  -1.286  1.00  0.00     0.021 C 
BRANCH  25  26
ATOM     26  C   UNL     1       7.976  -1.693  -0.094  1.00  0.00     0.116 C 
BRANCH  26  27
ATOM     27  N   UNL     1       8.791  -2.825   0.319  1.00  0.00    -0.352 N 
ATOM     28  C   UNL     1      10.153  -2.901   0.455  1.00  0.00     0.251 C 
ATOM     29  H   UNL     1       8.297  -3.649   0.530  1.00  0.00     0.163 HD
ATOM     30  O   UNL     1      10.704  -3.991   0.599  1.00  0.00    -0.269 OA
BRANCH  28  31
ATOM     31  C   UNL     1      10.960  -1.667   0.408  1.00  0.00     0.039 A 
ATOM     32  C   UNL     1      12.126  -1.647  -0.360  1.00  0.00     0.014 A 
ATOM     33  C   UNL     1      10.563  -0.529   1.118  1.00  0.00     0.014 A 
ATOM     34  C   UNL     1      12.865  -0.468  -0.460  1.00  0.00     0.010 A 
ATOM     35  C   UNL     1      11.257   0.665   0.954  1.00  0.00     0.010 A 
ATOM     36  C   UNL     1      12.419   0.706   0.169  1.00  0.00    -0.014 A 
BRANCH  36  37
ATOM     37  C   UNL     1      13.158   1.984   0.021  1.00  0.00     0.031 A 
ATOM     38  C   UNL     1      13.778   2.642   1.222  1.00  0.00     0.074 A 
ATOM     39  C   UNL     1      13.220   2.582  -1.185  1.00  0.00     0.049 A 
ATOM     40  N   UNL     1      14.409   3.786   1.305  1.00  0.00    -0.248 NA
ATOM     41  C   UNL     1      13.649   1.935   2.506  1.00  0.00     0.031 C 
ATOM     42  C   UNL     1      12.620   2.066  -2.417  1.00  0.00     0.029 A 
ATOM     43  N   UNL     1      13.810   3.759  -1.571  1.00  0.00    -0.354 N 
ATOM     44  C   UNL     1      14.741   3.938   2.645  1.00  0.00     0.074 A 
ATOM     45  C   UNL     1      14.191   2.801   3.349  1.00  0.00     0.031 C 
ATOM     46  C   UNL     1      12.894   2.909  -3.425  1.00  0.00     0.029 A 
ATOM     47  C   UNL     1      13.651   4.043  -2.905  1.00  0.00     0.049 A 
ATOM     48  H   UNL     1      14.300   4.345  -0.950  1.00  0.00     0.167 HD
ATOM     49  C   UNL     1      15.460   4.924   3.232  1.00  0.00     0.037 A 
ATOM     50  C   UNL     1      14.062   5.103  -3.627  1.00  0.00     0.037 A 
ATOM     51  C   UNL     1      16.022   6.045   2.525  1.00  0.00     0.049 A 
ATOM     52  C   UNL     1      14.843   6.194  -2.947  1.00  0.00     0.074 A 
ATOM     53  C   UNL     1      16.814   7.067   3.019  1.00  0.00     0.029 A 
ATOM     54  N   UNL     1      15.846   6.294   1.171  1.00  0.00    -0.354 N 
ATOM     55  N   UNL     1      15.210   6.291  -1.692  1.00  0.00    -0.248 NA
ATOM     56  C   UNL     1      15.273   7.322  -3.786  1.00  0.00     0.031 C 
ATOM     57  C   UNL     1      17.073   7.962   1.976  1.00  0.00     0.029 A 
ATOM     58  C   UNL     1      16.492   7.468   0.819  1.00  0.00     0.049 A 
ATOM     59  H   UNL     1      15.338   5.721   0.553  1.00  0.00     0.167 HD
ATOM     60  C   UNL     1      15.937   7.471  -1.597  1.00  0.00     0.074 A 
ATOM     61  C   UNL     1      15.972   8.047  -2.925  1.00  0.00     0.031 C 
ATOM     62  C   UNL     1      16.523   8.027  -0.509  1.00  0.00     0.037 A 
BRANCH  49  63
ATOM     63  C   UNL     1      15.680   4.833   4.715  1.00  0.00     0.057 A 
ATOM     64  C   UNL     1      16.503   3.850   5.283  1.00  0.00     0.134 A 
ATOM     65  C   UNL     1      15.089   5.759   5.584  1.00  0.00     0.134 A 
ATOM     66  F   UNL     1      17.091   2.925   4.509  1.00  0.00    -0.206 F 
ATOM     67  C   UNL     1      16.707   3.775   6.662  1.00  0.00     0.040 A 
ATOM     68  C   UNL     1      15.310   5.712   6.962  1.00  0.00     0.040 A 
ATOM     69  F   UNL     1      14.295   6.730   5.109  1.00  0.00    -0.206 F 
ATOM     70  C   UNL     1      16.115   4.712   7.505  1.00  0.00     0.006 A 
ENDBRANCH  49  63
BRANCH  50  71
ATOM     71  C   UNL     1      13.760   5.178  -5.079  1.00  0.00     0.057 A 
ATOM     72  C   UNL     1      14.777   5.070  -6.035  1.00  0.00     0.134 A 
ATOM     73  C   UNL     1      12.454   5.371  -5.546  1.00  0.00     0.134 A 
ATOM     74  F   UNL     1      16.050   4.903  -5.650  1.00  0.00    -0.206 F 
ATOM     75  C   UNL     1      14.511   5.174  -7.401  1.00  0.00     0.040 A 
ATOM     76  C   UNL     1      12.170   5.449  -6.910  1.00  0.00     0.040 A 
ATOM     77  F   UNL     1      11.434   5.473  -4.682  1.00  0.00    -0.206 F 
ATOM     78  C   UNL     1      13.202   5.359  -7.842  1.00  0.00     0.006 A 
ENDBRANCH  50  71
BRANCH  62  79
ATOM     79  C   UNL     1      17.284   9.305  -0.715  1.00  0.00     0.057 A 
ATOM     80  C   UNL     1      16.638  10.518  -0.982  1.00  0.00     0.134 A 
ATOM     81  C   UNL     1      18.680   9.327  -0.605  1.00  0.00     0.134 A 
ATOM     82  F   UNL     1      15.303  10.565  -1.112  1.00  0.00    -0.206 F 
ATOM     83  C   UNL     1      17.355  11.703  -1.158  1.00  0.00     0.040 A 
ATOM     84  C   UNL     1      19.406  10.509  -0.750  1.00  0.00     0.040 A 
ATOM     85  F   UNL     1      19.361   8.201  -0.341  1.00  0.00    -0.206 F 
ATOM     86  C   UNL     1      18.743  11.701  -1.034  1.00  0.00     0.006 A 
ENDBRANCH  62  79
ENDBRANCH  36  37
ENDBRANCH  28  31
ENDBRANCH  26  27
ENDBRANCH  25  26
ENDBRANCH  24  25
ENDBRANCH   1  24
TORSDOF 16
