REMARK SMILES C[C@@H](C(=O)NCCCCCCNC(=O)c1ccc(-c2c3nc(c(-c4c(F)cccc4F)c4ccc([nH]4)c(-c4c(F)cccc4F)c4nc(c(-c5c(F)cccc5F)c5ccc2[nH]5)C=C4)C=C3)cc1)N1C(=O)/C(=C/c2ccc(N(C)C)cc2)SC1=S
REMARK SMILES IDX 8 1 7 2 6 3 5 4 3 5 4 6 2 8 1 9 69 10 70 11 84 12 71 13
REMARK SMILES IDX 72 14 83 15 85 16 73 17 74 18 75 19 82 20 76 21 81 22 77 23
REMARK SMILES IDX 78 24 79 25 80 26 9 27 10 28 11 29 12 30 13 31 14 33 15 34
REMARK SMILES IDX 16 35 68 36 17 37 67 38 18 39 19 40 20 41 61 42 21 43 66 44
REMARK SMILES IDX 60 45 62 46 22 47 65 48 59 49 58 50 23 52 49 53 32 54 48 55
REMARK SMILES IDX 33 56 36 57 47 58 63 59 34 60 35 61 46 63 64 64 37 65 24 66
REMARK SMILES IDX 25 67 30 68 26 69 27 70 29 71 31 72 28 73 50 74 51 75 56 76
REMARK SMILES IDX 52 77 53 78 55 79 57 80 54 81 38 82 39 83 44 84 40 85 41 86
REMARK SMILES IDX 43 87 45 88 42 89
REMARK H PARENT 5 7 12 32 62 51 36 62
REMARK Flexibility Score: inf
ROOT
ATOM      1  C   UNL     1       4.870  -2.594   1.315  1.00  0.00     0.002 C 
ENDROOT
BRANCH   1   2
ATOM      2  C   UNL     1       4.115  -1.483   0.576  1.00  0.00     0.021 C 
BRANCH   2   3
ATOM      3  C   UNL     1       3.154  -1.993  -0.505  1.00  0.00     0.116 C 
BRANCH   3   4
ATOM      4  N   UNL     1       2.018  -2.655   0.112  1.00  0.00    -0.354 N 
ATOM      5  C   UNL     1       0.754  -2.175   0.332  1.00  0.00     0.242 C 
ATOM      6  O   UNL     1       0.079  -2.711   1.214  1.00  0.00    -0.273 OA
ATOM      7  H   UNL     1       2.179  -3.578   0.414  1.00  0.00     0.163 HD
BRANCH   5   8
ATOM      8  C   UNL     1       0.245  -0.954  -0.481  1.00  0.00     0.178 C 
ATOM      9  C   UNL     1       0.837   0.278   0.214  1.00  0.00     0.042 C 
BRANCH   8  10
ATOM     10  N   UNL     1      -1.242  -0.977  -0.557  1.00  0.00    -0.281 N 
ATOM     11  C   UNL     1      -1.849  -2.186  -0.898  1.00  0.00     0.266 C 
ATOM     12  C   UNL     1      -2.097   0.104  -0.647  1.00  0.00     0.149 C 
ATOM     13  O   UNL     1      -1.282  -3.176  -1.342  1.00  0.00    -0.268 OA
ATOM     14  C   UNL     1      -3.329  -2.077  -0.799  1.00  0.00     0.081 C 
ATOM     15  S   UNL     1      -3.764  -0.439  -0.541  1.00  0.00    -0.054 SA
ATOM     16  S   UNL     1      -1.786   1.724  -0.901  1.00  0.00    -0.052 S 
ATOM     17  C   UNL     1      -4.164  -3.118  -0.935  1.00  0.00     0.029 C 
BRANCH  17  18
ATOM     18  C   UNL     1      -5.625  -2.982  -0.950  1.00  0.00    -0.024 A 
ATOM     19  C   UNL     1      -6.412  -3.438   0.103  1.00  0.00     0.010 A 
ATOM     20  C   UNL     1      -6.249  -2.337  -2.014  1.00  0.00     0.010 A 
ATOM     21  C   UNL     1      -7.803  -3.214   0.098  1.00  0.00     0.026 A 
ATOM     22  C   UNL     1      -7.632  -2.117  -2.003  1.00  0.00     0.026 A 
ATOM     23  C   UNL     1      -8.459  -2.539  -0.946  1.00  0.00     0.036 A 
BRANCH  23  24
ATOM     24  N   UNL     1      -9.828  -2.304  -0.964  1.00  0.00    -0.378 N 
ATOM     25  C   UNL     1     -10.738  -2.714   0.098  1.00  0.00     0.143 C 
ATOM     26  C   UNL     1     -10.412  -1.442  -1.990  1.00  0.00     0.143 C 
ENDBRANCH  23  24
ENDBRANCH  17  18
ENDBRANCH   8  10
ENDBRANCH   5   8
ENDBRANCH   3   4
ENDBRANCH   2   3
ENDBRANCH   1   2
BRANCH   1  27
ATOM     27  C   UNL     1       5.831  -3.408   0.445  1.00  0.00     0.002 C 
BRANCH  27  28
ATOM     28  C   UNL     1       6.876  -2.581  -0.305  1.00  0.00     0.021 C 
BRANCH  28  29
ATOM     29  C   UNL     1       7.770  -1.731   0.590  1.00  0.00     0.116 C 
BRANCH  29  30
ATOM     30  N   UNL     1       8.630  -2.544   1.436  1.00  0.00    -0.352 N 
ATOM     31  C   UNL     1       9.994  -2.479   1.584  1.00  0.00     0.251 C 
ATOM     32  H   UNL     1       8.174  -3.232   1.974  1.00  0.00     0.163 HD
ATOM     33  O   UNL     1      10.602  -3.353   2.192  1.00  0.00    -0.269 OA
BRANCH  31  34
ATOM     34  C   UNL     1      10.727  -1.347   0.985  1.00  0.00     0.039 A 
ATOM     35  C   UNL     1      11.859  -1.599   0.205  1.00  0.00     0.014 A 
ATOM     36  C   UNL     1      10.276  -0.039   1.181  1.00  0.00     0.014 A 
ATOM     37  C   UNL     1      12.509  -0.538  -0.429  1.00  0.00     0.010 A 
ATOM     38  C   UNL     1      10.881   1.005   0.492  1.00  0.00     0.010 A 
ATOM     39  C   UNL     1      12.007   0.768  -0.313  1.00  0.00    -0.014 A 
BRANCH  39  40
ATOM     40  C   UNL     1      12.648   1.921  -0.990  1.00  0.00     0.031 A 
ATOM     41  C   UNL     1      13.235   3.028  -0.161  1.00  0.00     0.074 A 
ATOM     42  C   UNL     1      12.607   2.027  -2.331  1.00  0.00     0.049 A 
ATOM     43  N   UNL     1      13.680   4.200  -0.536  1.00  0.00    -0.248 NA
ATOM     44  C   UNL     1      13.293   2.797   1.291  1.00  0.00     0.031 C 
ATOM     45  C   UNL     1      12.037   1.036  -3.244  1.00  0.00     0.029 A 
ATOM     46  N   UNL     1      13.030   3.038  -3.158  1.00  0.00    -0.354 N 
ATOM     47  C   UNL     1      14.037   4.857   0.634  1.00  0.00     0.074 A 
ATOM     48  C   UNL     1      13.713   3.972   1.733  1.00  0.00     0.031 C 
ATOM     49  C   UNL     1      12.147   1.486  -4.504  1.00  0.00     0.029 A 
ATOM     50  C   UNL     1      12.755   2.814  -4.484  1.00  0.00     0.049 A 
ATOM     51  H   UNL     1      13.488   3.846  -2.831  1.00  0.00     0.167 HD
ATOM     52  C   UNL     1      14.598   6.080   0.780  1.00  0.00     0.037 A 
ATOM     53  C   UNL     1      12.950   3.600  -5.560  1.00  0.00     0.037 A 
ATOM     54  C   UNL     1      14.945   6.942  -0.319  1.00  0.00     0.049 A 
ATOM     55  C   UNL     1      13.577   4.955  -5.380  1.00  0.00     0.074 A 
ATOM     56  C   UNL     1      15.573   8.174  -0.284  1.00  0.00     0.029 A 
ATOM     57  N   UNL     1      14.691   6.658  -1.653  1.00  0.00    -0.354 N 
ATOM     58  N   UNL     1      13.957   5.547  -4.274  1.00  0.00    -0.248 NA
ATOM     59  C   UNL     1      13.808   5.748  -6.595  1.00  0.00     0.031 C 
ATOM     60  C   UNL     1      15.660   8.656  -1.594  1.00  0.00     0.029 A 
ATOM     61  C   UNL     1      15.134   7.700  -2.450  1.00  0.00     0.049 A 
ATOM     62  H   UNL     1      14.259   5.838  -1.984  1.00  0.00     0.167 HD
ATOM     63  C   UNL     1      14.502   6.765  -4.660  1.00  0.00     0.074 A 
ATOM     64  C   UNL     1      14.403   6.827  -6.104  1.00  0.00     0.031 C 
ATOM     65  C   UNL     1      15.043   7.739  -3.888  1.00  0.00     0.037 A 
BRANCH  52  66
ATOM     66  C   UNL     1      14.856   6.555   2.180  1.00  0.00     0.057 A 
ATOM     67  C   UNL     1      15.827   5.963   2.999  1.00  0.00     0.134 A 
ATOM     68  C   UNL     1      14.121   7.619   2.720  1.00  0.00     0.134 A 
ATOM     69  F   UNL     1      16.558   4.931   2.549  1.00  0.00    -0.206 F 
ATOM     70  C   UNL     1      16.029   6.382   4.315  1.00  0.00     0.040 A 
ATOM     71  C   UNL     1      14.336   8.068   4.024  1.00  0.00     0.040 A 
ATOM     72  F   UNL     1      13.180   8.237   1.990  1.00  0.00    -0.206 F 
ATOM     73  C   UNL     1      15.284   7.441   4.829  1.00  0.00     0.006 A 
ENDBRANCH  52  66
BRANCH  53  74
ATOM     74  C   UNL     1      12.563   3.110  -6.906  1.00  0.00     0.057 A 
ATOM     75  C   UNL     1      13.533   2.731  -7.841  1.00  0.00     0.134 A 
ATOM     76  C   UNL     1      11.220   2.982  -7.282  1.00  0.00     0.134 A 
ATOM     77  F   UNL     1      14.836   2.847  -7.545  1.00  0.00    -0.206 F 
ATOM     78  C   UNL     1      13.183   2.251  -9.104  1.00  0.00     0.040 A 
ATOM     79  C   UNL     1      10.855   2.482  -8.533  1.00  0.00     0.040 A 
ATOM     80  F   UNL     1      10.243   3.319  -6.427  1.00  0.00    -0.206 F 
ATOM     81  C   UNL     1      11.840   2.119  -9.450  1.00  0.00     0.006 A 
ENDBRANCH  53  74
BRANCH  65  82
ATOM     82  C   UNL     1      15.620   8.936  -4.583  1.00  0.00     0.057 A 
ATOM     83  C   UNL     1      14.812   9.928  -5.150  1.00  0.00     0.134 A 
ATOM     84  C   UNL     1      17.008   9.131  -4.619  1.00  0.00     0.134 A 
ATOM     85  F   UNL     1      13.477   9.795  -5.159  1.00  0.00    -0.206 F 
ATOM     86  C   UNL     1      15.364  11.069  -5.736  1.00  0.00     0.040 A 
ATOM     87  C   UNL     1      17.569  10.278  -5.180  1.00  0.00     0.040 A 
ATOM     88  F   UNL     1      17.837   8.220  -4.086  1.00  0.00    -0.206 F 
ATOM     89  C   UNL     1      16.746  11.250  -5.742  1.00  0.00     0.006 A 
ENDBRANCH  65  82
ENDBRANCH  39  40
ENDBRANCH  31  34
ENDBRANCH  29  30
ENDBRANCH  28  29
ENDBRANCH  27  28
ENDBRANCH   1  27
TORSDOF 16
