REMARK SMILES O=C(COc1cccc(NC(=O)c2ccc3c(c2)C(=O)N(c2ccccc2-c2ccccc2)C3=O)c1)NCCCCCCNC(=O)c1ccc(-c2c3nc(c(-c4c(F)cccc4F)c4ccc([nH]4)c(-c4c(F)cccc4F)c4nc(c(-c5c(F)cccc5F)c5ccc2[nH]5)C=C4)C=C3)cc1
REMARK SMILES IDX 38 1 37 2 1 3 2 4 3 6 4 7 5 8 6 9 36 10 7 11 9 12 8 13 10 14
REMARK SMILES IDX 11 15 12 17 13 18 14 19 18 20 15 21 17 22 16 23 19 24 34 25
REMARK SMILES IDX 20 26 21 27 35 28 22 29 23 30 27 31 24 32 26 33 25 34 28 35
REMARK SMILES IDX 29 36 33 37 30 38 32 39 31 40 39 41 40 42 41 43 42 44 43 45
REMARK SMILES IDX 44 46 45 47 46 49 47 50 48 51 100 52 49 53 99 54 50 55 51 56
REMARK SMILES IDX 52 57 93 58 53 59 98 60 92 61 94 62 54 63 97 64 91 65 90 66
REMARK SMILES IDX 55 68 81 69 64 70 80 71 65 72 68 73 79 74 95 75 66 76 67 77
REMARK SMILES IDX 78 79 96 80 69 81 56 82 57 83 62 84 58 85 59 86 61 87 63 88
REMARK SMILES IDX 60 89 82 90 83 91 88 92 84 93 85 94 87 95 89 96 86 97 70 98
REMARK SMILES IDX 71 99 76 100 72 101 73 102 75 103 77 104 74 105
REMARK H PARENT 37 5 10 16 44 48 94 67 68 78
REMARK Flexibility Score: inf
ROOT
ATOM      1  C   UNL     1       2.200   0.497  -2.424  1.00  0.00     0.116 C 
ENDROOT
BRANCH   1   2
ATOM      2  N   UNL     1       2.773   0.270  -1.117  1.00  0.00    -0.353 N 
ATOM      3  O   UNL     1       0.943   0.949   0.099  1.00  0.00    -0.271 OA
ATOM      4  C   UNL     1       2.057   0.436   0.050  1.00  0.00     0.257 C 
ATOM      5  H   UNL     1       3.713  -0.016  -1.057  1.00  0.00     0.163 HD
BRANCH   4   6
ATOM      6  C   UNL     1       2.764  -0.102   1.294  1.00  0.00     0.329 C 
BRANCH   6   7
ATOM      7  O   UNL     1       3.753  -1.099   1.046  1.00  0.00    -0.484 OA
BRANCH   7   8
ATOM      8  C   UNL     1       3.277  -2.378   0.918  1.00  0.00     0.122 A 
ATOM      9  C   UNL     1       3.928  -3.344   1.677  1.00  0.00     0.046 A 
ATOM     10  C   UNL     1       2.317  -2.763  -0.029  1.00  0.00     0.072 A 
ATOM     11  C   UNL     1       3.622  -4.686   1.487  1.00  0.00     0.006 A 
ATOM     12  C   UNL     1       2.013  -4.113  -0.250  1.00  0.00     0.045 A 
ATOM     13  C   UNL     1       2.688  -5.064   0.516  1.00  0.00     0.026 A 
BRANCH  12  14
ATOM     14  N   UNL     1       1.121  -4.405  -1.314  1.00  0.00    -0.322 N 
ATOM     15  C   UNL     1       0.470  -5.563  -1.701  1.00  0.00     0.255 C 
ATOM     16  H   UNL     1       0.927  -3.631  -1.891  1.00  0.00     0.170 HD
ATOM     17  O   UNL     1      -0.052  -5.671  -2.805  1.00  0.00    -0.269 OA
BRANCH  15  18
ATOM     18  C   UNL     1       0.282  -6.637  -0.716  1.00  0.00     0.041 A 
ATOM     19  C   UNL     1       1.054  -7.819  -0.793  1.00  0.00     0.015 A 
ATOM     20  C   UNL     1      -0.476  -6.320   0.409  1.00  0.00     0.028 A 
ATOM     21  C   UNL     1       1.228  -8.608   0.355  1.00  0.00     0.015 A 
ATOM     22  C   UNL     1      -0.260  -7.108   1.513  1.00  0.00     0.054 A 
ATOM     23  C   UNL     1       0.606  -8.174   1.517  1.00  0.00     0.053 A 
ATOM     24  C   UNL     1      -0.577  -6.781   2.885  1.00  0.00     0.266 C 
ATOM     25  C   UNL     1       0.869  -8.485   2.925  1.00  0.00     0.266 C 
ATOM     26  O   UNL     1      -1.500  -6.023   3.119  1.00  0.00    -0.268 OA
ATOM     27  N   UNL     1       0.336  -7.451   3.671  1.00  0.00    -0.242 N 
ATOM     28  O   UNL     1       1.396  -9.540   3.220  1.00  0.00    -0.268 OA
BRANCH  27  29
ATOM     29  C   UNL     1       0.669  -7.037   5.013  1.00  0.00     0.060 A 
ATOM     30  C   UNL     1      -0.137  -6.044   5.626  1.00  0.00     0.027 A 
ATOM     31  C   UNL     1       1.827  -7.436   5.735  1.00  0.00     0.006 A 
ATOM     32  C   UNL     1       0.152  -5.469   6.867  1.00  0.00     0.002 A 
ATOM     33  C   UNL     1       2.081  -6.861   7.012  1.00  0.00     0.011 A 
ATOM     34  C   UNL     1       1.262  -5.887   7.569  1.00  0.00     0.001 A 
BRANCH  31  35
ATOM     35  C   UNL     1       2.893  -8.325   5.251  1.00  0.00    -0.016 A 
ATOM     36  C   UNL     1       2.975  -9.654   5.698  1.00  0.00     0.009 A 
ATOM     37  C   UNL     1       3.905  -7.839   4.405  1.00  0.00     0.009 A 
ATOM     38  C   UNL     1       4.005 -10.491   5.262  1.00  0.00     0.001 A 
ATOM     39  C   UNL     1       4.937  -8.675   3.973  1.00  0.00     0.001 A 
ATOM     40  C   UNL     1       4.980 -10.003   4.395  1.00  0.00     0.000 A 
ENDBRANCH  31  35
ENDBRANCH  27  29
ENDBRANCH  15  18
ENDBRANCH  12  14
ENDBRANCH   7   8
ENDBRANCH   6   7
ENDBRANCH   4   6
ENDBRANCH   1   2
BRANCH   1  41
ATOM     41  C   UNL     1       2.810   1.704  -3.123  1.00  0.00     0.021 C 
BRANCH  41  42
ATOM     42  C   UNL     1       4.313   1.585  -3.402  1.00  0.00     0.002 C 
BRANCH  42  43
ATOM     43  C   UNL     1       4.739   0.383  -4.252  1.00  0.00     0.002 C 
BRANCH  43  44
ATOM     44  C   UNL     1       4.047   0.254  -5.611  1.00  0.00     0.021 C 
BRANCH  44  45
ATOM     45  C   UNL     1       4.169   1.470  -6.523  1.00  0.00     0.116 C 
BRANCH  45  46
ATOM     46  N   UNL     1       5.543   1.757  -6.899  1.00  0.00    -0.352 N 
ATOM     47  C   UNL     1       6.074   2.013  -8.140  1.00  0.00     0.251 C 
ATOM     48  H   UNL     1       6.189   1.769  -6.155  1.00  0.00     0.163 HD
ATOM     49  O   UNL     1       7.290   2.095  -8.284  1.00  0.00    -0.269 OA
BRANCH  47  50
ATOM     50  C   UNL     1       5.184   2.162  -9.313  1.00  0.00     0.039 A 
ATOM     51  C   UNL     1       5.526   1.513 -10.503  1.00  0.00     0.014 A 
ATOM     52  C   UNL     1       4.025   2.940  -9.248  1.00  0.00     0.014 A 
ATOM     53  C   UNL     1       4.672   1.590 -11.606  1.00  0.00     0.010 A 
ATOM     54  C   UNL     1       3.142   2.961 -10.326  1.00  0.00     0.010 A 
ATOM     55  C   UNL     1       3.456   2.285 -11.515  1.00  0.00    -0.014 A 
BRANCH  55  56
ATOM     56  C   UNL     1       2.496   2.308 -12.649  1.00  0.00     0.031 A 
ATOM     57  C   UNL     1       2.169   3.602 -13.341  1.00  0.00     0.074 A 
ATOM     58  C   UNL     1       1.867   1.174 -13.013  1.00  0.00     0.049 A 
ATOM     59  N   UNL     1       1.305   3.834 -14.297  1.00  0.00    -0.248 NA
ATOM     60  C   UNL     1       2.892   4.798 -12.882  1.00  0.00     0.031 C 
ATOM     61  C   UNL     1       2.061  -0.138 -12.393  1.00  0.00     0.029 A 
ATOM     62  N   UNL     1       0.925   0.945 -13.986  1.00  0.00    -0.354 N 
ATOM     63  C   UNL     1       1.369   5.200 -14.542  1.00  0.00     0.074 A 
ATOM     64  C   UNL     1       2.321   5.753 -13.602  1.00  0.00     0.031 C 
ATOM     65  C   UNL     1       1.278  -1.037 -13.012  1.00  0.00     0.029 A 
ATOM     66  C   UNL     1       0.502  -0.360 -14.046  1.00  0.00     0.049 A 
ATOM     67  H   UNL     1       0.586   1.650 -14.583  1.00  0.00     0.167 HD
ATOM     68  C   UNL     1       0.711   5.924 -15.478  1.00  0.00     0.037 A 
ATOM     69  C   UNL     1      -0.415  -0.945 -14.840  1.00  0.00     0.037 A 
ATOM     70  C   UNL     1      -0.219   5.370 -16.428  1.00  0.00     0.049 A 
ATOM     71  C   UNL     1      -1.137  -0.118 -15.867  1.00  0.00     0.074 A 
ATOM     72  C   UNL     1      -0.891   6.014 -17.452  1.00  0.00     0.029 A 
ATOM     73  N   UNL     1      -0.608   4.040 -16.468  1.00  0.00    -0.354 N 
ATOM     74  N   UNL     1      -1.019   1.161 -16.130  1.00  0.00    -0.248 NA
ATOM     75  C   UNL     1      -2.115  -0.817 -16.712  1.00  0.00     0.031 C 
ATOM     76  C   UNL     1      -1.718   5.081 -18.087  1.00  0.00     0.029 A 
ATOM     77  C   UNL     1      -1.526   3.847 -17.488  1.00  0.00     0.049 A 
ATOM     78  H   UNL     1      -0.280   3.337 -15.862  1.00  0.00     0.167 HD
ATOM     79  C   UNL     1      -1.885   1.413 -17.185  1.00  0.00     0.074 A 
ATOM     80  C   UNL     1      -2.513   0.153 -17.523  1.00  0.00     0.031 C 
ATOM     81  C   UNL     1      -2.137   2.585 -17.818  1.00  0.00     0.037 A 
BRANCH  68  82
ATOM     82  C   UNL     1       0.977   7.401 -15.522  1.00  0.00     0.057 A 
ATOM     83  C   UNL     1       2.200   7.916 -15.972  1.00  0.00     0.134 A 
ATOM     84  C   UNL     1      -0.010   8.319 -15.144  1.00  0.00     0.134 A 
ATOM     85  F   UNL     1       3.192   7.091 -16.338  1.00  0.00    -0.206 F 
ATOM     86  C   UNL     1       2.441   9.291 -16.018  1.00  0.00     0.040 A 
ATOM     87  C   UNL     1       0.209   9.696 -15.212  1.00  0.00     0.040 A 
ATOM     88  F   UNL     1      -1.207   7.894 -14.711  1.00  0.00    -0.206 F 
ATOM     89  C   UNL     1       1.440  10.185 -15.644  1.00  0.00     0.006 A 
ENDBRANCH  68  82
BRANCH  69  90
ATOM     90  C   UNL     1      -0.689  -2.399 -14.711  1.00  0.00     0.057 A 
ATOM     91  C   UNL     1      -0.285  -3.298 -15.705  1.00  0.00     0.134 A 
ATOM     92  C   UNL     1      -1.363  -2.922 -13.602  1.00  0.00     0.134 A 
ATOM     93  F   UNL     1       0.347  -2.853 -16.801  1.00  0.00    -0.206 F 
ATOM     94  C   UNL     1      -0.557  -4.664 -15.609  1.00  0.00     0.040 A 
ATOM     95  C   UNL     1      -1.620  -4.288 -13.481  1.00  0.00     0.040 A 
ATOM     96  F   UNL     1      -1.770  -2.112 -12.613  1.00  0.00    -0.206 F 
ATOM     97  C   UNL     1      -1.222  -5.163 -14.491  1.00  0.00     0.006 A 
ENDBRANCH  69  90
BRANCH  81  98
ATOM     98  C   UNL     1      -3.107   2.553 -18.962  1.00  0.00     0.057 A 
ATOM     99  C   UNL     1      -4.484   2.404 -18.760  1.00  0.00     0.134 A 
ATOM    100  C   UNL     1      -2.659   2.711 -20.280  1.00  0.00     0.134 A 
ATOM    101  F   UNL     1      -4.976   2.234 -17.524  1.00  0.00    -0.206 F 
ATOM    102  C   UNL     1      -5.380   2.392 -19.831  1.00  0.00     0.040 A 
ATOM    103  C   UNL     1      -3.547   2.727 -21.356  1.00  0.00     0.040 A 
ATOM    104  F   UNL     1      -1.352   2.866 -20.541  1.00  0.00    -0.206 F 
ATOM    105  C   UNL     1      -4.912   2.561 -21.133  1.00  0.00     0.006 A 
ENDBRANCH  81  98
ENDBRANCH  55  56
ENDBRANCH  47  50
ENDBRANCH  45  46
ENDBRANCH  44  45
ENDBRANCH  43  44
ENDBRANCH  42  43
ENDBRANCH  41  42
ENDBRANCH   1  41
TORSDOF 19
