REMARK SMILES O=C(NCCCCCCNC(=O)[C@H]1CCC(=O)N(C2CCCCC2)[C@H]1c1ccccc1)c1ccc(-c2c3nc(c(-c4c(F)cccc4F)c4ccc([nH]4)c(-c4c(F)cccc4F)c4nc(c(-c5c(F)cccc5F)c5ccc2[nH]5)C=C4)C=C3)cc1
REMARK SMILES IDX 6 1 5 2 4 3 3 4 1 5 2 6 32 8 33 9 85 10 34 11 84 12 35 13
REMARK SMILES IDX 36 14 37 15 78 16 38 17 83 18 77 19 79 20 39 21 82 22 76 23
REMARK SMILES IDX 75 24 40 26 66 27 49 28 65 29 50 30 53 31 64 32 80 33 51 34
REMARK SMILES IDX 52 35 63 37 81 38 54 39 41 40 42 41 47 42 43 43 44 44 46 45
REMARK SMILES IDX 48 46 45 47 67 48 68 49 73 50 69 51 70 52 72 53 74 54 71 55
REMARK SMILES IDX 55 56 56 57 61 58 57 59 58 60 60 61 62 62 59 63 7 64 8 65
REMARK SMILES IDX 9 66 10 67 11 68 12 70 13 71 14 72 25 73 15 74 18 75 16 76
REMARK SMILES IDX 17 77 26 78 27 79 31 80 28 81 30 82 29 83 19 84 20 85 24 86
REMARK SMILES IDX 21 87 23 88 22 89
REMARK H PARENT 3 7 79 25 53 36 10 69
REMARK Flexibility Score: inf
ROOT
ATOM      1  C   UNL     1       9.137 -12.888  -0.840  1.00  0.00     0.002 C 
ENDROOT
BRANCH   1   2
ATOM      2  C   UNL     1       8.829 -13.662   0.440  1.00  0.00     0.021 C 
BRANCH   2   3
ATOM      3  C   UNL     1       7.515 -14.429   0.426  1.00  0.00     0.116 C 
BRANCH   3   4
ATOM      4  N   UNL     1       7.488 -15.483  -0.570  1.00  0.00    -0.352 N 
ATOM      5  O   UNL     1       7.271 -17.601  -1.324  1.00  0.00    -0.269 OA
ATOM      6  C   UNL     1       7.112 -16.797  -0.418  1.00  0.00     0.251 C 
ATOM      7  H   UNL     1       7.777 -15.224  -1.475  1.00  0.00     0.163 HD
BRANCH   6   8
ATOM      8  C   UNL     1       6.538 -17.235   0.874  1.00  0.00     0.039 A 
ATOM      9  C   UNL     1       5.536 -16.488   1.497  1.00  0.00     0.014 A 
ATOM     10  C   UNL     1       7.022 -18.403   1.468  1.00  0.00     0.014 A 
ATOM     11  C   UNL     1       5.109 -16.837   2.773  1.00  0.00     0.010 A 
ATOM     12  C   UNL     1       6.531 -18.799   2.714  1.00  0.00     0.010 A 
ATOM     13  C   UNL     1       5.588 -18.005   3.386  1.00  0.00    -0.014 A 
BRANCH  13  14
ATOM     14  C   UNL     1       5.031 -18.418   4.697  1.00  0.00     0.031 A 
ATOM     15  C   UNL     1       5.885 -18.463   5.931  1.00  0.00     0.074 A 
ATOM     16  C   UNL     1       3.725 -18.742   4.763  1.00  0.00     0.049 A 
ATOM     17  N   UNL     1       5.548 -18.794   7.152  1.00  0.00    -0.248 NA
ATOM     18  C   UNL     1       7.301 -18.098   5.776  1.00  0.00     0.031 C 
ATOM     19  C   UNL     1       2.802 -18.746   3.626  1.00  0.00     0.029 A 
ATOM     20  N   UNL     1       2.945 -19.113   5.826  1.00  0.00    -0.354 N 
ATOM     21  C   UNL     1       6.710 -18.697   7.908  1.00  0.00     0.074 A 
ATOM     22  C   UNL     1       7.767 -18.299   7.002  1.00  0.00     0.031 C 
ATOM     23  C   UNL     1       1.573 -19.057   4.059  1.00  0.00     0.029 A 
ATOM     24  C   UNL     1       1.633 -19.334   5.489  1.00  0.00     0.049 A 
ATOM     25  H   UNL     1       3.291 -19.212   6.742  1.00  0.00     0.167 HD
ATOM     26  C   UNL     1       6.874 -18.915   9.235  1.00  0.00     0.037 A 
ATOM     27  C   UNL     1       0.593 -19.732   6.243  1.00  0.00     0.037 A 
ATOM     28  C   UNL     1       5.814 -19.303  10.131  1.00  0.00     0.049 A 
ATOM     29  C   UNL     1       0.809 -19.993   7.703  1.00  0.00     0.074 A 
ATOM     30  C   UNL     1       5.871 -19.508  11.499  1.00  0.00     0.029 A 
ATOM     31  N   UNL     1       4.504 -19.552   9.746  1.00  0.00    -0.354 N 
ATOM     32  N   UNL     1       1.905 -19.862   8.410  1.00  0.00    -0.248 NA
ATOM     33  C   UNL     1      -0.353 -20.462   8.468  1.00  0.00     0.031 C 
ATOM     34  C   UNL     1       4.607 -19.924  11.934  1.00  0.00     0.029 A 
ATOM     35  C   UNL     1       3.750 -19.933  10.845  1.00  0.00     0.049 A 
ATOM     36  H   UNL     1       4.160 -19.469   8.827  1.00  0.00     0.167 HD
ATOM     37  C   UNL     1       1.564 -20.220   9.706  1.00  0.00     0.074 A 
ATOM     38  C   UNL     1       0.154 -20.554   9.690  1.00  0.00     0.031 C 
ATOM     39  C   UNL     1       2.349 -20.269  10.810  1.00  0.00     0.037 A 
BRANCH  26  40
ATOM     40  C   UNL     1       8.259 -18.761   9.796  1.00  0.00     0.057 A 
ATOM     41  C   UNL     1       8.865 -17.507   9.944  1.00  0.00     0.134 A 
ATOM     42  C   UNL     1       8.982 -19.882  10.226  1.00  0.00     0.134 A 
ATOM     43  F   UNL     1       8.232 -16.394   9.543  1.00  0.00    -0.206 F 
ATOM     44  C   UNL     1      10.150 -17.375  10.476  1.00  0.00     0.040 A 
ATOM     45  C   UNL     1      10.258 -19.760  10.780  1.00  0.00     0.040 A 
ATOM     46  F   UNL     1       8.459 -21.112  10.120  1.00  0.00    -0.206 F 
ATOM     47  C   UNL     1      10.848 -18.503  10.901  1.00  0.00     0.006 A 
ENDBRANCH  26  40
BRANCH  27  48
ATOM     48  C   UNL     1      -0.741 -19.902   5.618  1.00  0.00     0.057 A 
ATOM     49  C   UNL     1      -1.784 -19.011   5.891  1.00  0.00     0.134 A 
ATOM     50  C   UNL     1      -0.993 -20.936   4.708  1.00  0.00     0.134 A 
ATOM     51  F   UNL     1      -1.605 -18.009   6.764  1.00  0.00    -0.206 F 
ATOM     52  C   UNL     1      -3.034 -19.145   5.286  1.00  0.00     0.040 A 
ATOM     53  C   UNL     1      -2.230 -21.067   4.077  1.00  0.00     0.040 A 
ATOM     54  F   UNL     1      -0.029 -21.816   4.398  1.00  0.00    -0.206 F 
ATOM     55  C   UNL     1      -3.256 -20.172   4.369  1.00  0.00     0.006 A 
ENDBRANCH  27  48
BRANCH  39  56
ATOM     56  C   UNL     1       1.690 -20.682  12.092  1.00  0.00     0.057 A 
ATOM     57  C   UNL     1       1.315 -22.009  12.334  1.00  0.00     0.134 A 
ATOM     58  C   UNL     1       1.444 -19.743  13.102  1.00  0.00     0.134 A 
ATOM     59  F   UNL     1       1.508 -22.952  11.399  1.00  0.00    -0.206 F 
ATOM     60  C   UNL     1       0.698 -22.385  13.528  1.00  0.00     0.040 A 
ATOM     61  C   UNL     1       0.851 -20.112  14.309  1.00  0.00     0.040 A 
ATOM     62  F   UNL     1       1.784 -18.456  12.934  1.00  0.00    -0.206 F 
ATOM     63  C   UNL     1       0.470 -21.435  14.523  1.00  0.00     0.006 A 
ENDBRANCH  39  56
ENDBRANCH  13  14
ENDBRANCH   6   8
ENDBRANCH   3   4
ENDBRANCH   2   3
ENDBRANCH   1   2
BRANCH   1  64
ATOM     64  C   UNL     1       8.025 -11.957  -1.327  1.00  0.00     0.002 C 
BRANCH  64  65
ATOM     65  C   UNL     1       7.484 -10.961  -0.292  1.00  0.00     0.021 C 
BRANCH  65  66
ATOM     66  C   UNL     1       8.538 -10.098   0.398  1.00  0.00     0.116 C 
BRANCH  66  67
ATOM     67  N   UNL     1       9.280  -9.319  -0.568  1.00  0.00    -0.356 N 
ATOM     68  C   UNL     1       9.353  -7.971  -0.691  1.00  0.00     0.225 C 
ATOM     69  H   UNL     1       9.802  -9.837  -1.224  1.00  0.00     0.163 HD
ATOM     70  O   UNL     1       9.415  -7.542  -1.844  1.00  0.00    -0.275 OA
BRANCH  68  71
ATOM     71  C   UNL     1       9.216  -7.056   0.519  1.00  0.00     0.106 C 
ATOM     72  C   UNL     1       9.867  -7.520   1.819  1.00  0.00     0.026 C 
ATOM     73  C   UNL     1       9.736  -5.617   0.241  1.00  0.00     0.128 C 
ATOM     74  C   UNL     1       9.341  -6.657   2.950  1.00  0.00     0.101 C 
ATOM     75  N   UNL     1       9.336  -4.719   1.359  1.00  0.00    -0.332 N 
ATOM     76  C   UNL     1       9.216  -5.168   2.671  1.00  0.00     0.223 C 
ATOM     77  O   UNL     1       8.945  -4.426   3.617  1.00  0.00    -0.275 OA
BRANCH  73  78
ATOM     78  C   UNL     1      11.247  -5.521  -0.054  1.00  0.00    -0.025 A 
ATOM     79  C   UNL     1      12.189  -5.151   0.922  1.00  0.00     0.006 A 
ATOM     80  C   UNL     1      11.742  -5.828  -1.334  1.00  0.00     0.006 A 
ATOM     81  C   UNL     1      13.557  -5.105   0.634  1.00  0.00     0.000 A 
ATOM     82  C   UNL     1      13.111  -5.827  -1.612  1.00  0.00     0.000 A 
ATOM     83  C   UNL     1      14.020  -5.460  -0.628  1.00  0.00     0.000 A 
ENDBRANCH  73  78
BRANCH  75  84
ATOM     84  C   UNL     1       9.140  -3.282   1.046  1.00  0.00     0.085 C 
ATOM     85  C   UNL     1       7.678  -2.854   1.273  1.00  0.00     0.025 C 
ATOM     86  C   UNL     1      10.144  -2.362   1.769  1.00  0.00     0.025 C 
ATOM     87  C   UNL     1       7.461  -1.365   1.021  1.00  0.00     0.002 C 
ATOM     88  C   UNL     1       9.874  -0.882   1.514  1.00  0.00     0.002 C 
ATOM     89  C   UNL     1       8.431  -0.516   1.835  1.00  0.00     0.000 C 
ENDBRANCH  75  84
ENDBRANCH  68  71
ENDBRANCH  66  67
ENDBRANCH  65  66
ENDBRANCH  64  65
ENDBRANCH   1  64
TORSDOF 15
