REMARK SMILES Cc1nn(C)cc1-c1cc(C(F)(F)F)c2c(C)nn(CC(=O)NCCCCCCNC(=O)c3ccc(-c4c5nc(c(-c6c(F)cccc6F)c6ccc([nH]6)c(-c6c(F)cccc6F)c6nc(c(-c7c(F)cccc7F)c7ccc4[nH]7)C=C6)C=C5)cc3)c2n1
REMARK SMILES IDX 26 1 25 2 24 3 23 4 21 5 22 6 20 8 19 9 8 10 9 11 88 12
REMARK SMILES IDX 10 13 87 14 15 15 16 16 18 17 17 18 7 19 1 20 2 21 3 22 4 23
REMARK SMILES IDX 6 24 5 25 11 26 12 27 13 28 14 29 27 30 28 31 29 32 30 33
REMARK SMILES IDX 31 34 32 36 33 37 34 38 86 39 35 40 85 41 36 42 37 43 38 44
REMARK SMILES IDX 79 45 39 46 84 47 78 48 80 49 40 50 83 51 77 52 76 53 41 55
REMARK SMILES IDX 67 56 50 57 66 58 51 59 54 60 65 61 81 62 52 63 53 64 64 66
REMARK SMILES IDX 82 67 55 68 42 69 43 70 48 71 44 72 45 73 47 74 49 75 46 76
REMARK SMILES IDX 68 77 69 78 74 79 70 80 71 81 73 82 75 83 72 84 56 85 57 86
REMARK SMILES IDX 62 87 58 88 59 89 61 90 63 91 60 92
REMARK H PARENT 23 7 30 35 80 54 54 65
REMARK Flexibility Score: inf
ROOT
ATOM      1  C   UNL     1       1.016   0.173   4.288  1.00  0.00     0.002 C 
ENDROOT
BRANCH   1   2
ATOM      2  C   UNL     1      -0.240   0.400   3.463  1.00  0.00     0.021 C 
BRANCH   2   3
ATOM      3  C   UNL     1      -0.930   1.736   3.684  1.00  0.00     0.116 C 
BRANCH   3   4
ATOM      4  N   UNL     1      -0.158   2.805   3.091  1.00  0.00    -0.354 N 
ATOM      5  C   UNL     1      -0.405   3.483   1.932  1.00  0.00     0.241 C 
ATOM      6  O   UNL     1       0.395   4.356   1.590  1.00  0.00    -0.273 OA
ATOM      7  H   UNL     1       0.647   3.079   3.586  1.00  0.00     0.163 HD
BRANCH   5   8
ATOM      8  C   UNL     1      -1.676   3.218   1.168  1.00  0.00     0.246 C 
BRANCH   8   9
ATOM      9  N   UNL     1      -1.589   1.976   0.414  1.00  0.00    -0.237 N 
ATOM     10  C   UNL     1      -1.950  -1.552   1.078  1.00  0.00     0.077 A 
ATOM     11  C   UNL     1      -2.793  -2.325   0.281  1.00  0.00     0.043 A 
ATOM     12  N   UNL     1      -2.500  -0.463   1.734  1.00  0.00    -0.228 NA
ATOM     13  C   UNL     1      -3.644  -1.630  -0.613  1.00  0.00     0.071 A 
ATOM     14  C   UNL     1      -2.756   0.485   0.769  1.00  0.00     0.159 A 
ATOM     15  C   UNL     1      -3.172  -0.329  -0.871  1.00  0.00     0.054 A 
ATOM     16  C   UNL     1      -1.910   0.490  -2.219  1.00  0.00     0.070 A 
ATOM     17  N   UNL     1      -1.156   1.976  -1.489  1.00  0.00    -0.175 NA
ATOM     18  C   UNL     1      -1.130  -0.321  -3.208  1.00  0.00     0.069 C 
BRANCH  10  19
ATOM     19  C   UNL     1      -0.806  -1.004   0.319  1.00  0.00     0.041 A 
ATOM     20  C   UNL     1      -2.721   1.532  -0.849  1.00  0.00     0.069 C 
ATOM     21  C   UNL     1      -0.921   0.389  -0.366  1.00  0.00     0.069 A 
ATOM     22  N   UNL     1       0.405   0.833  -0.326  1.00  0.00    -0.178 NA
ATOM     23  N   UNL     1       1.184  -0.206  -0.030  1.00  0.00    -0.275 N 
ATOM     24  C   UNL     1       0.528  -1.321   0.405  1.00  0.00     0.119 A 
ATOM     25  C   UNL     1       2.603   0.066  -0.003  1.00  0.00     0.173 C 
ENDBRANCH  10  19
BRANCH  13  26
ATOM     26  C   UNL     1      -5.138  -1.746  -0.319  1.00  0.00     0.417 C 
ATOM     27  F   UNL     1      -5.468  -1.190   0.884  1.00  0.00    -0.166 F 
ATOM     28  F   UNL     1      -5.904  -1.096  -1.238  1.00  0.00    -0.166 F 
ATOM     29  F   UNL     1      -5.591  -3.025  -0.273  1.00  0.00    -0.166 F 
ENDBRANCH  13  26
ENDBRANCH   8   9
ENDBRANCH   5   8
ENDBRANCH   3   4
ENDBRANCH   2   3
ENDBRANCH   1   2
BRANCH   1  30
ATOM     30  C   UNL     1       0.771   0.301   5.792  1.00  0.00     0.002 C 
BRANCH  30  31
ATOM     31  C   UNL     1      -0.414  -0.521   6.324  1.00  0.00     0.021 C 
BRANCH  31  32
ATOM     32  C   UNL     1      -0.248  -2.009   6.079  1.00  0.00     0.116 C 
BRANCH  32  33
ATOM     33  N   UNL     1       0.867  -2.547   6.853  1.00  0.00    -0.352 N 
ATOM     34  C   UNL     1       1.070  -3.846   7.258  1.00  0.00     0.251 C 
ATOM     35  H   UNL     1       1.560  -1.899   7.118  1.00  0.00     0.163 HD
ATOM     36  O   UNL     1       1.778  -4.103   8.224  1.00  0.00    -0.269 OA
BRANCH  34  37
ATOM     37  C   UNL     1       0.505  -4.931   6.439  1.00  0.00     0.039 A 
ATOM     38  C   UNL     1       0.154  -6.175   6.961  1.00  0.00     0.014 A 
ATOM     39  C   UNL     1       0.382  -4.696   5.079  1.00  0.00     0.014 A 
ATOM     40  C   UNL     1      -0.182  -7.194   6.062  1.00  0.00     0.010 A 
ATOM     41  C   UNL     1      -0.323  -5.580   4.327  1.00  0.00     0.010 A 
ATOM     42  C   UNL     1      -0.319  -6.899   4.694  1.00  0.00    -0.014 A 
BRANCH  42  43
ATOM     43  C   UNL     1      -0.842  -7.820   3.690  1.00  0.00     0.031 A 
ATOM     44  C   UNL     1      -2.199  -8.256   4.109  1.00  0.00     0.074 A 
ATOM     45  C   UNL     1      -0.236  -8.137   2.509  1.00  0.00     0.049 A 
ATOM     46  N   UNL     1      -2.437  -9.330   4.780  1.00  0.00    -0.248 NA
ATOM     47  C   UNL     1      -3.335  -7.313   4.112  1.00  0.00     0.031 C 
ATOM     48  C   UNL     1       1.007  -7.641   1.894  1.00  0.00     0.029 A 
ATOM     49  N   UNL     1      -0.640  -9.067   1.575  1.00  0.00    -0.354 N 
ATOM     50  C   UNL     1      -3.805  -9.352   4.998  1.00  0.00     0.074 A 
ATOM     51  C   UNL     1      -4.254  -8.004   4.797  1.00  0.00     0.031 C 
ATOM     52  C   UNL     1       1.117  -8.084   0.610  1.00  0.00     0.029 A 
ATOM     53  C   UNL     1       0.043  -9.022   0.336  1.00  0.00     0.049 A 
ATOM     54  H   UNL     1      -1.355  -9.718   1.758  1.00  0.00     0.167 HD
ATOM     55  C   UNL     1      -4.446 -10.552   4.994  1.00  0.00     0.037 A 
ATOM     56  C   UNL     1      -0.225  -9.792  -0.770  1.00  0.00     0.037 A 
ATOM     57  C   UNL     1      -3.474 -11.619   5.117  1.00  0.00     0.049 A 
ATOM     58  C   UNL     1      -0.959 -10.990  -0.272  1.00  0.00     0.074 A 
ATOM     59  C   UNL     1      -2.549 -11.985   6.075  1.00  0.00     0.029 A 
ATOM     60  N   UNL     1      -3.040 -12.166   3.933  1.00  0.00    -0.354 N 
ATOM     61  N   UNL     1      -0.390 -11.881   0.493  1.00  0.00    -0.248 NA
ATOM     62  C   UNL     1      -2.400 -10.832  -0.120  1.00  0.00     0.031 C 
ATOM     63  C   UNL     1      -1.374 -12.331   5.341  1.00  0.00     0.029 A 
ATOM     64  C   UNL     1      -1.677 -12.310   3.980  1.00  0.00     0.049 A 
ATOM     65  H   UNL     1      -3.615 -12.415   3.173  1.00  0.00     0.167 HD
ATOM     66  C   UNL     1      -1.283 -12.044   1.541  1.00  0.00     0.074 A 
ATOM     67  C   UNL     1      -2.508 -11.357   1.106  1.00  0.00     0.031 C 
ATOM     68  C   UNL     1      -0.862 -12.395   2.792  1.00  0.00     0.037 A 
BRANCH  55  69
ATOM     69  C   UNL     1      -5.800 -10.795   4.369  1.00  0.00     0.057 A 
ATOM     70  C   UNL     1      -6.426  -9.937   3.443  1.00  0.00     0.134 A 
ATOM     71  C   UNL     1      -6.329 -12.098   4.427  1.00  0.00     0.134 A 
ATOM     72  F   UNL     1      -6.030  -8.677   3.239  1.00  0.00    -0.206 F 
ATOM     73  C   UNL     1      -7.447 -10.364   2.589  1.00  0.00     0.040 A 
ATOM     74  C   UNL     1      -7.319 -12.547   3.547  1.00  0.00     0.040 A 
ATOM     75  F   UNL     1      -5.827 -13.006   5.279  1.00  0.00    -0.206 F 
ATOM     76  C   UNL     1      -7.869 -11.683   2.611  1.00  0.00     0.006 A 
ENDBRANCH  55  69
BRANCH  56  77
ATOM     77  C   UNL     1      -0.269  -9.436  -2.225  1.00  0.00     0.057 A 
ATOM     78  C   UNL     1      -0.490  -8.109  -2.620  1.00  0.00     0.134 A 
ATOM     79  C   UNL     1      -0.425 -10.397  -3.251  1.00  0.00     0.134 A 
ATOM     80  F   UNL     1      -0.443  -7.116  -1.721  1.00  0.00    -0.206 F 
ATOM     81  C   UNL     1      -0.864  -7.754  -3.926  1.00  0.00     0.040 A 
ATOM     82  C   UNL     1      -0.790 -10.053  -4.569  1.00  0.00     0.040 A 
ATOM     83  F   UNL     1      -0.297 -11.707  -2.987  1.00  0.00    -0.206 F 
ATOM     84  C   UNL     1      -1.025  -8.726  -4.906  1.00  0.00     0.006 A 
ENDBRANCH  56  77
BRANCH  68  85
ATOM     85  C   UNL     1       0.581 -12.788   2.975  1.00  0.00     0.057 A 
ATOM     86  C   UNL     1       0.849 -14.067   3.468  1.00  0.00     0.134 A 
ATOM     87  C   UNL     1       1.685 -11.933   2.818  1.00  0.00     0.134 A 
ATOM     88  F   UNL     1      -0.160 -14.913   3.723  1.00  0.00    -0.206 F 
ATOM     89  C   UNL     1       2.146 -14.494   3.758  1.00  0.00     0.040 A 
ATOM     90  C   UNL     1       2.996 -12.357   3.075  1.00  0.00     0.040 A 
ATOM     91  F   UNL     1       1.525 -10.650   2.471  1.00  0.00    -0.206 F 
ATOM     92  C   UNL     1       3.228 -13.647   3.542  1.00  0.00     0.006 A 
ENDBRANCH  68  85
ENDBRANCH  42  43
ENDBRANCH  34  37
ENDBRANCH  32  33
ENDBRANCH  31  32
ENDBRANCH  30  31
ENDBRANCH   1  30
TORSDOF 16
