REMARK SMILES O=C(CC[C@@]1(c2ccccc2)NC(=O)N(CC(=O)Nc2cccc(F)c2)C1=O)NCCCCCCNC(=O)c1ccc(-c2c3nc(c(-c4c(F)cccc4F)c4ccc([nH]4)c(-c4c(F)cccc4F)c4nc(c(-c5c(F)cccc5F)c5ccc2[nH]5)C=C4)C=C3)cc1
REMARK SMILES IDX 31 1 30 2 29 3 1 4 2 5 3 7 4 8 5 9 12 10 27 11 13 12 15 14
REMARK SMILES IDX 28 15 14 16 6 17 7 18 11 19 8 20 10 21 9 22 16 23 17 24
REMARK SMILES IDX 18 25 19 26 20 28 21 29 26 30 22 31 24 32 23 33 25 34 32 35
REMARK SMILES IDX 33 36 34 37 35 38 36 39 37 40 38 42 39 43 40 44 92 45 41 46
REMARK SMILES IDX 91 47 42 48 43 49 44 50 85 51 45 52 90 53 84 54 86 55 46 56
REMARK SMILES IDX 89 57 83 58 82 59 47 61 73 62 56 63 72 64 57 65 60 66 71 67
REMARK SMILES IDX 87 68 58 69 59 70 70 72 88 73 61 74 48 75 49 76 54 77 50 78
REMARK SMILES IDX 51 79 53 80 55 81 52 82 74 83 75 84 80 85 76 86 77 87 79 88
REMARK SMILES IDX 81 89 78 90 62 91 63 92 68 93 64 94 65 95 67 96 69 97 66 98
REMARK H PARENT 29 6 12 13 19 27 36 41 86 60 60 71
REMARK Flexibility Score: inf
ROOT
ATOM      1  C   UNL     1       8.523  -2.913   1.593  1.00  0.00     0.021 C 
ENDROOT
BRANCH   1   2
ATOM      2  C   UNL     1       7.071  -3.304   1.209  1.00  0.00     0.116 C 
BRANCH   2   3
ATOM      3  N   UNL     1       6.072  -2.495   0.431  1.00  0.00    -0.356 N 
ATOM      4  O   UNL     1       7.083  -1.001  -1.036  1.00  0.00    -0.275 OA
ATOM      5  C   UNL     1       6.096  -1.523  -0.539  1.00  0.00     0.220 C 
ATOM      6  H   UNL     1       5.149  -2.723   0.686  1.00  0.00     0.163 HD
BRANCH   5   7
ATOM      7  C   UNL     1       4.783  -0.905  -0.968  1.00  0.00     0.103 C 
BRANCH   7   8
ATOM      8  C   UNL     1       3.853  -0.474   0.160  1.00  0.00     0.053 C 
BRANCH   8   9
ATOM      9  C   UNL     1       4.514   0.279   1.355  1.00  0.00     0.147 C 
ATOM     10  N   UNL     1       5.117  -0.689   2.225  1.00  0.00    -0.319 N 
ATOM     11  C   UNL     1       5.845   1.011   0.922  1.00  0.00     0.261 C 
ATOM     12  C   UNL     1       6.456  -0.463   2.379  1.00  0.00     0.325 C 
ATOM     13  H   UNL     1       4.627  -1.425   2.658  1.00  0.00     0.166 HD
ATOM     14  N   UNL     1       6.927   0.242   1.323  1.00  0.00    -0.252 N 
ATOM     15  O   UNL     1       5.893   2.042   0.266  1.00  0.00    -0.271 OA
ATOM     16  O   UNL     1       6.982  -0.821   3.419  1.00  0.00    -0.248 OA
BRANCH   9  17
ATOM     17  C   UNL     1       3.478   1.060   2.192  1.00  0.00    -0.013 A 
ATOM     18  C   UNL     1       3.353   0.861   3.592  1.00  0.00     0.007 A 
ATOM     19  C   UNL     1       2.517   1.885   1.588  1.00  0.00     0.007 A 
ATOM     20  C   UNL     1       2.286   1.381   4.327  1.00  0.00     0.000 A 
ATOM     21  C   UNL     1       1.449   2.415   2.329  1.00  0.00     0.000 A 
ATOM     22  C   UNL     1       1.325   2.151   3.691  1.00  0.00     0.000 A 
ENDBRANCH   9  17
BRANCH  14  23
ATOM     23  C   UNL     1       8.354   0.366   0.827  1.00  0.00     0.230 C 
BRANCH  23  24
ATOM     24  C   UNL     1       9.380  -0.163  -0.432  1.00  0.00     0.244 C 
ATOM     25  O   UNL     1      10.248   0.706  -0.718  1.00  0.00    -0.273 OA
ATOM     26  N   UNL     1       9.773  -1.365  -1.011  1.00  0.00    -0.324 N 
ATOM     27  H   UNL     1      10.687  -1.239  -1.353  1.00  0.00     0.170 HD
BRANCH  26  28
ATOM     28  C   UNL     1       9.387  -2.718  -1.313  1.00  0.00     0.044 A 
ATOM     29  C   UNL     1      10.324  -3.732  -1.024  1.00  0.00     0.026 A 
ATOM     30  C   UNL     1       8.233  -3.149  -1.974  1.00  0.00     0.065 A 
ATOM     31  C   UNL     1      10.013  -5.103  -1.162  1.00  0.00     0.005 A 
ATOM     32  C   UNL     1       7.903  -4.509  -2.079  1.00  0.00     0.125 A 
ATOM     33  C   UNL     1       8.771  -5.495  -1.645  1.00  0.00     0.039 A 
ATOM     34  F   UNL     1       6.711  -4.865  -2.583  1.00  0.00    -0.207 F 
ENDBRANCH  26  28
ENDBRANCH  23  24
ENDBRANCH  14  23
ENDBRANCH   8   9
ENDBRANCH   7   8
ENDBRANCH   5   7
ENDBRANCH   2   3
ENDBRANCH   1   2
BRANCH   1  35
ATOM     35  C   UNL     1       9.046  -2.516   2.984  1.00  0.00     0.002 C 
BRANCH  35  36
ATOM     36  C   UNL     1       8.556  -3.350   4.157  1.00  0.00     0.002 C 
BRANCH  36  37
ATOM     37  C   UNL     1       9.535  -4.460   4.521  1.00  0.00     0.021 C 
BRANCH  37  38
ATOM     38  C   UNL     1      10.893  -3.970   5.013  1.00  0.00     0.116 C 
BRANCH  38  39
ATOM     39  N   UNL     1      10.813  -3.103   6.182  1.00  0.00    -0.352 N 
ATOM     40  C   UNL     1      11.666  -3.091   7.269  1.00  0.00     0.251 C 
ATOM     41  H   UNL     1      10.072  -2.456   6.198  1.00  0.00     0.163 HD
ATOM     42  O   UNL     1      11.498  -2.386   8.232  1.00  0.00    -0.269 OA
BRANCH  40  43
ATOM     43  C   UNL     1      12.811  -4.017   7.188  1.00  0.00     0.039 A 
ATOM     44  C   UNL     1      12.814  -5.160   7.988  1.00  0.00     0.014 A 
ATOM     45  C   UNL     1      13.742  -3.832   6.164  1.00  0.00     0.014 A 
ATOM     46  C   UNL     1      13.747  -6.162   7.726  1.00  0.00     0.010 A 
ATOM     47  C   UNL     1      14.620  -4.861   5.863  1.00  0.00     0.010 A 
ATOM     48  C   UNL     1      14.634  -6.029   6.645  1.00  0.00    -0.014 A 
BRANCH  48  49
ATOM     49  C   UNL     1      15.643  -7.069   6.342  1.00  0.00     0.031 A 
ATOM     50  C   UNL     1      17.097  -6.718   6.489  1.00  0.00     0.074 A 
ATOM     51  C   UNL     1      15.265  -8.269   5.863  1.00  0.00     0.049 A 
ATOM     52  N   UNL     1      18.154  -7.409   6.151  1.00  0.00    -0.248 NA
ATOM     53  C   UNL     1      17.401  -5.389   7.049  1.00  0.00     0.031 C 
ATOM     54  C   UNL     1      13.884  -8.699   5.631  1.00  0.00     0.029 A 
ATOM     55  N   UNL     1      16.017  -9.346   5.467  1.00  0.00    -0.354 N 
ATOM     56  C   UNL     1      19.238  -6.583   6.418  1.00  0.00     0.074 A 
ATOM     57  C   UNL     1      18.714  -5.325   6.898  1.00  0.00     0.031 C 
ATOM     58  C   UNL     1      13.889  -9.954   5.150  1.00  0.00     0.029 A 
ATOM     59  C   UNL     1      15.270 -10.406   5.011  1.00  0.00     0.049 A 
ATOM     60  H   UNL     1      17.000  -9.359   5.506  1.00  0.00     0.167 HD
ATOM     61  C   UNL     1      20.555  -6.861   6.298  1.00  0.00     0.037 A 
ATOM     62  C   UNL     1      15.665 -11.602   4.534  1.00  0.00     0.037 A 
ATOM     63  C   UNL     1      21.066  -8.140   5.892  1.00  0.00     0.049 A 
ATOM     64  C   UNL     1      17.139 -11.904   4.465  1.00  0.00     0.074 A 
ATOM     65  C   UNL     1      22.381  -8.561   5.822  1.00  0.00     0.029 A 
ATOM     66  N   UNL     1      20.276  -9.211   5.503  1.00  0.00    -0.354 N 
ATOM     67  N   UNL     1      18.155 -11.140   4.787  1.00  0.00    -0.248 NA
ATOM     68  C   UNL     1      17.523 -13.235   3.973  1.00  0.00     0.031 C 
ATOM     69  C   UNL     1      22.388  -9.883   5.367  1.00  0.00     0.029 A 
ATOM     70  C   UNL     1      21.076 -10.293   5.187  1.00  0.00     0.049 A 
ATOM     71  H   UNL     1      19.292  -9.203   5.460  1.00  0.00     0.167 HD
ATOM     72  C   UNL     1      19.292 -11.909   4.576  1.00  0.00     0.074 A 
ATOM     73  C   UNL     1      18.841 -13.201   4.103  1.00  0.00     0.031 C 
ATOM     74  C   UNL     1      20.594 -11.578   4.755  1.00  0.00     0.037 A 
BRANCH  61  75
ATOM     75  C   UNL     1      21.529  -5.771   6.628  1.00  0.00     0.057 A 
ATOM     76  C   UNL     1      21.741  -5.344   7.946  1.00  0.00     0.134 A 
ATOM     77  C   UNL     1      22.288  -5.163   5.620  1.00  0.00     0.134 A 
ATOM     78  F   UNL     1      21.034  -5.875   8.954  1.00  0.00    -0.206 F 
ATOM     79  C   UNL     1      22.657  -4.336   8.247  1.00  0.00     0.040 A 
ATOM     80  C   UNL     1      23.226  -4.172   5.912  1.00  0.00     0.040 A 
ATOM     81  F   UNL     1      22.133  -5.526   4.338  1.00  0.00    -0.206 F 
ATOM     82  C   UNL     1      23.409  -3.752   7.228  1.00  0.00     0.006 A 
ENDBRANCH  61  75
BRANCH  62  83
ATOM     83  C   UNL     1      14.667 -12.618   4.114  1.00  0.00     0.057 A 
ATOM     84  C   UNL     1      14.483 -13.794   4.852  1.00  0.00     0.134 A 
ATOM     85  C   UNL     1      13.905 -12.465   2.950  1.00  0.00     0.134 A 
ATOM     86  F   UNL     1      15.196 -14.009   5.967  1.00  0.00    -0.206 F 
ATOM     87  C   UNL     1      13.603 -14.794   4.432  1.00  0.00     0.040 A 
ATOM     88  C   UNL     1      13.003 -13.446   2.531  1.00  0.00     0.040 A 
ATOM     89  F   UNL     1      14.026 -11.358   2.202  1.00  0.00    -0.206 F 
ATOM     90  C   UNL     1      12.859 -14.620   3.268  1.00  0.00     0.006 A 
ENDBRANCH  62  83
BRANCH  74  91
ATOM     91  C   UNL     1      21.616 -12.641   4.496  1.00  0.00     0.057 A 
ATOM     92  C   UNL     1      21.971 -13.023   3.198  1.00  0.00     0.134 A 
ATOM     93  C   UNL     1      22.303 -13.235   5.563  1.00  0.00     0.134 A 
ATOM     94  F   UNL     1      21.340 -12.497   2.138  1.00  0.00    -0.206 F 
ATOM     95  C   UNL     1      22.968 -13.972   2.968  1.00  0.00     0.040 A 
ATOM     96  C   UNL     1      23.318 -14.167   5.345  1.00  0.00     0.040 A 
ATOM     97  F   UNL     1      22.015 -12.902   6.830  1.00  0.00    -0.206 F 
ATOM     98  C   UNL     1      23.651 -14.539   4.044  1.00  0.00     0.006 A 
ENDBRANCH  74  91
ENDBRANCH  48  49
ENDBRANCH  40  43
ENDBRANCH  38  39
ENDBRANCH  37  38
ENDBRANCH  36  37
ENDBRANCH  35  36
ENDBRANCH   1  35
TORSDOF 19
