REMARK SMILES Cc1cc(C)c(C(=O)NCCCCCCNC(=O)c2ccc(-c3c4nc(c(-c5c(F)cccc5F)c5ccc([nH]5)c(-c5c(F)cccc5F)c5nc(c(-c6c(F)cccc6F)c6ccc3[nH]6)C=C5)C=C4)cc2)c(NC[C@@H]2C[N@@H+](C)CCO2)n1
REMARK SMILES IDX 12 1 11 2 10 3 9 4 7 5 8 6 6 8 1 9 2 10 3 11 83 12 4 13
REMARK SMILES IDX 73 14 5 15 74 16 75 18 76 19 77 20 82 21 78 22 81 23 79 24
REMARK SMILES IDX 80 25 13 27 14 28 15 29 16 30 17 31 18 33 19 34 20 35 72 36
REMARK SMILES IDX 21 37 71 38 22 39 23 40 24 41 65 42 25 43 70 44 64 45 66 46
REMARK SMILES IDX 26 47 69 48 63 49 62 50 27 52 53 53 36 54 52 55 37 56 40 57
REMARK SMILES IDX 51 58 67 59 38 60 39 61 50 63 68 64 41 65 28 66 29 67 34 68
REMARK SMILES IDX 30 69 31 70 33 71 35 72 32 73 54 74 55 75 60 76 56 77 57 78
REMARK SMILES IDX 59 79 61 80 58 81 42 82 43 83 48 84 44 85 45 86 47 87 49 88
REMARK SMILES IDX 46 89
REMARK H PARENT 9 7 74 17 78 26 16 32 66 51 40 62
REMARK Flexibility Score: inf
ROOT
ATOM      1  C   UNL     1       6.368  -0.602   1.345  1.00  0.00     0.002 C 
ENDROOT
BRANCH   1   2
ATOM      2  C   UNL     1       5.029  -0.077   1.879  1.00  0.00     0.021 C 
BRANCH   2   3
ATOM      3  C   UNL     1       3.873   0.019   0.886  1.00  0.00     0.116 C 
BRANCH   3   4
ATOM      4  N   UNL     1       3.507  -1.220   0.241  1.00  0.00    -0.352 N 
ATOM      5  C   UNL     1       2.330  -1.612  -0.362  1.00  0.00     0.255 C 
ATOM      6  O   UNL     1       2.341  -2.699  -0.945  1.00  0.00    -0.269 OA
ATOM      7  H   UNL     1       4.218  -1.902   0.231  1.00  0.00     0.163 HD
BRANCH   5   8
ATOM      8  C   UNL     1       1.055  -0.829  -0.294  1.00  0.00     0.085 A 
ATOM      9  C   UNL     1      -2.738   1.076   0.113  1.00  0.00     0.067 C 
ATOM     10  C   UNL     1      -1.403   0.418  -0.060  1.00  0.00     0.040 A 
ATOM     11  C   UNL     1      -0.295   1.173  -0.407  1.00  0.00     0.028 A 
ATOM     12  N   UNL     1      -1.338  -0.918   0.107  1.00  0.00    -0.236 NA
ATOM     13  C   UNL     1       0.945   0.544  -0.592  1.00  0.00    -0.033 A 
ATOM     14  C   UNL     1      -0.142  -1.545  -0.031  1.00  0.00     0.139 A 
ATOM     15  C   UNL     1       2.040   1.391  -1.166  1.00  0.00     0.045 C 
BRANCH  14  16
ATOM     16  N   UNL     1      -0.128  -2.921   0.138  1.00  0.00    -0.367 N 
ATOM     17  H   UNL     1       0.742  -3.375   0.208  1.00  0.00     0.162 HD
BRANCH  16  18
ATOM     18  C   UNL     1      -1.341  -3.731   0.215  1.00  0.00     0.152 C 
BRANCH  18  19
ATOM     19  C   UNL     1      -1.490  -4.617  -1.050  1.00  0.00     0.192 C 
ATOM     20  C   UNL     1      -2.485  -5.785  -0.840  1.00  0.00     0.296 C 
ATOM     21  O   UNL     1      -0.223  -5.136  -1.521  1.00  0.00    -0.365 OA
ATOM     22  N   UNL     1      -1.955  -6.795   0.102  1.00  0.00    -0.333 N 
ATOM     23  C   UNL     1       0.325  -6.115  -0.629  1.00  0.00     0.222 C 
ATOM     24  C   UNL     1      -2.883  -7.909   0.272  1.00  0.00     0.332 C 
ATOM     25  C   UNL     1      -0.651  -7.276  -0.397  1.00  0.00     0.290 C 
ATOM     26  H   UNL     1      -1.837  -6.362   1.018  1.00  0.00     0.348 HD
ENDBRANCH  18  19
ENDBRANCH  16  18
ENDBRANCH  14  16
ENDBRANCH   5   8
ENDBRANCH   3   4
ENDBRANCH   2   3
ENDBRANCH   1   2
BRANCH   1  27
ATOM     27  C   UNL     1       6.899  -0.014   0.033  1.00  0.00     0.002 C 
BRANCH  27  28
ATOM     28  C   UNL     1       7.010   1.508  -0.063  1.00  0.00     0.021 C 
BRANCH  28  29
ATOM     29  C   UNL     1       7.743   2.209   1.073  1.00  0.00     0.116 C 
BRANCH  29  30
ATOM     30  N   UNL     1       9.122   1.780   1.229  1.00  0.00    -0.352 N 
ATOM     31  C   UNL     1      10.261   2.535   1.377  1.00  0.00     0.251 C 
ATOM     32  H   UNL     1       9.261   0.805   1.229  1.00  0.00     0.163 HD
ATOM     33  O   UNL     1      11.362   1.991   1.401  1.00  0.00    -0.269 OA
BRANCH  31  34
ATOM     34  C   UNL     1      10.172   4.010   1.469  1.00  0.00     0.039 A 
ATOM     35  C   UNL     1      11.052   4.785   0.707  1.00  0.00     0.014 A 
ATOM     36  C   UNL     1       9.228   4.632   2.291  1.00  0.00     0.014 A 
ATOM     37  C   UNL     1      10.938   6.177   0.714  1.00  0.00     0.010 A 
ATOM     38  C   UNL     1       9.066   6.015   2.239  1.00  0.00     0.010 A 
ATOM     39  C   UNL     1       9.917   6.802   1.448  1.00  0.00    -0.014 A 
BRANCH  39  40
ATOM     40  C   UNL     1       9.716   8.274   1.391  1.00  0.00     0.031 A 
ATOM     41  C   UNL     1       9.880   9.111   2.630  1.00  0.00     0.074 A 
ATOM     42  C   UNL     1       9.321   8.850   0.238  1.00  0.00     0.049 A 
ATOM     43  N   UNL     1       9.677  10.394   2.795  1.00  0.00    -0.248 NA
ATOM     44  C   UNL     1      10.301   8.408   3.852  1.00  0.00     0.031 C 
ATOM     45  C   UNL     1       9.083   8.145  -1.022  1.00  0.00     0.029 A 
ATOM     46  N   UNL     1       9.036  10.160  -0.057  1.00  0.00    -0.354 N 
ATOM     47  C   UNL     1       9.932  10.648   4.136  1.00  0.00     0.074 A 
ATOM     48  C   UNL     1      10.251   9.378   4.753  1.00  0.00     0.031 C 
ATOM     49  C   UNL     1       8.711   9.031  -1.960  1.00  0.00     0.029 A 
ATOM     50  C   UNL     1       8.644  10.360  -1.359  1.00  0.00     0.049 A 
ATOM     51  H   UNL     1       9.107  10.889   0.602  1.00  0.00     0.167 HD
ATOM     52  C   UNL     1       9.924  11.834   4.791  1.00  0.00     0.037 A 
ATOM     53  C   UNL     1       8.264  11.484  -1.996  1.00  0.00     0.037 A 
ATOM     54  C   UNL     1       9.626  13.098   4.171  1.00  0.00     0.049 A 
ATOM     55  C   UNL     1       8.250  12.787  -1.244  1.00  0.00     0.074 A 
ATOM     56  C   UNL     1       9.647  14.361   4.737  1.00  0.00     0.029 A 
ATOM     57  N   UNL     1       9.250  13.260   2.846  1.00  0.00    -0.354 N 
ATOM     58  N   UNL     1       8.558  13.021   0.008  1.00  0.00    -0.248 NA
ATOM     59  C   UNL     1       7.841  13.982  -1.996  1.00  0.00     0.031 C 
ATOM     60  C   UNL     1       9.236  15.282   3.767  1.00  0.00     0.029 A 
ATOM     61  C   UNL     1       9.014  14.599   2.582  1.00  0.00     0.049 A 
ATOM     62  H   UNL     1       9.164  12.531   2.190  1.00  0.00     0.167 HD
ATOM     63  C   UNL     1       8.415  14.392   0.185  1.00  0.00     0.074 A 
ATOM     64  C   UNL     1       8.000  14.937  -1.090  1.00  0.00     0.031 C 
ATOM     65  C   UNL     1       8.614  15.131   1.304  1.00  0.00     0.037 A 
BRANCH  52  66
ATOM     66  C   UNL     1      10.247  11.818   6.258  1.00  0.00     0.057 A 
ATOM     67  C   UNL     1      11.537  11.536   6.728  1.00  0.00     0.134 A 
ATOM     68  C   UNL     1       9.267  12.123   7.211  1.00  0.00     0.134 A 
ATOM     69  F   UNL     1      12.521  11.226   5.870  1.00  0.00    -0.206 F 
ATOM     70  C   UNL     1      11.833  11.528   8.092  1.00  0.00     0.040 A 
ATOM     71  C   UNL     1       9.557  12.148   8.576  1.00  0.00     0.040 A 
ATOM     72  F   UNL     1       8.013  12.412   6.831  1.00  0.00    -0.206 F 
ATOM     73  C   UNL     1      10.842  11.842   9.021  1.00  0.00     0.006 A 
ENDBRANCH  52  66
BRANCH  53  74
ATOM     74  C   UNL     1       7.886  11.434  -3.432  1.00  0.00     0.057 A 
ATOM     75  C   UNL     1       8.696  12.019  -4.412  1.00  0.00     0.134 A 
ATOM     76  C   UNL     1       6.708  10.809  -3.858  1.00  0.00     0.134 A 
ATOM     77  F   UNL     1       9.828  12.648  -4.064  1.00  0.00    -0.206 F 
ATOM     78  C   UNL     1       8.339  12.003  -5.762  1.00  0.00     0.040 A 
ATOM     79  C   UNL     1       6.352  10.762  -5.207  1.00  0.00     0.040 A 
ATOM     80  F   UNL     1       5.892  10.222  -2.970  1.00  0.00    -0.206 F 
ATOM     81  C   UNL     1       7.165  11.368  -6.162  1.00  0.00     0.006 A 
ENDBRANCH  53  74
BRANCH  65  82
ATOM     82  C   UNL     1       8.432  16.617   1.192  1.00  0.00     0.057 A 
ATOM     83  C   UNL     1       7.167  17.203   1.061  1.00  0.00     0.134 A 
ATOM     84  C   UNL     1       9.538  17.474   1.268  1.00  0.00     0.134 A 
ATOM     85  F   UNL     1       6.069  16.438   0.970  1.00  0.00    -0.206 F 
ATOM     86  C   UNL     1       7.010  18.589   0.991  1.00  0.00     0.040 A 
ATOM     87  C   UNL     1       9.391  18.861   1.226  1.00  0.00     0.040 A 
ATOM     88  F   UNL     1      10.777  16.977   1.402  1.00  0.00    -0.206 F 
ATOM     89  C   UNL     1       8.124  19.422   1.082  1.00  0.00     0.006 A 
ENDBRANCH  65  82
ENDBRANCH  39  40
ENDBRANCH  31  34
ENDBRANCH  29  30
ENDBRANCH  28  29
ENDBRANCH  27  28
ENDBRANCH   1  27
TORSDOF 16
