REMARK SMILES Cc1cc(OCC(=O)Nc2sccc2C(=O)NCCCCCCNC(=O)c2ccc(-c3c4nc(c(-c5c(F)cccc5F)c5ccc([nH]5)c(-c5c(F)cccc5F)c5nc(c(-c6c(F)cccc6F)c6ccc3[nH]6)C=C5)C=C4)cc2)ccc1Cl
REMARK SMILES IDX 19 1 18 2 17 3 15 4 16 5 14 7 10 8 11 9 12 10 13 11 9 12
REMARK SMILES IDX 7 13 8 14 6 16 5 17 4 18 1 19 2 20 3 21 83 22 82 23 84 24
REMARK SMILES IDX 81 25 20 26 21 27 22 28 23 29 24 30 25 31 26 33 27 34 28 35
REMARK SMILES IDX 80 36 29 37 79 38 30 39 31 40 32 41 73 42 33 43 78 44 72 45
REMARK SMILES IDX 74 46 34 47 77 48 71 49 70 50 35 52 61 53 44 54 60 55 45 56
REMARK SMILES IDX 48 57 59 58 75 59 46 60 47 61 58 63 76 64 49 65 36 66 37 67
REMARK SMILES IDX 42 68 38 69 39 70 41 71 43 72 40 73 62 74 63 75 68 76 64 77
REMARK SMILES IDX 65 78 67 79 69 80 66 81 50 82 51 83 56 84 52 85 53 86 55 87
REMARK SMILES IDX 57 88 54 89
REMARK H PARENT 17 6 9 15 24 32 74 51 48 62
REMARK Flexibility Score: inf
ROOT
ATOM      1  C   UNL     1      -1.384   1.955   3.227  1.00  0.00     0.021 C 
ENDROOT
BRANCH   1   2
ATOM      2  C   UNL     1      -2.713   1.248   2.956  1.00  0.00     0.116 C 
BRANCH   2   3
ATOM      3  N   UNL     1      -2.548  -0.034   2.302  1.00  0.00    -0.352 N 
ATOM      4  C   UNL     1      -3.466  -1.024   2.061  1.00  0.00     0.254 C 
ATOM      5  O   UNL     1      -3.030  -2.154   1.829  1.00  0.00    -0.269 OA
ATOM      6  H   UNL     1      -1.637  -0.223   1.982  1.00  0.00     0.163 HD
BRANCH   4   7
ATOM      7  C   UNL     1      -4.900  -0.804   2.211  1.00  0.00     0.074 A 
ATOM      8  C   UNL     1      -5.687   0.300   1.940  1.00  0.00     0.108 A 
ATOM      9  S   UNL     1      -7.241   0.178   2.659  1.00  0.00    -0.126 S 
ATOM     10  C   UNL     1      -7.011  -1.462   3.045  1.00  0.00     0.068 A 
ATOM     11  C   UNL     1      -5.732  -1.863   2.751  1.00  0.00     0.028 A 
BRANCH   8  12
ATOM     12  N   UNL     1      -5.554   1.528   1.343  1.00  0.00    -0.314 N 
ATOM     13  C   UNL     1      -4.827   1.955   0.273  1.00  0.00     0.262 C 
ATOM     14  O   UNL     1      -4.658   3.179   0.171  1.00  0.00    -0.271 OA
ATOM     15  H   UNL     1      -6.087   2.237   1.770  1.00  0.00     0.170 HD
BRANCH  13  16
ATOM     16  C   UNL     1      -4.457   1.041  -0.907  1.00  0.00     0.329 C 
BRANCH  16  17
ATOM     17  O   UNL     1      -3.773  -0.171  -0.736  1.00  0.00    -0.484 OA
BRANCH  17  18
ATOM     18  C   UNL     1      -2.441  -0.280  -1.012  1.00  0.00     0.120 A 
ATOM     19  C   UNL     1       0.826   1.615  -1.567  1.00  0.00     0.046 C 
ATOM     20  C   UNL     1      -0.145   0.482  -1.362  1.00  0.00    -0.029 A 
ATOM     21  C   UNL     1      -1.536   0.743  -1.297  1.00  0.00     0.051 A 
ATOM     22  C   UNL     1       0.311  -0.827  -1.149  1.00  0.00     0.044 A 
ATOM     23  C   UNL     1      -0.596  -1.861  -0.944  1.00  0.00     0.024 A 
ATOM     24  Cl  UNL     1       1.994  -1.210  -1.090  1.00  0.00    -0.084 Cl
ATOM     25  C   UNL     1      -1.960  -1.586  -0.895  1.00  0.00     0.048 A 
ENDBRANCH  17  18
ENDBRANCH  16  17
ENDBRANCH  13  16
ENDBRANCH   8  12
ENDBRANCH   4   7
ENDBRANCH   2   3
ENDBRANCH   1   2
BRANCH   1  26
ATOM     26  C   UNL     1      -0.567   2.297   1.975  1.00  0.00     0.002 C 
BRANCH  26  27
ATOM     27  C   UNL     1      -1.260   3.207   0.959  1.00  0.00     0.002 C 
BRANCH  27  28
ATOM     28  C   UNL     1      -1.569   4.631   1.398  1.00  0.00     0.021 C 
BRANCH  28  29
ATOM     29  C   UNL     1      -0.372   5.402   1.931  1.00  0.00     0.116 C 
BRANCH  29  30
ATOM     30  N   UNL     1       0.782   5.420   1.042  1.00  0.00    -0.352 N 
ATOM     31  C   UNL     1       1.768   6.373   0.933  1.00  0.00     0.251 C 
ATOM     32  H   UNL     1       0.869   4.646   0.440  1.00  0.00     0.163 HD
ATOM     33  O   UNL     1       2.655   6.259   0.095  1.00  0.00    -0.269 OA
BRANCH  31  34
ATOM     34  C   UNL     1       1.711   7.571   1.799  1.00  0.00     0.039 A 
ATOM     35  C   UNL     1       1.901   8.828   1.223  1.00  0.00     0.014 A 
ATOM     36  C   UNL     1       1.402   7.459   3.156  1.00  0.00     0.014 A 
ATOM     37  C   UNL     1       1.692   9.974   1.992  1.00  0.00     0.010 A 
ATOM     38  C   UNL     1       1.087   8.596   3.888  1.00  0.00     0.010 A 
ATOM     39  C   UNL     1       1.235   9.866   3.316  1.00  0.00    -0.014 A 
BRANCH  39  40
ATOM     40  C   UNL     1       0.910  11.072   4.115  1.00  0.00     0.031 A 
ATOM     41  C   UNL     1       1.667  11.369   5.380  1.00  0.00     0.074 A 
ATOM     42  C   UNL     1      -0.108  11.867   3.733  1.00  0.00     0.049 A 
ATOM     43  N   UNL     1       1.526  12.370   6.211  1.00  0.00    -0.248 NA
ATOM     44  C   UNL     1       2.693  10.395   5.787  1.00  0.00     0.031 C 
ATOM     45  C   UNL     1      -0.976  11.637   2.575  1.00  0.00     0.029 A 
ATOM     46  N   UNL     1      -0.584  13.034   4.276  1.00  0.00    -0.354 N 
ATOM     47  C   UNL     1       2.430  12.136   7.239  1.00  0.00     0.074 A 
ATOM     48  C   UNL     1       3.062  10.864   6.968  1.00  0.00     0.031 C 
ATOM     49  C   UNL     1      -1.844  12.656   2.466  1.00  0.00     0.029 A 
ATOM     50  C   UNL     1      -1.612  13.595   3.558  1.00  0.00     0.049 A 
ATOM     51  H   UNL     1      -0.223  13.431   5.101  1.00  0.00     0.167 HD
ATOM     52  C   UNL     1       2.734  12.925   8.297  1.00  0.00     0.037 A 
ATOM     53  C   UNL     1      -2.277  14.749   3.750  1.00  0.00     0.037 A 
ATOM     54  C   UNL     1       2.130  14.206   8.543  1.00  0.00     0.049 A 
ATOM     55  C   UNL     1      -1.887  15.635   4.899  1.00  0.00     0.074 A 
ATOM     56  C   UNL     1       2.410  15.115   9.548  1.00  0.00     0.029 A 
ATOM     57  N   UNL     1       1.125  14.763   7.767  1.00  0.00    -0.354 N 
ATOM     58  N   UNL     1      -0.971  15.442   5.817  1.00  0.00    -0.248 NA
ATOM     59  C   UNL     1      -2.611  16.906   5.030  1.00  0.00     0.031 C 
ATOM     60  C   UNL     1       1.552  16.210   9.397  1.00  0.00     0.029 A 
ATOM     61  C   UNL     1       0.767  16.000   8.274  1.00  0.00     0.049 A 
ATOM     62  H   UNL     1       0.725  14.340   6.972  1.00  0.00     0.167 HD
ATOM     63  C   UNL     1      -0.985  16.579   6.614  1.00  0.00     0.074 A 
ATOM     64  C   UNL     1      -1.994  17.461   6.063  1.00  0.00     0.031 C 
ATOM     65  C   UNL     1      -0.232  16.867   7.703  1.00  0.00     0.037 A 
BRANCH  52  66
ATOM     66  C   UNL     1       3.780  12.423   9.249  1.00  0.00     0.057 A 
ATOM     67  C   UNL     1       5.130  12.332   8.879  1.00  0.00     0.134 A 
ATOM     68  C   UNL     1       3.441  12.033  10.549  1.00  0.00     0.134 A 
ATOM     69  F   UNL     1       5.520  12.674   7.642  1.00  0.00    -0.206 F 
ATOM     70  C   UNL     1       6.097  11.839   9.756  1.00  0.00     0.040 A 
ATOM     71  C   UNL     1       4.404  11.565  11.446  1.00  0.00     0.040 A 
ATOM     72  F   UNL     1       2.169  12.097  10.971  1.00  0.00    -0.206 F 
ATOM     73  C   UNL     1       5.735  11.459  11.046  1.00  0.00     0.006 A 
ENDBRANCH  52  66
BRANCH  53  74
ATOM     74  C   UNL     1      -3.330  15.167   2.791  1.00  0.00     0.057 A 
ATOM     75  C   UNL     1      -3.109  16.222   1.897  1.00  0.00     0.134 A 
ATOM     76  C   UNL     1      -4.573  14.526   2.738  1.00  0.00     0.134 A 
ATOM     77  F   UNL     1      -1.942  16.884   1.910  1.00  0.00    -0.206 F 
ATOM     78  C   UNL     1      -4.092  16.638   0.997  1.00  0.00     0.040 A 
ATOM     79  C   UNL     1      -5.557  14.917   1.828  1.00  0.00     0.040 A 
ATOM     80  F   UNL     1      -4.842  13.502   3.560  1.00  0.00    -0.206 F 
ATOM     81  C   UNL     1      -5.320  15.980   0.959  1.00  0.00     0.006 A 
ENDBRANCH  53  74
BRANCH  65  82
ATOM     82  C   UNL     1      -0.442  18.207   8.343  1.00  0.00     0.057 A 
ATOM     83  C   UNL     1      -1.587  18.496   9.095  1.00  0.00     0.134 A 
ATOM     84  C   UNL     1       0.530  19.209   8.229  1.00  0.00     0.134 A 
ATOM     85  F   UNL     1      -2.560  17.582   9.231  1.00  0.00    -0.206 F 
ATOM     86  C   UNL     1      -1.770  19.745   9.690  1.00  0.00     0.040 A 
ATOM     87  C   UNL     1       0.370  20.452   8.840  1.00  0.00     0.040 A 
ATOM     88  F   UNL     1       1.654  18.991   7.529  1.00  0.00    -0.206 F 
ATOM     89  C   UNL     1      -0.787  20.725   9.568  1.00  0.00     0.006 A 
ENDBRANCH  65  82
ENDBRANCH  39  40
ENDBRANCH  31  34
ENDBRANCH  29  30
ENDBRANCH  28  29
ENDBRANCH  27  28
ENDBRANCH  26  27
ENDBRANCH   1  26
TORSDOF 17
