REMARK SMILES Cc1nc2n(n1)[C@@H](c1ccc([N+](=O)[O-])o1)CC(C(=O)NCCCCCCNC(=O)c1ccc(-c3c4nc(c(-c5c(F)cccc5F)c5ccc([nH]5)c(-c5c(F)cccc5F)c5nc(c(-c6c(F)cccc6F)c6ccc3[nH]6)C=C5)C=C4)cc1)=N2
REMARK SMILES IDX 23 1 22 2 21 3 20 4 18 5 19 6 17 8 1 9 2 10 3 11 6 12 4 13
REMARK SMILES IDX 5 14 84 15 7 16 16 17 8 18 9 19 15 20 10 21 11 22 12 23
REMARK SMILES IDX 13 24 14 25 24 26 25 27 26 28 27 29 28 30 29 32 30 33 31 34
REMARK SMILES IDX 83 35 32 36 82 37 33 38 34 39 35 40 76 41 36 42 81 43 75 44
REMARK SMILES IDX 77 45 37 46 80 47 74 48 73 49 38 51 64 52 47 53 63 54 48 55
REMARK SMILES IDX 51 56 62 57 78 58 49 59 50 60 61 62 79 63 52 64 39 65 40 66
REMARK SMILES IDX 45 67 41 68 42 69 44 70 46 71 43 72 65 73 66 74 71 75 67 76
REMARK SMILES IDX 68 77 70 78 72 79 69 80 53 81 54 82 59 83 55 84 56 85 58 86
REMARK SMILES IDX 60 87 57 88
REMARK H PARENT 20 7 27 31 77 50 51 61
REMARK Flexibility Score: inf
ROOT
ATOM      1  C   UNL     1      -1.462   0.604 -11.015  1.00  0.00     0.002 C 
ENDROOT
BRANCH   1   2
ATOM      2  C   UNL     1      -1.090   1.054  -9.595  1.00  0.00     0.021 C 
BRANCH   2   3
ATOM      3  C   UNL     1      -2.175   0.775  -8.550  1.00  0.00     0.116 C 
BRANCH   3   4
ATOM      4  N   UNL     1      -2.059  -0.565  -7.995  1.00  0.00    -0.351 N 
ATOM      5  C   UNL     1      -1.600  -1.116  -6.826  1.00  0.00     0.265 C 
ATOM      6  O   UNL     1      -1.660  -2.343  -6.732  1.00  0.00    -0.268 OA
ATOM      7  H   UNL     1      -2.396  -1.250  -8.617  1.00  0.00     0.163 HD
BRANCH   5   8
ATOM      8  C   UNL     1      -1.030  -0.324  -5.630  1.00  0.00     0.112 C 
ATOM      9  C   UNL     1       0.861   0.159  -0.158  1.00  0.00     0.092 C 
ATOM     10  C   UNL     1       0.447   0.247  -1.572  1.00  0.00     0.149 A 
ATOM     11  N   UNL     1       0.026  -0.845  -2.285  1.00  0.00    -0.195 NA
ATOM     12  N   UNL     1       0.467   1.394  -2.262  1.00  0.00    -0.154 NA
ATOM     13  C   UNL     1      -0.235  -0.371  -3.485  1.00  0.00     0.249 A 
ATOM     14  N   UNL     1       0.059   0.963  -3.471  1.00  0.00    -0.219 N 
ATOM     15  N   UNL     1      -0.701  -1.014  -4.578  1.00  0.00    -0.211 NA
ATOM     16  C   UNL     1      -0.131   1.845  -4.596  1.00  0.00     0.184 C 
ATOM     17  C   UNL     1      -0.940   1.174  -5.708  1.00  0.00     0.098 C 
BRANCH  16  18
ATOM     18  C   UNL     1       1.168   2.384  -5.125  1.00  0.00     0.136 A 
ATOM     19  C   UNL     1       2.499   2.319  -4.745  1.00  0.00     0.056 A 
ATOM     20  O   UNL     1       1.056   3.151  -6.257  1.00  0.00    -0.404 OA
ATOM     21  C   UNL     1       3.241   3.059  -5.706  1.00  0.00     0.134 A 
ATOM     22  C   UNL     1       2.315   3.526  -6.603  1.00  0.00     0.433 A 
BRANCH  22  23
ATOM     23  N   UNL     1       2.427   4.293  -7.803  1.00  0.00     0.102 N 
ATOM     24  O   UNL     1       3.561   4.717  -8.080  1.00  0.00    -0.256 OA
ATOM     25  O   UNL     1       1.405   4.460  -8.476  1.00  0.00    -0.256 OA
ENDBRANCH  22  23
ENDBRANCH  16  18
ENDBRANCH   5   8
ENDBRANCH   3   4
ENDBRANCH   2   3
ENDBRANCH   1   2
BRANCH   1  26
ATOM     26  C   UNL     1      -2.695   1.290 -11.620  1.00  0.00     0.002 C 
BRANCH  26  27
ATOM     27  C   UNL     1      -2.622   2.825 -11.755  1.00  0.00     0.021 C 
BRANCH  27  28
ATOM     28  C   UNL     1      -1.694   3.351 -12.866  1.00  0.00     0.116 C 
BRANCH  28  29
ATOM     29  N   UNL     1      -2.173   2.916 -14.167  1.00  0.00    -0.352 N 
ATOM     30  C   UNL     1      -2.449   3.579 -15.328  1.00  0.00     0.251 C 
ATOM     31  H   UNL     1      -2.332   1.945 -14.222  1.00  0.00     0.163 HD
ATOM     32  O   UNL     1      -3.199   3.022 -16.132  1.00  0.00    -0.269 OA
BRANCH  30  33
ATOM     33  C   UNL     1      -1.878   4.895 -15.695  1.00  0.00     0.039 A 
ATOM     34  C   UNL     1      -2.655   5.709 -16.535  1.00  0.00     0.014 A 
ATOM     35  C   UNL     1      -0.563   5.266 -15.414  1.00  0.00     0.014 A 
ATOM     36  C   UNL     1      -2.142   6.891 -17.070  1.00  0.00     0.010 A 
ATOM     37  C   UNL     1      -0.046   6.456 -15.954  1.00  0.00     0.010 A 
ATOM     38  C   UNL     1      -0.838   7.288 -16.770  1.00  0.00    -0.014 A 
BRANCH  38  39
ATOM     39  C   UNL     1      -0.444   8.658 -17.183  1.00  0.00     0.031 A 
ATOM     40  C   UNL     1       0.214   9.440 -16.096  1.00  0.00     0.074 A 
ATOM     41  C   UNL     1      -0.062   8.997 -18.436  1.00  0.00     0.049 A 
ATOM     42  N   UNL     1       1.472   9.262 -15.834  1.00  0.00    -0.248 NA
ATOM     43  C   UNL     1      -0.482  10.222 -15.080  1.00  0.00     0.031 C 
ATOM     44  C   UNL     1       0.632   8.097 -19.366  1.00  0.00     0.029 A 
ATOM     45  N   UNL     1       0.021  10.238 -19.041  1.00  0.00    -0.354 N 
ATOM     46  C   UNL     1       1.742   9.830 -14.605  1.00  0.00     0.074 A 
ATOM     47  C   UNL     1       0.498  10.434 -14.181  1.00  0.00     0.031 C 
ATOM     48  C   UNL     1       1.222   8.841 -20.325  1.00  0.00     0.029 A 
ATOM     49  C   UNL     1       0.833  10.240 -20.167  1.00  0.00     0.049 A 
ATOM     50  H   UNL     1      -0.447  11.037 -18.707  1.00  0.00     0.167 HD
ATOM     51  C   UNL     1       2.987   9.751 -14.058  1.00  0.00     0.037 A 
ATOM     52  C   UNL     1       1.515  11.309 -20.659  1.00  0.00     0.037 A 
ATOM     53  C   UNL     1       4.028   9.125 -14.856  1.00  0.00     0.049 A 
ATOM     54  C   UNL     1       2.756  11.309 -19.806  1.00  0.00     0.074 A 
ATOM     55  C   UNL     1       5.208   8.432 -14.668  1.00  0.00     0.029 A 
ATOM     56  N   UNL     1       3.914   9.243 -16.212  1.00  0.00    -0.354 N 
ATOM     57  N   UNL     1       3.804  10.541 -19.965  1.00  0.00    -0.248 NA
ATOM     58  C   UNL     1       2.716  12.025 -18.519  1.00  0.00     0.031 C 
ATOM     59  C   UNL     1       5.873   8.372 -15.942  1.00  0.00     0.029 A 
ATOM     60  C   UNL     1       5.100   9.068 -16.857  1.00  0.00     0.049 A 
ATOM     61  H   UNL     1       3.065   9.435 -16.674  1.00  0.00     0.167 HD
ATOM     62  C   UNL     1       4.386  10.476 -18.704  1.00  0.00     0.074 A 
ATOM     63  C   UNL     1       3.776  11.518 -17.903  1.00  0.00     0.031 C 
ATOM     64  C   UNL     1       5.117   9.417 -18.253  1.00  0.00     0.037 A 
BRANCH  51  65
ATOM     65  C   UNL     1       3.409  10.454 -12.822  1.00  0.00     0.057 A 
ATOM     66  C   UNL     1       4.318  11.518 -12.955  1.00  0.00     0.134 A 
ATOM     67  C   UNL     1       3.144   9.993 -11.534  1.00  0.00     0.134 A 
ATOM     68  F   UNL     1       4.603  12.016 -14.170  1.00  0.00    -0.206 F 
ATOM     69  C   UNL     1       4.984  12.064 -11.859  1.00  0.00     0.040 A 
ATOM     70  C   UNL     1       3.798  10.541 -10.422  1.00  0.00     0.040 A 
ATOM     71  F   UNL     1       2.294   8.975 -11.334  1.00  0.00    -0.206 F 
ATOM     72  C   UNL     1       4.734  11.565 -10.586  1.00  0.00     0.006 A 
ENDBRANCH  51  65
BRANCH  52  73
ATOM     73  C   UNL     1       0.732  12.535 -21.006  1.00  0.00     0.057 A 
ATOM     74  C   UNL     1      -0.389  12.394 -21.851  1.00  0.00     0.134 A 
ATOM     75  C   UNL     1       1.024  13.848 -20.616  1.00  0.00     0.134 A 
ATOM     76  F   UNL     1      -0.679  11.204 -22.401  1.00  0.00    -0.206 F 
ATOM     77  C   UNL     1      -1.236  13.462 -22.170  1.00  0.00     0.040 A 
ATOM     78  C   UNL     1       0.170  14.922 -20.901  1.00  0.00     0.040 A 
ATOM     79  F   UNL     1       2.147  14.147 -19.952  1.00  0.00    -0.206 F 
ATOM     80  C   UNL     1      -0.977  14.727 -21.662  1.00  0.00     0.006 A 
ENDBRANCH  52  73
BRANCH  64  81
ATOM     81  C   UNL     1       5.749   8.543 -19.261  1.00  0.00     0.057 A 
ATOM     82  C   UNL     1       6.700   9.069 -20.141  1.00  0.00     0.134 A 
ATOM     83  C   UNL     1       5.481   7.173 -19.326  1.00  0.00     0.134 A 
ATOM     84  F   UNL     1       7.026  10.371 -20.097  1.00  0.00    -0.206 F 
ATOM     85  C   UNL     1       7.367   8.260 -21.056  1.00  0.00     0.040 A 
ATOM     86  C   UNL     1       6.154   6.349 -20.229  1.00  0.00     0.040 A 
ATOM     87  F   UNL     1       4.574   6.607 -18.515  1.00  0.00    -0.206 F 
ATOM     88  C   UNL     1       7.100   6.893 -21.096  1.00  0.00     0.006 A 
ENDBRANCH  64  81
ENDBRANCH  38  39
ENDBRANCH  30  33
ENDBRANCH  28  29
ENDBRANCH  27  28
ENDBRANCH  26  27
ENDBRANCH   1  26
TORSDOF 15
