REMARK SMILES CC(C)c1cccc2c1N[C@H](c1ccc(C(=O)NCCCCCCNC(=O)c3ccc(-c4c5nc(c(-c6c(F)cccc6F)c6ccc([nH]6)c(-c6c(F)cccc6F)c6nc(c(-c7c(F)cccc7F)c7ccc4[nH]7)C=C6)C=C5)cc3)cc1)[C@H]1CC=C[C@H]21
REMARK SMILES IDX 21 1 20 2 19 3 18 4 16 5 17 6 15 8 12 9 13 10 83 11 14 12
REMARK SMILES IDX 82 13 11 14 4 15 5 16 9 17 6 18 8 19 10 20 7 21 88 22 84 24
REMARK SMILES IDX 87 25 85 26 86 27 2 28 1 29 3 30 22 31 23 32 24 33 25 34
REMARK SMILES IDX 26 35 27 37 28 38 29 39 81 40 30 41 80 42 31 43 32 44 33 45
REMARK SMILES IDX 74 46 34 47 79 48 73 49 75 50 35 51 78 52 72 53 71 54 36 56
REMARK SMILES IDX 62 57 45 58 61 59 46 60 49 61 60 62 76 63 47 64 48 65 59 67
REMARK SMILES IDX 77 68 50 69 37 70 38 71 43 72 39 73 40 74 42 75 44 76 41 77
REMARK SMILES IDX 63 78 64 79 69 80 65 81 66 82 68 83 70 84 67 85 51 86 52 87
REMARK SMILES IDX 57 88 53 89 54 90 56 91 58 92 55 93
REMARK H PARENT 18 7 10 23 25 36 75 55 49 66
REMARK Flexibility Score: inf
ROOT
ATOM      1  C   UNL     1      -1.043   6.722   7.752  1.00  0.00     0.002 C 
ENDROOT
BRANCH   1   2
ATOM      2  C   UNL     1      -1.159   5.582   6.741  1.00  0.00     0.021 C 
BRANCH   2   3
ATOM      3  C   UNL     1      -1.089   5.969   5.269  1.00  0.00     0.116 C 
BRANCH   3   4
ATOM      4  N   UNL     1       0.193   6.497   4.825  1.00  0.00    -0.352 N 
ATOM      5  C   UNL     1       0.805   6.356   3.591  1.00  0.00     0.251 C 
ATOM      6  O   UNL     1       1.917   6.836   3.393  1.00  0.00    -0.269 OA
ATOM      7  H   UNL     1       0.691   7.025   5.490  1.00  0.00     0.163 HD
BRANCH   5   8
ATOM      8  C   UNL     1       0.140   5.562   2.526  1.00  0.00     0.039 A 
ATOM      9  C   UNL     1      -1.230   3.622   0.985  1.00  0.00    -0.025 A 
ATOM     10  C   UNL     1       0.179   3.684   0.998  1.00  0.00     0.006 A 
ATOM     11  C   UNL     1      -1.895   4.705   1.571  1.00  0.00     0.006 A 
ATOM     12  C   UNL     1       0.862   4.625   1.789  1.00  0.00     0.014 A 
ATOM     13  C   UNL     1      -1.222   5.685   2.298  1.00  0.00     0.014 A 
BRANCH   9  14
ATOM     14  C   UNL     1      -1.981   2.438   0.339  1.00  0.00     0.114 C 
ATOM     15  C   UNL     1      -0.982  -1.259   0.750  1.00  0.00    -0.022 A 
ATOM     16  C   UNL     1      -1.622  -2.520   0.840  1.00  0.00     0.006 A 
ATOM     17  C   UNL     1      -1.781  -0.095   0.633  1.00  0.00     0.042 A 
ATOM     18  C   UNL     1      -3.001  -2.652   0.754  1.00  0.00     0.001 A 
ATOM     19  C   UNL     1      -3.180  -0.257   0.482  1.00  0.00    -0.017 A 
ATOM     20  N   UNL     1      -1.225   1.185   0.606  1.00  0.00    -0.377 N 
ATOM     21  C   UNL     1      -3.777  -1.525   0.547  1.00  0.00     0.006 A 
ATOM     22  C   UNL     1      -3.980   0.955   0.117  1.00  0.00     0.049 C 
ATOM     23  H   UNL     1      -0.259   1.264   0.777  1.00  0.00     0.161 HD
ATOM     24  C   UNL     1      -3.431   2.206   0.822  1.00  0.00     0.031 C 
ATOM     25  C   UNL     1      -5.436   1.053   0.469  1.00  0.00    -0.023 C 
ATOM     26  C   UNL     1      -4.558   3.216   0.549  1.00  0.00     0.034 C 
ATOM     27  C   UNL     1      -5.768   2.336   0.654  1.00  0.00    -0.030 C 
BRANCH  15  28
ATOM     28  C   UNL     1       0.544  -1.313   0.784  1.00  0.00     0.015 C 
ATOM     29  C   UNL     1       1.288  -0.349  -0.143  1.00  0.00     0.012 C 
ATOM     30  C   UNL     1       1.061  -1.221   2.219  1.00  0.00     0.012 C 
ENDBRANCH  15  28
ENDBRANCH   9  14
ENDBRANCH   5   8
ENDBRANCH   3   4
ENDBRANCH   2   3
ENDBRANCH   1   2
BRANCH   1  31
ATOM     31  C   UNL     1      -2.014   7.894   7.585  1.00  0.00     0.002 C 
BRANCH  31  32
ATOM     32  C   UNL     1      -3.502   7.551   7.496  1.00  0.00     0.021 C 
BRANCH  32  33
ATOM     33  C   UNL     1      -4.063   6.678   8.613  1.00  0.00     0.116 C 
BRANCH  33  34
ATOM     34  N   UNL     1      -3.946   7.273   9.933  1.00  0.00    -0.352 N 
ATOM     35  C   UNL     1      -4.900   7.459  10.910  1.00  0.00     0.251 C 
ATOM     36  H   UNL     1      -3.045   7.593  10.167  1.00  0.00     0.163 HD
ATOM     37  O   UNL     1      -4.622   8.071  11.931  1.00  0.00    -0.269 OA
BRANCH  35  38
ATOM     38  C   UNL     1      -6.280   6.955  10.708  1.00  0.00     0.039 A 
ATOM     39  C   UNL     1      -6.518   5.682  10.189  1.00  0.00     0.014 A 
ATOM     40  C   UNL     1      -7.357   7.785  11.039  1.00  0.00     0.014 A 
ATOM     41  C   UNL     1      -7.812   5.312   9.833  1.00  0.00     0.010 A 
ATOM     42  C   UNL     1      -8.666   7.374  10.762  1.00  0.00     0.010 A 
ATOM     43  C   UNL     1      -8.901   6.157  10.105  1.00  0.00    -0.014 A 
BRANCH  43  44
ATOM     44  C   UNL     1     -10.267   5.748   9.681  1.00  0.00     0.031 A 
ATOM     45  C   UNL     1     -11.024   6.536   8.643  1.00  0.00     0.074 A 
ATOM     46  C   UNL     1     -10.808   4.624  10.192  1.00  0.00     0.049 A 
ATOM     47  N   UNL     1     -12.204   6.301   8.125  1.00  0.00    -0.248 NA
ATOM     48  C   UNL     1     -10.374   7.747   8.120  1.00  0.00     0.031 C 
ATOM     49  C   UNL     1     -10.181   3.772  11.204  1.00  0.00     0.029 A 
ATOM     50  N   UNL     1     -11.994   3.994   9.915  1.00  0.00    -0.354 N 
ATOM     51  C   UNL     1     -12.444   7.338   7.231  1.00  0.00     0.074 A 
ATOM     52  C   UNL     1     -11.301   8.224   7.302  1.00  0.00     0.031 C 
ATOM     53  C   UNL     1     -10.963   2.705  11.425  1.00  0.00     0.029 A 
ATOM     54  C   UNL     1     -12.171   2.827  10.617  1.00  0.00     0.049 A 
ATOM     55  H   UNL     1     -12.654   4.343   9.274  1.00  0.00     0.167 HD
ATOM     56  C   UNL     1     -13.510   7.530   6.415  1.00  0.00     0.037 A 
ATOM     57  C   UNL     1     -13.198   1.957  10.622  1.00  0.00     0.037 A 
ATOM     58  C   UNL     1     -14.643   6.644   6.334  1.00  0.00     0.049 A 
ATOM     59  C   UNL     1     -14.386   2.219   9.742  1.00  0.00     0.074 A 
ATOM     60  C   UNL     1     -15.758   6.738   5.518  1.00  0.00     0.029 A 
ATOM     61  N   UNL     1     -14.809   5.502   7.103  1.00  0.00    -0.354 N 
ATOM     62  N   UNL     1     -14.582   3.188   8.882  1.00  0.00    -0.248 NA
ATOM     63  C   UNL     1     -15.499   1.265   9.840  1.00  0.00     0.031 C 
ATOM     64  C   UNL     1     -16.618   5.678   5.824  1.00  0.00     0.029 A 
ATOM     65  C   UNL     1     -16.019   4.896   6.798  1.00  0.00     0.049 A 
ATOM     66  H   UNL     1     -14.164   5.169   7.768  1.00  0.00     0.167 HD
ATOM     67  C   UNL     1     -15.834   2.956   8.329  1.00  0.00     0.074 A 
ATOM     68  C   UNL     1     -16.337   1.737   8.928  1.00  0.00     0.031 C 
ATOM     69  C   UNL     1     -16.511   3.689   7.411  1.00  0.00     0.037 A 
BRANCH  56  70
ATOM     70  C   UNL     1     -13.508   8.761   5.553  1.00  0.00     0.057 A 
ATOM     71  C   UNL     1     -14.393   9.815   5.812  1.00  0.00     0.134 A 
ATOM     72  C   UNL     1     -12.653   8.893   4.451  1.00  0.00     0.134 A 
ATOM     73  F   UNL     1     -15.244   9.752   6.847  1.00  0.00    -0.206 F 
ATOM     74  C   UNL     1     -14.427  10.956   5.008  1.00  0.00     0.040 A 
ATOM     75  C   UNL     1     -12.660  10.039   3.654  1.00  0.00     0.040 A 
ATOM     76  F   UNL     1     -11.773   7.925   4.153  1.00  0.00    -0.206 F 
ATOM     77  C   UNL     1     -13.553  11.073   3.928  1.00  0.00     0.006 A 
ENDBRANCH  56  70
BRANCH  57  78
ATOM     78  C   UNL     1     -13.157   0.761  11.501  1.00  0.00     0.057 A 
ATOM     79  C   UNL     1     -13.235   0.879  12.894  1.00  0.00     0.134 A 
ATOM     80  C   UNL     1     -13.063  -0.528  10.966  1.00  0.00     0.134 A 
ATOM     81  F   UNL     1     -13.323   2.088  13.467  1.00  0.00    -0.206 F 
ATOM     82  C   UNL     1     -13.213  -0.242  13.724  1.00  0.00     0.040 A 
ATOM     83  C   UNL     1     -13.068  -1.660  11.783  1.00  0.00     0.040 A 
ATOM     84  F   UNL     1     -13.007  -0.706   9.637  1.00  0.00    -0.206 F 
ATOM     85  C   UNL     1     -13.139  -1.517  13.167  1.00  0.00     0.006 A 
ENDBRANCH  57  78
BRANCH  69  86
ATOM     86  C   UNL     1     -17.858   3.173   6.996  1.00  0.00     0.057 A 
ATOM     87  C   UNL     1     -18.051   2.617   5.726  1.00  0.00     0.134 A 
ATOM     88  C   UNL     1     -18.962   3.219   7.857  1.00  0.00     0.134 A 
ATOM     89  F   UNL     1     -17.037   2.548   4.850  1.00  0.00    -0.206 F 
ATOM     90  C   UNL     1     -19.293   2.119   5.329  1.00  0.00     0.040 A 
ATOM     91  C   UNL     1     -20.202   2.699   7.482  1.00  0.00     0.040 A 
ATOM     92  F   UNL     1     -18.839   3.724   9.095  1.00  0.00    -0.206 F 
ATOM     93  C   UNL     1     -20.370   2.149   6.213  1.00  0.00     0.006 A 
ENDBRANCH  69  86
ENDBRANCH  43  44
ENDBRANCH  35  38
ENDBRANCH  33  34
ENDBRANCH  32  33
ENDBRANCH  31  32
ENDBRANCH   1  31
TORSDOF 15
