REMARK SMILES CC(C)(C)c1cc(Nc2ccccc2C(=O)NCCCCCCNC(=O)c2ccc(-c3c4nc(c(-c5c(F)cccc5F)c5ccc([nH]5)c(-c5c(F)cccc5F)c5nc(c(-c6c(F)cccc6F)c6ccc3[nH]6)C=C5)C=C4)cc2)cc2c1OCC2(C)C
REMARK SMILES IDX 20 1 19 2 18 3 17 4 15 5 16 6 14 8 9 9 10 10 11 11 13 12
REMARK SMILES IDX 12 13 8 14 7 16 5 17 6 18 83 19 82 20 84 21 81 22 86 23
REMARK SMILES IDX 85 24 87 25 88 26 2 27 1 28 3 29 4 30 21 31 22 32 23 33
REMARK SMILES IDX 24 34 25 35 26 37 27 38 28 39 80 40 29 41 79 42 30 43 31 44
REMARK SMILES IDX 32 45 73 46 33 47 78 48 72 49 74 50 34 51 77 52 71 53 70 54
REMARK SMILES IDX 35 56 61 57 44 58 60 59 45 60 48 61 59 62 75 63 46 64 47 65
REMARK SMILES IDX 58 67 76 68 49 69 36 70 37 71 42 72 38 73 39 74 41 75 43 76
REMARK SMILES IDX 40 77 62 78 63 79 68 80 64 81 65 82 67 83 69 84 66 85 50 86
REMARK SMILES IDX 51 87 56 88 52 89 53 90 55 91 57 92 54 93
REMARK H PARENT 17 7 8 15 24 36 74 55 48 66
REMARK Flexibility Score: inf
ROOT
ATOM      1  C   UNL     1      -2.314   3.283   2.083  1.00  0.00     0.002 C 
ENDROOT
BRANCH   1   2
ATOM      2  C   UNL     1      -1.035   3.773   1.406  1.00  0.00     0.021 C 
BRANCH   2   3
ATOM      3  C   UNL     1      -1.109   4.888   0.369  1.00  0.00     0.116 C 
BRANCH   3   4
ATOM      4  N   UNL     1      -1.652   6.155   0.772  1.00  0.00    -0.352 N 
ATOM      5  C   UNL     1      -1.368   7.435   0.348  1.00  0.00     0.253 C 
ATOM      6  O   UNL     1      -2.062   8.319   0.867  1.00  0.00    -0.269 OA
ATOM      7  H   UNL     1      -2.345   6.100   1.469  1.00  0.00     0.163 HD
BRANCH   5   8
ATOM      8  C   UNL     1      -0.296   7.879  -0.624  1.00  0.00     0.063 A 
ATOM      9  C   UNL     1       0.233   7.240  -1.766  1.00  0.00     0.051 A 
ATOM     10  C   UNL     1       1.159   7.943  -2.586  1.00  0.00     0.027 A 
ATOM     11  C   UNL     1       1.628   9.211  -2.266  1.00  0.00     0.002 A 
ATOM     12  C   UNL     1       0.202   9.177  -0.329  1.00  0.00     0.016 A 
ATOM     13  C   UNL     1       1.159   9.825  -1.121  1.00  0.00     0.001 A 
BRANCH   9  14
ATOM     14  N   UNL     1       0.010   5.900  -2.142  1.00  0.00    -0.355 N 
ATOM     15  H   UNL     1      -0.882   5.666  -2.487  1.00  0.00     0.167 HD
BRANCH  14  16
ATOM     16  C   UNL     1       0.975   4.863  -2.061  1.00  0.00     0.039 A 
ATOM     17  C   UNL     1       1.486   2.439  -2.078  1.00  0.00     0.002 A 
ATOM     18  C   UNL     1       0.604   3.526  -2.304  1.00  0.00     0.034 A 
ATOM     19  C   UNL     1       2.780   2.774  -1.679  1.00  0.00     0.127 A 
ATOM     20  C   UNL     1       3.171   4.078  -1.459  1.00  0.00     0.006 A 
ATOM     21  O   UNL     1       3.792   1.874  -1.469  1.00  0.00    -0.492 OA
ATOM     22  C   UNL     1       2.283   5.122  -1.633  1.00  0.00     0.034 A 
ATOM     23  C   UNL     1       4.613   4.147  -1.095  1.00  0.00     0.028 C 
ATOM     24  C   UNL     1       4.917   2.641  -0.986  1.00  0.00     0.240 C 
ATOM     25  C   UNL     1       5.393   4.808  -2.236  1.00  0.00     0.020 C 
ATOM     26  C   UNL     1       4.872   4.867   0.231  1.00  0.00     0.020 C 
BRANCH  17  27
ATOM     27  C   UNL     1       1.041   0.975  -2.172  1.00  0.00    -0.009 C 
ATOM     28  C   UNL     1       1.214   0.318  -0.782  1.00  0.00     0.016 C 
ATOM     29  C   UNL     1       1.864   0.194  -3.213  1.00  0.00     0.016 C 
ATOM     30  C   UNL     1      -0.435   0.834  -2.597  1.00  0.00     0.016 C 
ENDBRANCH  17  27
ENDBRANCH  14  16
ENDBRANCH   9  14
ENDBRANCH   5   8
ENDBRANCH   3   4
ENDBRANCH   2   3
ENDBRANCH   1   2
BRANCH   1  31
ATOM     31  C   UNL     1      -3.447   2.725   1.214  1.00  0.00     0.002 C 
BRANCH  31  32
ATOM     32  C   UNL     1      -3.094   1.684   0.148  1.00  0.00     0.021 C 
BRANCH  32  33
ATOM     33  C   UNL     1      -2.299   0.451   0.592  1.00  0.00     0.116 C 
BRANCH  33  34
ATOM     34  N   UNL     1      -3.108  -0.604   1.180  1.00  0.00    -0.352 N 
ATOM     35  C   UNL     1      -3.353  -1.890   0.744  1.00  0.00     0.251 C 
ATOM     36  H   UNL     1      -3.553  -0.363   2.025  1.00  0.00     0.163 HD
ATOM     37  O   UNL     1      -4.140  -2.603   1.367  1.00  0.00    -0.269 OA
BRANCH  35  38
ATOM     38  C   UNL     1      -2.720  -2.430  -0.487  1.00  0.00     0.039 A 
ATOM     39  C   UNL     1      -1.341  -2.394  -0.680  1.00  0.00     0.014 A 
ATOM     40  C   UNL     1      -3.520  -3.031  -1.463  1.00  0.00     0.014 A 
ATOM     41  C   UNL     1      -0.791  -2.781  -1.913  1.00  0.00     0.010 A 
ATOM     42  C   UNL     1      -2.955  -3.480  -2.670  1.00  0.00     0.010 A 
ATOM     43  C   UNL     1      -1.590  -3.295  -2.948  1.00  0.00    -0.014 A 
BRANCH  43  44
ATOM     44  C   UNL     1      -1.032  -3.564  -4.321  1.00  0.00     0.031 A 
ATOM     45  C   UNL     1      -1.657  -2.920  -5.546  1.00  0.00     0.074 A 
ATOM     46  C   UNL     1       0.048  -4.353  -4.511  1.00  0.00     0.049 A 
ATOM     47  N   UNL     1      -1.422  -3.138  -6.820  1.00  0.00    -0.248 NA
ATOM     48  C   UNL     1      -2.688  -1.899  -5.305  1.00  0.00     0.031 C 
ATOM     49  C   UNL     1       0.819  -5.013  -3.459  1.00  0.00     0.029 A 
ATOM     50  N   UNL     1       0.688  -4.733  -5.672  1.00  0.00    -0.354 N 
ATOM     51  C   UNL     1      -2.299  -2.317  -7.524  1.00  0.00     0.074 A 
ATOM     52  C   UNL     1      -3.093  -1.618  -6.535  1.00  0.00     0.031 C 
ATOM     53  C   UNL     1       1.842  -5.683  -4.014  1.00  0.00     0.029 A 
ATOM     54  C   UNL     1       1.753  -5.579  -5.468  1.00  0.00     0.049 A 
ATOM     55  H   UNL     1       0.407  -4.428  -6.565  1.00  0.00     0.167 HD
ATOM     56  C   UNL     1      -2.433  -2.141  -8.863  1.00  0.00     0.037 A 
ATOM     57  C   UNL     1       2.545  -6.238  -6.338  1.00  0.00     0.037 A 
ATOM     58  C   UNL     1      -1.630  -2.796  -9.867  1.00  0.00     0.049 A 
ATOM     59  C   UNL     1       2.306  -6.115  -7.820  1.00  0.00     0.074 A 
ATOM     60  C   UNL     1      -1.695  -2.662 -11.245  1.00  0.00     0.029 A 
ATOM     61  N   UNL     1      -0.614  -3.699  -9.606  1.00  0.00    -0.354 N 
ATOM     62  N   UNL     1       1.453  -5.359  -8.465  1.00  0.00    -0.248 NA
ATOM     63  C   UNL     1       3.135  -6.960  -8.695  1.00  0.00     0.031 C 
ATOM     64  C   UNL     1      -0.753  -3.523 -11.819  1.00  0.00     0.029 A 
ATOM     65  C   UNL     1      -0.064  -4.152 -10.797  1.00  0.00     0.049 A 
ATOM     66  H   UNL     1      -0.324  -3.979  -8.708  1.00  0.00     0.167 HD
ATOM     67  C   UNL     1       1.661  -5.618  -9.815  1.00  0.00     0.074 A 
ATOM     68  C   UNL     1       2.734  -6.583  -9.900  1.00  0.00     0.031 C 
ATOM     69  C   UNL     1       1.011  -5.105 -10.888  1.00  0.00     0.037 A 
BRANCH  56  70
ATOM     70  C   UNL     1      -3.513  -1.207  -9.339  1.00  0.00     0.057 A 
ATOM     71  C   UNL     1      -4.635  -1.701 -10.019  1.00  0.00     0.134 A 
ATOM     72  C   UNL     1      -3.425   0.181  -9.167  1.00  0.00     0.134 A 
ATOM     73  F   UNL     1      -4.776  -3.018 -10.234  1.00  0.00    -0.206 F 
ATOM     74  C   UNL     1      -5.628  -0.851 -10.508  1.00  0.00     0.040 A 
ATOM     75  C   UNL     1      -4.428   1.039  -9.625  1.00  0.00     0.040 A 
ATOM     76  F   UNL     1      -2.382   0.722  -8.520  1.00  0.00    -0.206 F 
ATOM     77  C   UNL     1      -5.531   0.523 -10.303  1.00  0.00     0.006 A 
ENDBRANCH  56  70
BRANCH  57  78
ATOM     78  C   UNL     1       3.625  -7.135  -5.844  1.00  0.00     0.057 A 
ATOM     79  C   UNL     1       3.335  -8.325  -5.164  1.00  0.00     0.134 A 
ATOM     80  C   UNL     1       4.973  -6.856  -6.104  1.00  0.00     0.134 A 
ATOM     81  F   UNL     1       2.065  -8.656  -4.889  1.00  0.00    -0.206 F 
ATOM     82  C   UNL     1       4.343  -9.199  -4.755  1.00  0.00     0.040 A 
ATOM     83  C   UNL     1       5.988  -7.738  -5.731  1.00  0.00     0.040 A 
ATOM     84  F   UNL     1       5.314  -5.750  -6.782  1.00  0.00    -0.206 F 
ATOM     85  C   UNL     1       5.673  -8.912  -5.049  1.00  0.00     0.006 A 
ENDBRANCH  57  78
BRANCH  69  86
ATOM     86  C   UNL     1       1.469  -5.543 -12.251  1.00  0.00     0.057 A 
ATOM     87  C   UNL     1       2.135  -4.652 -13.104  1.00  0.00     0.134 A 
ATOM     88  C   UNL     1       1.238  -6.840 -12.730  1.00  0.00     0.134 A 
ATOM     89  F   UNL     1       2.384  -3.393 -12.714  1.00  0.00    -0.206 F 
ATOM     90  C   UNL     1       2.552  -5.034 -14.380  1.00  0.00     0.040 A 
ATOM     91  C   UNL     1       1.676  -7.242 -13.994  1.00  0.00     0.040 A 
ATOM     92  F   UNL     1       0.620  -7.749 -11.961  1.00  0.00    -0.206 F 
ATOM     93  C   UNL     1       2.331  -6.335 -14.826  1.00  0.00     0.006 A 
ENDBRANCH  69  86
ENDBRANCH  43  44
ENDBRANCH  35  38
ENDBRANCH  33  34
ENDBRANCH  32  33
ENDBRANCH  31  32
ENDBRANCH   1  31
TORSDOF 16
