REMARK SMILES COc1ccc(/C=C2\SC(=S)[NH+]=C2NCCCCCCNC(=O)c2ccc(-c3c4nc(c(-c5c(F)cccc5F)c5ccc([nH]5)c(-c5c(F)cccc5F)c5nc(c(-c6c(F)cccc6F)c6ccc3[nH]6)C=C5)C=C4)cc2)c(C(=O)[O-])c1OC
REMARK SMILES IDX 18 1 17 2 16 3 15 4 14 5 7 6 8 7 9 8 13 9 10 10 12 11 11 12
REMARK SMILES IDX 6 15 3 16 4 17 82 18 5 19 78 20 2 21 1 22 83 23 84 24 79 25
REMARK SMILES IDX 80 26 81 27 19 28 20 29 21 30 22 31 23 33 24 34 25 35 77 36
REMARK SMILES IDX 26 37 76 38 27 39 28 40 29 41 70 42 30 43 75 44 69 45 71 46
REMARK SMILES IDX 31 47 74 48 68 49 67 50 32 52 58 53 41 54 57 55 42 56 45 57
REMARK SMILES IDX 56 58 72 59 43 60 44 61 55 63 73 64 46 65 33 66 34 67 39 68
REMARK SMILES IDX 35 69 36 70 38 71 40 72 37 73 59 74 60 75 65 76 61 77 62 78
REMARK SMILES IDX 64 79 66 80 63 81 47 82 48 83 53 84 49 85 50 86 52 87 54 88
REMARK SMILES IDX 51 89
REMARK H PARENT 12 13 14 14 21 32 71 51 45 62
REMARK Flexibility Score: inf
ROOT
ATOM      1  C   UNL     1       4.353  -5.649  -9.880  1.00  0.00     0.002 C 
ENDROOT
BRANCH   1   2
ATOM      2  C   UNL     1       3.064  -4.826  -9.781  1.00  0.00     0.004 C 
BRANCH   2   3
ATOM      3  C   UNL     1       1.771  -5.647  -9.756  1.00  0.00     0.046 C 
BRANCH   3   4
ATOM      4  C   UNL     1       1.690  -6.661  -8.615  1.00  0.00     0.234 C 
BRANCH   4   5
ATOM      5  N   UNL     1       1.592  -5.977  -7.334  1.00  0.00    -0.273 N 
ATOM      6  C   UNL     1       1.222  -4.466  -4.662  1.00  0.00     0.033 C 
ATOM      7  C   UNL     1       0.319  -5.310  -5.203  1.00  0.00     0.106 C 
ATOM      8  S   UNL     1      -1.232  -5.768  -4.589  1.00  0.00    -0.027 SA
ATOM      9  C   UNL     1       0.501  -6.078  -6.503  1.00  0.00     0.288 C 
ATOM     10  C   UNL     1      -1.483  -6.908  -5.903  1.00  0.00     0.230 C 
ATOM     11  N   UNL     1      -0.475  -6.889  -6.830  1.00  0.00    -0.225 N 
ATOM     12  S   UNL     1      -2.819  -7.912  -5.956  1.00  0.00    -0.026 S 
ATOM     13  H   UNL     1      -0.483  -7.428  -7.654  1.00  0.00     0.314 HD
ATOM     14  H   UNL     1       2.346  -5.413  -7.048  1.00  0.00     0.305 HD
BRANCH   6  15
ATOM     15  C   UNL     1       1.211  -3.652  -3.394  1.00  0.00    -0.011 A 
ATOM     16  C   UNL     1       1.071  -2.074  -1.016  1.00  0.00     0.161 A 
ATOM     17  C   UNL     1      -0.083  -2.570  -1.609  1.00  0.00     0.051 A 
ATOM     18  C   UNL     1       2.324  -2.362  -1.573  1.00  0.00     0.170 A 
ATOM     19  C   UNL     1      -0.010  -3.320  -2.783  1.00  0.00     0.013 A 
ATOM     20  C   UNL     1       2.391  -3.130  -2.776  1.00  0.00     0.050 A 
BRANCH  16  21
ATOM     21  O   UNL     1       0.946  -1.394   0.166  1.00  0.00    -0.493 OA
ATOM     22  C   UNL     1       0.286  -0.137  -0.011  1.00  0.00     0.278 C 
ENDBRANCH  16  21
BRANCH  18  23
ATOM     23  O   UNL     1       3.518  -2.032  -0.972  1.00  0.00    -0.492 OA
ATOM     24  C   UNL     1       3.572  -0.830  -0.211  1.00  0.00     0.278 C 
ENDBRANCH  18  23
BRANCH  20  25
ATOM     25  C   UNL     1       3.733  -3.401  -3.364  1.00  0.00     0.076 C 
ATOM     26  O   UNL     1       4.101  -4.443  -3.883  1.00  0.00    -0.545 OA
ATOM     27  O   UNL     1       4.539  -2.323  -3.354  1.00  0.00    -0.545 OA
ENDBRANCH  20  25
ENDBRANCH   6  15
ENDBRANCH   4   5
ENDBRANCH   3   4
ENDBRANCH   2   3
ENDBRANCH   1   2
BRANCH   1  28
ATOM     28  C   UNL     1       4.444  -6.572 -11.098  1.00  0.00     0.021 C 
BRANCH  28  29
ATOM     29  C   UNL     1       4.361  -5.861 -12.444  1.00  0.00     0.116 C 
BRANCH  29  30
ATOM     30  N   UNL     1       5.468  -4.939 -12.651  1.00  0.00    -0.352 N 
ATOM     31  C   UNL     1       6.362  -4.863 -13.690  1.00  0.00     0.251 C 
ATOM     32  H   UNL     1       5.595  -4.270 -11.940  1.00  0.00     0.163 HD
ATOM     33  O   UNL     1       7.347  -4.136 -13.604  1.00  0.00    -0.269 OA
BRANCH  31  34
ATOM     34  C   UNL     1       6.150  -5.675 -14.907  1.00  0.00     0.039 A 
ATOM     35  C   UNL     1       7.240  -6.340 -15.475  1.00  0.00     0.014 A 
ATOM     36  C   UNL     1       4.884  -5.777 -15.491  1.00  0.00     0.014 A 
ATOM     37  C   UNL     1       7.047  -7.160 -16.589  1.00  0.00     0.010 A 
ATOM     38  C   UNL     1       4.679  -6.657 -16.549  1.00  0.00     0.010 A 
ATOM     39  C   UNL     1       5.758  -7.355 -17.113  1.00  0.00    -0.014 A 
BRANCH  39  40
ATOM     40  C   UNL     1       5.519  -8.289 -18.242  1.00  0.00     0.031 A 
ATOM     41  C   UNL     1       4.989  -7.777 -19.553  1.00  0.00     0.074 A 
ATOM     42  C   UNL     1       5.718  -9.610 -18.067  1.00  0.00     0.049 A 
ATOM     43  N   UNL     1       4.677  -8.443 -20.637  1.00  0.00    -0.248 NA
ATOM     44  C   UNL     1       4.755  -6.329 -19.651  1.00  0.00     0.031 C 
ATOM     45  C   UNL     1       6.192 -10.238 -16.832  1.00  0.00     0.029 A 
ATOM     46  N   UNL     1       5.544 -10.663 -18.929  1.00  0.00    -0.354 N 
ATOM     47  C   UNL     1       4.194  -7.499 -21.534  1.00  0.00     0.074 A 
ATOM     48  C   UNL     1       4.202  -6.225 -20.849  1.00  0.00     0.031 C 
ATOM     49  C   UNL     1       6.308 -11.560 -17.029  1.00  0.00     0.029 A 
ATOM     50  C   UNL     1       5.873 -11.881 -18.384  1.00  0.00     0.049 A 
ATOM     51  H   UNL     1       5.214 -10.557 -19.851  1.00  0.00     0.167 HD
ATOM     52  C   UNL     1       3.798  -7.674 -22.818  1.00  0.00     0.037 A 
ATOM     53  C   UNL     1       5.827 -13.116 -18.917  1.00  0.00     0.037 A 
ATOM     54  C   UNL     1       3.804  -8.943 -23.499  1.00  0.00     0.049 A 
ATOM     55  C   UNL     1       5.352 -13.289 -20.333  1.00  0.00     0.074 A 
ATOM     56  C   UNL     1       3.489  -9.215 -24.819  1.00  0.00     0.029 A 
ATOM     57  N   UNL     1       4.129 -10.156 -22.909  1.00  0.00    -0.354 N 
ATOM     58  N   UNL     1       4.975 -12.379 -21.198  1.00  0.00    -0.248 NA
ATOM     59  C   UNL     1       5.297 -14.665 -20.846  1.00  0.00     0.031 C 
ATOM     60  C   UNL     1       3.559 -10.599 -25.009  1.00  0.00     0.029 A 
ATOM     61  C   UNL     1       3.984 -11.184 -23.827  1.00  0.00     0.049 A 
ATOM     62  H   UNL     1       4.420 -10.270 -21.975  1.00  0.00     0.167 HD
ATOM     63  C   UNL     1       4.674 -13.066 -22.367  1.00  0.00     0.074 A 
ATOM     64  C   UNL     1       4.921 -14.468 -22.102  1.00  0.00     0.031 C 
ATOM     65  C   UNL     1       4.236 -12.577 -23.554  1.00  0.00     0.037 A 
BRANCH  52  66
ATOM     66  C   UNL     1       3.306  -6.463 -23.560  1.00  0.00     0.057 A 
ATOM     67  C   UNL     1       4.156  -5.402 -23.904  1.00  0.00     0.134 A 
ATOM     68  C   UNL     1       1.963  -6.360 -23.946  1.00  0.00     0.134 A 
ATOM     69  F   UNL     1       5.452  -5.429 -23.558  1.00  0.00    -0.206 F 
ATOM     70  C   UNL     1       3.680  -4.266 -24.563  1.00  0.00     0.040 A 
ATOM     71  C   UNL     1       1.483  -5.245 -24.636  1.00  0.00     0.040 A 
ATOM     72  F   UNL     1       1.094  -7.341 -23.660  1.00  0.00    -0.206 F 
ATOM     73  C   UNL     1       2.340  -4.188 -24.935  1.00  0.00     0.006 A 
ENDBRANCH  52  66
BRANCH  53  74
ATOM     74  C   UNL     1       6.281 -14.286 -18.122  1.00  0.00     0.057 A 
ATOM     75  C   UNL     1       7.453 -14.972 -18.462  1.00  0.00     0.134 A 
ATOM     76  C   UNL     1       5.562 -14.748 -17.013  1.00  0.00     0.134 A 
ATOM     77  F   UNL     1       8.175 -14.588 -19.525  1.00  0.00    -0.206 F 
ATOM     78  C   UNL     1       7.886 -16.085 -17.739  1.00  0.00     0.040 A 
ATOM     79  C   UNL     1       5.998 -15.843 -16.265  1.00  0.00     0.040 A 
ATOM     80  F   UNL     1       4.435 -14.131 -16.631  1.00  0.00    -0.206 F 
ATOM     81  C   UNL     1       7.160 -16.519 -16.632  1.00  0.00     0.006 A 
ENDBRANCH  53  74
BRANCH  65  82
ATOM     82  C   UNL     1       4.036 -13.561 -24.672  1.00  0.00     0.057 A 
ATOM     83  C   UNL     1       2.993 -14.497 -24.664  1.00  0.00     0.134 A 
ATOM     84  C   UNL     1       4.880 -13.546 -25.791  1.00  0.00     0.134 A 
ATOM     85  F   UNL     1       2.157 -14.575 -23.618  1.00  0.00    -0.206 F 
ATOM     86  C   UNL     1       2.814 -15.399 -25.715  1.00  0.00     0.040 A 
ATOM     87  C   UNL     1       4.691 -14.421 -26.862  1.00  0.00     0.040 A 
ATOM     88  F   UNL     1       5.893 -12.670 -25.869  1.00  0.00    -0.206 F 
ATOM     89  C   UNL     1       3.660 -15.356 -26.822  1.00  0.00     0.006 A 
ENDBRANCH  65  82
ENDBRANCH  39  40
ENDBRANCH  31  34
ENDBRANCH  29  30
ENDBRANCH  28  29
ENDBRANCH   1  28
TORSDOF 16
