REMARK SMILES O=C(NCCCCCCNC(=O)[C@H](CO)NC(=O)[C@H](Cc1ccc(O)cc1)NC(=O)c1ccc(F)cc1)c1ccc(-c2c3nc(c(-c4c(F)cccc4F)c4ccc([nH]4)c(-c4c(F)cccc4F)c4nc(c(-c5c(F)cccc5F)c5ccc2[nH]5)C=C4)C=C3)cc1
REMARK SMILES IDX 8 1 7 2 6 3 5 4 4 5 3 6 1 7 2 8 38 10 39 11 91 12 40 13
REMARK SMILES IDX 90 14 41 15 42 16 43 17 84 18 44 19 89 20 83 21 85 22 45 23
REMARK SMILES IDX 88 24 82 25 81 26 46 28 72 29 55 30 71 31 56 32 59 33 70 34
REMARK SMILES IDX 86 35 57 36 58 37 69 39 87 40 60 41 47 42 48 43 53 44 49 45
REMARK SMILES IDX 50 46 52 47 54 48 51 49 73 50 74 51 79 52 75 53 76 54 78 55
REMARK SMILES IDX 80 56 77 57 61 58 62 59 67 60 63 61 64 62 66 63 68 64 65 65
REMARK SMILES IDX 9 66 10 67 11 68 12 70 13 71 16 72 17 73 18 75 19 76 28 77
REMARK SMILES IDX 29 78 30 80 31 81 32 82 37 83 33 84 36 85 34 86 35 87 20 88
REMARK SMILES IDX 21 89 22 90 27 91 23 92 26 93 24 94 25 95 14 97 15 98
REMARK H PARENT 3 9 85 27 59 38 10 69 16 74 28 79 25 96 15 99
REMARK Flexibility Score: inf
ROOT
ATOM      1  C   UNL     1       7.430   6.514  -4.863  1.00  0.00     0.021 C 
ENDROOT
BRANCH   1   2
ATOM      2  C   UNL     1       6.099   6.554  -4.098  1.00  0.00     0.002 C 
BRANCH   2   3
ATOM      3  C   UNL     1       6.222   6.390  -2.579  1.00  0.00     0.002 C 
BRANCH   3   4
ATOM      4  C   UNL     1       7.220   7.333  -1.909  1.00  0.00     0.021 C 
BRANCH   4   5
ATOM      5  C   UNL     1       6.944   8.811  -2.151  1.00  0.00     0.116 C 
BRANCH   5   6
ATOM      6  N   UNL     1       5.738   9.262  -1.478  1.00  0.00    -0.352 N 
ATOM      7  O   UNL     1       4.547  10.472   0.014  1.00  0.00    -0.269 OA
ATOM      8  C   UNL     1       5.581  10.327  -0.621  1.00  0.00     0.251 C 
ATOM      9  H   UNL     1       4.926   8.736  -1.658  1.00  0.00     0.163 HD
BRANCH   8  10
ATOM     10  C   UNL     1       6.693  11.290  -0.463  1.00  0.00     0.039 A 
ATOM     11  C   UNL     1       7.361  11.781  -1.586  1.00  0.00     0.014 A 
ATOM     12  C   UNL     1       7.069  11.703   0.819  1.00  0.00     0.014 A 
ATOM     13  C   UNL     1       8.484  12.580  -1.423  1.00  0.00     0.010 A 
ATOM     14  C   UNL     1       8.148  12.579   0.977  1.00  0.00     0.010 A 
ATOM     15  C   UNL     1       8.876  13.008  -0.142  1.00  0.00    -0.014 A 
BRANCH  15  16
ATOM     16  C   UNL     1       9.996  13.976  -0.032  1.00  0.00     0.031 A 
ATOM     17  C   UNL     1      11.298  13.605   0.617  1.00  0.00     0.074 A 
ATOM     18  C   UNL     1       9.840  15.188  -0.602  1.00  0.00     0.049 A 
ATOM     19  N   UNL     1      12.397  14.312   0.707  1.00  0.00    -0.248 NA
ATOM     20  C   UNL     1      11.385  12.280   1.249  1.00  0.00     0.031 C 
ATOM     21  C   UNL     1       8.611  15.658  -1.248  1.00  0.00     0.029 A 
ATOM     22  N   UNL     1      10.721  16.223  -0.774  1.00  0.00    -0.354 N 
ATOM     23  C   UNL     1      13.299  13.528   1.413  1.00  0.00     0.074 A 
ATOM     24  C   UNL     1      12.616  12.297   1.748  1.00  0.00     0.031 C 
ATOM     25  C   UNL     1       8.841  16.848  -1.817  1.00  0.00     0.029 A 
ATOM     26  C   UNL     1      10.210  17.255  -1.523  1.00  0.00     0.049 A 
ATOM     27  H   UNL     1      11.631  16.227  -0.398  1.00  0.00     0.167 HD
ATOM     28  C   UNL     1      14.582  13.812   1.743  1.00  0.00     0.037 A 
ATOM     29  C   UNL     1      10.778  18.404  -1.931  1.00  0.00     0.037 A 
ATOM     30  C   UNL     1      15.262  15.032   1.390  1.00  0.00     0.049 A 
ATOM     31  C   UNL     1      12.198  18.689  -1.546  1.00  0.00     0.074 A 
ATOM     32  C   UNL     1      16.568  15.400   1.666  1.00  0.00     0.029 A 
ATOM     33  N   UNL     1      14.694  16.078   0.680  1.00  0.00    -0.354 N 
ATOM     34  N   UNL     1      13.039  17.932  -0.885  1.00  0.00    -0.248 NA
ATOM     35  C   UNL     1      12.745  19.990  -1.951  1.00  0.00     0.031 C 
ATOM     36  C   UNL     1      16.779  16.683   1.152  1.00  0.00     0.029 A 
ATOM     37  C   UNL     1      15.618  17.098   0.522  1.00  0.00     0.049 A 
ATOM     38  H   UNL     1      13.770  16.095   0.338  1.00  0.00     0.167 HD
ATOM     39  C   UNL     1      14.214  18.664  -0.792  1.00  0.00     0.074 A 
ATOM     40  C   UNL     1      13.987  19.911  -1.494  1.00  0.00     0.031 C 
ATOM     41  C   UNL     1      15.372  18.336  -0.171  1.00  0.00     0.037 A 
BRANCH  28  42
ATOM     42  C   UNL     1      15.351  12.792   2.530  1.00  0.00     0.057 A 
ATOM     43  C   UNL     1      15.669  13.020   3.875  1.00  0.00     0.134 A 
ATOM     44  C   UNL     1      15.866  11.637   1.929  1.00  0.00     0.134 A 
ATOM     45  F   UNL     1      15.213  14.111   4.507  1.00  0.00    -0.206 F 
ATOM     46  C   UNL     1      16.489  12.145   4.590  1.00  0.00     0.040 A 
ATOM     47  C   UNL     1      16.673  10.745   2.639  1.00  0.00     0.040 A 
ATOM     48  F   UNL     1      15.591  11.357   0.647  1.00  0.00    -0.206 F 
ATOM     49  C   UNL     1      16.995  11.004   3.970  1.00  0.00     0.006 A 
ENDBRANCH  28  42
BRANCH  29  50
ATOM     50  C   UNL     1      10.000  19.358  -2.759  1.00  0.00     0.057 A 
ATOM     51  C   UNL     1       8.911  20.063  -2.231  1.00  0.00     0.134 A 
ATOM     52  C   UNL     1      10.311  19.564  -4.107  1.00  0.00     0.134 A 
ATOM     53  F   UNL     1       8.558  19.901  -0.947  1.00  0.00    -0.206 F 
ATOM     54  C   UNL     1       8.147  20.923  -3.019  1.00  0.00     0.040 A 
ATOM     55  C   UNL     1       9.572  20.443  -4.900  1.00  0.00     0.040 A 
ATOM     56  F   UNL     1      11.353  18.929  -4.664  1.00  0.00    -0.206 F 
ATOM     57  C   UNL     1       8.480  21.119  -4.358  1.00  0.00     0.006 A 
ENDBRANCH  29  50
BRANCH  41  58
ATOM     58  C   UNL     1      16.479  19.343  -0.223  1.00  0.00     0.057 A 
ATOM     59  C   UNL     1      17.606  19.130  -1.026  1.00  0.00     0.134 A 
ATOM     60  C   UNL     1      16.444  20.507   0.555  1.00  0.00     0.134 A 
ATOM     61  F   UNL     1      17.702  18.030  -1.788  1.00  0.00    -0.206 F 
ATOM     62  C   UNL     1      18.663  20.040  -1.050  1.00  0.00     0.040 A 
ATOM     63  C   UNL     1      17.486  21.435   0.522  1.00  0.00     0.040 A 
ATOM     64  F   UNL     1      15.385  20.773   1.334  1.00  0.00    -0.206 F 
ATOM     65  C   UNL     1      18.602  21.198  -0.278  1.00  0.00     0.006 A 
ENDBRANCH  41  58
ENDBRANCH  15  16
ENDBRANCH   8  10
ENDBRANCH   5   6
ENDBRANCH   4   5
ENDBRANCH   3   4
ENDBRANCH   2   3
ENDBRANCH   1   2
BRANCH   1  66
ATOM     66  C   UNL     1       8.153   5.171  -4.754  1.00  0.00     0.116 C 
BRANCH  66  67
ATOM     67  N   UNL     1       7.460   4.174  -5.540  1.00  0.00    -0.354 N 
ATOM     68  C   UNL     1       7.653   3.816  -6.841  1.00  0.00     0.244 C 
ATOM     69  H   UNL     1       6.747   3.684  -5.068  1.00  0.00     0.163 HD
ATOM     70  O   UNL     1       6.787   3.117  -7.374  1.00  0.00    -0.273 OA
BRANCH  68  71
ATOM     71  C   UNL     1       8.967   4.174  -7.568  1.00  0.00     0.197 C 
BRANCH  71  72
ATOM     72  N   UNL     1       8.976   3.446  -8.846  1.00  0.00    -0.340 N 
ATOM     73  C   UNL     1       9.791   2.486  -9.350  1.00  0.00     0.243 C 
ATOM     74  H   UNL     1       8.247   3.707  -9.455  1.00  0.00     0.164 HD
ATOM     75  O   UNL     1       9.470   1.987 -10.433  1.00  0.00    -0.273 OA
BRANCH  73  76
ATOM     76  C   UNL     1      10.991   1.923  -8.571  1.00  0.00     0.176 C 
BRANCH  76  77
ATOM     77  N   UNL     1      11.903   2.965  -8.077  1.00  0.00    -0.340 N 
ATOM     78  C   UNL     1      13.258   3.081  -8.235  1.00  0.00     0.251 C 
ATOM     79  H   UNL     1      11.478   3.684  -7.557  1.00  0.00     0.164 HD
ATOM     80  O   UNL     1      13.863   3.938  -7.598  1.00  0.00    -0.269 OA
BRANCH  78  81
ATOM     81  C   UNL     1      13.992   2.170  -9.131  1.00  0.00     0.040 A 
ATOM     82  C   UNL     1      13.647   2.050 -10.483  1.00  0.00     0.017 A 
ATOM     83  C   UNL     1      15.072   1.451  -8.605  1.00  0.00     0.017 A 
ATOM     84  C   UNL     1      14.350   1.160 -11.294  1.00  0.00     0.040 A 
ATOM     85  C   UNL     1      15.775   0.568  -9.423  1.00  0.00     0.040 A 
ATOM     86  C   UNL     1      15.402   0.424 -10.756  1.00  0.00     0.123 A 
ATOM     87  F   UNL     1      16.070  -0.434 -11.537  1.00  0.00    -0.207 F 
ENDBRANCH  78  81
ENDBRANCH  76  77
BRANCH  76  88
ATOM     88  C   UNL     1      10.486   0.989  -7.456  1.00  0.00     0.070 C 
BRANCH  88  89
ATOM     89  C   UNL     1      11.587   0.124  -6.887  1.00  0.00    -0.045 A 
ATOM     90  C   UNL     1      12.135   0.405  -5.628  1.00  0.00     0.007 A 
ATOM     91  C   UNL     1      12.099  -0.949  -7.632  1.00  0.00     0.007 A 
ATOM     92  C   UNL     1      13.184  -0.368  -5.125  1.00  0.00     0.046 A 
ATOM     93  C   UNL     1      13.150  -1.716  -7.132  1.00  0.00     0.046 A 
ATOM     94  C   UNL     1      13.686  -1.419  -5.885  1.00  0.00     0.115 A 
BRANCH  94  95
ATOM     95  O   UNL     1      14.719  -2.188  -5.439  1.00  0.00    -0.508 OA
ATOM     96  H   UNL     1      15.104  -2.015  -4.602  1.00  0.00     0.293 HD
ENDBRANCH  94  95
ENDBRANCH  88  89
ENDBRANCH  76  88
ENDBRANCH  73  76
ENDBRANCH  71  72
BRANCH  71  97
ATOM     97  C   UNL     1       9.202   5.662  -7.849  1.00  0.00     0.191 C 
BRANCH  97  98
ATOM     98  O   UNL     1       8.112   6.261  -8.540  1.00  0.00    -0.394 OA
ATOM     99  H   UNL     1       7.995   5.827  -9.399  1.00  0.00     0.210 HD
ENDBRANCH  97  98
ENDBRANCH  71  97
ENDBRANCH  68  71
ENDBRANCH  66  67
ENDBRANCH   1  66
TORSDOF 22
