REMARK SMILES NS(=O)(=O)c1ccc(-n2nc(C(F)(F)F)cc2-c2ccc(CC(=O)NCCCCCCNC(=O)c3ccc(-c4c5nc(c(-c6c(F)cccc6F)c6ccc([nH]6)c(-c6c(F)cccc6F)c6nc(c(-c7c(F)cccc7F)c7ccc4[nH]7)C=C6)C=C5)cc3)cc2)cc1
REMARK SMILES IDX 27 1 26 2 25 3 23 4 24 5 22 7 21 8 18 9 19 10 90 11 20 12
REMARK SMILES IDX 89 13 17 14 9 15 10 16 11 17 16 18 8 19 5 20 6 21 92 22 7 23
REMARK SMILES IDX 91 24 2 25 3 26 4 27 1 28 12 31 13 32 14 33 15 34 28 35
REMARK SMILES IDX 29 36 30 37 31 38 32 39 33 40 34 42 35 43 36 44 88 45 37 46
REMARK SMILES IDX 87 47 38 48 39 49 40 50 81 51 41 52 86 53 80 54 82 55 42 56
REMARK SMILES IDX 85 57 79 58 78 59 43 61 69 62 52 63 68 64 53 65 56 66 67 67
REMARK SMILES IDX 83 68 54 69 55 70 66 72 84 73 57 74 44 75 45 76 50 77 46 78
REMARK SMILES IDX 47 79 49 80 51 81 48 82 70 83 71 84 76 85 72 86 73 87 75 88
REMARK SMILES IDX 77 89 74 90 58 91 59 92 64 93 60 94 61 95 63 96 65 97 62 98
REMARK H PARENT 25 6 1 29 1 30 32 41 82 60 56 71
REMARK Flexibility Score: inf
ROOT
ATOM      1  C   UNL     1      -0.010  -5.697  -4.444  1.00  0.00     0.021 C 
ENDROOT
BRANCH   1   2
ATOM      2  C   UNL     1      -1.006  -6.444  -5.332  1.00  0.00     0.116 C 
BRANCH   2   3
ATOM      3  N   UNL     1      -2.358  -5.963  -5.127  1.00  0.00    -0.356 N 
ATOM      4  C   UNL     1      -3.157  -5.235  -5.959  1.00  0.00     0.224 C 
ATOM      5  O   UNL     1      -4.249  -4.850  -5.536  1.00  0.00    -0.275 OA
ATOM      6  H   UNL     1      -2.759  -6.196  -4.258  1.00  0.00     0.163 HD
BRANCH   4   7
ATOM      7  C   UNL     1      -2.727  -4.959  -7.390  1.00  0.00     0.135 C 
BRANCH   7   8
ATOM      8  C   UNL     1      -1.541  -4.036  -7.513  1.00  0.00    -0.039 A 
ATOM      9  C   UNL     1       0.735  -2.399  -7.630  1.00  0.00     0.000 A 
ATOM     10  C   UNL     1      -0.439  -1.940  -7.017  1.00  0.00     0.010 A 
ATOM     11  C   UNL     1       0.745  -3.658  -8.232  1.00  0.00     0.010 A 
ATOM     12  C   UNL     1      -1.568  -2.756  -6.950  1.00  0.00     0.005 A 
ATOM     13  C   UNL     1      -0.389  -4.462  -8.190  1.00  0.00     0.005 A 
BRANCH   9  14
ATOM     14  C   UNL     1       1.937  -1.576  -7.676  1.00  0.00     0.075 A 
ATOM     15  N   UNL     1       2.472  -0.864  -6.611  1.00  0.00    -0.233 N 
ATOM     16  N   UNL     1       3.424   0.003  -7.026  1.00  0.00    -0.163 NA
ATOM     17  C   UNL     1       3.689  -0.345  -8.299  1.00  0.00     0.167 A 
ATOM     18  C   UNL     1       2.741  -1.285  -8.759  1.00  0.00     0.064 A 
BRANCH  15  19
ATOM     19  C   UNL     1       2.133  -0.976  -5.236  1.00  0.00     0.065 A 
ATOM     20  C   UNL     1       1.238  -1.212  -2.610  1.00  0.00     0.082 A 
ATOM     21  C   UNL     1       1.555  -2.359  -3.341  1.00  0.00     0.024 A 
ATOM     22  C   UNL     1       1.417   0.059  -3.165  1.00  0.00     0.024 A 
ATOM     23  C   UNL     1       1.983  -2.245  -4.662  1.00  0.00     0.030 A 
ATOM     24  C   UNL     1       1.892   0.177  -4.477  1.00  0.00     0.030 A 
BRANCH  20  25
ATOM     25  S   UNL     1       0.603  -1.410  -0.971  1.00  0.00     0.238 S 
ATOM     26  O   UNL     1       1.167  -2.626  -0.411  1.00  0.00    -0.207 OA
ATOM     27  O   UNL     1      -0.808  -1.149  -0.995  1.00  0.00    -0.207 OA
BRANCH  25  28
ATOM     28  N   UNL     1       1.310  -0.160  -0.104  1.00  0.00    -0.225 NA
ATOM     29  H   UNL     1       0.996  -0.198   0.866  1.00  0.00     0.137 HD
ATOM     30  H   UNL     1       1.041   0.734  -0.514  1.00  0.00     0.137 HD
ENDBRANCH  25  28
ENDBRANCH  20  25
ENDBRANCH  15  19
BRANCH  17  31
ATOM     31  C   UNL     1       4.815   0.243  -9.106  1.00  0.00     0.435 C 
ATOM     32  F   UNL     1       4.600   1.546  -9.428  1.00  0.00    -0.164 F 
ATOM     33  F   UNL     1       6.014   0.179  -8.466  1.00  0.00    -0.164 F 
ATOM     34  F   UNL     1       4.981  -0.420 -10.286  1.00  0.00    -0.164 F 
ENDBRANCH  17  31
ENDBRANCH   9  14
ENDBRANCH   7   8
ENDBRANCH   4   7
ENDBRANCH   2   3
ENDBRANCH   1   2
BRANCH   1  35
ATOM     35  C   UNL     1      -0.125  -6.039  -2.952  1.00  0.00     0.002 C 
BRANCH  35  36
ATOM     36  C   UNL     1      -0.001  -7.528  -2.595  1.00  0.00     0.002 C 
BRANCH  36  37
ATOM     37  C   UNL     1       1.238  -8.254  -3.136  1.00  0.00     0.021 C 
BRANCH  37  38
ATOM     38  C   UNL     1       2.556  -7.707  -2.609  1.00  0.00     0.116 C 
BRANCH  38  39
ATOM     39  N   UNL     1       2.738  -7.948  -1.181  1.00  0.00    -0.352 N 
ATOM     40  C   UNL     1       3.805  -7.582  -0.387  1.00  0.00     0.251 C 
ATOM     41  H   UNL     1       2.009  -8.432  -0.729  1.00  0.00     0.163 HD
ATOM     42  O   UNL     1       4.027  -8.156   0.674  1.00  0.00    -0.269 OA
BRANCH  40  43
ATOM     43  C   UNL     1       4.692  -6.496  -0.843  1.00  0.00     0.039 A 
ATOM     44  C   UNL     1       6.075  -6.584  -0.676  1.00  0.00     0.014 A 
ATOM     45  C   UNL     1       4.123  -5.388  -1.467  1.00  0.00     0.014 A 
ATOM     46  C   UNL     1       6.880  -5.590  -1.224  1.00  0.00     0.010 A 
ATOM     47  C   UNL     1       4.923  -4.490  -2.136  1.00  0.00     0.010 A 
ATOM     48  C   UNL     1       6.302  -4.558  -1.987  1.00  0.00    -0.014 A 
BRANCH  48  49
ATOM     49  C   UNL     1       7.156  -3.626  -2.724  1.00  0.00     0.031 A 
ATOM     50  C   UNL     1       8.248  -4.275  -3.499  1.00  0.00     0.074 A 
ATOM     51  C   UNL     1       6.930  -2.298  -2.842  1.00  0.00     0.049 A 
ATOM     52  N   UNL     1       9.514  -4.214  -3.254  1.00  0.00    -0.248 NA
ATOM     53  C   UNL     1       7.895  -5.212  -4.577  1.00  0.00     0.031 C 
ATOM     54  C   UNL     1       5.785  -1.516  -2.377  1.00  0.00     0.029 A 
ATOM     55  N   UNL     1       7.683  -1.362  -3.487  1.00  0.00    -0.354 N 
ATOM     56  C   UNL     1      10.142  -4.940  -4.260  1.00  0.00     0.074 A 
ATOM     57  C   UNL     1       9.099  -5.658  -4.946  1.00  0.00     0.031 C 
ATOM     58  C   UNL     1       5.822  -0.284  -2.930  1.00  0.00     0.029 A 
ATOM     59  C   UNL     1       7.057  -0.130  -3.678  1.00  0.00     0.049 A 
ATOM     60  H   UNL     1       8.601  -1.542  -3.795  1.00  0.00     0.167 HD
ATOM     61  C   UNL     1      11.446  -4.707  -4.577  1.00  0.00     0.037 A 
ATOM     62  C   UNL     1       7.527   0.924  -4.401  1.00  0.00     0.037 A 
ATOM     63  C   UNL     1      12.119  -3.991  -3.519  1.00  0.00     0.049 A 
ATOM     64  C   UNL     1       8.996   0.729  -4.523  1.00  0.00     0.074 A 
ATOM     65  C   UNL     1      12.314  -4.223  -2.169  1.00  0.00     0.029 A 
ATOM     66  N   UNL     1      12.367  -2.651  -3.699  1.00  0.00    -0.354 N 
ATOM     67  N   UNL     1       9.825   0.891  -3.530  1.00  0.00    -0.248 NA
ATOM     68  C   UNL     1       9.491  -0.085  -5.625  1.00  0.00     0.031 C 
ATOM     69  C   UNL     1      12.133  -2.950  -1.552  1.00  0.00     0.029 A 
ATOM     70  C   UNL     1      11.930  -2.014  -2.565  1.00  0.00     0.049 A 
ATOM     71  H   UNL     1      12.778  -2.231  -4.488  1.00  0.00     0.167 HD
ATOM     72  C   UNL     1      10.730  -0.148  -3.662  1.00  0.00     0.074 A 
ATOM     73  C   UNL     1      10.535  -0.659  -5.019  1.00  0.00     0.031 C 
ATOM     74  C   UNL     1      11.345  -0.696  -2.572  1.00  0.00     0.037 A 
BRANCH  61  75
ATOM     75  C   UNL     1      12.002  -4.776  -5.978  1.00  0.00     0.057 A 
ATOM     76  C   UNL     1      13.386  -4.612  -6.174  1.00  0.00     0.134 A 
ATOM     77  C   UNL     1      11.218  -4.684  -7.146  1.00  0.00     0.134 A 
ATOM     78  F   UNL     1      14.241  -4.671  -5.141  1.00  0.00    -0.206 F 
ATOM     79  C   UNL     1      13.935  -4.286  -7.420  1.00  0.00     0.040 A 
ATOM     80  C   UNL     1      11.762  -4.409  -8.403  1.00  0.00     0.040 A 
ATOM     81  F   UNL     1       9.882  -4.750  -7.123  1.00  0.00    -0.206 F 
ATOM     82  C   UNL     1      13.120  -4.173  -8.539  1.00  0.00     0.006 A 
ENDBRANCH  61  75
BRANCH  62  83
ATOM     83  C   UNL     1       6.825   2.016  -5.130  1.00  0.00     0.057 A 
ATOM     84  C   UNL     1       7.542   3.017  -5.811  1.00  0.00     0.134 A 
ATOM     85  C   UNL     1       5.454   1.978  -5.412  1.00  0.00     0.134 A 
ATOM     86  F   UNL     1       8.860   3.170  -5.615  1.00  0.00    -0.206 F 
ATOM     87  C   UNL     1       6.950   3.856  -6.768  1.00  0.00     0.040 A 
ATOM     88  C   UNL     1       4.848   2.809  -6.364  1.00  0.00     0.040 A 
ATOM     89  F   UNL     1       4.655   1.089  -4.818  1.00  0.00    -0.206 F 
ATOM     90  C   UNL     1       5.601   3.732  -7.071  1.00  0.00     0.006 A 
ENDBRANCH  62  83
BRANCH  74  91
ATOM     91  C   UNL     1      11.196  -0.003  -1.244  1.00  0.00     0.057 A 
ATOM     92  C   UNL     1       9.968   0.251  -0.612  1.00  0.00     0.134 A 
ATOM     93  C   UNL     1      12.351   0.291  -0.509  1.00  0.00     0.134 A 
ATOM     94  F   UNL     1       8.806  -0.094  -1.179  1.00  0.00    -0.206 F 
ATOM     95  C   UNL     1       9.896   0.821   0.664  1.00  0.00     0.040 A 
ATOM     96  C   UNL     1      12.293   0.824   0.780  1.00  0.00     0.040 A 
ATOM     97  F   UNL     1      13.564   0.025  -1.020  1.00  0.00    -0.206 F 
ATOM     98  C   UNL     1      11.063   1.103   1.367  1.00  0.00     0.006 A 
ENDBRANCH  74  91
ENDBRANCH  48  49
ENDBRANCH  40  43
ENDBRANCH  38  39
ENDBRANCH  37  38
ENDBRANCH  36  37
ENDBRANCH  35  36
ENDBRANCH   1  35
TORSDOF 19
