REMARK SMILES C/C(=C\C(=O)c1c(O)n(C)c2ccccc2c1=O)Nc1ccc(C(=O)NCCCCCCNC(=O)c2ccc(-c3c4nc(c(-c5c(F)cccc5F)c5ccc([nH]5)c(-c5c(F)cccc5F)c5nc(c(-c6c(F)cccc6F)c6ccc3[nH]6)C=C5)C=C4)cc2)cc1
REMARK SMILES IDX 28 1 27 2 26 3 24 4 25 5 23 7 20 8 21 9 91 10 22 11 90 12
REMARK SMILES IDX 19 13 2 15 1 16 3 17 4 18 5 19 6 20 7 21 17 22 9 23 16 24
REMARK SMILES IDX 18 25 10 26 11 27 15 28 12 29 14 30 13 31 8 32 29 34 30 35
REMARK SMILES IDX 31 36 32 37 33 38 34 39 35 41 36 42 37 43 89 44 38 45 88 46
REMARK SMILES IDX 39 47 40 48 41 49 82 50 42 51 87 52 81 53 83 54 43 55 86 56
REMARK SMILES IDX 80 57 79 58 44 60 70 61 53 62 69 63 54 64 57 65 68 66 84 67
REMARK SMILES IDX 55 68 56 69 67 71 85 72 58 73 45 74 46 75 51 76 47 77 48 78
REMARK SMILES IDX 50 79 52 80 49 81 71 82 72 83 77 84 73 85 74 86 76 87 78 88
REMARK SMILES IDX 75 89 59 90 60 91 65 92 61 93 62 94 64 95 66 96 63 97
REMARK H PARENT 26 6 19 14 8 33 33 40 83 59 57 70
REMARK Flexibility Score: inf
ROOT
ATOM      1  C   UNL     1       1.731   6.200   5.333  1.00  0.00     0.021 C 
ENDROOT
BRANCH   1   2
ATOM      2  C   UNL     1       2.333   5.980   3.948  1.00  0.00     0.116 C 
BRANCH   2   3
ATOM      3  N   UNL     1       3.624   5.333   3.960  1.00  0.00    -0.352 N 
ATOM      4  C   UNL     1       4.252   4.535   3.038  1.00  0.00     0.251 C 
ATOM      5  O   UNL     1       5.392   4.154   3.311  1.00  0.00    -0.269 OA
ATOM      6  H   UNL     1       4.148   5.495   4.777  1.00  0.00     0.163 HD
BRANCH   4   7
ATOM      7  C   UNL     1       3.607   4.053   1.782  1.00  0.00     0.039 A 
ATOM      8  C   UNL     1       2.359   2.798  -0.450  1.00  0.00     0.038 A 
ATOM      9  C   UNL     1       3.503   2.262   0.138  1.00  0.00     0.027 A 
ATOM     10  C   UNL     1       1.935   4.052   0.015  1.00  0.00     0.027 A 
ATOM     11  C   UNL     1       4.104   2.860   1.250  1.00  0.00     0.016 A 
ATOM     12  C   UNL     1       2.572   4.689   1.095  1.00  0.00     0.016 A 
BRANCH   8  13
ATOM     13  N   UNL     1       1.555   2.108  -1.386  1.00  0.00    -0.359 N 
ATOM     14  H   UNL     1       1.263   2.636  -2.164  1.00  0.00     0.166 HD
BRANCH  13  15
ATOM     15  C   UNL     1       1.113   0.773  -1.361  1.00  0.00     0.016 C 
ATOM     16  C   UNL     1       1.897  -0.209  -0.525  1.00  0.00     0.064 C 
ATOM     17  C   UNL     1      -0.004   0.430  -2.049  1.00  0.00     0.074 C 
BRANCH  17  18
ATOM     18  C   UNL     1      -0.844  -0.819  -2.110  1.00  0.00     0.196 C 
ATOM     19  O   UNL     1      -1.830  -0.840  -2.844  1.00  0.00    -0.289 OA
BRANCH  18  20
ATOM     20  C   UNL     1      -0.596  -1.915  -1.157  1.00  0.00     0.130 A 
ATOM     21  C   UNL     1      -0.863  -1.738   0.152  1.00  0.00     0.206 A 
ATOM     22  C   UNL     1       0.109  -3.141  -1.591  1.00  0.00     0.204 A 
ATOM     23  N   UNL     1      -0.384  -2.583   1.150  1.00  0.00    -0.315 N 
ATOM     24  C   UNL     1       0.519  -4.101  -0.542  1.00  0.00     0.047 A 
ATOM     25  O   UNL     1       0.395  -3.335  -2.768  1.00  0.00    -0.288 OA
ATOM     26  C   UNL     1      -0.358  -2.176   2.559  1.00  0.00     0.153 C 
ATOM     27  C   UNL     1       0.289  -3.784   0.811  1.00  0.00     0.055 A 
ATOM     28  C   UNL     1       1.188  -5.275  -0.921  1.00  0.00     0.014 A 
ATOM     29  C   UNL     1       0.759  -4.702   1.768  1.00  0.00     0.027 A 
ATOM     30  C   UNL     1       1.644  -6.161   0.050  1.00  0.00     0.001 A 
ATOM     31  C   UNL     1       1.431  -5.872   1.393  1.00  0.00     0.002 A 
BRANCH  21  32
ATOM     32  O   UNL     1      -1.579  -0.640   0.600  1.00  0.00    -0.494 OA
ATOM     33  H   UNL     1      -1.931  -0.028  -0.016  1.00  0.00     0.295 HD
ENDBRANCH  21  32
ENDBRANCH  18  20
ENDBRANCH  17  18
ENDBRANCH  13  15
ENDBRANCH   8  13
ENDBRANCH   4   7
ENDBRANCH   2   3
ENDBRANCH   1   2
BRANCH   1  34
ATOM     34  C   UNL     1       2.590   6.926   6.374  1.00  0.00     0.002 C 
BRANCH  34  35
ATOM     35  C   UNL     1       3.239   8.247   5.958  1.00  0.00     0.002 C 
BRANCH  35  36
ATOM     36  C   UNL     1       2.325   9.293   5.327  1.00  0.00     0.021 C 
BRANCH  36  37
ATOM     37  C   UNL     1       1.036   9.602   6.077  1.00  0.00     0.116 C 
BRANCH  37  38
ATOM     38  N   UNL     1       1.248  10.204   7.381  1.00  0.00    -0.352 N 
ATOM     39  C   UNL     1       0.697  11.352   7.908  1.00  0.00     0.251 C 
ATOM     40  H   UNL     1       1.873   9.725   7.971  1.00  0.00     0.163 HD
ATOM     41  O   UNL     1       1.047  11.765   9.001  1.00  0.00    -0.269 OA
BRANCH  39  42
ATOM     42  C   UNL     1      -0.294  12.112   7.111  1.00  0.00     0.039 A 
ATOM     43  C   UNL     1      -1.371  11.468   6.499  1.00  0.00     0.014 A 
ATOM     44  C   UNL     1      -0.107  13.486   6.941  1.00  0.00     0.014 A 
ATOM     45  C   UNL     1      -2.158  12.161   5.584  1.00  0.00     0.010 A 
ATOM     46  C   UNL     1      -0.950  14.198   6.082  1.00  0.00     0.010 A 
ATOM     47  C   UNL     1      -1.951  13.531   5.359  1.00  0.00    -0.014 A 
BRANCH  47  48
ATOM     48  C   UNL     1      -2.780  14.251   4.358  1.00  0.00     0.031 A 
ATOM     49  C   UNL     1      -2.155  14.827   3.115  1.00  0.00     0.074 A 
ATOM     50  C   UNL     1      -4.107  14.358   4.554  1.00  0.00     0.049 A 
ATOM     51  N   UNL     1      -2.714  15.519   2.153  1.00  0.00    -0.248 NA
ATOM     52  C   UNL     1      -0.714  14.599   2.927  1.00  0.00     0.031 C 
ATOM     53  C   UNL     1      -4.836  13.827   5.708  1.00  0.00     0.029 A 
ATOM     54  N   UNL     1      -5.082  14.941   3.786  1.00  0.00    -0.354 N 
ATOM     55  C   UNL     1      -1.695  15.825   1.260  1.00  0.00     0.074 A 
ATOM     56  C   UNL     1      -0.476  15.264   1.805  1.00  0.00     0.031 C 
ATOM     57  C   UNL     1      -6.144  14.078   5.555  1.00  0.00     0.029 A 
ATOM     58  C   UNL     1      -6.339  14.843   4.329  1.00  0.00     0.049 A 
ATOM     59  H   UNL     1      -4.898  15.387   2.927  1.00  0.00     0.167 HD
ATOM     60  C   UNL     1      -1.769  16.503   0.089  1.00  0.00     0.037 A 
ATOM     61  C   UNL     1      -7.515  15.340   3.903  1.00  0.00     0.037 A 
ATOM     62  C   UNL     1      -2.985  17.045  -0.461  1.00  0.00     0.049 A 
ATOM     63  C   UNL     1      -7.555  16.150   2.641  1.00  0.00     0.074 A 
ATOM     64  C   UNL     1      -3.168  17.715  -1.659  1.00  0.00     0.029 A 
ATOM     65  N   UNL     1      -4.225  16.985   0.156  1.00  0.00    -0.354 N 
ATOM     66  N   UNL     1      -6.585  16.421   1.802  1.00  0.00    -0.248 NA
ATOM     67  C   UNL     1      -8.850  16.741   2.278  1.00  0.00     0.031 C 
ATOM     68  C   UNL     1      -4.512  18.096  -1.746  1.00  0.00     0.029 A 
ATOM     69  C   UNL     1      -5.172  17.631  -0.621  1.00  0.00     0.049 A 
ATOM     70  H   UNL     1      -4.406  16.547   1.019  1.00  0.00     0.167 HD
ATOM     71  C   UNL     1      -7.152  17.210   0.811  1.00  0.00     0.074 A 
ATOM     72  C   UNL     1      -8.556  17.351   1.138  1.00  0.00     0.031 C 
ATOM     73  C   UNL     1      -6.561  17.776  -0.270  1.00  0.00     0.037 A 
BRANCH  60  74
ATOM     74  C   UNL     1      -0.492  16.713  -0.672  1.00  0.00     0.057 A 
ATOM     75  C   UNL     1       0.094  17.983  -0.745  1.00  0.00     0.134 A 
ATOM     76  C   UNL     1       0.138  15.671  -1.364  1.00  0.00     0.134 A 
ATOM     77  F   UNL     1      -0.462  19.027  -0.111  1.00  0.00    -0.206 F 
ATOM     78  C   UNL     1       1.260  18.209  -1.479  1.00  0.00     0.040 A 
ATOM     79  C   UNL     1       1.316  15.880  -2.084  1.00  0.00     0.040 A 
ATOM     80  F   UNL     1      -0.365  14.427  -1.325  1.00  0.00    -0.206 F 
ATOM     81  C   UNL     1       1.877  17.154  -2.147  1.00  0.00     0.006 A 
ENDBRANCH  60  74
BRANCH  61  82
ATOM     82  C   UNL     1      -8.746  15.115   4.699  1.00  0.00     0.057 A 
ATOM     83  C   UNL     1      -8.930  15.728   5.944  1.00  0.00     0.134 A 
ATOM     84  C   UNL     1      -9.772  14.290   4.226  1.00  0.00     0.134 A 
ATOM     85  F   UNL     1      -7.982  16.530   6.452  1.00  0.00    -0.206 F 
ATOM     86  C   UNL     1     -10.085  15.519   6.698  1.00  0.00     0.040 A 
ATOM     87  C   UNL     1     -10.943  14.091   4.958  1.00  0.00     0.040 A 
ATOM     88  F   UNL     1      -9.661  13.693   3.030  1.00  0.00    -0.206 F 
ATOM     89  C   UNL     1     -11.099  14.702   6.202  1.00  0.00     0.006 A 
ENDBRANCH  61  82
BRANCH  73  90
ATOM     90  C   UNL     1      -7.439  18.594  -1.168  1.00  0.00     0.057 A 
ATOM     91  C   UNL     1      -7.835  18.111  -2.421  1.00  0.00     0.134 A 
ATOM     92  C   UNL     1      -7.886  19.867  -0.791  1.00  0.00     0.134 A 
ATOM     93  F   UNL     1      -7.437  16.901  -2.842  1.00  0.00    -0.206 F 
ATOM     94  C   UNL     1      -8.644  18.867  -3.270  1.00  0.00     0.040 A 
ATOM     95  C   UNL     1      -8.715  20.623  -1.621  1.00  0.00     0.040 A 
ATOM     96  F   UNL     1      -7.557  20.376   0.406  1.00  0.00    -0.206 F 
ATOM     97  C   UNL     1      -9.092  20.124  -2.867  1.00  0.00     0.006 A 
ENDBRANCH  73  90
ENDBRANCH  47  48
ENDBRANCH  39  42
ENDBRANCH  37  38
ENDBRANCH  36  37
ENDBRANCH  35  36
ENDBRANCH  34  35
ENDBRANCH   1  34
TORSDOF 18
