REMARK SMILES O=C(NCCCCCCNC(=O)c1ccc(S(=O)(=O)Cc2cccs2)c(F)c1)c1ccc(-c2c3nc(c(-c4c(F)cccc4F)c4ccc([nH]4)c(-c4c(F)cccc4F)c4nc(c(-c5c(F)cccc5F)c5ccc2[nH]5)C=C4)C=C3)cc1
REMARK SMILES IDX 7 1 6 2 5 3 4 4 3 5 1 6 2 7 29 9 30 10 82 11 31 12 81 13
REMARK SMILES IDX 32 14 33 15 34 16 75 17 35 18 80 19 74 20 76 21 36 22 79 23
REMARK SMILES IDX 73 24 72 25 37 27 63 28 46 29 62 30 47 31 50 32 61 33 77 34
REMARK SMILES IDX 48 35 49 36 60 38 78 39 51 40 38 41 39 42 44 43 40 44 41 45
REMARK SMILES IDX 43 46 45 47 42 48 64 49 65 50 70 51 66 52 67 53 69 54 71 55
REMARK SMILES IDX 68 56 52 57 53 58 58 59 54 60 55 61 57 62 59 63 56 64 8 65
REMARK SMILES IDX 9 66 10 67 11 68 12 70 13 71 14 72 28 73 15 74 26 75 16 76
REMARK SMILES IDX 27 77 17 78 18 79 19 80 20 81 21 82 22 83 25 84 23 85 24 86
REMARK H PARENT 3 8 76 26 50 37 10 69
REMARK Flexibility Score: inf
ROOT
ATOM      1  C   UNL     1       4.715   1.585  -4.079  1.00  0.00     0.002 C 
ENDROOT
BRANCH   1   2
ATOM      2  C   UNL     1       4.108   0.188  -3.924  1.00  0.00     0.002 C 
BRANCH   2   3
ATOM      3  C   UNL     1       4.559  -0.599  -2.694  1.00  0.00     0.021 C 
BRANCH   3   4
ATOM      4  C   UNL     1       4.343   0.103  -1.360  1.00  0.00     0.116 C 
BRANCH   4   5
ATOM      5  N   UNL     1       2.938   0.276  -1.030  1.00  0.00    -0.352 N 
ATOM      6  O   UNL     1       1.048   0.036   0.181  1.00  0.00    -0.269 OA
ATOM      7  C   UNL     1       2.271  -0.060   0.123  1.00  0.00     0.251 C 
ATOM      8  H   UNL     1       2.388   0.693  -1.732  1.00  0.00     0.163 HD
BRANCH   7   9
ATOM      9  C   UNL     1       3.027  -0.565   1.292  1.00  0.00     0.039 A 
ATOM     10  C   UNL     1       4.209   0.056   1.699  1.00  0.00     0.014 A 
ATOM     11  C   UNL     1       2.541  -1.673   1.994  1.00  0.00     0.014 A 
ATOM     12  C   UNL     1       4.976  -0.514   2.709  1.00  0.00     0.010 A 
ATOM     13  C   UNL     1       3.271  -2.194   3.068  1.00  0.00     0.010 A 
ATOM     14  C   UNL     1       4.509  -1.636   3.416  1.00  0.00    -0.014 A 
BRANCH  14  15
ATOM     15  C   UNL     1       5.311  -2.149   4.557  1.00  0.00     0.031 A 
ATOM     16  C   UNL     1       5.955  -3.506   4.517  1.00  0.00     0.074 A 
ATOM     17  C   UNL     1       5.507  -1.338   5.616  1.00  0.00     0.049 A 
ATOM     18  N   UNL     1       6.741  -4.066   5.403  1.00  0.00    -0.248 NA
ATOM     19  C   UNL     1       5.688  -4.346   3.340  1.00  0.00     0.031 C 
ATOM     20  C   UNL     1       4.925  -0.001   5.768  1.00  0.00     0.029 A 
ATOM     21  N   UNL     1       6.274  -1.495   6.741  1.00  0.00    -0.354 N 
ATOM     22  C   UNL     1       7.053  -5.322   4.899  1.00  0.00     0.074 A 
ATOM     23  C   UNL     1       6.353  -5.455   3.639  1.00  0.00     0.031 C 
ATOM     24  C   UNL     1       5.414   0.567   6.880  1.00  0.00     0.029 A 
ATOM     25  C   UNL     1       6.291  -0.385   7.551  1.00  0.00     0.049 A 
ATOM     26  H   UNL     1       6.765  -2.323   6.949  1.00  0.00     0.167 HD
ATOM     27  C   UNL     1       7.858  -6.270   5.436  1.00  0.00     0.037 A 
ATOM     28  C   UNL     1       6.939  -0.155   8.708  1.00  0.00     0.037 A 
ATOM     29  C   UNL     1       8.567  -6.126   6.682  1.00  0.00     0.049 A 
ATOM     30  C   UNL     1       7.807  -1.233   9.285  1.00  0.00     0.074 A 
ATOM     31  C   UNL     1       9.418  -7.031   7.296  1.00  0.00     0.029 A 
ATOM     32  N   UNL     1       8.516  -5.008   7.499  1.00  0.00    -0.354 N 
ATOM     33  N   UNL     1       8.095  -2.412   8.790  1.00  0.00    -0.248 NA
ATOM     34  C   UNL     1       8.430  -0.955  10.586  1.00  0.00     0.031 C 
ATOM     35  C   UNL     1       9.853  -6.474   8.502  1.00  0.00     0.029 A 
ATOM     36  C   UNL     1       9.307  -5.206   8.619  1.00  0.00     0.049 A 
ATOM     37  H   UNL     1       7.994  -4.195   7.312  1.00  0.00     0.167 HD
ATOM     38  C   UNL     1       8.939  -3.013   9.713  1.00  0.00     0.074 A 
ATOM     39  C   UNL     1       9.136  -2.060  10.786  1.00  0.00     0.031 C 
ATOM     40  C   UNL     1       9.492  -4.249   9.678  1.00  0.00     0.037 A 
BRANCH  27  41
ATOM     41  C   UNL     1       8.030  -7.558   4.687  1.00  0.00     0.057 A 
ATOM     42  C   UNL     1       7.462  -8.746   5.167  1.00  0.00     0.134 A 
ATOM     43  C   UNL     1       8.846  -7.644   3.553  1.00  0.00     0.134 A 
ATOM     44  F   UNL     1       6.677  -8.734   6.255  1.00  0.00    -0.206 F 
ATOM     45  C   UNL     1       7.716  -9.975   4.557  1.00  0.00     0.040 A 
ATOM     46  C   UNL     1       9.093  -8.865   2.922  1.00  0.00     0.040 A 
ATOM     47  F   UNL     1       9.412  -6.542   3.038  1.00  0.00    -0.206 F 
ATOM     48  C   UNL     1       8.536 -10.037   3.432  1.00  0.00     0.006 A 
ENDBRANCH  27  41
BRANCH  28  49
ATOM     49  C   UNL     1       6.794   1.156   9.386  1.00  0.00     0.057 A 
ATOM     50  C   UNL     1       5.583   1.547   9.970  1.00  0.00     0.134 A 
ATOM     51  C   UNL     1       7.862   2.058   9.447  1.00  0.00     0.134 A 
ATOM     52  F   UNL     1       4.521   0.730   9.938  1.00  0.00    -0.206 F 
ATOM     53  C   UNL     1       5.434   2.796  10.574  1.00  0.00     0.040 A 
ATOM     54  C   UNL     1       7.734   3.299  10.071  1.00  0.00     0.040 A 
ATOM     55  F   UNL     1       9.052   1.732   8.920  1.00  0.00    -0.206 F 
ATOM     56  C   UNL     1       6.514   3.674  10.630  1.00  0.00     0.006 A 
ENDBRANCH  28  49
BRANCH  40  57
ATOM     57  C   UNL     1      10.373  -4.636  10.826  1.00  0.00     0.057 A 
ATOM     58  C   UNL     1      11.761  -4.727  10.665  1.00  0.00     0.134 A 
ATOM     59  C   UNL     1       9.841  -4.966  12.079  1.00  0.00     0.134 A 
ATOM     60  F   UNL     1      12.331  -4.433   9.487  1.00  0.00    -0.206 F 
ATOM     61  C   UNL     1      12.590  -5.138  11.710  1.00  0.00     0.040 A 
ATOM     62  C   UNL     1      10.662  -5.356  13.138  1.00  0.00     0.040 A 
ATOM     63  F   UNL     1       8.520  -4.886  12.299  1.00  0.00    -0.206 F 
ATOM     64  C   UNL     1      12.040  -5.450  12.952  1.00  0.00     0.006 A 
ENDBRANCH  40  57
ENDBRANCH  14  15
ENDBRANCH   7   9
ENDBRANCH   4   5
ENDBRANCH   3   4
ENDBRANCH   2   3
ENDBRANCH   1   2
BRANCH   1  65
ATOM     65  C   UNL     1       6.245   1.665  -4.005  1.00  0.00     0.021 C 
BRANCH  65  66
ATOM     66  C   UNL     1       6.995   0.744  -4.965  1.00  0.00     0.116 C 
BRANCH  66  67
ATOM     67  N   UNL     1       6.708   1.055  -6.355  1.00  0.00    -0.352 N 
ATOM     68  C   UNL     1       7.573   1.435  -7.347  1.00  0.00     0.251 C 
ATOM     69  H   UNL     1       5.763   0.983  -6.620  1.00  0.00     0.163 HD
ATOM     70  O   UNL     1       7.166   1.801  -8.443  1.00  0.00    -0.269 OA
BRANCH  68  71
ATOM     71  C   UNL     1       9.021   1.413  -7.081  1.00  0.00     0.042 A 
ATOM     72  C   UNL     1       9.669   0.202  -6.815  1.00  0.00     0.015 A 
ATOM     73  C   UNL     1       9.725   2.618  -7.088  1.00  0.00     0.054 A 
ATOM     74  C   UNL     1      11.031   0.205  -6.518  1.00  0.00     0.024 A 
ATOM     75  C   UNL     1      11.079   2.613  -6.768  1.00  0.00     0.142 A 
ATOM     76  C   UNL     1      11.731   1.419  -6.488  1.00  0.00     0.103 A 
ATOM     77  F   UNL     1      11.716   3.787  -6.694  1.00  0.00    -0.206 F 
BRANCH  76  78
ATOM     78  S   UNL     1      13.438   1.391  -6.037  1.00  0.00     0.186 S 
ATOM     79  O   UNL     1      13.454   1.646  -4.607  1.00  0.00    -0.223 OA
ATOM     80  O   UNL     1      13.970   0.135  -6.542  1.00  0.00    -0.223 OA
BRANCH  78  81
ATOM     81  C   UNL     1      14.311   2.714  -6.840  1.00  0.00     0.188 C 
BRANCH  81  82
ATOM     82  C   UNL     1      14.072   2.801  -8.318  1.00  0.00     0.020 A 
ATOM     83  C   UNL     1      13.924   1.814  -9.275  1.00  0.00     0.016 A 
ATOM     84  S   UNL     1      14.037   4.365  -9.039  1.00  0.00    -0.148 S 
ATOM     85  C   UNL     1      13.734   2.347 -10.585  1.00  0.00     0.012 A 
ATOM     86  C   UNL     1      13.777   3.721 -10.596  1.00  0.00     0.065 A 
ENDBRANCH  81  82
ENDBRANCH  78  81
ENDBRANCH  76  78
ENDBRANCH  68  71
ENDBRANCH  66  67
ENDBRANCH  65  66
ENDBRANCH   1  65
TORSDOF 16
