REMARK SMILES C[C@H](Oc1ccc(/C=C2/SC(=S)N(c3ccc(F)c(Cl)c3)C2=O)cc1)C(=O)NCCCCCCNC(=O)c1ccc(-c2c3nc(c(-c4c(F)cccc4F)c4ccc([nH]4)c(-c4c(F)cccc4F)c4nc(c(-c5c(F)cccc5F)c5ccc2[nH]5)C=C4)C=C3)cc1
REMARK SMILES IDX 30 1 29 2 28 3 26 4 27 5 2 7 1 8 3 9 4 10 5 11 25 12 6 13
REMARK SMILES IDX 24 14 7 15 8 16 9 17 10 18 22 19 11 20 13 21 23 22 12 23
REMARK SMILES IDX 14 24 15 25 21 26 16 27 19 28 17 29 20 30 18 31 31 32 32 33
REMARK SMILES IDX 33 34 34 35 35 36 36 37 37 39 38 40 39 41 91 42 40 43 90 44
REMARK SMILES IDX 41 45 42 46 43 47 84 48 44 49 89 50 83 51 85 52 45 53 88 54
REMARK SMILES IDX 82 55 81 56 46 58 72 59 55 60 71 61 56 62 59 63 70 64 86 65
REMARK SMILES IDX 57 66 58 67 69 69 87 70 60 71 47 72 48 73 53 74 49 75 50 76
REMARK SMILES IDX 52 77 54 78 51 79 73 80 74 81 79 82 75 83 76 84 78 85 80 86
REMARK SMILES IDX 77 87 61 88 62 89 67 90 63 91 64 92 66 93 68 94 65 95
REMARK H PARENT 28 6 35 38 85 57 59 68
REMARK Flexibility Score: inf
ROOT
ATOM      1  C   UNL     1      -1.680  -2.332   0.832  1.00  0.00     0.021 C 
ENDROOT
BRANCH   1   2
ATOM      2  C   UNL     1      -1.105  -1.901  -0.516  1.00  0.00     0.116 C 
BRANCH   2   3
ATOM      3  N   UNL     1      -1.558  -0.580  -0.919  1.00  0.00    -0.353 N 
ATOM      4  C   UNL     1      -0.850   0.437  -1.506  1.00  0.00     0.260 C 
ATOM      5  O   UNL     1      -1.460   1.466  -1.810  1.00  0.00    -0.271 OA
ATOM      6  H   UNL     1      -2.508  -0.389  -0.747  1.00  0.00     0.163 HD
BRANCH   4   7
ATOM      7  C   UNL     1       0.649   0.273  -1.824  1.00  0.00     0.258 C 
ATOM      8  C   UNL     1       0.792  -0.816  -2.889  1.00  0.00     0.064 C 
BRANCH   7   9
ATOM      9  O   UNL     1       1.283   0.131  -0.552  1.00  0.00    -0.481 OA
BRANCH   9  10
ATOM     10  C   UNL     1       2.423  -0.567  -0.327  1.00  0.00     0.120 A 
ATOM     11  C   UNL     1       3.383  -0.943  -1.256  1.00  0.00     0.047 A 
ATOM     12  C   UNL     1       2.597  -0.934   1.010  1.00  0.00     0.047 A 
ATOM     13  C   UNL     1       4.424  -1.806  -0.882  1.00  0.00     0.012 A 
ATOM     14  C   UNL     1       3.654  -1.758   1.394  1.00  0.00     0.012 A 
ATOM     15  C   UNL     1       4.537  -2.262   0.435  1.00  0.00    -0.024 A 
BRANCH  15  16
ATOM     16  C   UNL     1       5.588  -3.225   0.790  1.00  0.00     0.029 C 
ATOM     17  C   UNL     1       5.413  -4.390   1.436  1.00  0.00     0.081 C 
ATOM     18  S   UNL     1       6.727  -5.398   1.902  1.00  0.00    -0.054 SA
ATOM     19  C   UNL     1       4.131  -4.989   1.913  1.00  0.00     0.270 C 
ATOM     20  C   UNL     1       5.703  -6.463   2.868  1.00  0.00     0.152 C 
ATOM     21  N   UNL     1       4.385  -6.031   2.806  1.00  0.00    -0.261 N 
ATOM     22  O   UNL     1       3.033  -4.578   1.559  1.00  0.00    -0.268 OA
ATOM     23  S   UNL     1       6.352  -7.816   3.606  1.00  0.00    -0.051 S 
BRANCH  21  24
ATOM     24  C   UNL     1       3.309  -6.547   3.602  1.00  0.00     0.052 A 
ATOM     25  C   UNL     1       2.026  -6.705   3.052  1.00  0.00     0.030 A 
ATOM     26  C   UNL     1       3.473  -6.779   4.978  1.00  0.00     0.050 A 
ATOM     27  C   UNL     1       0.937  -7.047   3.851  1.00  0.00     0.043 A 
ATOM     28  C   UNL     1       2.379  -7.133   5.777  1.00  0.00     0.078 A 
ATOM     29  C   UNL     1       1.116  -7.254   5.212  1.00  0.00     0.141 A 
ATOM     30  Cl  UNL     1       2.601  -7.355   7.470  1.00  0.00    -0.081 Cl
ATOM     31  F   UNL     1       0.048  -7.547   5.968  1.00  0.00    -0.205 F 
ENDBRANCH  21  24
ENDBRANCH  15  16
ENDBRANCH   9  10
ENDBRANCH   7   9
ENDBRANCH   4   7
ENDBRANCH   2   3
ENDBRANCH   1   2
BRANCH   1  32
ATOM     32  C   UNL     1      -3.179  -2.648   0.826  1.00  0.00     0.002 C 
BRANCH  32  33
ATOM     33  C   UNL     1      -3.614  -3.783  -0.108  1.00  0.00     0.002 C 
BRANCH  33  34
ATOM     34  C   UNL     1      -2.912  -5.129   0.102  1.00  0.00     0.021 C 
BRANCH  34  35
ATOM     35  C   UNL     1      -3.031  -5.723   1.505  1.00  0.00     0.116 C 
BRANCH  35  36
ATOM     36  N   UNL     1      -4.407  -6.011   1.876  1.00  0.00    -0.352 N 
ATOM     37  C   UNL     1      -4.959  -7.154   2.402  1.00  0.00     0.251 C 
ATOM     38  H   UNL     1      -5.042  -5.273   1.727  1.00  0.00     0.163 HD
ATOM     39  O   UNL     1      -6.178  -7.255   2.506  1.00  0.00    -0.269 OA
BRANCH  37  40
ATOM     40  C   UNL     1      -4.096  -8.277   2.829  1.00  0.00     0.039 A 
ATOM     41  C   UNL     1      -4.449  -9.582   2.469  1.00  0.00     0.014 A 
ATOM     42  C   UNL     1      -2.962  -8.056   3.610  1.00  0.00     0.014 A 
ATOM     43  C   UNL     1      -3.623 -10.655   2.824  1.00  0.00     0.010 A 
ATOM     44  C   UNL     1      -2.118  -9.122   3.916  1.00  0.00     0.010 A 
ATOM     45  C   UNL     1      -2.425 -10.430   3.517  1.00  0.00    -0.014 A 
BRANCH  45  46
ATOM     46  C   UNL     1      -1.459 -11.525   3.801  1.00  0.00     0.031 A 
ATOM     47  C   UNL     1      -1.089 -11.885   5.217  1.00  0.00     0.074 A 
ATOM     48  C   UNL     1      -0.824 -12.131   2.778  1.00  0.00     0.049 A 
ATOM     49  N   UNL     1      -0.219 -12.766   5.644  1.00  0.00    -0.248 NA
ATOM     50  C   UNL     1      -1.757 -11.133   6.290  1.00  0.00     0.031 C 
ATOM     51  C   UNL     1      -1.013 -11.821   1.360  1.00  0.00     0.029 A 
ATOM     52  N   UNL     1       0.123 -13.126   2.775  1.00  0.00    -0.354 N 
ATOM     53  C   UNL     1      -0.219 -12.658   7.029  1.00  0.00     0.074 A 
ATOM     54  C   UNL     1      -1.138 -11.592   7.368  1.00  0.00     0.031 C 
ATOM     55  C   UNL     1      -0.233 -12.629   0.624  1.00  0.00     0.029 A 
ATOM     56  C   UNL     1       0.531 -13.495   1.516  1.00  0.00     0.049 A 
ATOM     57  H   UNL     1       0.476 -13.536   3.598  1.00  0.00     0.167 HD
ATOM     58  C   UNL     1       0.462 -13.393   7.941  1.00  0.00     0.037 A 
ATOM     59  C   UNL     1       1.415 -14.430   1.121  1.00  0.00     0.037 A 
ATOM     60  C   UNL     1       1.345 -14.482   7.615  1.00  0.00     0.049 A 
ATOM     61  C   UNL     1       2.124 -15.266   2.148  1.00  0.00     0.074 A 
ATOM     62  C   UNL     1       2.001 -15.348   8.474  1.00  0.00     0.029 A 
ATOM     63  N   UNL     1       1.698 -14.853   6.328  1.00  0.00    -0.354 N 
ATOM     64  N   UNL     1       2.038 -15.216   3.454  1.00  0.00    -0.248 NA
ATOM     65  C   UNL     1       3.047 -16.294   1.644  1.00  0.00     0.031 C 
ATOM     66  C   UNL     1       2.774 -16.226   7.706  1.00  0.00     0.029 A 
ATOM     67  C   UNL     1       2.575 -15.926   6.369  1.00  0.00     0.049 A 
ATOM     68  H   UNL     1       1.374 -14.419   5.506  1.00  0.00     0.167 HD
ATOM     69  C   UNL     1       2.876 -16.216   3.928  1.00  0.00     0.074 A 
ATOM     70  C   UNL     1       3.453 -16.865   2.769  1.00  0.00     0.031 C 
ATOM     71  C   UNL     1       3.142 -16.565   5.210  1.00  0.00     0.037 A 
BRANCH  58  72
ATOM     72  C   UNL     1       0.260 -13.054   9.389  1.00  0.00     0.057 A 
ATOM     73  C   UNL     1      -0.937 -13.352  10.053  1.00  0.00     0.134 A 
ATOM     74  C   UNL     1       1.282 -12.453  10.134  1.00  0.00     0.134 A 
ATOM     75  F   UNL     1      -1.957 -13.921   9.393  1.00  0.00    -0.206 F 
ATOM     76  C   UNL     1      -1.122 -13.037  11.400  1.00  0.00     0.040 A 
ATOM     77  C   UNL     1       1.117 -12.155  11.488  1.00  0.00     0.040 A 
ATOM     78  F   UNL     1       2.457 -12.152   9.561  1.00  0.00    -0.206 F 
ATOM     79  C   UNL     1      -0.090 -12.441  12.123  1.00  0.00     0.006 A 
ENDBRANCH  58  72
BRANCH  59  80
ATOM     80  C   UNL     1       1.644 -14.661  -0.326  1.00  0.00     0.057 A 
ATOM     81  C   UNL     1       1.115 -15.791  -0.961  1.00  0.00     0.134 A 
ATOM     82  C   UNL     1       2.381 -13.764  -1.105  1.00  0.00     0.134 A 
ATOM     83  F   UNL     1       0.414 -16.693  -0.258  1.00  0.00    -0.206 F 
ATOM     84  C   UNL     1       1.321 -16.028  -2.320  1.00  0.00     0.040 A 
ATOM     85  C   UNL     1       2.580 -13.979  -2.470  1.00  0.00     0.040 A 
ATOM     86  F   UNL     1       2.905 -12.659  -0.555  1.00  0.00    -0.206 F 
ATOM     87  C   UNL     1       2.053 -15.117  -3.079  1.00  0.00     0.006 A 
ENDBRANCH  59  80
BRANCH  71  88
ATOM     88  C   UNL     1       4.080 -17.713   5.426  1.00  0.00     0.057 A 
ATOM     89  C   UNL     1       5.461 -17.579   5.245  1.00  0.00     0.134 A 
ATOM     90  C   UNL     1       3.598 -18.959   5.849  1.00  0.00     0.134 A 
ATOM     91  F   UNL     1       5.982 -16.416   4.826  1.00  0.00    -0.206 F 
ATOM     92  C   UNL     1       6.331 -18.649   5.461  1.00  0.00     0.040 A 
ATOM     93  C   UNL     1       4.460 -20.030   6.088  1.00  0.00     0.040 A 
ATOM     94  F   UNL     1       2.285 -19.151   6.045  1.00  0.00    -0.206 F 
ATOM     95  C   UNL     1       5.831 -19.877   5.889  1.00  0.00     0.006 A 
ENDBRANCH  71  88
ENDBRANCH  45  46
ENDBRANCH  37  40
ENDBRANCH  35  36
ENDBRANCH  34  35
ENDBRANCH  33  34
ENDBRANCH  32  33
ENDBRANCH   1  32
TORSDOF 17
