REMARK SMILES O=C(NCCCCCCNC(=O)[C@H]1CC2=c3ccccc3=N[C@H]2[C@@H](c2ccccc2)[NH2+]1)c1ccc(-c2c3nc(c(-c4c(F)cccc4F)c4ccc([nH]4)c(-c4c(F)cccc4F)c4nc(c(-c5c(F)cccc5F)c5ccc2[nH]5)C=C4)C=C3)cc1
REMARK SMILES IDX 6 1 5 2 4 3 3 4 1 5 2 6 32 8 33 9 85 10 34 11 84 12 35 13
REMARK SMILES IDX 36 14 37 15 78 16 38 17 83 18 77 19 79 20 39 21 82 22 76 23
REMARK SMILES IDX 75 24 40 26 66 27 49 28 65 29 50 30 53 31 64 32 80 33 51 34
REMARK SMILES IDX 52 35 63 37 81 38 54 39 41 40 42 41 47 42 43 43 44 44 46 45
REMARK SMILES IDX 48 46 45 47 67 48 68 49 73 50 69 51 70 52 72 53 74 54 71 55
REMARK SMILES IDX 55 56 56 57 61 58 57 59 58 60 60 61 62 62 59 63 7 64 8 65
REMARK SMILES IDX 9 66 10 67 11 68 12 70 13 71 14 72 31 73 15 74 24 75 16 78
REMARK SMILES IDX 23 79 17 80 21 81 22 82 18 83 20 84 19 85 25 86 26 87 30 88
REMARK SMILES IDX 27 89 29 90 28 91
REMARK H PARENT 3 7 79 25 53 36 10 69 31 76 31 77
REMARK Flexibility Score: inf
ROOT
ATOM      1  C   UNL     1       4.531   1.298   3.813  1.00  0.00     0.002 C 
ENDROOT
BRANCH   1   2
ATOM      2  C   UNL     1       4.898   1.461   2.334  1.00  0.00     0.021 C 
BRANCH   2   3
ATOM      3  C   UNL     1       4.545   0.283   1.428  1.00  0.00     0.116 C 
BRANCH   3   4
ATOM      4  N   UNL     1       3.109   0.120   1.252  1.00  0.00    -0.352 N 
ATOM      5  O   UNL     1       1.121   0.096   0.197  1.00  0.00    -0.269 OA
ATOM      6  C   UNL     1       2.357   0.082   0.108  1.00  0.00     0.251 C 
ATOM      7  H   UNL     1       2.598   0.022   2.088  1.00  0.00     0.163 HD
BRANCH   6   8
ATOM      8  C   UNL     1       2.978   0.033  -1.236  1.00  0.00     0.039 A 
ATOM      9  C   UNL     1       2.376   0.740  -2.284  1.00  0.00     0.014 A 
ATOM     10  C   UNL     1       4.101  -0.758  -1.498  1.00  0.00     0.014 A 
ATOM     11  C   UNL     1       2.909   0.678  -3.576  1.00  0.00     0.010 A 
ATOM     12  C   UNL     1       4.676  -0.759  -2.770  1.00  0.00     0.010 A 
ATOM     13  C   UNL     1       4.073  -0.064  -3.830  1.00  0.00    -0.014 A 
BRANCH  13  14
ATOM     14  C   UNL     1       4.623  -0.196  -5.207  1.00  0.00     0.031 A 
ATOM     15  C   UNL     1       4.636  -1.546  -5.878  1.00  0.00     0.074 A 
ATOM     16  C   UNL     1       5.127   0.874  -5.851  1.00  0.00     0.049 A 
ATOM     17  N   UNL     1       5.138  -1.895  -7.036  1.00  0.00    -0.248 NA
ATOM     18  C   UNL     1       4.016  -2.656  -5.136  1.00  0.00     0.031 C 
ATOM     19  C   UNL     1       5.177   2.237  -5.324  1.00  0.00     0.029 A 
ATOM     20  N   UNL     1       5.696   0.978  -7.097  1.00  0.00    -0.354 N 
ATOM     21  C   UNL     1       4.904  -3.260  -7.154  1.00  0.00     0.074 A 
ATOM     22  C   UNL     1       4.273  -3.688  -5.925  1.00  0.00     0.031 C 
ATOM     23  C   UNL     1       5.717   3.047  -6.250  1.00  0.00     0.029 A 
ATOM     24  C   UNL     1       6.093   2.255  -7.418  1.00  0.00     0.049 A 
ATOM     25  H   UNL     1       5.810   0.211  -7.703  1.00  0.00     0.167 HD
ATOM     26  C   UNL     1       5.161  -4.082  -8.200  1.00  0.00     0.037 A 
ATOM     27  C   UNL     1       6.698   2.728  -8.524  1.00  0.00     0.037 A 
ATOM     28  C   UNL     1       5.774  -3.660  -9.432  1.00  0.00     0.049 A 
ATOM     29  C   UNL     1       7.040   1.779  -9.643  1.00  0.00     0.074 A 
ATOM     30  C   UNL     1       6.060  -4.413 -10.558  1.00  0.00     0.029 A 
ATOM     31  N   UNL     1       6.194  -2.366  -9.700  1.00  0.00    -0.354 N 
ATOM     32  N   UNL     1       6.793   0.496  -9.749  1.00  0.00    -0.248 NA
ATOM     33  C   UNL     1       7.752   2.350 -10.796  1.00  0.00     0.031 C 
ATOM     34  C   UNL     1       6.693  -3.585 -11.490  1.00  0.00     0.029 A 
ATOM     35  C   UNL     1       6.755  -2.304 -10.966  1.00  0.00     0.049 A 
ATOM     36  H   UNL     1       6.107  -1.604  -9.083  1.00  0.00     0.167 HD
ATOM     37  C   UNL     1       7.288   0.115 -10.991  1.00  0.00     0.074 A 
ATOM     38  C   UNL     1       7.835   1.306 -11.607  1.00  0.00     0.031 C 
ATOM     39  C   UNL     1       7.291  -1.111 -11.569  1.00  0.00     0.037 A 
BRANCH  26  40
ATOM     40  C   UNL     1       4.773  -5.526  -8.051  1.00  0.00     0.057 A 
ATOM     41  C   UNL     1       5.748  -6.526  -7.950  1.00  0.00     0.134 A 
ATOM     42  C   UNL     1       3.431  -5.929  -8.019  1.00  0.00     0.134 A 
ATOM     43  F   UNL     1       7.052  -6.212  -7.981  1.00  0.00    -0.206 F 
ATOM     44  C   UNL     1       5.403  -7.872  -7.819  1.00  0.00     0.040 A 
ATOM     45  C   UNL     1       3.073  -7.268  -7.857  1.00  0.00     0.040 A 
ATOM     46  F   UNL     1       2.446  -5.020  -8.097  1.00  0.00    -0.206 F 
ATOM     47  C   UNL     1       4.061  -8.245  -7.763  1.00  0.00     0.006 A 
ENDBRANCH  26  40
BRANCH  27  48
ATOM     48  C   UNL     1       7.015   4.174  -8.651  1.00  0.00     0.057 A 
ATOM     49  C   UNL     1       8.007   4.782  -7.873  1.00  0.00     0.134 A 
ATOM     50  C   UNL     1       6.357   4.973  -9.595  1.00  0.00     0.134 A 
ATOM     51  F   UNL     1       8.675   4.073  -6.951  1.00  0.00    -0.206 F 
ATOM     52  C   UNL     1       8.333   6.130  -8.028  1.00  0.00     0.040 A 
ATOM     53  C   UNL     1       6.691   6.315  -9.779  1.00  0.00     0.040 A 
ATOM     54  F   UNL     1       5.414   4.442 -10.387  1.00  0.00    -0.206 F 
ATOM     55  C   UNL     1       7.681   6.898  -8.991  1.00  0.00     0.006 A 
ENDBRANCH  27  48
BRANCH  39  56
ATOM     56  C   UNL     1       7.868  -1.216 -12.952  1.00  0.00     0.057 A 
ATOM     57  C   UNL     1       7.038  -1.456 -14.054  1.00  0.00     0.134 A 
ATOM     58  C   UNL     1       9.244  -1.104 -13.191  1.00  0.00     0.134 A 
ATOM     59  F   UNL     1       5.712  -1.584 -13.895  1.00  0.00    -0.206 F 
ATOM     60  C   UNL     1       7.555  -1.581 -15.345  1.00  0.00     0.040 A 
ATOM     61  C   UNL     1       9.769  -1.197 -14.482  1.00  0.00     0.040 A 
ATOM     62  F   UNL     1      10.092  -0.860 -12.181  1.00  0.00    -0.206 F 
ATOM     63  C   UNL     1       8.924  -1.442 -15.562  1.00  0.00     0.006 A 
ENDBRANCH  39  56
ENDBRANCH  13  14
ENDBRANCH   6   8
ENDBRANCH   3   4
ENDBRANCH   2   3
ENDBRANCH   1   2
BRANCH   1  64
ATOM     64  C   UNL     1       5.154   0.098   4.543  1.00  0.00     0.002 C 
BRANCH  64  65
ATOM     65  C   UNL     1       6.686   0.008   4.494  1.00  0.00     0.021 C 
BRANCH  65  66
ATOM     66  C   UNL     1       7.420   1.054   5.348  1.00  0.00     0.116 C 
BRANCH  66  67
ATOM     67  N   UNL     1       7.686   0.550   6.695  1.00  0.00    -0.351 N 
ATOM     68  C   UNL     1       8.794   0.549   7.500  1.00  0.00     0.278 C 
ATOM     69  H   UNL     1       6.903   0.122   7.111  1.00  0.00     0.163 HD
ATOM     70  O   UNL     1       8.819  -0.348   8.356  1.00  0.00    -0.268 OA
BRANCH  68  71
ATOM     71  C   UNL     1       9.888   1.661   7.543  1.00  0.00     0.277 C 
ATOM     72  C   UNL     1      11.367   1.136   7.708  1.00  0.00     0.109 C 
ATOM     73  N   UNL     1       9.727   2.729   6.550  1.00  0.00    -0.327 N 
ATOM     74  C   UNL     1      12.047   0.786   6.377  1.00  0.00    -0.024 C 
ATOM     75  C   UNL     1      10.819   2.740   5.573  1.00  0.00     0.243 C 
ATOM     76  H   UNL     1       9.708   3.627   7.033  1.00  0.00     0.347 HD
ATOM     77  H   UNL     1       8.856   2.562   6.046  1.00  0.00     0.347 HD
ATOM     78  C   UNL     1      12.408  -0.465   6.108  1.00  0.00     0.002 A 
ATOM     79  C   UNL     1      11.391   1.351   5.140  1.00  0.00     0.196 C 
ATOM     80  C   UNL     1      13.106  -1.421   6.902  1.00  0.00     0.010 A 
ATOM     81  C   UNL     1      11.151  -0.799   5.375  1.00  0.00     0.066 A 
ATOM     82  N   UNL     1      10.508   0.189   4.785  1.00  0.00    -0.270 NA
ATOM     83  C   UNL     1      12.641  -2.672   6.991  1.00  0.00     0.001 A 
ATOM     84  C   UNL     1      10.674  -2.199   5.580  1.00  0.00     0.028 A 
ATOM     85  C   UNL     1      11.381  -3.035   6.369  1.00  0.00     0.002 A 
BRANCH  75  86
ATOM     86  C   UNL     1      10.750   3.951   4.655  1.00  0.00     0.012 A 
ATOM     87  C   UNL     1      10.672   5.214   5.296  1.00  0.00     0.010 A 
ATOM     88  C   UNL     1      10.962   3.926   3.277  1.00  0.00     0.010 A 
ATOM     89  C   UNL     1      10.863   6.404   4.605  1.00  0.00     0.001 A 
ATOM     90  C   UNL     1      11.146   5.130   2.578  1.00  0.00     0.001 A 
ATOM     91  C   UNL     1      11.116   6.361   3.242  1.00  0.00     0.000 A 
ENDBRANCH  75  86
ENDBRANCH  68  71
ENDBRANCH  66  67
ENDBRANCH  65  66
ENDBRANCH  64  65
ENDBRANCH   1  64
TORSDOF 14
