REMARK SMILES O=C(NCCCCCCNC(=O)c1cnc(-c2ccccc2Cl)nc1)c1ccc(-c2c3nc(c(-c4c(F)cccc4F)c4ccc([nH]4)c(-c4c(F)cccc4F)c4nc(c(-c5c(F)cccc5F)c5ccc2[nH]5)C=C4)C=C3)cc1
REMARK SMILES IDX 6 1 5 2 4 3 3 4 1 5 2 6 26 8 27 9 79 10 28 11 78 12 29 13
REMARK SMILES IDX 30 14 31 15 72 16 32 17 77 18 71 19 73 20 33 21 76 22 70 23
REMARK SMILES IDX 69 24 34 26 60 27 43 28 59 29 44 30 47 31 58 32 74 33 45 34
REMARK SMILES IDX 46 35 57 37 75 38 48 39 35 40 36 41 41 42 37 43 38 44 40 45
REMARK SMILES IDX 42 46 39 47 61 48 62 49 67 50 63 51 64 52 66 53 68 54 65 55
REMARK SMILES IDX 49 56 50 57 55 58 51 59 52 60 54 61 56 62 53 63 7 64 8 65
REMARK SMILES IDX 9 66 10 67 11 68 12 70 13 71 14 72 25 73 15 74 24 75 16 76
REMARK SMILES IDX 17 77 18 78 22 79 19 80 21 81 23 82 20 83
REMARK H PARENT 3 7 73 25 47 36 10 69
REMARK Flexibility Score: inf
ROOT
ATOM      1  C   UNL     1       4.176  -1.866  -3.473  1.00  0.00     0.002 C 
ENDROOT
BRANCH   1   2
ATOM      2  C   UNL     1       4.639  -1.820  -2.018  1.00  0.00     0.021 C 
BRANCH   2   3
ATOM      3  C   UNL     1       4.375  -0.498  -1.311  1.00  0.00     0.116 C 
BRANCH   3   4
ATOM      4  N   UNL     1       2.955  -0.218  -1.165  1.00  0.00    -0.352 N 
ATOM      5  O   UNL     1       1.011   0.084  -0.054  1.00  0.00    -0.269 OA
ATOM      6  C   UNL     1       2.236   0.033  -0.022  1.00  0.00     0.251 C 
ATOM      7  H   UNL     1       2.437  -0.208  -2.002  1.00  0.00     0.163 HD
BRANCH   6   8
ATOM      8  C   UNL     1       2.951   0.219   1.258  1.00  0.00     0.039 A 
ATOM      9  C   UNL     1       4.093   1.020   1.317  1.00  0.00     0.014 A 
ATOM     10  C   UNL     1       2.481  -0.422   2.407  1.00  0.00     0.014 A 
ATOM     11  C   UNL     1       4.851   1.054   2.480  1.00  0.00     0.010 A 
ATOM     12  C   UNL     1       3.190  -0.302   3.606  1.00  0.00     0.010 A 
ATOM     13  C   UNL     1       4.396   0.415   3.645  1.00  0.00    -0.014 A 
BRANCH  13  14
ATOM     14  C   UNL     1       5.161   0.585   4.905  1.00  0.00     0.031 A 
ATOM     15  C   UNL     1       5.796  -0.585   5.603  1.00  0.00     0.074 A 
ATOM     16  C   UNL     1       5.298   1.828   5.407  1.00  0.00     0.049 A 
ATOM     17  N   UNL     1       6.505  -0.599   6.704  1.00  0.00    -0.248 NA
ATOM     18  C   UNL     1       5.607  -1.911   4.995  1.00  0.00     0.031 C 
ATOM     19  C   UNL     1       4.713   3.039   4.822  1.00  0.00     0.029 A 
ATOM     20  N   UNL     1       5.977   2.286   6.505  1.00  0.00    -0.354 N 
ATOM     21  C   UNL     1       6.832  -1.930   6.932  1.00  0.00     0.074 A 
ATOM     22  C   UNL     1       6.221  -2.699   5.868  1.00  0.00     0.031 C 
ATOM     23  C   UNL     1       5.095   4.103   5.541  1.00  0.00     0.029 A 
ATOM     24  C   UNL     1       5.888   3.646   6.675  1.00  0.00     0.049 A 
ATOM     25  H   UNL     1       6.480   1.697   7.113  1.00  0.00     0.167 HD
ATOM     26  C   UNL     1       7.579  -2.456   7.933  1.00  0.00     0.037 A 
ATOM     27  C   UNL     1       6.367   4.439   7.649  1.00  0.00     0.037 A 
ATOM     28  C   UNL     1       8.187  -1.679   8.985  1.00  0.00     0.049 A 
ATOM     29  C   UNL     1       7.160   3.823   8.763  1.00  0.00     0.074 A 
ATOM     30  C   UNL     1       8.992  -2.116  10.023  1.00  0.00     0.029 A 
ATOM     31  N   UNL     1       8.050  -0.307   9.139  1.00  0.00    -0.354 N 
ATOM     32  N   UNL     1       7.496   2.569   8.941  1.00  0.00    -0.248 NA
ATOM     33  C   UNL     1       7.641   4.732   9.811  1.00  0.00     0.031 C 
ATOM     34  C   UNL     1       9.293  -1.020  10.837  1.00  0.00     0.029 A 
ATOM     35  C   UNL     1       8.730   0.113  10.272  1.00  0.00     0.049 A 
ATOM     36  H   UNL     1       7.543   0.281   8.534  1.00  0.00     0.167 HD
ATOM     37  C   UNL     1       8.245   2.540  10.110  1.00  0.00     0.074 A 
ATOM     38  C   UNL     1       8.331   3.906  10.584  1.00  0.00     0.031 C 
ATOM     39  C   UNL     1       8.808   1.476  10.734  1.00  0.00     0.037 A 
BRANCH  26  40
ATOM     40  C   UNL     1       7.765  -3.947   7.958  1.00  0.00     0.057 A 
ATOM     41  C   UNL     1       8.561  -4.615   7.018  1.00  0.00     0.134 A 
ATOM     42  C   UNL     1       7.186  -4.720   8.974  1.00  0.00     0.134 A 
ATOM     43  F   UNL     1       9.139  -3.938   6.014  1.00  0.00    -0.206 F 
ATOM     44  C   UNL     1       8.756  -5.997   7.074  1.00  0.00     0.040 A 
ATOM     45  C   UNL     1       7.396  -6.098   9.057  1.00  0.00     0.040 A 
ATOM     46  F   UNL     1       6.419  -4.146   9.914  1.00  0.00    -0.206 F 
ATOM     47  C   UNL     1       8.179  -6.741   8.102  1.00  0.00     0.006 A 
ENDBRANCH  26  40
BRANCH  27  48
ATOM     48  C   UNL     1       6.091   5.897   7.616  1.00  0.00     0.057 A 
ATOM     49  C   UNL     1       7.114   6.827   7.403  1.00  0.00     0.134 A 
ATOM     50  C   UNL     1       4.792   6.395   7.787  1.00  0.00     0.134 A 
ATOM     51  F   UNL     1       8.380   6.413   7.246  1.00  0.00    -0.206 F 
ATOM     52  C   UNL     1       6.861   8.199   7.380  1.00  0.00     0.040 A 
ATOM     53  C   UNL     1       4.520   7.762   7.735  1.00  0.00     0.040 A 
ATOM     54  F   UNL     1       3.765   5.555   7.983  1.00  0.00    -0.206 F 
ATOM     55  C   UNL     1       5.558   8.669   7.540  1.00  0.00     0.006 A 
ENDBRANCH  27  48
BRANCH  39  56
ATOM     56  C   UNL     1       9.599   1.758  11.979  1.00  0.00     0.057 A 
ATOM     57  C   UNL     1       8.986   2.150  13.176  1.00  0.00     0.134 A 
ATOM     58  C   UNL     1      10.992   1.612  11.984  1.00  0.00     0.134 A 
ATOM     59  F   UNL     1       7.656   2.323  13.234  1.00  0.00    -0.206 F 
ATOM     60  C   UNL     1       9.733   2.417  14.324  1.00  0.00     0.040 A 
ATOM     61  C   UNL     1      11.746   1.845  13.135  1.00  0.00     0.040 A 
ATOM     62  F   UNL     1      11.642   1.231  10.874  1.00  0.00    -0.206 F 
ATOM     63  C   UNL     1      11.117   2.257  14.307  1.00  0.00     0.006 A 
ENDBRANCH  39  56
ENDBRANCH  13  14
ENDBRANCH   6   8
ENDBRANCH   3   4
ENDBRANCH   2   3
ENDBRANCH   1   2
BRANCH   1  64
ATOM     64  C   UNL     1       4.748  -0.766  -4.372  1.00  0.00     0.002 C 
BRANCH  64  65
ATOM     65  C   UNL     1       6.276  -0.651  -4.379  1.00  0.00     0.021 C 
BRANCH  65  66
ATOM     66  C   UNL     1       7.012  -1.940  -4.737  1.00  0.00     0.116 C 
BRANCH  66  67
ATOM     67  N   UNL     1       6.700  -2.382  -6.089  1.00  0.00    -0.352 N 
ATOM     68  C   UNL     1       7.544  -2.556  -7.154  1.00  0.00     0.254 C 
ATOM     69  H   UNL     1       5.752  -2.583  -6.261  1.00  0.00     0.163 HD
ATOM     70  O   UNL     1       7.103  -2.725  -8.286  1.00  0.00    -0.269 OA
BRANCH  68  71
ATOM     71  C   UNL     1       8.988  -2.526  -6.942  1.00  0.00     0.076 A 
ATOM     72  C   UNL     1       9.616  -3.318  -6.009  1.00  0.00     0.129 A 
ATOM     73  C   UNL     1       9.799  -1.700  -7.680  1.00  0.00     0.129 A 
ATOM     74  N   UNL     1      10.936  -3.245  -5.744  1.00  0.00    -0.236 NA
ATOM     75  N   UNL     1      11.127  -1.588  -7.459  1.00  0.00    -0.236 NA
ATOM     76  C   UNL     1      11.639  -2.345  -6.466  1.00  0.00     0.160 A 
BRANCH  76  77
ATOM     77  C   UNL     1      13.061  -2.209  -6.153  1.00  0.00     0.038 A 
ATOM     78  C   UNL     1      13.866  -3.367  -6.101  1.00  0.00     0.013 A 
ATOM     79  C   UNL     1      13.674  -0.975  -5.874  1.00  0.00     0.052 A 
ATOM     80  C   UNL     1      15.229  -3.295  -5.807  1.00  0.00     0.001 A 
ATOM     81  C   UNL     1      15.043  -0.904  -5.582  1.00  0.00     0.021 A 
ATOM     82  Cl  UNL     1      12.788   0.513  -5.801  1.00  0.00    -0.084 Cl
ATOM     83  C   UNL     1      15.819  -2.062  -5.553  1.00  0.00     0.002 A 
ENDBRANCH  76  77
ENDBRANCH  68  71
ENDBRANCH  66  67
ENDBRANCH  65  66
ENDBRANCH  64  65
ENDBRANCH   1  64
TORSDOF 14
