REMARK SMILES NS(=O)(=O)c1ccc(-n2ccnc2-c2ccc(O)c(C(=O)NCCCCCCNC(=O)c3ccc(-c4c5nc(c(-c6c(F)cccc6F)c6ccc([nH]6)c(-c6c(F)cccc6F)c6nc(c(-c7c(F)cccc7F)c7ccc4[nH]7)C=C6)C=C5)cc3)c2)cc1
REMARK SMILES IDX 24 1 23 2 22 3 20 4 21 5 19 7 14 8 15 9 86 10 16 11 17 12
REMARK SMILES IDX 13 13 9 14 10 15 11 16 12 17 8 18 5 19 6 20 88 21 7 22 87 23
REMARK SMILES IDX 2 24 3 25 4 26 1 27 18 30 25 32 26 33 27 34 28 35 29 36
REMARK SMILES IDX 30 37 31 39 32 40 33 41 85 42 34 43 84 44 35 45 36 46 37 47
REMARK SMILES IDX 78 48 38 49 83 50 77 51 79 52 39 53 82 54 76 55 75 56 40 58
REMARK SMILES IDX 66 59 49 60 65 61 50 62 53 63 64 64 80 65 51 66 52 67 63 69
REMARK SMILES IDX 81 70 54 71 41 72 42 73 47 74 43 75 44 76 46 77 48 78 45 79
REMARK SMILES IDX 67 80 68 81 73 82 69 83 70 84 72 85 74 86 71 87 55 88 56 89
REMARK SMILES IDX 61 90 57 91 58 92 60 93 62 94 59 95
REMARK H PARENT 22 6 1 28 1 29 18 31 29 38 79 57 53 68
REMARK Flexibility Score: inf
ROOT
ATOM      1  C   UNL     1      -0.653   0.673  -6.625  1.00  0.00     0.021 C 
ENDROOT
BRANCH   1   2
ATOM      2  C   UNL     1      -0.819  -0.585  -5.784  1.00  0.00     0.116 C 
BRANCH   2   3
ATOM      3  N   UNL     1      -2.193  -0.985  -5.523  1.00  0.00    -0.352 N 
ATOM      4  C   UNL     1      -2.807  -2.222  -5.491  1.00  0.00     0.255 C 
ATOM      5  O   UNL     1      -4.017  -2.269  -5.257  1.00  0.00    -0.269 OA
ATOM      6  H   UNL     1      -2.800  -0.233  -5.333  1.00  0.00     0.163 HD
BRANCH   4   7
ATOM      7  C   UNL     1      -2.107  -3.507  -5.785  1.00  0.00     0.082 A 
ATOM      8  C   UNL     1      -0.015  -4.745  -6.131  1.00  0.00     0.019 A 
ATOM      9  C   UNL     1      -0.745  -5.817  -6.646  1.00  0.00     0.016 A 
ATOM     10  C   UNL     1      -0.729  -3.641  -5.640  1.00  0.00     0.029 A 
ATOM     11  C   UNL     1      -2.144  -5.774  -6.657  1.00  0.00     0.048 A 
ATOM     12  C   UNL     1      -2.818  -4.621  -6.245  1.00  0.00     0.128 A 
BRANCH   8  13
ATOM     13  C   UNL     1       1.457  -4.680  -6.256  1.00  0.00     0.144 A 
ATOM     14  N   UNL     1       2.323  -3.960  -5.423  1.00  0.00    -0.300 N 
ATOM     15  C   UNL     1       3.481  -3.757  -6.138  1.00  0.00     0.113 A 
ATOM     16  C   UNL     1       3.344  -4.503  -7.282  1.00  0.00     0.132 A 
ATOM     17  N   UNL     1       2.111  -5.091  -7.332  1.00  0.00    -0.236 NA
BRANCH  14  18
ATOM     18  C   UNL     1       2.044  -3.435  -4.136  1.00  0.00     0.047 A 
ATOM     19  C   UNL     1       1.179  -2.300  -1.751  1.00  0.00     0.082 A 
ATOM     20  C   UNL     1       0.877  -3.637  -2.030  1.00  0.00     0.024 A 
ATOM     21  C   UNL     1       1.938  -1.536  -2.644  1.00  0.00     0.024 A 
ATOM     22  C   UNL     1       1.306  -4.205  -3.227  1.00  0.00     0.028 A 
ATOM     23  C   UNL     1       2.393  -2.111  -3.834  1.00  0.00     0.028 A 
BRANCH  19  24
ATOM     24  S   UNL     1       0.588  -1.637  -0.223  1.00  0.00     0.238 S 
ATOM     25  O   UNL     1       1.158  -2.403   0.852  1.00  0.00    -0.207 OA
ATOM     26  O   UNL     1      -0.834  -1.398  -0.361  1.00  0.00    -0.207 OA
BRANCH  24  27
ATOM     27  N   UNL     1       1.290  -0.113  -0.114  1.00  0.00    -0.225 NA
ATOM     28  H   UNL     1       0.993   0.338   0.751  1.00  0.00     0.137 HD
ATOM     29  H   UNL     1       0.997   0.454  -0.910  1.00  0.00     0.137 HD
ENDBRANCH  24  27
ENDBRANCH  19  24
ENDBRANCH  14  18
ENDBRANCH   8  13
BRANCH  12  30
ATOM     30  O   UNL     1      -4.184  -4.650  -6.328  1.00  0.00    -0.507 OA
ATOM     31  H   UNL     1      -4.618  -5.419  -6.642  1.00  0.00     0.293 HD
ENDBRANCH  12  30
ENDBRANCH   4   7
ENDBRANCH   2   3
ENDBRANCH   1   2
BRANCH   1  32
ATOM     32  C   UNL     1      -1.152   1.981  -6.019  1.00  0.00     0.002 C 
BRANCH  32  33
ATOM     33  C   UNL     1      -0.692   2.325  -4.594  1.00  0.00     0.002 C 
BRANCH  33  34
ATOM     34  C   UNL     1       0.810   2.257  -4.279  1.00  0.00     0.021 C 
BRANCH  34  35
ATOM     35  C   UNL     1       1.683   3.138  -5.153  1.00  0.00     0.116 C 
BRANCH  35  36
ATOM     36  N   UNL     1       1.452   4.580  -4.988  1.00  0.00    -0.352 N 
ATOM     37  C   UNL     1       2.106   5.633  -5.622  1.00  0.00     0.251 C 
ATOM     38  H   UNL     1       0.747   4.832  -4.350  1.00  0.00     0.163 HD
ATOM     39  O   UNL     1       2.090   6.767  -5.160  1.00  0.00    -0.269 OA
BRANCH  37  40
ATOM     40  C   UNL     1       2.807   5.351  -6.888  1.00  0.00     0.039 A 
ATOM     41  C   UNL     1       4.015   5.932  -7.280  1.00  0.00     0.014 A 
ATOM     42  C   UNL     1       2.221   4.374  -7.671  1.00  0.00     0.014 A 
ATOM     43  C   UNL     1       4.600   5.476  -8.462  1.00  0.00     0.010 A 
ATOM     44  C   UNL     1       3.013   3.659  -8.503  1.00  0.00     0.010 A 
ATOM     45  C   UNL     1       4.066   4.330  -9.072  1.00  0.00    -0.014 A 
BRANCH  45  46
ATOM     46  C   UNL     1       4.561   3.735 -10.297  1.00  0.00     0.031 A 
ATOM     47  C   UNL     1       5.987   3.374 -10.242  1.00  0.00     0.074 A 
ATOM     48  C   UNL     1       3.754   3.358 -11.317  1.00  0.00     0.049 A 
ATOM     49  N   UNL     1       6.960   4.039 -10.760  1.00  0.00    -0.248 NA
ATOM     50  C   UNL     1       6.404   2.272  -9.366  1.00  0.00     0.031 C 
ATOM     51  C   UNL     1       2.286   3.376 -11.427  1.00  0.00     0.029 A 
ATOM     52  N   UNL     1       4.125   2.820 -12.509  1.00  0.00    -0.354 N 
ATOM     53  C   UNL     1       8.107   3.319 -10.466  1.00  0.00     0.074 A 
ATOM     54  C   UNL     1       7.734   2.366  -9.452  1.00  0.00     0.031 C 
ATOM     55  C   UNL     1       1.896   2.698 -12.533  1.00  0.00     0.029 A 
ATOM     56  C   UNL     1       3.079   2.348 -13.296  1.00  0.00     0.049 A 
ATOM     57  H   UNL     1       5.065   2.767 -12.794  1.00  0.00     0.167 HD
ATOM     58  C   UNL     1       9.202   3.417 -11.267  1.00  0.00     0.037 A 
ATOM     59  C   UNL     1       3.199   1.732 -14.500  1.00  0.00     0.037 A 
ATOM     60  C   UNL     1       9.073   4.523 -12.188  1.00  0.00     0.049 A 
ATOM     61  C   UNL     1       4.521   2.131 -15.051  1.00  0.00     0.074 A 
ATOM     62  C   UNL     1       8.948   5.892 -12.047  1.00  0.00     0.029 A 
ATOM     63  N   UNL     1       8.621   4.237 -13.455  1.00  0.00    -0.354 N 
ATOM     64  N   UNL     1       4.799   3.354 -15.413  1.00  0.00    -0.248 NA
ATOM     65  C   UNL     1       5.670   1.305 -14.707  1.00  0.00     0.031 C 
ATOM     66  C   UNL     1       7.985   6.278 -13.027  1.00  0.00     0.029 A 
ATOM     67  C   UNL     1       7.636   5.143 -13.762  1.00  0.00     0.049 A 
ATOM     68  H   UNL     1       8.946   3.512 -14.038  1.00  0.00     0.167 HD
ATOM     69  C   UNL     1       6.082   3.585 -14.937  1.00  0.00     0.074 A 
ATOM     70  C   UNL     1       6.592   2.263 -14.567  1.00  0.00     0.031 C 
ATOM     71  C   UNL     1       6.500   4.843 -14.604  1.00  0.00     0.037 A 
BRANCH  58  72
ATOM     72  C   UNL     1      10.197   2.315 -11.491  1.00  0.00     0.057 A 
ATOM     73  C   UNL     1      11.387   2.606 -12.179  1.00  0.00     0.134 A 
ATOM     74  C   UNL     1       9.909   0.946 -11.330  1.00  0.00     0.134 A 
ATOM     75  F   UNL     1      11.765   3.875 -12.395  1.00  0.00    -0.206 F 
ATOM     76  C   UNL     1      12.188   1.606 -12.742  1.00  0.00     0.040 A 
ATOM     77  C   UNL     1      10.727  -0.062 -11.845  1.00  0.00     0.040 A 
ATOM     78  F   UNL     1       8.778   0.511 -10.763  1.00  0.00    -0.206 F 
ATOM     79  C   UNL     1      11.852   0.267 -12.585  1.00  0.00     0.006 A 
ENDBRANCH  58  72
BRANCH  59  80
ATOM     80  C   UNL     1       2.423   0.585 -15.027  1.00  0.00     0.057 A 
ATOM     81  C   UNL     1       2.467   0.226 -16.383  1.00  0.00     0.134 A 
ATOM     82  C   UNL     1       1.851  -0.363 -14.160  1.00  0.00     0.134 A 
ATOM     83  F   UNL     1       3.030   1.044 -17.284  1.00  0.00    -0.206 F 
ATOM     84  C   UNL     1       1.995  -1.012 -16.845  1.00  0.00     0.040 A 
ATOM     85  C   UNL     1       1.377  -1.602 -14.607  1.00  0.00     0.040 A 
ATOM     86  F   UNL     1       1.819  -0.154 -12.836  1.00  0.00    -0.206 F 
ATOM     87  C   UNL     1       1.460  -1.937 -15.952  1.00  0.00     0.006 A 
ENDBRANCH  59  80
BRANCH  71  88
ATOM     88  C   UNL     1       5.588   5.992 -14.952  1.00  0.00     0.057 A 
ATOM     89  C   UNL     1       4.335   6.209 -14.357  1.00  0.00     0.134 A 
ATOM     90  C   UNL     1       6.053   6.991 -15.810  1.00  0.00     0.134 A 
ATOM     91  F   UNL     1       3.848   5.364 -13.444  1.00  0.00    -0.206 F 
ATOM     92  C   UNL     1       3.563   7.342 -14.636  1.00  0.00     0.040 A 
ATOM     93  C   UNL     1       5.306   8.142 -16.077  1.00  0.00     0.040 A 
ATOM     94  F   UNL     1       7.269   6.887 -16.369  1.00  0.00    -0.206 F 
ATOM     95  C   UNL     1       4.051   8.316 -15.498  1.00  0.00     0.006 A 
ENDBRANCH  71  88
ENDBRANCH  45  46
ENDBRANCH  37  40
ENDBRANCH  35  36
ENDBRANCH  34  35
ENDBRANCH  33  34
ENDBRANCH  32  33
ENDBRANCH   1  32
TORSDOF 18
