REMARK SMILES C[C@H](CC(=O)NCCCCCCNC(=O)c1ccc(-c2c3nc(c(-c4c(F)cccc4F)c4ccc([nH]4)c(-c4c(F)cccc4F)c4nc(c(-c5c(F)cccc5F)c5ccc2[nH]5)C=C4)C=C3)cc1)NC(=O)[C@H]1Cc2ccccc2O1
REMARK SMILES IDX 9 1 8 2 7 3 6 4 4 5 5 6 3 8 2 9 1 10 70 11 71 12 72 14 73 15
REMARK SMILES IDX 74 16 81 17 75 18 80 19 76 20 79 21 77 22 78 23 10 24 11 25
REMARK SMILES IDX 12 26 13 27 14 28 15 30 16 31 17 32 69 33 18 34 68 35 19 36
REMARK SMILES IDX 20 37 21 38 62 39 22 40 67 41 61 42 63 43 23 44 66 45 60 46
REMARK SMILES IDX 59 47 24 49 50 50 33 51 49 52 34 53 37 54 48 55 64 56 35 57
REMARK SMILES IDX 36 58 47 60 65 61 38 62 25 63 26 64 31 65 27 66 28 67 30 68
REMARK SMILES IDX 32 69 29 70 51 71 52 72 57 73 53 74 54 75 56 76 58 77 55 78
REMARK SMILES IDX 39 79 40 80 45 81 41 82 42 83 44 84 46 85 43 86
REMARK H PARENT 6 7 70 13 13 29 63 48 37 59
REMARK Flexibility Score: inf
ROOT
ATOM      1  C   UNL     1      -5.267   5.372  -3.833  1.00  0.00     0.002 C 
ENDROOT
BRANCH   1   2
ATOM      2  C   UNL     1      -4.299   4.190  -3.786  1.00  0.00     0.021 C 
BRANCH   2   3
ATOM      3  C   UNL     1      -4.869   2.896  -3.206  1.00  0.00     0.116 C 
BRANCH   3   4
ATOM      4  N   UNL     1      -5.564   2.124  -4.221  1.00  0.00    -0.356 N 
ATOM      5  C   UNL     1      -5.295   0.888  -4.729  1.00  0.00     0.222 C 
ATOM      6  O   UNL     1      -6.030   0.452  -5.617  1.00  0.00    -0.275 OA
ATOM      7  H   UNL     1      -6.357   2.564  -4.604  1.00  0.00     0.163 HD
BRANCH   5   8
ATOM      8  C   UNL     1      -4.119   0.067  -4.224  1.00  0.00     0.124 C 
BRANCH   8   9
ATOM      9  C   UNL     1      -2.819   0.264  -5.023  1.00  0.00     0.088 C 
ATOM     10  C   UNL     1      -2.998  -0.026  -6.514  1.00  0.00     0.031 C 
BRANCH   9  11
ATOM     11  N   UNL     1      -2.286   1.607  -4.834  1.00  0.00    -0.350 N 
ATOM     12  C   UNL     1      -1.413   2.174  -3.969  1.00  0.00     0.261 C 
ATOM     13  H   UNL     1      -2.644   2.251  -5.487  1.00  0.00     0.163 HD
ATOM     14  O   UNL     1      -1.397   3.415  -3.983  1.00  0.00    -0.271 OA
BRANCH  12  15
ATOM     15  C   UNL     1      -0.391   1.455  -3.096  1.00  0.00     0.266 C 
ATOM     16  C   UNL     1      -0.593   0.078  -2.461  1.00  0.00     0.095 C 
ATOM     17  O   UNL     1       0.800   1.448  -3.929  1.00  0.00    -0.480 OA
ATOM     18  C   UNL     1       0.745  -0.513  -2.723  1.00  0.00    -0.002 A 
ATOM     19  C   UNL     1       1.467   0.322  -3.558  1.00  0.00     0.123 A 
ATOM     20  C   UNL     1       1.303  -1.698  -2.277  1.00  0.00     0.008 A 
ATOM     21  C   UNL     1       2.748   0.033  -3.980  1.00  0.00     0.047 A 
ATOM     22  C   UNL     1       2.605  -2.013  -2.687  1.00  0.00     0.001 A 
ATOM     23  C   UNL     1       3.324  -1.152  -3.533  1.00  0.00     0.004 A 
ENDBRANCH  12  15
ENDBRANCH   9  11
ENDBRANCH   8   9
ENDBRANCH   5   8
ENDBRANCH   3   4
ENDBRANCH   2   3
ENDBRANCH   1   2
BRANCH   1  24
ATOM     24  C   UNL     1      -5.661   5.943  -2.467  1.00  0.00     0.002 C 
BRANCH  24  25
ATOM     25  C   UNL     1      -4.503   6.276  -1.518  1.00  0.00     0.021 C 
BRANCH  25  26
ATOM     26  C   UNL     1      -3.423   7.195  -2.088  1.00  0.00     0.116 C 
BRANCH  26  27
ATOM     27  N   UNL     1      -3.940   8.512  -2.418  1.00  0.00    -0.352 N 
ATOM     28  C   UNL     1      -3.558   9.747  -1.957  1.00  0.00     0.251 C 
ATOM     29  H   UNL     1      -4.675   8.521  -3.072  1.00  0.00     0.163 HD
ATOM     30  O   UNL     1      -4.237  10.736  -2.217  1.00  0.00    -0.269 OA
BRANCH  28  31
ATOM     31  C   UNL     1      -2.339   9.896  -1.131  1.00  0.00     0.039 A 
ATOM     32  C   UNL     1      -2.393  10.712   0.003  1.00  0.00     0.014 A 
ATOM     33  C   UNL     1      -1.138   9.278  -1.491  1.00  0.00     0.014 A 
ATOM     34  C   UNL     1      -1.258  10.871   0.802  1.00  0.00     0.010 A 
ATOM     35  C   UNL     1      -0.022   9.390  -0.662  1.00  0.00     0.010 A 
ATOM     36  C   UNL     1      -0.069  10.194   0.487  1.00  0.00    -0.014 A 
BRANCH  36  37
ATOM     37  C   UNL     1       1.141  10.334   1.337  1.00  0.00     0.031 A 
ATOM     38  C   UNL     1       2.366  11.019   0.798  1.00  0.00     0.074 A 
ATOM     39  C   UNL     1       1.158   9.799   2.573  1.00  0.00     0.049 A 
ATOM     40  N   UNL     1       3.538  11.181   1.359  1.00  0.00    -0.248 NA
ATOM     41  C   UNL     1       2.266  11.578  -0.559  1.00  0.00     0.031 C 
ATOM     42  C   UNL     1       0.047   9.081   3.200  1.00  0.00     0.029 A 
ATOM     43  N   UNL     1       2.151   9.770   3.520  1.00  0.00    -0.354 N 
ATOM     44  C   UNL     1       4.319  11.842   0.418  1.00  0.00     0.074 A 
ATOM     45  C   UNL     1       3.501  12.013  -0.763  1.00  0.00     0.031 C 
ATOM     46  C   UNL     1       0.414   8.697   4.433  1.00  0.00     0.029 A 
ATOM     47  C   UNL     1       1.793   9.114   4.672  1.00  0.00     0.049 A 
ATOM     48  H   UNL     1       3.035  10.180   3.386  1.00  0.00     0.167 HD
ATOM     49  C   UNL     1       5.594  12.284   0.534  1.00  0.00     0.037 A 
ATOM     50  C   UNL     1       2.498   8.874   5.793  1.00  0.00     0.037 A 
ATOM     51  C   UNL     1       6.400  12.136   1.717  1.00  0.00     0.049 A 
ATOM     52  C   UNL     1       3.911   9.375   5.899  1.00  0.00     0.074 A 
ATOM     53  C   UNL     1       7.687  12.590   1.948  1.00  0.00     0.029 A 
ATOM     54  N   UNL     1       5.993  11.484   2.872  1.00  0.00    -0.354 N 
ATOM     55  N   UNL     1       4.620  10.042   5.021  1.00  0.00    -0.248 NA
ATOM     56  C   UNL     1       4.621   9.095   7.156  1.00  0.00     0.031 C 
ATOM     57  C   UNL     1       8.070  12.187   3.232  1.00  0.00     0.029 A 
ATOM     58  C   UNL     1       7.008  11.515   3.814  1.00  0.00     0.049 A 
ATOM     59  H   UNL     1       5.113  11.062   3.002  1.00  0.00     0.167 HD
ATOM     60  C   UNL     1       5.844  10.289   5.628  1.00  0.00     0.074 A 
ATOM     61  C   UNL     1       5.780   9.705   6.952  1.00  0.00     0.031 C 
ATOM     62  C   UNL     1       6.923  10.941   5.133  1.00  0.00     0.037 A 
BRANCH  49  63
ATOM     63  C   UNL     1       6.193  12.973  -0.656  1.00  0.00     0.057 A 
ATOM     64  C   UNL     1       5.786  14.256  -1.046  1.00  0.00     0.134 A 
ATOM     65  C   UNL     1       7.200  12.357  -1.409  1.00  0.00     0.134 A 
ATOM     66  F   UNL     1       4.817  14.895  -0.374  1.00  0.00    -0.206 F 
ATOM     67  C   UNL     1       6.340  14.890  -2.160  1.00  0.00     0.040 A 
ATOM     68  C   UNL     1       7.779  12.992  -2.510  1.00  0.00     0.040 A 
ATOM     69  F   UNL     1       7.641  11.132  -1.086  1.00  0.00    -0.206 F 
ATOM     70  C   UNL     1       7.343  14.259  -2.892  1.00  0.00     0.006 A 
ENDBRANCH  49  63
BRANCH  50  71
ATOM     71  C   UNL     1       1.868   8.149   6.923  1.00  0.00     0.057 A 
ATOM     72  C   UNL     1       1.514   8.820   8.099  1.00  0.00     0.134 A 
ATOM     73  C   UNL     1       1.607   6.775   6.859  1.00  0.00     0.134 A 
ATOM     74  F   UNL     1       1.758  10.133   8.225  1.00  0.00    -0.206 F 
ATOM     75  C   UNL     1       0.936   8.150   9.178  1.00  0.00     0.040 A 
ATOM     76  C   UNL     1       1.010   6.096   7.923  1.00  0.00     0.040 A 
ATOM     77  F   UNL     1       1.917   6.077   5.757  1.00  0.00    -0.206 F 
ATOM     78  C   UNL     1       0.679   6.783   9.089  1.00  0.00     0.006 A 
ENDBRANCH  50  71
BRANCH  62  79
ATOM     79  C   UNL     1       8.106  11.097   6.041  1.00  0.00     0.057 A 
ATOM     80  C   UNL     1       8.959  10.027   6.335  1.00  0.00     0.134 A 
ATOM     81  C   UNL     1       8.413  12.345   6.599  1.00  0.00     0.134 A 
ATOM     82  F   UNL     1       8.710   8.804   5.842  1.00  0.00    -0.206 F 
ATOM     83  C   UNL     1      10.067  10.187   7.169  1.00  0.00     0.040 A 
ATOM     84  C   UNL     1       9.530  12.522   7.416  1.00  0.00     0.040 A 
ATOM     85  F   UNL     1       7.639  13.412   6.351  1.00  0.00    -0.206 F 
ATOM     86  C   UNL     1      10.358  11.440   7.707  1.00  0.00     0.006 A 
ENDBRANCH  62  79
ENDBRANCH  36  37
ENDBRANCH  28  31
ENDBRANCH  26  27
ENDBRANCH  25  26
ENDBRANCH  24  25
ENDBRANCH   1  24
TORSDOF 16
