REMARK SMILES C[C@@](CC(=O)Nc1ccc(NC(=O)c2ccco2)cc1)(C(=O)NCCCCCCNC(=O)c1ccc(-c2c3nc(c(-c4c(F)cccc4F)c4ccc([nH]4)c(-c4c(F)cccc4F)c4nc(c(-c5c(F)cccc5F)c5ccc2[nH]5)C=C4)C=C3)cc1)c1ccccc1
REMARK SMILES IDX 25 1 24 2 23 3 21 4 22 5 2 7 1 8 3 9 4 10 5 11 6 12 7 14
REMARK SMILES IDX 8 15 20 16 9 17 19 18 10 19 11 20 12 21 13 23 14 24 15 25
REMARK SMILES IDX 18 26 16 27 17 28 87 29 88 30 92 31 89 32 91 33 90 34 26 35
REMARK SMILES IDX 27 36 28 37 29 38 30 39 31 40 32 42 33 43 34 44 86 45 35 46
REMARK SMILES IDX 85 47 36 48 37 49 38 50 79 51 39 52 84 53 78 54 80 55 40 56
REMARK SMILES IDX 83 57 77 58 76 59 41 61 67 62 50 63 66 64 51 65 54 66 65 67
REMARK SMILES IDX 81 68 52 69 53 70 64 72 82 73 55 74 42 75 43 76 48 77 44 78
REMARK SMILES IDX 45 79 47 80 49 81 46 82 68 83 69 84 74 85 70 86 71 87 73 88
REMARK SMILES IDX 75 89 72 90 56 91 57 92 62 93 58 94 59 95 61 96 63 97 60 98
REMARK H PARENT 23 6 6 13 11 22 30 41 80 60 54 71
REMARK Flexibility Score: inf
ROOT
ATOM      1  C   UNL     1      -2.348   1.844   1.117  1.00  0.00     0.021 C 
ENDROOT
BRANCH   1   2
ATOM      2  C   UNL     1      -1.497   0.728   1.710  1.00  0.00     0.116 C 
BRANCH   2   3
ATOM      3  N   UNL     1      -1.969  -0.625   1.487  1.00  0.00    -0.355 N 
ATOM      4  C   UNL     1      -1.301  -1.776   1.136  1.00  0.00     0.230 C 
ATOM      5  O   UNL     1      -1.913  -2.815   1.398  1.00  0.00    -0.274 OA
ATOM      6  H   UNL     1      -2.939  -0.740   1.609  1.00  0.00     0.163 HD
BRANCH   4   7
ATOM      7  C   UNL     1       0.081  -1.745   0.395  1.00  0.00     0.080 C 
ATOM      8  C   UNL     1      -0.178  -0.814  -0.827  1.00  0.00     0.027 C 
BRANCH   7   9
ATOM      9  C   UNL     1       1.246  -1.452   1.400  1.00  0.00     0.121 C 
BRANCH   9  10
ATOM     10  C   UNL     1       1.178  -0.384   2.469  1.00  0.00     0.225 C 
ATOM     11  O   UNL     1       0.605  -0.616   3.539  1.00  0.00    -0.275 OA
ATOM     12  N   UNL     1       1.786   0.835   2.349  1.00  0.00    -0.326 N 
ATOM     13  H   UNL     1       1.781   1.351   3.188  1.00  0.00     0.169 HD
BRANCH  12  14
ATOM     14  C   UNL     1       2.416   1.514   1.292  1.00  0.00     0.041 A 
ATOM     15  C   UNL     1       3.020   2.743   1.569  1.00  0.00     0.028 A 
ATOM     16  C   UNL     1       2.444   1.071  -0.020  1.00  0.00     0.028 A 
ATOM     17  C   UNL     1       3.689   3.457   0.560  1.00  0.00     0.028 A 
ATOM     18  C   UNL     1       3.080   1.785  -1.033  1.00  0.00     0.028 A 
ATOM     19  C   UNL     1       3.768   2.951  -0.738  1.00  0.00     0.041 A 
BRANCH  19  20
ATOM     20  N   UNL     1       4.491   3.517  -1.796  1.00  0.00    -0.319 N 
ATOM     21  C   UNL     1       5.557   4.388  -1.819  1.00  0.00     0.291 C 
ATOM     22  H   UNL     1       4.179   3.241  -2.688  1.00  0.00     0.170 HD
ATOM     23  O   UNL     1       5.897   4.832  -2.918  1.00  0.00    -0.265 OA
BRANCH  21  24
ATOM     24  C   UNL     1       6.271   4.673  -0.599  1.00  0.00     0.191 A 
ATOM     25  C   UNL     1       6.840   3.856   0.364  1.00  0.00     0.056 A 
ATOM     26  O   UNL     1       6.449   5.981  -0.250  1.00  0.00    -0.459 OA
ATOM     27  C   UNL     1       7.341   4.713   1.374  1.00  0.00     0.043 A 
ATOM     28  C   UNL     1       7.082   5.995   0.949  1.00  0.00     0.196 A 
ENDBRANCH  21  24
ENDBRANCH  19  20
ENDBRANCH  12  14
ENDBRANCH   9  10
ENDBRANCH   7   9
BRANCH   7  29
ATOM     29  C   UNL     1       0.583  -3.084  -0.288  1.00  0.00    -0.032 A 
ATOM     30  C   UNL     1       0.018  -4.349  -0.095  1.00  0.00     0.005 A 
ATOM     31  C   UNL     1       1.754  -3.036  -1.097  1.00  0.00     0.005 A 
ATOM     32  C   UNL     1       0.572  -5.492  -0.696  1.00  0.00     0.000 A 
ATOM     33  C   UNL     1       2.305  -4.171  -1.695  1.00  0.00     0.000 A 
ATOM     34  C   UNL     1       1.708  -5.404  -1.495  1.00  0.00     0.000 A 
ENDBRANCH   7  29
ENDBRANCH   4   7
ENDBRANCH   2   3
ENDBRANCH   1   2
BRANCH   1  35
ATOM     35  C   UNL     1      -3.741   2.035   1.712  1.00  0.00     0.002 C 
BRANCH  35  36
ATOM     36  C   UNL     1      -3.847   2.055   3.239  1.00  0.00     0.002 C 
BRANCH  36  37
ATOM     37  C   UNL     1      -2.930   3.021   3.997  1.00  0.00     0.021 C 
BRANCH  37  38
ATOM     38  C   UNL     1      -2.980   4.487   3.580  1.00  0.00     0.116 C 
BRANCH  38  39
ATOM     39  N   UNL     1      -4.305   5.065   3.690  1.00  0.00    -0.352 N 
ATOM     40  C   UNL     1      -4.733   6.209   4.316  1.00  0.00     0.251 C 
ATOM     41  H   UNL     1      -5.016   4.552   3.241  1.00  0.00     0.163 HD
ATOM     42  O   UNL     1      -5.938   6.443   4.378  1.00  0.00    -0.269 OA
BRANCH  40  43
ATOM     43  C   UNL     1      -3.779   7.160   4.934  1.00  0.00     0.039 A 
ATOM     44  C   UNL     1      -4.131   7.749   6.155  1.00  0.00     0.014 A 
ATOM     45  C   UNL     1      -2.589   7.539   4.305  1.00  0.00     0.014 A 
ATOM     46  C   UNL     1      -3.281   8.678   6.761  1.00  0.00     0.010 A 
ATOM     47  C   UNL     1      -1.715   8.428   4.935  1.00  0.00     0.010 A 
ATOM     48  C   UNL     1      -2.057   9.013   6.164  1.00  0.00    -0.014 A 
BRANCH  48  49
ATOM     49  C   UNL     1      -1.143  10.002   6.794  1.00  0.00     0.031 A 
ATOM     50  C   UNL     1      -0.911  11.337   6.141  1.00  0.00     0.074 A 
ATOM     51  C   UNL     1      -0.490   9.689   7.930  1.00  0.00     0.049 A 
ATOM     52  N   UNL     1      -0.086  12.294   6.482  1.00  0.00    -0.248 NA
ATOM     53  C   UNL     1      -1.699  11.625   4.931  1.00  0.00     0.031 C 
ATOM     54  C   UNL     1      -0.606   8.422   8.652  1.00  0.00     0.029 A 
ATOM     55  N   UNL     1       0.410  10.414   8.670  1.00  0.00    -0.354 N 
ATOM     56  C   UNL     1      -0.241  13.288   5.524  1.00  0.00     0.074 A 
ATOM     57  C   UNL     1      -1.214  12.805   4.568  1.00  0.00     0.031 C 
ATOM     58  C   UNL     1       0.188   8.460   9.736  1.00  0.00     0.029 A 
ATOM     59  C   UNL     1       0.886   9.743   9.770  1.00  0.00     0.049 A 
ATOM     60  H   UNL     1       0.689  11.328   8.435  1.00  0.00     0.167 HD
ATOM     61  C   UNL     1       0.359  14.500   5.455  1.00  0.00     0.037 A 
ATOM     62  C   UNL     1       1.787  10.117  10.698  1.00  0.00     0.037 A 
ATOM     63  C   UNL     1       1.306  14.998   6.418  1.00  0.00     0.049 A 
ATOM     64  C   UNL     1       2.414  11.480  10.616  1.00  0.00     0.074 A 
ATOM     65  C   UNL     1       1.966  16.215   6.431  1.00  0.00     0.029 A 
ATOM     66  N   UNL     1       1.713  14.310   7.549  1.00  0.00    -0.354 N 
ATOM     67  N   UNL     1       2.249  12.412   9.709  1.00  0.00    -0.248 NA
ATOM     68  C   UNL     1       3.345  11.849  11.693  1.00  0.00     0.031 C 
ATOM     69  C   UNL     1       2.782  16.259   7.567  1.00  0.00     0.029 A 
ATOM     70  C   UNL     1       2.607  15.080   8.273  1.00  0.00     0.049 A 
ATOM     71  H   UNL     1       1.411  13.407   7.800  1.00  0.00     0.167 HD
ATOM     72  C   UNL     1       3.029  13.484  10.120  1.00  0.00     0.074 A 
ATOM     73  C   UNL     1       3.662  13.093  11.362  1.00  0.00     0.031 C 
ATOM     74  C   UNL     1       3.207  14.685   9.520  1.00  0.00     0.037 A 
BRANCH  61  75
ATOM     75  C   UNL     1      -0.002  15.381   4.297  1.00  0.00     0.057 A 
ATOM     76  C   UNL     1      -1.234  16.045   4.239  1.00  0.00     0.134 A 
ATOM     77  C   UNL     1       0.902  15.598   3.250  1.00  0.00     0.134 A 
ATOM     78  F   UNL     1      -2.147  15.867   5.206  1.00  0.00    -0.206 F 
ATOM     79  C   UNL     1      -1.562  16.881   3.171  1.00  0.00     0.040 A 
ATOM     80  C   UNL     1       0.593  16.448   2.186  1.00  0.00     0.040 A 
ATOM     81  F   UNL     1       2.100  14.995   3.248  1.00  0.00    -0.206 F 
ATOM     82  C   UNL     1      -0.644  17.089   2.143  1.00  0.00     0.006 A 
ENDBRANCH  61  75
BRANCH  62  83
ATOM     83  C   UNL     1       2.139   9.195  11.805  1.00  0.00     0.057 A 
ATOM     84  C   UNL     1       1.696   9.434  13.111  1.00  0.00     0.134 A 
ATOM     85  C   UNL     1       2.943   8.070  11.589  1.00  0.00     0.134 A 
ATOM     86  F   UNL     1       0.941  10.509  13.381  1.00  0.00    -0.206 F 
ATOM     87  C   UNL     1       2.057   8.599  14.169  1.00  0.00     0.040 A 
ATOM     88  C   UNL     1       3.294   7.214  12.634  1.00  0.00     0.040 A 
ATOM     89  F   UNL     1       3.394   7.786  10.359  1.00  0.00    -0.206 F 
ATOM     90  C   UNL     1       2.857   7.483  13.931  1.00  0.00     0.006 A 
ENDBRANCH  62  83
BRANCH  74  91
ATOM     91  C   UNL     1       4.080  15.679  10.223  1.00  0.00     0.057 A 
ATOM     92  C   UNL     1       5.475  15.569  10.215  1.00  0.00     0.134 A 
ATOM     93  C   UNL     1       3.516  16.776  10.886  1.00  0.00     0.134 A 
ATOM     94  F   UNL     1       6.073  14.533   9.607  1.00  0.00    -0.206 F 
ATOM     95  C   UNL     1       6.281  16.509  10.860  1.00  0.00     0.040 A 
ATOM     96  C   UNL     1       4.312  17.731  11.518  1.00  0.00     0.040 A 
ATOM     97  F   UNL     1       2.185  16.938  10.924  1.00  0.00    -0.206 F 
ATOM     98  C   UNL     1       5.699  17.596  11.509  1.00  0.00     0.006 A 
ENDBRANCH  74  91
ENDBRANCH  48  49
ENDBRANCH  40  43
ENDBRANCH  38  39
ENDBRANCH  37  38
ENDBRANCH  36  37
ENDBRANCH  35  36
ENDBRANCH   1  35
TORSDOF 19
