REMARK SMILES Cc1n[nH]c(C(=O)Nc2cc(C(=O)NCCCCCCNC(=O)c3ccc(-c4c5nc(c(-c6c(F)cccc6F)c6ccc([nH]6)c(-c6c(F)cccc6F)c6nc(c(-c7c(F)cccc7F)c7ccc4[nH]7)C=C6)C=C5)cc3)[nH]n2)n1
REMARK SMILES IDX 17 1 16 2 15 3 14 4 12 5 13 6 11 8 9 9 10 10 79 11 78 12
REMARK SMILES IDX 8 14 6 15 7 16 5 18 1 19 2 20 3 21 80 22 4 23 18 25 19 26
REMARK SMILES IDX 20 27 21 28 22 29 23 31 24 32 25 33 77 34 26 35 76 36 27 37
REMARK SMILES IDX 28 38 29 39 70 40 30 41 75 42 69 43 71 44 31 45 74 46 68 47
REMARK SMILES IDX 67 48 32 50 58 51 41 52 57 53 42 54 45 55 56 56 72 57 43 58
REMARK SMILES IDX 44 59 55 61 73 62 46 63 33 64 34 65 39 66 35 67 36 68 38 69
REMARK SMILES IDX 40 70 37 71 59 72 60 73 65 74 61 75 62 76 64 77 66 78 63 79
REMARK SMILES IDX 47 80 48 81 53 82 49 83 50 84 52 85 54 86 51 87
REMARK H PARENT 14 7 78 13 8 17 4 24 21 30 71 49 45 60
REMARK Flexibility Score: inf
ROOT
ATOM      1  C   UNL     1       3.542  -4.605   4.781  1.00  0.00     0.002 C 
ENDROOT
BRANCH   1   2
ATOM      2  C   UNL     1       2.255  -4.763   3.962  1.00  0.00     0.021 C 
BRANCH   2   3
ATOM      3  C   UNL     1       2.484  -4.612   2.460  1.00  0.00     0.116 C 
BRANCH   3   4
ATOM      4  N   UNL     1       3.008  -5.840   1.893  1.00  0.00    -0.351 N 
ATOM      5  C   UNL     1       2.433  -6.813   1.115  1.00  0.00     0.269 C 
ATOM      6  O   UNL     1       3.142  -7.730   0.730  1.00  0.00    -0.268 OA
ATOM      7  H   UNL     1       3.955  -6.007   2.107  1.00  0.00     0.163 HD
BRANCH   5   8
ATOM      8  C   UNL     1       1.063  -6.698   0.687  1.00  0.00     0.125 A 
ATOM      9  C   UNL     1      -0.950  -6.066   0.026  1.00  0.00     0.155 A 
ATOM     10  C   UNL     1      -0.034  -5.970   1.091  1.00  0.00     0.082 A 
ATOM     11  N   UNL     1      -0.618  -7.043  -0.810  1.00  0.00    -0.157 NA
ATOM     12  N   UNL     1       0.599  -7.431  -0.380  1.00  0.00    -0.271 N 
ATOM     13  H   UNL     1       1.107  -8.168  -0.789  1.00  0.00     0.190 HD
BRANCH   9  14
ATOM     14  N   UNL     1      -2.024  -5.257  -0.223  1.00  0.00    -0.302 N 
ATOM     15  C   UNL     1      -2.131  -3.901   0.029  1.00  0.00     0.294 C 
ATOM     16  O   UNL     1      -3.267  -3.431   0.116  1.00  0.00    -0.265 OA
ATOM     17  H   UNL     1      -2.811  -5.689  -0.628  1.00  0.00     0.172 HD
BRANCH  15  18
ATOM     18  C   UNL     1      -0.927  -3.069   0.034  1.00  0.00     0.214 A 
ATOM     19  C   UNL     1       0.831   0.010   0.199  1.00  0.00     0.092 C 
ATOM     20  C   UNL     1       0.385  -1.395   0.093  1.00  0.00     0.148 A 
ATOM     21  N   UNL     1       1.168  -2.362  -0.395  1.00  0.00    -0.159 NA
ATOM     22  N   UNL     1      -0.886  -1.799   0.411  1.00  0.00    -0.207 NA
ATOM     23  N   UNL     1       0.300  -3.380  -0.489  1.00  0.00    -0.255 N 
ATOM     24  H   UNL     1       0.519  -4.253  -0.890  1.00  0.00     0.192 HD
ENDBRANCH  15  18
ENDBRANCH   9  14
ENDBRANCH   5   8
ENDBRANCH   3   4
ENDBRANCH   2   3
ENDBRANCH   1   2
BRANCH   1  25
ATOM     25  C   UNL     1       4.276  -3.266   4.598  1.00  0.00     0.002 C 
BRANCH  25  26
ATOM     26  C   UNL     1       3.424  -2.000   4.773  1.00  0.00     0.021 C 
BRANCH  26  27
ATOM     27  C   UNL     1       2.894  -1.815   6.187  1.00  0.00     0.116 C 
BRANCH  27  28
ATOM     28  N   UNL     1       3.970  -1.567   7.144  1.00  0.00    -0.352 N 
ATOM     29  C   UNL     1       3.887  -1.381   8.505  1.00  0.00     0.251 C 
ATOM     30  H   UNL     1       4.877  -1.527   6.763  1.00  0.00     0.163 HD
ATOM     31  O   UNL     1       4.787  -0.813   9.113  1.00  0.00    -0.269 OA
BRANCH  29  32
ATOM     32  C   UNL     1       2.705  -1.879   9.231  1.00  0.00     0.039 A 
ATOM     33  C   UNL     1       2.162  -1.150  10.293  1.00  0.00     0.014 A 
ATOM     34  C   UNL     1       2.146  -3.096   8.845  1.00  0.00     0.014 A 
ATOM     35  C   UNL     1       1.007  -1.620  10.909  1.00  0.00     0.010 A 
ATOM     36  C   UNL     1       0.937  -3.492   9.362  1.00  0.00     0.010 A 
ATOM     37  C   UNL     1       0.385  -2.781  10.421  1.00  0.00    -0.014 A 
BRANCH  37  38
ATOM     38  C   UNL     1      -0.943  -3.162  10.890  1.00  0.00     0.031 A 
ATOM     39  C   UNL     1      -1.950  -2.078  10.750  1.00  0.00     0.074 A 
ATOM     40  C   UNL     1      -1.287  -4.427  11.215  1.00  0.00     0.049 A 
ATOM     41  N   UNL     1      -2.520  -1.427  11.706  1.00  0.00    -0.248 NA
ATOM     42  C   UNL     1      -2.232  -1.534   9.410  1.00  0.00     0.031 C 
ATOM     43  C   UNL     1      -0.461  -5.635  11.137  1.00  0.00     0.029 A 
ATOM     44  N   UNL     1      -2.499  -4.925  11.589  1.00  0.00    -0.354 N 
ATOM     45  C   UNL     1      -3.420  -0.562  11.093  1.00  0.00     0.074 A 
ATOM     46  C   UNL     1      -3.044  -0.515   9.705  1.00  0.00     0.031 C 
ATOM     47  C   UNL     1      -1.248  -6.730  11.220  1.00  0.00     0.029 A 
ATOM     48  C   UNL     1      -2.610  -6.312  11.502  1.00  0.00     0.049 A 
ATOM     49  H   UNL     1      -3.238  -4.352  11.897  1.00  0.00     0.167 HD
ATOM     50  C   UNL     1      -4.569  -0.208  11.733  1.00  0.00     0.037 A 
ATOM     51  C   UNL     1      -3.741  -7.055  11.626  1.00  0.00     0.037 A 
ATOM     52  C   UNL     1      -4.476  -0.498  13.147  1.00  0.00     0.049 A 
ATOM     53  C   UNL     1      -4.732  -6.219  12.349  1.00  0.00     0.074 A 
ATOM     54  C   UNL     1      -3.588  -0.163  14.153  1.00  0.00     0.029 A 
ATOM     55  N   UNL     1      -5.178  -1.581  13.620  1.00  0.00    -0.354 N 
ATOM     56  N   UNL     1      -4.625  -5.907  13.609  1.00  0.00    -0.248 NA
ATOM     57  C   UNL     1      -5.588  -5.347  11.559  1.00  0.00     0.031 C 
ATOM     58  C   UNL     1      -3.457  -1.347  14.938  1.00  0.00     0.029 A 
ATOM     59  C   UNL     1      -4.338  -2.300  14.429  1.00  0.00     0.049 A 
ATOM     60  H   UNL     1      -6.115  -1.801  13.415  1.00  0.00     0.167 HD
ATOM     61  C   UNL     1      -4.980  -4.569  13.660  1.00  0.00     0.074 A 
ATOM     62  C   UNL     1      -5.660  -4.304  12.392  1.00  0.00     0.031 C 
ATOM     63  C   UNL     1      -4.418  -3.732  14.581  1.00  0.00     0.037 A 
BRANCH  50  64
ATOM     64  C   UNL     1      -5.908  -0.043  11.045  1.00  0.00     0.057 A 
ATOM     65  C   UNL     1      -7.015   0.350  11.822  1.00  0.00     0.134 A 
ATOM     66  C   UNL     1      -6.230  -0.561   9.774  1.00  0.00     0.134 A 
ATOM     67  F   UNL     1      -6.847   0.868  13.048  1.00  0.00    -0.206 F 
ATOM     68  C   UNL     1      -8.336   0.124  11.418  1.00  0.00     0.040 A 
ATOM     69  C   UNL     1      -7.546  -0.742   9.341  1.00  0.00     0.040 A 
ATOM     70  F   UNL     1      -5.309  -1.018   8.920  1.00  0.00    -0.206 F 
ATOM     71  C   UNL     1      -8.604  -0.440  10.179  1.00  0.00     0.006 A 
ENDBRANCH  50  64
BRANCH  51  72
ATOM     72  C   UNL     1      -4.126  -8.337  10.982  1.00  0.00     0.057 A 
ATOM     73  C   UNL     1      -5.287  -9.025  11.378  1.00  0.00     0.134 A 
ATOM     74  C   UNL     1      -3.542  -8.775   9.782  1.00  0.00     0.134 A 
ATOM     75  F   UNL     1      -5.942  -8.674  12.495  1.00  0.00    -0.206 F 
ATOM     76  C   UNL     1      -5.858 -10.045  10.604  1.00  0.00     0.040 A 
ATOM     77  C   UNL     1      -4.096  -9.799   9.004  1.00  0.00     0.040 A 
ATOM     78  F   UNL     1      -2.462  -8.168   9.270  1.00  0.00    -0.206 F 
ATOM     79  C   UNL     1      -5.271 -10.424   9.402  1.00  0.00     0.006 A 
ENDBRANCH  51  72
BRANCH  63  80
ATOM     80  C   UNL     1      -3.634  -4.341  15.709  1.00  0.00     0.057 A 
ATOM     81  C   UNL     1      -2.472  -5.112  15.548  1.00  0.00     0.134 A 
ATOM     82  C   UNL     1      -3.997  -4.014  17.019  1.00  0.00     0.134 A 
ATOM     83  F   UNL     1      -1.984  -5.394  14.334  1.00  0.00    -0.206 F 
ATOM     84  C   UNL     1      -1.738  -5.576  16.644  1.00  0.00     0.040 A 
ATOM     85  C   UNL     1      -3.252  -4.440  18.120  1.00  0.00     0.040 A 
ATOM     86  F   UNL     1      -5.065  -3.233  17.250  1.00  0.00    -0.206 F 
ATOM     87  C   UNL     1      -2.125  -5.235  17.936  1.00  0.00     0.006 A 
ENDBRANCH  63  80
ENDBRANCH  37  38
ENDBRANCH  29  32
ENDBRANCH  27  28
ENDBRANCH  26  27
ENDBRANCH  25  26
ENDBRANCH   1  25
TORSDOF 15
