REMARK SMILES Cc1csc([C@H](C)Nc2cc(C)c(N)c(C(=O)NCCCCCCNC(=O)c3ccc(-c4c5nc(c(-c6c(F)cccc6F)c6ccc([nH]6)c(-c6c(F)cccc6F)c6nc(c(-c7c(F)cccc7F)c7ccc4[nH]7)C=C6)C=C5)cc3)c2)n1
REMARK SMILES IDX 21 1 20 2 19 3 18 4 16 5 17 6 15 8 9 9 10 10 82 11 11 12
REMARK SMILES IDX 12 13 13 14 8 15 6 17 7 18 5 19 1 20 2 21 3 22 83 23 4 24
REMARK SMILES IDX 14 25 22 28 23 29 24 30 25 31 26 32 27 34 28 35 29 36 81 37
REMARK SMILES IDX 30 38 80 39 31 40 32 41 33 42 74 43 34 44 79 45 73 46 75 47
REMARK SMILES IDX 35 48 78 49 72 50 71 51 36 53 62 54 45 55 61 56 46 57 49 58
REMARK SMILES IDX 60 59 76 60 47 61 48 62 59 64 77 65 50 66 37 67 38 68 43 69
REMARK SMILES IDX 39 70 40 71 42 72 44 73 41 74 63 75 64 76 69 77 65 78 66 79
REMARK SMILES IDX 68 80 70 81 67 82 51 83 52 84 57 85 53 86 54 87 56 88 58 89
REMARK SMILES IDX 55 90
REMARK H PARENT 18 7 8 16 14 26 14 27 25 33 75 52 49 63
REMARK Flexibility Score: inf
ROOT
ATOM      1  C   UNL     1      -0.456   1.246   7.274  1.00  0.00     0.002 C 
ENDROOT
BRANCH   1   2
ATOM      2  C   UNL     1      -0.002   1.686   5.874  1.00  0.00     0.021 C 
BRANCH   2   3
ATOM      3  C   UNL     1       0.238   3.196   5.776  1.00  0.00     0.116 C 
BRANCH   3   4
ATOM      4  N   UNL     1       1.543   3.517   6.319  1.00  0.00    -0.352 N 
ATOM      5  C   UNL     1       2.784   3.729   5.773  1.00  0.00     0.253 C 
ATOM      6  O   UNL     1       3.699   3.881   6.590  1.00  0.00    -0.269 OA
ATOM      7  H   UNL     1       1.538   3.602   7.300  1.00  0.00     0.163 HD
BRANCH   5   8
ATOM      8  C   UNL     1       3.072   3.825   4.300  1.00  0.00     0.065 A 
ATOM      9  C   UNL     1       2.411   3.465   1.965  1.00  0.00     0.036 A 
ATOM     10  C   UNL     1       3.538   4.162   1.546  1.00  0.00     0.031 A 
ATOM     11  C   UNL     1       2.221   3.274   3.336  1.00  0.00     0.041 A 
ATOM     12  C   UNL     1       4.483   4.637   2.474  1.00  0.00    -0.025 A 
ATOM     13  C   UNL     1       5.716   5.334   1.963  1.00  0.00     0.046 C 
ATOM     14  C   UNL     1       4.258   4.471   3.861  1.00  0.00     0.047 A 
BRANCH   9  15
ATOM     15  N   UNL     1       1.361   3.131   1.122  1.00  0.00    -0.376 N 
ATOM     16  H   UNL     1       0.444   3.362   1.395  1.00  0.00     0.161 HD
BRANCH  15  17
ATOM     17  C   UNL     1       1.563   2.445  -0.162  1.00  0.00     0.135 C 
ATOM     18  C   UNL     1       0.626   1.226  -0.115  1.00  0.00     0.039 C 
BRANCH  17  19
ATOM     19  C   UNL     1       1.305   3.328  -1.385  1.00  0.00     0.115 A 
ATOM     20  C   UNL     1       1.182   6.636  -2.828  1.00  0.00     0.067 C 
ATOM     21  C   UNL     1       1.111   5.166  -2.631  1.00  0.00     0.049 A 
ATOM     22  C   UNL     1       0.829   4.219  -3.595  1.00  0.00     0.090 A 
ATOM     23  N   UNL     1       1.355   4.649  -1.368  1.00  0.00    -0.244 NA
ATOM     24  S   UNL     1       0.956   2.649  -2.933  1.00  0.00    -0.125 S 
ENDBRANCH  17  19
ENDBRANCH  15  17
ENDBRANCH   9  15
BRANCH  14  25
ATOM     25  N   UNL     1       5.130   5.087   4.770  1.00  0.00    -0.398 N 
ATOM     26  H   UNL     1       5.947   5.530   4.445  1.00  0.00     0.156 HD
ATOM     27  H   UNL     1       4.925   5.076   5.733  1.00  0.00     0.156 HD
ENDBRANCH  14  25
ENDBRANCH   5   8
ENDBRANCH   3   4
ENDBRANCH   2   3
ENDBRANCH   1   2
BRANCH   1  28
ATOM     28  C   UNL     1      -1.786   1.855   7.735  1.00  0.00     0.002 C 
BRANCH  28  29
ATOM     29  C   UNL     1      -2.954   1.639   6.770  1.00  0.00     0.021 C 
BRANCH  29  30
ATOM     30  C   UNL     1      -3.312   0.173   6.555  1.00  0.00     0.116 C 
BRANCH  30  31
ATOM     31  N   UNL     1      -3.800  -0.439   7.782  1.00  0.00    -0.352 N 
ATOM     32  C   UNL     1      -5.010  -1.036   8.028  1.00  0.00     0.251 C 
ATOM     33  H   UNL     1      -3.174  -0.422   8.541  1.00  0.00     0.163 HD
ATOM     34  O   UNL     1      -5.365  -1.274   9.177  1.00  0.00    -0.269 OA
BRANCH  32  35
ATOM     35  C   UNL     1      -5.889  -1.386   6.895  1.00  0.00     0.039 A 
ATOM     36  C   UNL     1      -7.253  -1.096   6.976  1.00  0.00     0.014 A 
ATOM     37  C   UNL     1      -5.363  -2.005   5.757  1.00  0.00     0.014 A 
ATOM     38  C   UNL     1      -8.082  -1.379   5.889  1.00  0.00     0.010 A 
ATOM     39  C   UNL     1      -6.175  -2.216   4.649  1.00  0.00     0.010 A 
ATOM     40  C   UNL     1      -7.543  -1.912   4.707  1.00  0.00    -0.014 A 
BRANCH  40  41
ATOM     41  C   UNL     1      -8.393  -2.164   3.517  1.00  0.00     0.031 A 
ATOM     42  C   UNL     1      -8.576  -3.567   3.008  1.00  0.00     0.074 A 
ATOM     43  C   UNL     1      -8.939  -1.126   2.856  1.00  0.00     0.049 A 
ATOM     44  N   UNL     1      -9.205  -3.983   1.938  1.00  0.00    -0.248 NA
ATOM     45  C   UNL     1      -7.944  -4.642   3.789  1.00  0.00     0.031 C 
ATOM     46  C   UNL     1      -8.798   0.283   3.229  1.00  0.00     0.029 A 
ATOM     47  N   UNL     1      -9.713  -1.094   1.724  1.00  0.00    -0.354 N 
ATOM     48  C   UNL     1      -9.032  -5.361   1.912  1.00  0.00     0.074 A 
ATOM     49  C   UNL     1      -8.194  -5.705   3.039  1.00  0.00     0.031 C 
ATOM     50  C   UNL     1      -9.478   1.040   2.352  1.00  0.00     0.029 A 
ATOM     51  C   UNL     1     -10.066   0.175   1.334  1.00  0.00     0.049 A 
ATOM     52  H   UNL     1      -9.988  -1.903   1.236  1.00  0.00     0.167 HD
ATOM     53  C   UNL     1      -9.546  -6.260   1.039  1.00  0.00     0.037 A 
ATOM     54  C   UNL     1     -10.775   0.595   0.269  1.00  0.00     0.037 A 
ATOM     55  C   UNL     1     -10.396  -5.913  -0.069  1.00  0.00     0.049 A 
ATOM     56  C   UNL     1     -11.319  -0.422  -0.696  1.00  0.00     0.074 A 
ATOM     57  C   UNL     1     -11.014  -6.755  -0.977  1.00  0.00     0.029 A 
ATOM     58  N   UNL     1     -10.744  -4.618  -0.422  1.00  0.00    -0.354 N 
ATOM     59  N   UNL     1     -11.204  -1.728  -0.672  1.00  0.00    -0.248 NA
ATOM     60  C   UNL     1     -12.095   0.092  -1.833  1.00  0.00     0.031 C 
ATOM     61  C   UNL     1     -11.694  -5.966  -1.910  1.00  0.00     0.029 A 
ATOM     62  C   UNL     1     -11.548  -4.636  -1.550  1.00  0.00     0.049 A 
ATOM     63  H   UNL     1     -10.463  -3.806   0.058  1.00  0.00     0.167 HD
ATOM     64  C   UNL     1     -11.918  -2.193  -1.770  1.00  0.00     0.074 A 
ATOM     65  C   UNL     1     -12.472  -1.030  -2.430  1.00  0.00     0.031 C 
ATOM     66  C   UNL     1     -12.099  -3.469  -2.191  1.00  0.00     0.037 A 
BRANCH  53  67
ATOM     67  C   UNL     1      -9.200  -7.706   1.249  1.00  0.00     0.057 A 
ATOM     68  C   UNL     1      -9.697  -8.435   2.338  1.00  0.00     0.134 A 
ATOM     69  C   UNL     1      -8.389  -8.389   0.334  1.00  0.00     0.134 A 
ATOM     70  F   UNL     1     -10.471  -7.840   3.259  1.00  0.00    -0.206 F 
ATOM     71  C   UNL     1      -9.378  -9.782   2.524  1.00  0.00     0.040 A 
ATOM     72  C   UNL     1      -8.087  -9.742   0.492  1.00  0.00     0.040 A 
ATOM     73  F   UNL     1      -7.885  -7.754  -0.735  1.00  0.00    -0.206 F 
ATOM     74  C   UNL     1      -8.576 -10.441   1.594  1.00  0.00     0.006 A 
ENDBRANCH  53  67
BRANCH  54  75
ATOM     75  C   UNL     1     -11.024   2.045   0.066  1.00  0.00     0.057 A 
ATOM     76  C   UNL     1     -12.309   2.583   0.207  1.00  0.00     0.134 A 
ATOM     77  C   UNL     1      -9.992   2.924  -0.280  1.00  0.00     0.134 A 
ATOM     78  F   UNL     1     -13.343   1.789   0.520  1.00  0.00    -0.206 F 
ATOM     79  C   UNL     1     -12.562   3.939  -0.010  1.00  0.00     0.040 A 
ATOM     80  C   UNL     1     -10.225   4.287  -0.473  1.00  0.00     0.040 A 
ATOM     81  F   UNL     1      -8.736   2.474  -0.422  1.00  0.00    -0.206 F 
ATOM     82  C   UNL     1     -11.516   4.796  -0.347  1.00  0.00     0.006 A 
ENDBRANCH  54  75
BRANCH  66  83
ATOM     83  C   UNL     1     -12.963  -3.679  -3.400  1.00  0.00     0.057 A 
ATOM     84  C   UNL     1     -12.534  -3.335  -4.688  1.00  0.00     0.134 A 
ATOM     85  C   UNL     1     -14.223  -4.280  -3.277  1.00  0.00     0.134 A 
ATOM     86  F   UNL     1     -11.344  -2.744  -4.873  1.00  0.00    -0.206 F 
ATOM     87  C   UNL     1     -13.336  -3.562  -5.808  1.00  0.00     0.040 A 
ATOM     88  C   UNL     1     -15.020  -4.540  -4.391  1.00  0.00     0.040 A 
ATOM     89  F   UNL     1     -14.690  -4.643  -2.072  1.00  0.00    -0.206 F 
ATOM     90  C   UNL     1     -14.579  -4.175  -5.662  1.00  0.00     0.006 A 
ENDBRANCH  66  83
ENDBRANCH  40  41
ENDBRANCH  32  35
ENDBRANCH  30  31
ENDBRANCH  29  30
ENDBRANCH  28  29
ENDBRANCH   1  28
TORSDOF 17
