REMARK SMILES Cc1sc(C(=O)NCCCCCCNC(=O)c2ccc(-c3c4nc(c(-c5c(F)cccc5F)c5ccc([nH]5)c(-c5c(F)cccc5F)c5nc(c(-c6c(F)cccc6F)c6ccc3[nH]6)C=C5)C=C4)cc2)cc1Br
REMARK SMILES IDX 11 1 10 2 9 3 8 4 7 5 5 6 6 7 4 9 1 10 2 11 3 12 72 13 71 14
REMARK SMILES IDX 73 15 12 16 13 17 14 18 15 19 16 21 17 22 18 23 70 24 19 25
REMARK SMILES IDX 69 26 20 27 21 28 22 29 63 30 23 31 68 32 62 33 64 34 24 35
REMARK SMILES IDX 67 36 61 37 60 38 25 40 51 41 34 42 50 43 35 44 38 45 49 46
REMARK SMILES IDX 65 47 36 48 37 49 48 51 66 52 39 53 26 54 27 55 32 56 28 57
REMARK SMILES IDX 29 58 31 59 33 60 30 61 52 62 53 63 58 64 54 65 55 66 57 67
REMARK SMILES IDX 59 68 56 69 40 70 41 71 46 72 42 73 43 74 45 75 47 76 44 77
REMARK H PARENT 7 8 14 20 64 39 38 50
REMARK Flexibility Score: inf
ROOT
ATOM      1  C   UNL     1      -1.297   7.403   0.066  1.00  0.00     0.002 C 
ENDROOT
BRANCH   1   2
ATOM      2  C   UNL     1      -1.585   6.392  -1.053  1.00  0.00     0.002 C 
BRANCH   2   3
ATOM      3  C   UNL     1      -0.852   5.047  -0.928  1.00  0.00     0.021 C 
BRANCH   3   4
ATOM      4  C   UNL     1      -1.218   4.265   0.334  1.00  0.00     0.116 C 
BRANCH   4   5
ATOM      5  N   UNL     1      -2.504   3.618   0.178  1.00  0.00    -0.351 N 
ATOM      6  C   UNL     1      -2.881   2.310   0.001  1.00  0.00     0.261 C 
ATOM      7  O   UNL     1      -4.102   2.134  -0.058  1.00  0.00    -0.268 OA
ATOM      8  H   UNL     1      -3.263   4.245   0.205  1.00  0.00     0.163 HD
BRANCH   6   9
ATOM      9  C   UNL     1      -1.913   1.222  -0.086  1.00  0.00     0.093 A 
ATOM     10  C   UNL     1      -0.840  -2.576   0.111  1.00  0.00     0.057 C 
ATOM     11  C   UNL     1      -0.969  -1.096  -0.012  1.00  0.00     0.016 A 
ATOM     12  S   UNL     1      -2.504  -0.375   0.213  1.00  0.00    -0.134 S 
ATOM     13  C   UNL     1      -0.031  -0.140  -0.314  1.00  0.00     0.032 A 
ATOM     14  C   UNL     1      -0.568   1.174  -0.406  1.00  0.00     0.041 A 
ATOM     15  Br  UNL     1       1.809  -0.449  -0.624  1.00  0.00    -0.050 Br
ENDBRANCH   6   9
ENDBRANCH   4   5
ENDBRANCH   3   4
ENDBRANCH   2   3
ENDBRANCH   1   2
BRANCH   1  16
ATOM     16  C   UNL     1       0.185   7.697   0.315  1.00  0.00     0.021 C 
BRANCH  16  17
ATOM     17  C   UNL     1       0.926   8.289  -0.880  1.00  0.00     0.116 C 
BRANCH  17  18
ATOM     18  N   UNL     1       0.437   9.616  -1.220  1.00  0.00    -0.352 N 
ATOM     19  C   UNL     1       1.130  10.793  -1.354  1.00  0.00     0.251 C 
ATOM     20  H   UNL     1      -0.533   9.679  -1.377  1.00  0.00     0.163 HD
ATOM     21  O   UNL     1       0.526  11.856  -1.448  1.00  0.00    -0.269 OA
BRANCH  19  22
ATOM     22  C   UNL     1       2.609  10.784  -1.372  1.00  0.00     0.039 A 
ATOM     23  C   UNL     1       3.298  11.747  -0.628  1.00  0.00     0.014 A 
ATOM     24  C   UNL     1       3.314   9.851  -2.138  1.00  0.00     0.014 A 
ATOM     25  C   UNL     1       4.695  11.740  -0.610  1.00  0.00     0.010 A 
ATOM     26  C   UNL     1       4.705   9.806  -2.068  1.00  0.00     0.010 A 
ATOM     27  C   UNL     1       5.409  10.752  -1.307  1.00  0.00    -0.014 A 
BRANCH  27  28
ATOM     28  C   UNL     1       6.891  10.694  -1.256  1.00  0.00     0.031 A 
ATOM     29  C   UNL     1       7.701  10.936  -2.500  1.00  0.00     0.074 A 
ATOM     30  C   UNL     1       7.505  10.360  -0.105  1.00  0.00     0.049 A 
ATOM     31  N   UNL     1       8.996  10.856  -2.672  1.00  0.00    -0.248 NA
ATOM     32  C   UNL     1       6.954  11.290  -3.717  1.00  0.00     0.031 C 
ATOM     33  C   UNL     1       6.830  10.060   1.159  1.00  0.00     0.029 A 
ATOM     34  N   UNL     1       8.838  10.205   0.185  1.00  0.00    -0.354 N 
ATOM     35  C   UNL     1       9.216  11.130  -4.016  1.00  0.00     0.074 A 
ATOM     36  C   UNL     1       7.920  11.335  -4.624  1.00  0.00     0.031 C 
ATOM     37  C   UNL     1       7.752   9.777   2.093  1.00  0.00     0.029 A 
ATOM     38  C   UNL     1       9.079   9.840   1.487  1.00  0.00     0.049 A 
ATOM     39  H   UNL     1       9.553  10.342  -0.477  1.00  0.00     0.167 HD
ATOM     40  C   UNL     1      10.394  11.221  -4.678  1.00  0.00     0.037 A 
ATOM     41  C   UNL     1      10.239   9.579   2.119  1.00  0.00     0.037 A 
ATOM     42  C   UNL     1      11.685  11.049  -4.065  1.00  0.00     0.049 A 
ATOM     43  C   UNL     1      11.531   9.690   1.361  1.00  0.00     0.074 A 
ATOM     44  C   UNL     1      12.937  11.189  -4.638  1.00  0.00     0.029 A 
ATOM     45  N   UNL     1      11.888  10.700  -2.739  1.00  0.00    -0.354 N 
ATOM     46  N   UNL     1      11.728  10.014   0.106  1.00  0.00    -0.248 NA
ATOM     47  C   UNL     1      12.764   9.403   2.108  1.00  0.00     0.031 C 
ATOM     48  C   UNL     1      13.898  10.886  -3.668  1.00  0.00     0.029 A 
ATOM     49  C   UNL     1      13.245  10.600  -2.480  1.00  0.00     0.049 A 
ATOM     50  H   UNL     1      11.174  10.546  -2.079  1.00  0.00     0.167 HD
ATOM     51  C   UNL     1      13.105   9.999  -0.079  1.00  0.00     0.074 A 
ATOM     52  C   UNL     1      13.695   9.645   1.195  1.00  0.00     0.031 C 
ATOM     53  C   UNL     1      13.816  10.256  -1.203  1.00  0.00     0.037 A 
BRANCH  40  54
ATOM     54  C   UNL     1      10.342  11.526  -6.147  1.00  0.00     0.057 A 
ATOM     55  C   UNL     1       9.984  12.794  -6.625  1.00  0.00     0.134 A 
ATOM     56  C   UNL     1      10.693  10.555  -7.092  1.00  0.00     0.134 A 
ATOM     57  F   UNL     1       9.626  13.765  -5.772  1.00  0.00    -0.206 F 
ATOM     58  C   UNL     1       9.955  13.077  -7.991  1.00  0.00     0.040 A 
ATOM     59  C   UNL     1      10.692  10.833  -8.460  1.00  0.00     0.040 A 
ATOM     60  F   UNL     1      11.051   9.322  -6.702  1.00  0.00    -0.206 F 
ATOM     61  C   UNL     1      10.317  12.097  -8.913  1.00  0.00     0.006 A 
ENDBRANCH  40  54
BRANCH  41  62
ATOM     62  C   UNL     1      10.236   9.210   3.557  1.00  0.00     0.057 A 
ATOM     63  C   UNL     1      10.723  10.094   4.527  1.00  0.00     0.134 A 
ATOM     64  C   UNL     1       9.763   7.968   3.994  1.00  0.00     0.134 A 
ATOM     65  F   UNL     1      11.207  11.291   4.166  1.00  0.00    -0.206 F 
ATOM     66  C   UNL     1      10.758   9.749   5.879  1.00  0.00     0.040 A 
ATOM     67  C   UNL     1       9.770   7.619   5.346  1.00  0.00     0.040 A 
ATOM     68  F   UNL     1       9.277   7.080   3.115  1.00  0.00    -0.206 F 
ATOM     69  C   UNL     1      10.276   8.508   6.292  1.00  0.00     0.006 A 
ENDBRANCH  41  62
BRANCH  53  70
ATOM     70  C   UNL     1      15.311  10.200  -1.097  1.00  0.00     0.057 A 
ATOM     71  C   UNL     1      15.999   8.986  -0.988  1.00  0.00     0.134 A 
ATOM     72  C   UNL     1      16.072  11.375  -1.140  1.00  0.00     0.134 A 
ATOM     73  F   UNL     1      15.326   7.826  -0.927  1.00  0.00    -0.206 F 
ATOM     74  C   UNL     1      17.391   8.943  -0.907  1.00  0.00     0.040 A 
ATOM     75  C   UNL     1      17.465  11.344  -1.084  1.00  0.00     0.040 A 
ATOM     76  F   UNL     1      15.474  12.571  -1.251  1.00  0.00    -0.206 F 
ATOM     77  C   UNL     1      18.129  10.124  -0.962  1.00  0.00     0.006 A 
ENDBRANCH  53  70
ENDBRANCH  27  28
ENDBRANCH  19  22
ENDBRANCH  17  18
ENDBRANCH  16  17
ENDBRANCH   1  16
TORSDOF 13
