REMARK SMILES Cc1ccccc1CNc1ccc(C(=O)NCCCCCCNC(=O)c2ccc(-c3c4nc(c(-c5c(F)cccc5F)c5ccc([nH]5)c(-c5c(F)cccc5F)c5nc(c(-c6c(F)cccc6F)c6ccc3[nH]6)C=C5)C=C4)cc2)c(F)c1F
REMARK SMILES IDX 19 1 18 2 17 3 16 4 14 5 15 6 13 8 10 9 11 10 82 11 12 12
REMARK SMILES IDX 80 13 83 14 81 15 9 16 8 18 7 19 1 20 2 21 3 22 4 23 6 24
REMARK SMILES IDX 5 25 20 26 21 27 22 28 23 29 24 30 25 32 26 33 27 34 79 35
REMARK SMILES IDX 28 36 78 37 29 38 30 39 31 40 72 41 32 42 77 43 71 44 73 45
REMARK SMILES IDX 33 46 76 47 70 48 69 49 34 51 60 52 43 53 59 54 44 55 47 56
REMARK SMILES IDX 58 57 74 58 45 59 46 60 57 62 75 63 48 64 35 65 36 66 41 67
REMARK SMILES IDX 37 68 38 69 40 70 42 71 39 72 61 73 62 74 67 75 63 76 64 77
REMARK SMILES IDX 66 78 68 79 65 80 49 81 50 82 55 83 51 84 52 85 54 86 56 87
REMARK SMILES IDX 53 88
REMARK H PARENT 16 7 9 17 23 31 73 50 47 61
REMARK Flexibility Score: inf
ROOT
ATOM      1  C   UNL     1       0.109  11.915   1.260  1.00  0.00     0.002 C 
ENDROOT
BRANCH   1   2
ATOM      2  C   UNL     1       0.820  10.716   0.627  1.00  0.00     0.021 C 
BRANCH   2   3
ATOM      3  C   UNL     1       0.116   9.364   0.679  1.00  0.00     0.116 C 
BRANCH   3   4
ATOM      4  N   UNL     1      -1.182   9.322   0.040  1.00  0.00    -0.352 N 
ATOM      5  C   UNL     1      -1.837   8.274  -0.572  1.00  0.00     0.254 C 
ATOM      6  O   UNL     1      -2.977   8.460  -0.988  1.00  0.00    -0.269 OA
ATOM      7  H   UNL     1      -1.674  10.175   0.042  1.00  0.00     0.163 HD
BRANCH   5   8
ATOM      8  C   UNL     1      -1.205   6.940  -0.726  1.00  0.00     0.078 A 
ATOM      9  C   UNL     1      -0.038   4.371  -1.061  1.00  0.00     0.074 A 
ATOM     10  C   UNL     1       0.189   5.123   0.092  1.00  0.00     0.030 A 
ATOM     11  C   UNL     1      -0.866   4.941  -2.044  1.00  0.00     0.182 A 
ATOM     12  C   UNL     1      -0.421   6.368   0.279  1.00  0.00     0.019 A 
ATOM     13  C   UNL     1      -1.440   6.203  -1.886  1.00  0.00     0.173 A 
ATOM     14  F   UNL     1      -1.124   4.240  -3.162  1.00  0.00    -0.201 F 
ATOM     15  F   UNL     1      -2.206   6.687  -2.875  1.00  0.00    -0.203 F 
BRANCH   9  16
ATOM     16  N   UNL     1       0.486   3.106  -1.250  1.00  0.00    -0.379 N 
ATOM     17  H   UNL     1       0.468   2.744  -2.165  1.00  0.00     0.161 HD
BRANCH  16  18
ATOM     18  C   UNL     1       1.062   2.266  -0.214  1.00  0.00     0.149 C 
BRANCH  18  19
ATOM     19  C   UNL     1       0.357   0.926  -0.163  1.00  0.00    -0.026 A 
ATOM     20  C   UNL     1       2.534  -0.449  -0.072  1.00  0.00     0.044 C 
ATOM     21  C   UNL     1       1.036  -0.306  -0.072  1.00  0.00    -0.046 A 
ATOM     22  C   UNL     1       0.285  -1.495  -0.004  1.00  0.00     0.004 A 
ATOM     23  C   UNL     1      -1.110  -1.474   0.013  1.00  0.00     0.000 A 
ATOM     24  C   UNL     1      -1.056   0.924  -0.119  1.00  0.00     0.006 A 
ATOM     25  C   UNL     1      -1.782  -0.262  -0.038  1.00  0.00     0.000 A 
ENDBRANCH  18  19
ENDBRANCH  16  18
ENDBRANCH   9  16
ENDBRANCH   5   8
ENDBRANCH   3   4
ENDBRANCH   2   3
ENDBRANCH   1   2
BRANCH   1  26
ATOM     26  C   UNL     1      -0.452  11.762   2.681  1.00  0.00     0.002 C 
BRANCH  26  27
ATOM     27  C   UNL     1       0.448  11.116   3.732  1.00  0.00     0.021 C 
BRANCH  27  28
ATOM     28  C   UNL     1       1.744  11.852   4.032  1.00  0.00     0.116 C 
BRANCH  28  29
ATOM     29  N   UNL     1       1.655  12.832   5.102  1.00  0.00    -0.352 N 
ATOM     30  C   UNL     1       2.629  13.671   5.622  1.00  0.00     0.251 C 
ATOM     31  H   UNL     1       0.768  12.913   5.521  1.00  0.00     0.163 HD
ATOM     32  O   UNL     1       2.364  14.378   6.581  1.00  0.00    -0.269 OA
BRANCH  30  33
ATOM     33  C   UNL     1       3.936  13.829   4.925  1.00  0.00     0.039 A 
ATOM     34  C   UNL     1       4.465  15.124   4.837  1.00  0.00     0.014 A 
ATOM     35  C   UNL     1       4.517  12.799   4.193  1.00  0.00     0.014 A 
ATOM     36  C   UNL     1       5.368  15.430   3.821  1.00  0.00     0.010 A 
ATOM     37  C   UNL     1       5.328  13.112   3.124  1.00  0.00     0.010 A 
ATOM     38  C   UNL     1       5.690  14.441   2.896  1.00  0.00    -0.014 A 
BRANCH  38  39
ATOM     39  C   UNL     1       6.290  14.718   1.601  1.00  0.00     0.031 A 
ATOM     40  C   UNL     1       7.715  14.435   1.359  1.00  0.00     0.074 A 
ATOM     41  C   UNL     1       5.500  15.153   0.594  1.00  0.00     0.049 A 
ATOM     42  N   UNL     1       8.419  15.030   0.459  1.00  0.00    -0.248 NA
ATOM     43  C   UNL     1       8.476  13.468   2.143  1.00  0.00     0.031 C 
ATOM     44  C   UNL     1       5.832  15.229  -0.825  1.00  0.00     0.029 A 
ATOM     45  N   UNL     1       4.270  15.816   0.701  1.00  0.00    -0.354 N 
ATOM     46  C   UNL     1       9.619  14.368   0.361  1.00  0.00     0.074 A 
ATOM     47  C   UNL     1       9.630  13.438   1.468  1.00  0.00     0.031 C 
ATOM     48  C   UNL     1       5.015  16.117  -1.413  1.00  0.00     0.029 A 
ATOM     49  C   UNL     1       4.231  16.742  -0.362  1.00  0.00     0.049 A 
ATOM     50  H   UNL     1       3.574  15.665   1.381  1.00  0.00     0.167 HD
ATOM     51  C   UNL     1      10.418  14.586  -0.720  1.00  0.00     0.037 A 
ATOM     52  C   UNL     1       4.165  18.085  -0.132  1.00  0.00     0.037 A 
ATOM     53  C   UNL     1       9.827  15.564  -1.626  1.00  0.00     0.049 A 
ATOM     54  C   UNL     1       5.328  18.860  -0.704  1.00  0.00     0.074 A 
ATOM     55  C   UNL     1       9.048  15.428  -2.764  1.00  0.00     0.029 A 
ATOM     56  N   UNL     1       9.719  16.890  -1.230  1.00  0.00    -0.354 N 
ATOM     57  N   UNL     1       6.470  18.320  -1.029  1.00  0.00    -0.248 NA
ATOM     58  C   UNL     1       5.306  20.299  -0.945  1.00  0.00     0.031 C 
ATOM     59  C   UNL     1       8.435  16.676  -3.030  1.00  0.00     0.029 A 
ATOM     60  C   UNL     1       8.860  17.574  -2.067  1.00  0.00     0.049 A 
ATOM     61  H   UNL     1      10.189  17.288  -0.462  1.00  0.00     0.167 HD
ATOM     62  C   UNL     1       7.324  19.290  -1.494  1.00  0.00     0.074 A 
ATOM     63  C   UNL     1       6.539  20.508  -1.439  1.00  0.00     0.031 C 
ATOM     64  C   UNL     1       8.603  18.993  -1.874  1.00  0.00     0.037 A 
BRANCH  51  65
ATOM     65  C   UNL     1      11.579  13.697  -1.081  1.00  0.00     0.057 A 
ATOM     66  C   UNL     1      11.880  13.401  -2.424  1.00  0.00     0.134 A 
ATOM     67  C   UNL     1      12.415  13.074  -0.140  1.00  0.00     0.134 A 
ATOM     68  F   UNL     1      11.231  13.983  -3.439  1.00  0.00    -0.206 F 
ATOM     69  C   UNL     1      12.863  12.475  -2.796  1.00  0.00     0.040 A 
ATOM     70  C   UNL     1      13.368  12.108  -0.495  1.00  0.00     0.040 A 
ATOM     71  F   UNL     1      12.366  13.402   1.159  1.00  0.00    -0.206 F 
ATOM     72  C   UNL     1      13.586  11.795  -1.829  1.00  0.00     0.006 A 
ENDBRANCH  51  65
BRANCH  52  73
ATOM     73  C   UNL     1       3.427  18.426   1.112  1.00  0.00     0.057 A 
ATOM     74  C   UNL     1       2.050  18.141   1.170  1.00  0.00     0.134 A 
ATOM     75  C   UNL     1       4.087  18.624   2.327  1.00  0.00     0.134 A 
ATOM     76  F   UNL     1       1.357  17.939   0.037  1.00  0.00    -0.206 F 
ATOM     77  C   UNL     1       1.388  17.937   2.383  1.00  0.00     0.040 A 
ATOM     78  C   UNL     1       3.429  18.436   3.549  1.00  0.00     0.040 A 
ATOM     79  F   UNL     1       5.403  18.880   2.356  1.00  0.00    -0.206 F 
ATOM     80  C   UNL     1       2.089  18.049   3.579  1.00  0.00     0.006 A 
ENDBRANCH  52  73
BRANCH  64  81
ATOM     81  C   UNL     1       9.719  19.968  -2.184  1.00  0.00     0.057 A 
ATOM     82  C   UNL     1       9.794  21.278  -1.692  1.00  0.00     0.134 A 
ATOM     83  C   UNL     1      10.869  19.535  -2.891  1.00  0.00     0.134 A 
ATOM     84  F   UNL     1       8.833  21.797  -0.918  1.00  0.00    -0.206 F 
ATOM     85  C   UNL     1      10.903  22.107  -1.921  1.00  0.00     0.040 A 
ATOM     86  C   UNL     1      12.002  20.332  -3.075  1.00  0.00     0.040 A 
ATOM     87  F   UNL     1      10.958  18.303  -3.416  1.00  0.00    -0.206 F 
ATOM     88  C   UNL     1      12.018  21.631  -2.599  1.00  0.00     0.006 A 
ENDBRANCH  64  81
ENDBRANCH  38  39
ENDBRANCH  30  33
ENDBRANCH  28  29
ENDBRANCH  27  28
ENDBRANCH  26  27
ENDBRANCH   1  26
TORSDOF 16
