REMARK SMILES [NH3+][C@H](CS[C@@H]1CC(=O)N(c2ccc3ccccc3c2)C1=O)C(=O)NCCCCCCNC(=O)c1ccc(-c2c3nc(c(-c4c(F)cccc4F)c4ccc([nH]4)c(-c4c(F)cccc4F)c4nc(c(-c5c(F)cccc5F)c5ccc2[nH]5)C=C4)C=C3)cc1
REMARK SMILES IDX 26 1 25 2 24 3 22 4 23 5 2 7 1 8 3 12 4 13 5 14 6 15 20 16
REMARK SMILES IDX 7 17 9 18 21 19 8 20 10 21 11 22 19 23 12 24 18 25 13 26
REMARK SMILES IDX 17 27 14 28 16 29 15 30 27 31 28 32 29 33 30 34 31 35 32 36
REMARK SMILES IDX 33 38 34 39 35 40 87 41 36 42 86 43 37 44 38 45 39 46 80 47
REMARK SMILES IDX 40 48 85 49 79 50 81 51 41 52 84 53 78 54 77 55 42 57 68 58
REMARK SMILES IDX 51 59 67 60 52 61 55 62 66 63 82 64 53 65 54 66 65 68 83 69
REMARK SMILES IDX 56 70 43 71 44 72 49 73 45 74 46 75 48 76 50 77 47 78 69 79
REMARK SMILES IDX 70 80 75 81 71 82 72 83 74 84 76 85 73 86 57 87 58 88 63 89
REMARK SMILES IDX 59 90 60 91 62 92 64 93 61 94
REMARK H PARENT 24 6 1 9 1 10 1 11 31 37 81 56 55 67
REMARK Flexibility Score: inf
ROOT
ATOM      1  C   UNL     1      -1.000  -2.369   2.541  1.00  0.00     0.021 C 
ENDROOT
BRANCH   1   2
ATOM      2  C   UNL     1      -0.171  -2.973   1.397  1.00  0.00     0.116 C 
BRANCH   2   3
ATOM      3  N   UNL     1      -0.718  -2.827   0.056  1.00  0.00    -0.351 N 
ATOM      4  C   UNL     1      -0.270  -2.225  -1.085  1.00  0.00     0.279 C 
ATOM      5  O   UNL     1      -0.962  -2.369  -2.099  1.00  0.00    -0.268 OA
ATOM      6  H   UNL     1      -1.599  -3.253  -0.051  1.00  0.00     0.163 HD
BRANCH   4   7
ATOM      7  C   UNL     1       0.970  -1.330  -1.141  1.00  0.00     0.280 C 
BRANCH   7   8
ATOM      8  N   UNL     1       2.184  -2.061  -0.722  1.00  0.00    -0.347 N 
ATOM      9  H   UNL     1       2.185  -2.990  -1.145  1.00  0.00     0.345 HD
ATOM     10  H   UNL     1       2.194  -2.151   0.294  1.00  0.00     0.345 HD
ATOM     11  H   UNL     1       3.012  -1.548  -1.027  1.00  0.00     0.345 HD
ENDBRANCH   7   8
BRANCH   7  12
ATOM     12  C   UNL     1       0.767   0.108  -0.610  1.00  0.00     0.145 C 
BRANCH  12  13
ATOM     13  S   UNL     1      -0.077   0.401   0.967  1.00  0.00    -0.141 SA
BRANCH  13  14
ATOM     14  C   UNL     1      -1.907   0.558   0.653  1.00  0.00     0.146 C 
ATOM     15  C   UNL     1      -2.801  -0.250  -0.277  1.00  0.00     0.125 C 
ATOM     16  C   UNL     1      -2.196   1.960   0.227  1.00  0.00     0.247 C 
ATOM     17  C   UNL     1      -3.164   0.671  -1.389  1.00  0.00     0.235 C 
ATOM     18  N   UNL     1      -2.754   1.919  -1.032  1.00  0.00    -0.250 N 
ATOM     19  O   UNL     1      -2.012   2.937   0.942  1.00  0.00    -0.273 OA
ATOM     20  O   UNL     1      -3.779   0.316  -2.391  1.00  0.00    -0.274 OA
BRANCH  18  21
ATOM     21  C   UNL     1      -2.969   3.091  -1.765  1.00  0.00     0.052 A 
ATOM     22  C   UNL     1      -4.157   3.337  -2.453  1.00  0.00     0.027 A 
ATOM     23  C   UNL     1      -1.963   4.058  -1.727  1.00  0.00     0.035 A 
ATOM     24  C   UNL     1      -4.374   4.603  -3.002  1.00  0.00     0.011 A 
ATOM     25  C   UNL     1      -2.154   5.305  -2.293  1.00  0.00    -0.016 A 
ATOM     26  C   UNL     1      -3.387   5.604  -2.911  1.00  0.00    -0.018 A 
ATOM     27  C   UNL     1      -1.136   6.257  -2.213  1.00  0.00     0.009 A 
ATOM     28  C   UNL     1      -3.580   6.901  -3.401  1.00  0.00     0.009 A 
ATOM     29  C   UNL     1      -1.341   7.534  -2.716  1.00  0.00     0.001 A 
ATOM     30  C   UNL     1      -2.565   7.858  -3.298  1.00  0.00     0.001 A 
ENDBRANCH  18  21
ENDBRANCH  13  14
ENDBRANCH  12  13
ENDBRANCH   7  12
ENDBRANCH   4   7
ENDBRANCH   2   3
ENDBRANCH   1   2
BRANCH   1  31
ATOM     31  C   UNL     1      -2.523  -2.412   2.417  1.00  0.00     0.002 C 
BRANCH  31  32
ATOM     32  C   UNL     1      -3.161  -3.776   2.623  1.00  0.00     0.002 C 
BRANCH  32  33
ATOM     33  C   UNL     1      -2.719  -4.475   3.901  1.00  0.00     0.021 C 
BRANCH  33  34
ATOM     34  C   UNL     1      -2.822  -3.614   5.153  1.00  0.00     0.116 C 
BRANCH  34  35
ATOM     35  N   UNL     1      -4.200  -3.336   5.522  1.00  0.00    -0.352 N 
ATOM     36  C   UNL     1      -4.827  -3.631   6.708  1.00  0.00     0.251 C 
ATOM     37  H   UNL     1      -4.749  -2.883   4.842  1.00  0.00     0.163 HD
ATOM     38  O   UNL     1      -6.040  -3.518   6.831  1.00  0.00    -0.269 OA
BRANCH  36  39
ATOM     39  C   UNL     1      -4.001  -4.123   7.828  1.00  0.00     0.039 A 
ATOM     40  C   UNL     1      -4.343  -5.326   8.444  1.00  0.00     0.014 A 
ATOM     41  C   UNL     1      -2.842  -3.433   8.198  1.00  0.00     0.014 A 
ATOM     42  C   UNL     1      -3.486  -5.867   9.401  1.00  0.00     0.010 A 
ATOM     43  C   UNL     1      -1.946  -4.022   9.081  1.00  0.00     0.010 A 
ATOM     44  C   UNL     1      -2.265  -5.239   9.702  1.00  0.00    -0.014 A 
BRANCH  44  45
ATOM     45  C   UNL     1      -1.319  -5.845  10.671  1.00  0.00     0.031 A 
ATOM     46  C   UNL     1      -0.981  -5.127  11.948  1.00  0.00     0.074 A 
ATOM     47  C   UNL     1      -0.740  -7.028  10.386  1.00  0.00     0.049 A 
ATOM     48  N   UNL     1      -0.204  -5.508  12.930  1.00  0.00    -0.248 NA
ATOM     49  C   UNL     1      -1.571  -3.792  12.135  1.00  0.00     0.031 C 
ATOM     50  C   UNL     1      -0.942  -7.795   9.155  1.00  0.00     0.029 A 
ATOM     51  N   UNL     1       0.129  -7.797  11.118  1.00  0.00    -0.354 N 
ATOM     52  C   UNL     1      -0.203  -4.458  13.839  1.00  0.00     0.074 A 
ATOM     53  C   UNL     1      -1.002  -3.399  13.264  1.00  0.00     0.031 C 
ATOM     54  C   UNL     1      -0.260  -8.948   9.240  1.00  0.00     0.029 A 
ATOM     55  C   UNL     1       0.455  -8.986  10.512  1.00  0.00     0.049 A 
ATOM     56  H   UNL     1       0.486  -7.523  11.993  1.00  0.00     0.167 HD
ATOM     57  C   UNL     1       0.387  -4.391  15.057  1.00  0.00     0.037 A 
ATOM     58  C   UNL     1       1.233  -9.998  10.941  1.00  0.00     0.037 A 
ATOM     59  C   UNL     1       1.166  -5.456  15.632  1.00  0.00     0.049 A 
ATOM     60  C   UNL     1       1.884  -9.896  12.292  1.00  0.00     0.074 A 
ATOM     61  C   UNL     1       1.745  -5.520  16.887  1.00  0.00     0.029 A 
ATOM     62  N   UNL     1       1.487  -6.639  14.982  1.00  0.00    -0.354 N 
ATOM     63  N   UNL     1       1.800  -8.938  13.183  1.00  0.00    -0.248 NA
ATOM     64  C   UNL     1       2.734 -11.024  12.698  1.00  0.00     0.031 C 
ATOM     65  C   UNL     1       2.469  -6.715  16.973  1.00  0.00     0.029 A 
ATOM     66  C   UNL     1       2.288  -7.424  15.796  1.00  0.00     0.049 A 
ATOM     67  H   UNL     1       1.190  -6.885  14.076  1.00  0.00     0.167 HD
ATOM     68  C   UNL     1       2.560  -9.360  14.268  1.00  0.00     0.074 A 
ATOM     69  C   UNL     1       3.080 -10.668  13.927  1.00  0.00     0.031 C 
ATOM     70  C   UNL     1       2.804  -8.723  15.440  1.00  0.00     0.037 A 
BRANCH  57  71
ATOM     71  C   UNL     1       0.218  -3.117  15.836  1.00  0.00     0.057 A 
ATOM     72  C   UNL     1      -1.023  -2.715  16.350  1.00  0.00     0.134 A 
ATOM     73  C   UNL     1       1.316  -2.282  16.081  1.00  0.00     0.134 A 
ATOM     74  F   UNL     1      -2.120  -3.459  16.141  1.00  0.00    -0.206 F 
ATOM     75  C   UNL     1      -1.173  -1.513  17.044  1.00  0.00     0.040 A 
ATOM     76  C   UNL     1       1.185  -1.095  16.803  1.00  0.00     0.040 A 
ATOM     77  F   UNL     1       2.535  -2.606  15.624  1.00  0.00    -0.206 F 
ATOM     78  C   UNL     1      -0.065  -0.701  17.278  1.00  0.00     0.006 A 
ENDBRANCH  57  71
BRANCH  58  79
ATOM     79  C   UNL     1       1.401 -11.215  10.106  1.00  0.00     0.057 A 
ATOM     80  C   UNL     1       0.849 -12.440  10.502  1.00  0.00     0.134 A 
ATOM     81  C   UNL     1       2.115 -11.190   8.903  1.00  0.00     0.134 A 
ATOM     82  F   UNL     1       0.169 -12.532  11.654  1.00  0.00    -0.206 F 
ATOM     83  C   UNL     1       1.019 -13.599   9.744  1.00  0.00     0.040 A 
ATOM     84  C   UNL     1       2.269 -12.336   8.121  1.00  0.00     0.040 A 
ATOM     85  F   UNL     1       2.661 -10.047   8.462  1.00  0.00    -0.206 F 
ATOM     86  C   UNL     1       1.727 -13.547   8.545  1.00  0.00     0.006 A 
ENDBRANCH  58  79
BRANCH  70  87
ATOM     87  C   UNL     1       3.648  -9.450  16.448  1.00  0.00     0.057 A 
ATOM     88  C   UNL     1       5.016  -9.677  16.247  1.00  0.00     0.134 A 
ATOM     89  C   UNL     1       3.086  -9.919  17.642  1.00  0.00     0.134 A 
ATOM     90  F   UNL     1       5.616  -9.265  15.120  1.00  0.00    -0.206 F 
ATOM     91  C   UNL     1       5.785 -10.379  17.178  1.00  0.00     0.040 A 
ATOM     92  C   UNL     1       3.851 -10.591  18.596  1.00  0.00     0.040 A 
ATOM     93  F   UNL     1       1.784  -9.726  17.905  1.00  0.00    -0.206 F 
ATOM     94  C   UNL     1       5.202 -10.833  18.360  1.00  0.00     0.006 A 
ENDBRANCH  70  87
ENDBRANCH  44  45
ENDBRANCH  36  39
ENDBRANCH  34  35
ENDBRANCH  33  34
ENDBRANCH  32  33
ENDBRANCH  31  32
ENDBRANCH   1  31
TORSDOF 18
