REMARK SMILES [NH3+][C@@H](Cc1cn(-c2nc(Cl)nc(N3CCOCC3)n2)c2ccccc12)C(=O)NCCCCCCNC(=O)c1ccc(-c2c3nc(c(-c4c(F)cccc4F)c4ccc([nH]4)c(-c4c(F)cccc4F)c4nc(c(-c5c(F)cccc5F)c5ccc2[nH]5)C=C4)C=C3)cc1
REMARK SMILES IDX 30 1 29 2 28 3 26 4 27 5 2 7 1 8 3 12 4 13 5 14 25 15 6 16
REMARK SMILES IDX 20 17 24 18 21 19 23 20 22 21 7 22 8 23 19 24 9 25 12 26
REMARK SMILES IDX 10 27 11 28 13 29 14 30 18 31 15 32 17 33 16 34 31 35 32 36
REMARK SMILES IDX 33 37 34 38 35 39 36 40 37 42 38 43 39 44 91 45 40 46 90 47
REMARK SMILES IDX 41 48 42 49 43 50 84 51 44 52 89 53 83 54 85 55 45 56 88 57
REMARK SMILES IDX 82 58 81 59 46 61 72 62 55 63 71 64 56 65 59 66 70 67 86 68
REMARK SMILES IDX 57 69 58 70 69 72 87 73 60 74 47 75 48 76 53 77 49 78 50 79
REMARK SMILES IDX 52 80 54 81 51 82 73 83 74 84 79 85 75 86 76 87 78 88 80 89
REMARK SMILES IDX 77 90 61 91 62 92 67 93 63 94 64 95 66 96 68 97 65 98
REMARK H PARENT 28 6 1 9 1 10 1 11 35 41 85 60 59 71
REMARK Flexibility Score: inf
ROOT
ATOM      1  C   UNL     1      -2.503  -2.074  -1.190  1.00  0.00     0.021 C 
ENDROOT
BRANCH   1   2
ATOM      2  C   UNL     1      -1.645  -0.890  -1.586  1.00  0.00     0.116 C 
BRANCH   2   3
ATOM      3  N   UNL     1      -1.896   0.326  -0.859  1.00  0.00    -0.351 N 
ATOM      4  C   UNL     1      -1.023   1.325  -0.533  1.00  0.00     0.278 C 
ATOM      5  O   UNL     1      -1.523   2.392  -0.155  1.00  0.00    -0.268 OA
ATOM      6  H   UNL     1      -2.824   0.455  -0.555  1.00  0.00     0.163 HD
BRANCH   4   7
ATOM      7  C   UNL     1       0.522   1.176  -0.611  1.00  0.00     0.275 C 
BRANCH   7   8
ATOM      8  N   UNL     1       1.025   0.087   0.258  1.00  0.00    -0.347 N 
ATOM      9  H   UNL     1       2.040   0.028   0.175  1.00  0.00     0.345 HD
ATOM     10  H   UNL     1       0.608  -0.798  -0.029  1.00  0.00     0.345 HD
ATOM     11  H   UNL     1       0.775   0.283   1.228  1.00  0.00     0.345 HD
ENDBRANCH   7   8
BRANCH   7  12
ATOM     12  C   UNL     1       1.155   1.282  -2.016  1.00  0.00     0.113 C 
BRANCH  12  13
ATOM     13  C   UNL     1       0.972   0.143  -2.981  1.00  0.00    -0.015 A 
ATOM     14  C   UNL     1       1.398  -1.165  -2.838  1.00  0.00     0.099 A 
ATOM     15  C   UNL     1       0.288   0.203  -4.239  1.00  0.00     0.004 A 
ATOM     16  N   UNL     1       0.915  -1.929  -3.888  1.00  0.00    -0.285 N 
ATOM     17  C   UNL     1       0.302  -1.081  -4.808  1.00  0.00     0.056 A 
ATOM     18  C   UNL     1      -0.399   1.238  -4.912  1.00  0.00     0.010 A 
ATOM     19  C   UNL     1      -0.356  -1.344  -6.026  1.00  0.00     0.027 A 
ATOM     20  C   UNL     1      -1.073   0.971  -6.106  1.00  0.00     0.001 A 
ATOM     21  C   UNL     1      -1.050  -0.305  -6.654  1.00  0.00     0.002 A 
BRANCH  16  22
ATOM     22  C   UNL     1       0.904  -3.362  -3.907  1.00  0.00     0.240 A 
ATOM     23  N   UNL     1       1.037  -3.987  -5.067  1.00  0.00    -0.181 NA
ATOM     24  N   UNL     1       0.680  -3.982  -2.738  1.00  0.00    -0.176 NA
ATOM     25  C   UNL     1       1.005  -5.307  -4.947  1.00  0.00     0.228 A 
ATOM     26  C   UNL     1       0.545  -5.309  -2.774  1.00  0.00     0.231 A 
ATOM     27  Cl  UNL     1       1.358  -6.189  -6.366  1.00  0.00    -0.041 Cl
ATOM     28  N   UNL     1       0.734  -6.028  -3.865  1.00  0.00    -0.182 NA
BRANCH  26  29
ATOM     29  N   UNL     1       0.144  -5.919  -1.612  1.00  0.00    -0.336 N 
ATOM     30  C   UNL     1      -1.221  -6.442  -1.542  1.00  0.00     0.148 C 
ATOM     31  C   UNL     1       1.086  -6.816  -0.946  1.00  0.00     0.148 C 
ATOM     32  C   UNL     1      -1.618  -6.512  -0.062  1.00  0.00     0.181 C 
ATOM     33  C   UNL     1       0.638  -6.959   0.525  1.00  0.00     0.181 C 
ATOM     34  O   UNL     1      -0.732  -7.397   0.645  1.00  0.00    -0.378 OA
ENDBRANCH  26  29
ENDBRANCH  16  22
ENDBRANCH  12  13
ENDBRANCH   7  12
ENDBRANCH   4   7
ENDBRANCH   2   3
ENDBRANCH   1   2
BRANCH   1  35
ATOM     35  C   UNL     1      -3.925  -2.084  -1.754  1.00  0.00     0.002 C 
BRANCH  35  36
ATOM     36  C   UNL     1      -4.109  -1.941  -3.276  1.00  0.00     0.002 C 
BRANCH  36  37
ATOM     37  C   UNL     1      -3.314  -2.878  -4.194  1.00  0.00     0.021 C 
BRANCH  37  38
ATOM     38  C   UNL     1      -3.231  -4.321  -3.735  1.00  0.00     0.116 C 
BRANCH  38  39
ATOM     39  N   UNL     1      -4.481  -5.013  -3.549  1.00  0.00    -0.352 N 
ATOM     40  C   UNL     1      -5.197  -5.918  -4.285  1.00  0.00     0.251 C 
ATOM     41  H   UNL     1      -4.919  -4.784  -2.698  1.00  0.00     0.163 HD
ATOM     42  O   UNL     1      -6.068  -6.540  -3.690  1.00  0.00    -0.269 OA
BRANCH  40  43
ATOM     43  C   UNL     1      -5.047  -6.106  -5.752  1.00  0.00     0.039 A 
ATOM     44  C   UNL     1      -3.963  -5.689  -6.520  1.00  0.00     0.014 A 
ATOM     45  C   UNL     1      -6.146  -6.705  -6.398  1.00  0.00     0.014 A 
ATOM     46  C   UNL     1      -4.021  -5.763  -7.906  1.00  0.00     0.010 A 
ATOM     47  C   UNL     1      -6.201  -6.797  -7.784  1.00  0.00     0.010 A 
ATOM     48  C   UNL     1      -5.158  -6.274  -8.539  1.00  0.00    -0.014 A 
BRANCH  48  49
ATOM     49  C   UNL     1      -5.176  -6.247  -9.997  1.00  0.00     0.031 A 
ATOM     50  C   UNL     1      -4.077  -6.983 -10.683  1.00  0.00     0.074 A 
ATOM     51  C   UNL     1      -6.131  -5.637 -10.724  1.00  0.00     0.049 A 
ATOM     52  N   UNL     1      -3.146  -6.500 -11.442  1.00  0.00    -0.248 NA
ATOM     53  C   UNL     1      -3.967  -8.426 -10.437  1.00  0.00     0.031 C 
ATOM     54  C   UNL     1      -7.414  -5.092 -10.276  1.00  0.00     0.029 A 
ATOM     55  N   UNL     1      -6.166  -5.448 -12.075  1.00  0.00    -0.354 N 
ATOM     56  C   UNL     1      -2.418  -7.595 -11.905  1.00  0.00     0.074 A 
ATOM     57  C   UNL     1      -2.903  -8.741 -11.178  1.00  0.00     0.031 C 
ATOM     58  C   UNL     1      -8.182  -4.824 -11.355  1.00  0.00     0.029 A 
ATOM     59  C   UNL     1      -7.398  -5.044 -12.559  1.00  0.00     0.049 A 
ATOM     60  H   UNL     1      -5.382  -5.587 -12.655  1.00  0.00     0.167 HD
ATOM     61  C   UNL     1      -1.585  -7.506 -12.978  1.00  0.00     0.037 A 
ATOM     62  C   UNL     1      -7.764  -4.945 -13.858  1.00  0.00     0.037 A 
ATOM     63  C   UNL     1      -1.219  -6.145 -13.264  1.00  0.00     0.049 A 
ATOM     64  C   UNL     1      -6.534  -4.840 -14.677  1.00  0.00     0.074 A 
ATOM     65  C   UNL     1      -0.562  -5.141 -12.578  1.00  0.00     0.029 A 
ATOM     66  N   UNL     1      -1.795  -5.529 -14.346  1.00  0.00    -0.354 N 
ATOM     67  N   UNL     1      -5.759  -3.792 -14.706  1.00  0.00    -0.248 NA
ATOM     68  C   UNL     1      -5.941  -6.066 -15.190  1.00  0.00     0.031 C 
ATOM     69  C   UNL     1      -1.187  -3.931 -13.003  1.00  0.00     0.029 A 
ATOM     70  C   UNL     1      -2.167  -4.277 -13.932  1.00  0.00     0.049 A 
ATOM     71  H   UNL     1      -1.917  -5.911 -15.245  1.00  0.00     0.167 HD
ATOM     72  C   UNL     1      -4.477  -4.304 -14.833  1.00  0.00     0.074 A 
ATOM     73  C   UNL     1      -4.660  -5.692 -15.243  1.00  0.00     0.031 C 
ATOM     74  C   UNL     1      -3.397  -3.637 -14.329  1.00  0.00     0.037 A 
BRANCH  61  75
ATOM     75  C   UNL     1      -1.358  -8.615 -13.977  1.00  0.00     0.057 A 
ATOM     76  C   UNL     1      -2.268  -9.666 -14.200  1.00  0.00     0.134 A 
ATOM     77  C   UNL     1      -0.365  -8.465 -14.965  1.00  0.00     0.134 A 
ATOM     78  F   UNL     1      -3.308  -9.895 -13.389  1.00  0.00    -0.206 F 
ATOM     79  C   UNL     1      -2.220 -10.482 -15.335  1.00  0.00     0.040 A 
ATOM     80  C   UNL     1      -0.338  -9.242 -16.129  1.00  0.00     0.040 A 
ATOM     81  F   UNL     1       0.559  -7.496 -14.873  1.00  0.00    -0.206 F 
ATOM     82  C   UNL     1      -1.276 -10.248 -16.322  1.00  0.00     0.006 A 
ENDBRANCH  61  75
BRANCH  62  83
ATOM     83  C   UNL     1      -9.098  -5.167 -14.451  1.00  0.00     0.057 A 
ATOM     84  C   UNL     1     -10.007  -6.075 -13.880  1.00  0.00     0.134 A 
ATOM     85  C   UNL     1      -9.419  -4.693 -15.729  1.00  0.00     0.134 A 
ATOM     86  F   UNL     1      -9.757  -6.656 -12.697  1.00  0.00    -0.206 F 
ATOM     87  C   UNL     1     -11.166  -6.491 -14.540  1.00  0.00     0.040 A 
ATOM     88  C   UNL     1     -10.573  -5.109 -16.407  1.00  0.00     0.040 A 
ATOM     89  F   UNL     1      -8.592  -3.859 -16.375  1.00  0.00    -0.206 F 
ATOM     90  C   UNL     1     -11.446  -6.018 -15.815  1.00  0.00     0.006 A 
ENDBRANCH  62  83
BRANCH  74  91
ATOM     91  C   UNL     1      -3.598  -2.216 -13.889  1.00  0.00     0.057 A 
ATOM     92  C   UNL     1      -2.813  -1.209 -14.460  1.00  0.00     0.134 A 
ATOM     93  C   UNL     1      -4.444  -1.844 -12.833  1.00  0.00     0.134 A 
ATOM     94  F   UNL     1      -1.934  -1.504 -15.431  1.00  0.00    -0.206 F 
ATOM     95  C   UNL     1      -2.880   0.114 -14.019  1.00  0.00     0.040 A 
ATOM     96  C   UNL     1      -4.545  -0.517 -12.406  1.00  0.00     0.040 A 
ATOM     97  F   UNL     1      -5.149  -2.758 -12.155  1.00  0.00    -0.206 F 
ATOM     98  C   UNL     1      -3.759   0.467 -12.997  1.00  0.00     0.006 A 
ENDBRANCH  74  91
ENDBRANCH  48  49
ENDBRANCH  40  43
ENDBRANCH  38  39
ENDBRANCH  37  38
ENDBRANCH  36  37
ENDBRANCH  35  36
ENDBRANCH   1  35
TORSDOF 18
