REMARK SMILES CC(C)(C)OC(=O)N[C@@H](C(=O)NCCCCCCNC(=O)c1ccc(-c2c3nc(c(-c4c(F)cccc4F)c4ccc([nH]4)c(-c4c(F)cccc4F)c4nc(c(-c5c(F)cccc5F)c5ccc2[nH]5)C=C4)C=C3)cc1)[C@H](O)c1ccccc1F
REMARK SMILES IDX 15 1 14 2 13 3 12 4 10 5 11 6 9 8 8 9 6 10 7 11 5 13 2 14
REMARK SMILES IDX 1 15 3 16 4 17 76 18 78 19 79 20 83 21 80 22 82 23 84 24
REMARK SMILES IDX 81 25 77 26 16 28 17 29 18 30 19 31 20 32 21 34 22 35 23 36
REMARK SMILES IDX 75 37 24 38 74 39 25 40 26 41 27 42 68 43 28 44 73 45 67 46
REMARK SMILES IDX 69 47 29 48 72 49 66 50 65 51 30 53 56 54 39 55 55 56 40 57
REMARK SMILES IDX 43 58 54 59 70 60 41 61 42 62 53 64 71 65 44 66 31 67 32 68
REMARK SMILES IDX 37 69 33 70 34 71 36 72 38 73 35 74 57 75 58 76 63 77 59 78
REMARK SMILES IDX 60 79 62 80 64 81 61 82 45 83 46 84 51 85 47 86 48 87 50 88
REMARK SMILES IDX 52 89 49 90
REMARK H PARENT 12 7 8 12 77 27 19 33 69 52 43 63
REMARK Flexibility Score: inf
ROOT
ATOM      1  C   UNL     1      -4.323   1.118  -6.929  1.00  0.00     0.002 C 
ENDROOT
BRANCH   1   2
ATOM      2  C   UNL     1      -3.393   0.930  -5.723  1.00  0.00     0.021 C 
BRANCH   2   3
ATOM      3  C   UNL     1      -3.006  -0.527  -5.489  1.00  0.00     0.116 C 
BRANCH   3   4
ATOM      4  N   UNL     1      -2.171  -1.012  -6.559  1.00  0.00    -0.354 N 
ATOM      5  C   UNL     1      -0.848  -1.322  -6.570  1.00  0.00     0.245 C 
ATOM      6  O   UNL     1      -0.418  -1.788  -7.630  1.00  0.00    -0.273 OA
ATOM      7  H   UNL     1      -2.633  -1.139  -7.419  1.00  0.00     0.163 HD
BRANCH   5   8
ATOM      8  C   UNL     1       0.010  -1.278  -5.281  1.00  0.00     0.208 C 
BRANCH   8   9
ATOM      9  N   UNL     1      -0.060  -0.031  -4.501  1.00  0.00    -0.307 N 
ATOM     10  C   UNL     1      -0.519   0.235  -3.252  1.00  0.00     0.408 C 
ATOM     11  O   UNL     1      -0.469   1.376  -2.823  1.00  0.00    -0.225 OA
ATOM     12  H   UNL     1       0.291   0.757  -4.975  1.00  0.00     0.168 HD
BRANCH  10  13
ATOM     13  O   UNL     1      -1.069  -0.829  -2.620  1.00  0.00    -0.444 OA
BRANCH  13  14
ATOM     14  C   UNL     1      -1.777  -0.615  -1.365  1.00  0.00     0.106 C 
ATOM     15  C   UNL     1      -2.336  -1.991  -0.972  1.00  0.00     0.056 C 
ATOM     16  C   UNL     1      -2.967   0.344  -1.541  1.00  0.00     0.056 C 
ATOM     17  C   UNL     1      -0.826  -0.140  -0.261  1.00  0.00     0.056 C 
ENDBRANCH  13  14
ENDBRANCH  10  13
ENDBRANCH   8   9
BRANCH   8  18
ATOM     18  C   UNL     1       1.481  -1.629  -5.668  1.00  0.00     0.179 C 
BRANCH  18  19
ATOM     19  C   UNL     1       2.344  -0.646  -6.452  1.00  0.00     0.019 A 
ATOM     20  C   UNL     1       3.610  -1.087  -6.884  1.00  0.00     0.009 A 
ATOM     21  C   UNL     1       1.992   0.669  -6.779  1.00  0.00     0.129 A 
ATOM     22  C   UNL     1       4.489  -0.235  -7.563  1.00  0.00     0.001 A 
ATOM     23  C   UNL     1       2.873   1.534  -7.428  1.00  0.00     0.039 A 
ATOM     24  F   UNL     1       0.787   1.166  -6.476  1.00  0.00    -0.207 F 
ATOM     25  C   UNL     1       4.128   1.084  -7.817  1.00  0.00     0.003 A 
ENDBRANCH  18  19
BRANCH  18  26
ATOM     26  O   UNL     1       2.196  -1.958  -4.460  1.00  0.00    -0.386 OA
ATOM     27  H   UNL     1       2.268  -1.169  -3.902  1.00  0.00     0.211 HD
ENDBRANCH  18  26
ENDBRANCH   8  18
ENDBRANCH   5   8
ENDBRANCH   3   4
ENDBRANCH   2   3
ENDBRANCH   1   2
BRANCH   1  28
ATOM     28  C   UNL     1      -5.594   0.261  -6.897  1.00  0.00     0.002 C 
BRANCH  28  29
ATOM     29  C   UNL     1      -6.430   0.410  -5.624  1.00  0.00     0.021 C 
BRANCH  29  30
ATOM     30  C   UNL     1      -6.923   1.829  -5.372  1.00  0.00     0.116 C 
BRANCH  30  31
ATOM     31  N   UNL     1      -7.822   2.280  -6.423  1.00  0.00    -0.352 N 
ATOM     32  C   UNL     1      -9.097   2.772  -6.321  1.00  0.00     0.251 C 
ATOM     33  H   UNL     1      -7.463   2.223  -7.338  1.00  0.00     0.163 HD
ATOM     34  O   UNL     1      -9.796   2.891  -7.322  1.00  0.00    -0.269 OA
BRANCH  32  35
ATOM     35  C   UNL     1      -9.632   3.143  -4.995  1.00  0.00     0.039 A 
ATOM     36  C   UNL     1     -10.938   2.775  -4.667  1.00  0.00     0.014 A 
ATOM     37  C   UNL     1      -8.849   3.857  -4.083  1.00  0.00     0.014 A 
ATOM     38  C   UNL     1     -11.441   3.079  -3.402  1.00  0.00     0.010 A 
ATOM     39  C   UNL     1      -9.323   4.086  -2.796  1.00  0.00     0.010 A 
ATOM     40  C   UNL     1     -10.627   3.708  -2.445  1.00  0.00    -0.014 A 
BRANCH  40  41
ATOM     41  C   UNL     1     -11.128   3.980  -1.075  1.00  0.00     0.031 A 
ATOM     42  C   UNL     1     -11.259   5.394  -0.583  1.00  0.00     0.074 A 
ATOM     43  C   UNL     1     -11.419   2.949  -0.258  1.00  0.00     0.049 A 
ATOM     44  N   UNL     1     -11.639   5.829   0.593  1.00  0.00    -0.248 NA
ATOM     45  C   UNL     1     -10.892   6.462  -1.527  1.00  0.00     0.031 C 
ATOM     46  C   UNL     1     -11.292   1.532  -0.604  1.00  0.00     0.029 A 
ATOM     47  N   UNL     1     -11.880   2.935   1.035  1.00  0.00    -0.354 N 
ATOM     48  C   UNL     1     -11.550   7.214   0.530  1.00  0.00     0.074 A 
ATOM     49  C   UNL     1     -11.022   7.545  -0.775  1.00  0.00     0.031 C 
ATOM     50  C   UNL     1     -11.695   0.787   0.438  1.00  0.00     0.029 A 
ATOM     51  C   UNL     1     -12.068   1.670   1.538  1.00  0.00     0.049 A 
ATOM     52  H   UNL     1     -12.059   3.753   1.552  1.00  0.00     0.167 HD
ATOM     53  C   UNL     1     -11.903   8.128   1.465  1.00  0.00     0.037 A 
ATOM     54  C   UNL     1     -12.489   1.268   2.752  1.00  0.00     0.037 A 
ATOM     55  C   UNL     1     -12.439   7.794   2.759  1.00  0.00     0.049 A 
ATOM     56  C   UNL     1     -12.847   2.304   3.783  1.00  0.00     0.074 A 
ATOM     57  C   UNL     1     -12.869   8.647   3.760  1.00  0.00     0.029 A 
ATOM     58  N   UNL     1     -12.614   6.502   3.232  1.00  0.00    -0.354 N 
ATOM     59  N   UNL     1     -12.820   3.611   3.687  1.00  0.00    -0.248 NA
ATOM     60  C   UNL     1     -13.299   1.806   5.089  1.00  0.00     0.031 C 
ATOM     61  C   UNL     1     -13.253   7.872   4.859  1.00  0.00     0.029 A 
ATOM     62  C   UNL     1     -13.121   6.535   4.521  1.00  0.00     0.049 A 
ATOM     63  H   UNL     1     -12.407   5.682   2.728  1.00  0.00     0.167 HD
ATOM     64  C   UNL     1     -13.283   4.091   4.906  1.00  0.00     0.074 A 
ATOM     65  C   UNL     1     -13.597   2.934   5.718  1.00  0.00     0.031 C 
ATOM     66  C   UNL     1     -13.435   5.375   5.316  1.00  0.00     0.037 A 
BRANCH  53  67
ATOM     67  C   UNL     1     -11.719   9.579   1.121  1.00  0.00     0.057 A 
ATOM     68  C   UNL     1     -12.504  10.213   0.148  1.00  0.00     0.134 A 
ATOM     69  C   UNL     1     -10.770  10.360   1.792  1.00  0.00     0.134 A 
ATOM     70  F   UNL     1     -13.423   9.521  -0.542  1.00  0.00    -0.206 F 
ATOM     71  C   UNL     1     -12.332  11.563  -0.163  1.00  0.00     0.040 A 
ATOM     72  C   UNL     1     -10.611  11.718   1.512  1.00  0.00     0.040 A 
ATOM     73  F   UNL     1      -9.989   9.820   2.740  1.00  0.00    -0.206 F 
ATOM     74  C   UNL     1     -11.389  12.322   0.526  1.00  0.00     0.006 A 
ENDBRANCH  53  67
BRANCH  54  75
ATOM     75  C   UNL     1     -12.616  -0.180   3.056  1.00  0.00     0.057 A 
ATOM     76  C   UNL     1     -13.871  -0.768   3.255  1.00  0.00     0.134 A 
ATOM     77  C   UNL     1     -11.492  -1.007   3.168  1.00  0.00     0.134 A 
ATOM     78  F   UNL     1     -14.984  -0.025   3.178  1.00  0.00    -0.206 F 
ATOM     79  C   UNL     1     -14.002  -2.119   3.581  1.00  0.00     0.040 A 
ATOM     80  C   UNL     1     -11.611  -2.366   3.465  1.00  0.00     0.040 A 
ATOM     81  F   UNL     1     -10.261  -0.508   2.980  1.00  0.00    -0.206 F 
ATOM     82  C   UNL     1     -12.869  -2.923   3.681  1.00  0.00     0.006 A 
ENDBRANCH  54  75
BRANCH  66  83
ATOM     83  C   UNL     1     -14.005   5.595   6.688  1.00  0.00     0.057 A 
ATOM     84  C   UNL     1     -13.282   5.300   7.851  1.00  0.00     0.134 A 
ATOM     85  C   UNL     1     -15.286   6.141   6.846  1.00  0.00     0.134 A 
ATOM     86  F   UNL     1     -12.055   4.763   7.771  1.00  0.00    -0.206 F 
ATOM     87  C   UNL     1     -13.823   5.513   9.120  1.00  0.00     0.040 A 
ATOM     88  C   UNL     1     -15.825   6.388   8.109  1.00  0.00     0.040 A 
ATOM     89  F   UNL     1     -16.029   6.457   5.774  1.00  0.00    -0.206 F 
ATOM     90  C   UNL     1     -15.095   6.066   9.251  1.00  0.00     0.006 A 
ENDBRANCH  66  83
ENDBRANCH  40  41
ENDBRANCH  32  35
ENDBRANCH  30  31
ENDBRANCH  29  30
ENDBRANCH  28  29
ENDBRANCH   1  28
TORSDOF 19
