REMARK SMILES COc1cccc([C@H]2CC(c3ccc(S(C)(=O)=O)cc3)=NN2c2ccc(C(=O)NCCCCCCNC(=O)c3ccc(-c4c5nc(c(-c6c(F)cccc6F)c6ccc([nH]6)c(-c6c(F)cccc6F)c6nc(c(-c7c(F)cccc7F)c7ccc4[nH]7)C=C6)C=C5)cc3)cc2)c1
REMARK SMILES IDX 32 1 31 2 30 3 29 4 27 5 28 6 26 8 23 9 24 10 94 11 25 12
REMARK SMILES IDX 93 13 22 14 8 15 9 16 10 17 21 18 7 19 3 20 4 21 95 22 5 23
REMARK SMILES IDX 6 24 2 25 1 26 11 27 12 28 20 29 13 30 19 31 14 32 15 33
REMARK SMILES IDX 16 34 17 35 18 36 33 37 34 38 35 39 36 40 37 41 38 43 39 44
REMARK SMILES IDX 40 45 92 46 41 47 91 48 42 49 43 50 44 51 85 52 45 53 90 54
REMARK SMILES IDX 84 55 86 56 46 57 89 58 83 59 82 60 47 62 73 63 56 64 72 65
REMARK SMILES IDX 57 66 60 67 71 68 87 69 58 70 59 71 70 73 88 74 61 75 48 76
REMARK SMILES IDX 49 77 54 78 50 79 51 80 53 81 55 82 52 83 74 84 75 85 80 86
REMARK SMILES IDX 76 87 77 88 79 89 81 90 78 91 62 92 63 93 68 94 64 95 65 96
REMARK SMILES IDX 67 97 69 98 66 99
REMARK H PARENT 29 7 36 42 86 61 60 72
REMARK Flexibility Score: inf
ROOT
ATOM      1  C   UNL     1       4.657   3.275 -11.487  1.00  0.00     0.002 C 
ENDROOT
BRANCH   1   2
ATOM      2  C   UNL     1       4.813   3.459  -9.971  1.00  0.00     0.021 C 
BRANCH   2   3
ATOM      3  C   UNL     1       3.595   2.979  -9.180  1.00  0.00     0.116 C 
BRANCH   3   4
ATOM      4  N   UNL     1       3.608   1.532  -9.091  1.00  0.00    -0.352 N 
ATOM      5  C   UNL     1       3.965   0.673  -8.085  1.00  0.00     0.251 C 
ATOM      6  O   UNL     1       3.893  -0.534  -8.315  1.00  0.00    -0.269 OA
ATOM      7  H   UNL     1       3.302   1.081  -9.911  1.00  0.00     0.163 HD
BRANCH   5   8
ATOM      8  C   UNL     1       4.357   1.134  -6.726  1.00  0.00     0.039 A 
ATOM      9  C   UNL     1       4.876   1.907  -4.060  1.00  0.00     0.060 A 
ATOM     10  C   UNL     1       4.303   0.664  -4.345  1.00  0.00     0.029 A 
ATOM     11  C   UNL     1       5.255   2.724  -5.127  1.00  0.00     0.029 A 
ATOM     12  C   UNL     1       4.028   0.287  -5.660  1.00  0.00     0.016 A 
ATOM     13  C   UNL     1       5.035   2.324  -6.450  1.00  0.00     0.016 A 
BRANCH   9  14
ATOM     14  N   UNL     1       5.038   2.305  -2.747  1.00  0.00    -0.257 N 
ATOM     15  C   UNL     1       4.282   3.382  -2.110  1.00  0.00     0.144 C 
ATOM     16  C   UNL     1       4.871   3.405  -0.692  1.00  0.00     0.091 C 
ATOM     17  C   UNL     1       5.975   2.396  -0.853  1.00  0.00     0.071 C 
ATOM     18  N   UNL     1       6.046   1.801  -2.001  1.00  0.00    -0.176 NA
BRANCH  15  19
ATOM     19  C   UNL     1       2.786   3.114  -2.145  1.00  0.00    -0.019 A 
ATOM     20  C   UNL     1       0.870   1.682  -1.664  1.00  0.00     0.119 A 
ATOM     21  C   UNL     1       0.045   2.561  -2.365  1.00  0.00     0.046 A 
ATOM     22  C   UNL     1       2.236   1.953  -1.566  1.00  0.00     0.052 A 
ATOM     23  C   UNL     1       0.570   3.719  -2.936  1.00  0.00     0.004 A 
ATOM     24  C   UNL     1       1.933   3.997  -2.825  1.00  0.00     0.006 A 
BRANCH  20  25
ATOM     25  O   UNL     1       0.244   0.574  -1.161  1.00  0.00    -0.497 OA
ATOM     26  C   UNL     1       0.875  -0.040  -0.043  1.00  0.00     0.278 C 
ENDBRANCH  20  25
ENDBRANCH  15  19
BRANCH  17  27
ATOM     27  C   UNL     1       6.934   2.133   0.223  1.00  0.00    -0.002 A 
ATOM     28  C   UNL     1       8.298   2.248  -0.063  1.00  0.00     0.011 A 
ATOM     29  C   UNL     1       6.493   1.730   1.485  1.00  0.00     0.011 A 
ATOM     30  C   UNL     1       9.237   1.970   0.928  1.00  0.00     0.021 A 
ATOM     31  C   UNL     1       7.433   1.424   2.471  1.00  0.00     0.021 A 
ATOM     32  C   UNL     1       8.798   1.541   2.184  1.00  0.00     0.067 A 
BRANCH  32  33
ATOM     33  S   UNL     1      10.006   1.148   3.429  1.00  0.00     0.175 S 
ATOM     34  C   UNL     1      10.931  -0.194   2.726  1.00  0.00     0.163 C 
ATOM     35  O   UNL     1      10.877   2.301   3.542  1.00  0.00    -0.224 OA
ATOM     36  O   UNL     1       9.293   0.632   4.582  1.00  0.00    -0.224 OA
ENDBRANCH  32  33
ENDBRANCH  17  27
ENDBRANCH   9  14
ENDBRANCH   5   8
ENDBRANCH   3   4
ENDBRANCH   2   3
ENDBRANCH   1   2
BRANCH   1  37
ATOM     37  C   UNL     1       3.543   4.114 -12.124  1.00  0.00     0.002 C 
BRANCH  37  38
ATOM     38  C   UNL     1       3.636   5.620 -11.861  1.00  0.00     0.021 C 
BRANCH  38  39
ATOM     39  C   UNL     1       4.914   6.271 -12.380  1.00  0.00     0.116 C 
BRANCH  39  40
ATOM     40  N   UNL     1       4.990   6.224 -13.830  1.00  0.00    -0.352 N 
ATOM     41  C   UNL     1       5.226   7.239 -14.720  1.00  0.00     0.251 C 
ATOM     42  H   UNL     1       4.852   5.336 -14.231  1.00  0.00     0.163 HD
ATOM     43  O   UNL     1       5.038   7.062 -15.919  1.00  0.00    -0.269 OA
BRANCH  41  44
ATOM     44  C   UNL     1       5.706   8.553 -14.239  1.00  0.00     0.039 A 
ATOM     45  C   UNL     1       5.175   9.713 -14.810  1.00  0.00     0.014 A 
ATOM     46  C   UNL     1       6.716   8.643 -13.276  1.00  0.00     0.014 A 
ATOM     47  C   UNL     1       5.641  10.964 -14.400  1.00  0.00     0.010 A 
ATOM     48  C   UNL     1       7.134   9.891 -12.822  1.00  0.00     0.010 A 
ATOM     49  C   UNL     1       6.618  11.062 -13.397  1.00  0.00    -0.014 A 
BRANCH  49  50
ATOM     50  C   UNL     1       7.158  12.380 -12.982  1.00  0.00     0.031 A 
ATOM     51  C   UNL     1       8.592  12.725 -13.277  1.00  0.00     0.074 A 
ATOM     52  C   UNL     1       6.378  13.245 -12.307  1.00  0.00     0.049 A 
ATOM     53  N   UNL     1       9.272  13.793 -12.946  1.00  0.00    -0.248 NA
ATOM     54  C   UNL     1       9.374  11.722 -14.019  1.00  0.00     0.031 C 
ATOM     55  C   UNL     1       4.983  13.011 -11.930  1.00  0.00     0.029 A 
ATOM     56  N   UNL     1       6.653  14.494 -11.813  1.00  0.00    -0.354 N 
ATOM     57  C   UNL     1      10.561  13.582 -13.421  1.00  0.00     0.074 A 
ATOM     58  C   UNL     1      10.582  12.265 -14.019  1.00  0.00     0.031 C 
ATOM     59  C   UNL     1       4.519  14.091 -11.281  1.00  0.00     0.029 A 
ATOM     60  C   UNL     1       5.589  15.079 -11.172  1.00  0.00     0.049 A 
ATOM     61  H   UNL     1       7.530  14.931 -11.909  1.00  0.00     0.167 HD
ATOM     62  C   UNL     1      11.625  14.419 -13.383  1.00  0.00     0.037 A 
ATOM     63  C   UNL     1       5.490  16.277 -10.566  1.00  0.00     0.037 A 
ATOM     64  C   UNL     1      11.592  15.743 -12.822  1.00  0.00     0.049 A 
ATOM     65  C   UNL     1       6.680  17.196 -10.555  1.00  0.00     0.074 A 
ATOM     66  C   UNL     1      12.602  16.688 -12.780  1.00  0.00     0.029 A 
ATOM     67  N   UNL     1      10.484  16.311 -12.212  1.00  0.00    -0.354 N 
ATOM     68  N   UNL     1       7.878  17.004 -11.052  1.00  0.00    -0.248 NA
ATOM     69  C   UNL     1       6.500  18.504  -9.908  1.00  0.00     0.031 C 
ATOM     70  C   UNL     1      12.113  17.820 -12.118  1.00  0.00     0.029 A 
ATOM     71  C   UNL     1      10.788  17.592 -11.783  1.00  0.00     0.049 A 
ATOM     72  H   UNL     1       9.611  15.870 -12.101  1.00  0.00     0.167 HD
ATOM     73  C   UNL     1       8.583  18.175 -10.808  1.00  0.00     0.074 A 
ATOM     74  C   UNL     1       7.676  19.075 -10.125  1.00  0.00     0.031 C 
ATOM     75  C   UNL     1       9.866  18.479 -11.121  1.00  0.00     0.037 A 
BRANCH  62  76
ATOM     76  C   UNL     1      12.912  13.924 -13.975  1.00  0.00     0.057 A 
ATOM     77  C   UNL     1      13.078  13.774 -15.358  1.00  0.00     0.134 A 
ATOM     78  C   UNL     1      14.005  13.616 -13.156  1.00  0.00     0.134 A 
ATOM     79  F   UNL     1      12.064  14.039 -16.197  1.00  0.00    -0.206 F 
ATOM     80  C   UNL     1      14.275  13.309 -15.904  1.00  0.00     0.040 A 
ATOM     81  C   UNL     1      15.217  13.175 -13.692  1.00  0.00     0.040 A 
ATOM     82  F   UNL     1      13.916  13.742 -11.824  1.00  0.00    -0.206 F 
ATOM     83  C   UNL     1      15.351  13.014 -15.070  1.00  0.00     0.006 A 
ENDBRANCH  62  76
BRANCH  63  84
ATOM     84  C   UNL     1       4.206  16.694  -9.950  1.00  0.00     0.057 A 
ATOM     85  C   UNL     1       3.420  17.693 -10.533  1.00  0.00     0.134 A 
ATOM     86  C   UNL     1       3.740  16.113  -8.765  1.00  0.00     0.134 A 
ATOM     87  F   UNL     1       3.824  18.299 -11.660  1.00  0.00    -0.206 F 
ATOM     88  C   UNL     1       2.224  18.116  -9.951  1.00  0.00     0.040 A 
ATOM     89  C   UNL     1       2.534  16.510  -8.184  1.00  0.00     0.040 A 
ATOM     90  F   UNL     1       4.444  15.144  -8.162  1.00  0.00    -0.206 F 
ATOM     91  C   UNL     1       1.776  17.520  -8.774  1.00  0.00     0.006 A 
ENDBRANCH  63  84
BRANCH  75  92
ATOM     92  C   UNL     1      10.350  19.853 -10.770  1.00  0.00     0.057 A 
ATOM     93  C   UNL     1      10.640  20.220  -9.450  1.00  0.00     0.134 A 
ATOM     94  C   UNL     1      10.565  20.808 -11.772  1.00  0.00     0.134 A 
ATOM     95  F   UNL     1      10.443  19.354  -8.445  1.00  0.00    -0.206 F 
ATOM     96  C   UNL     1      11.109  21.497  -9.137  1.00  0.00     0.040 A 
ATOM     97  C   UNL     1      11.055  22.080 -11.473  1.00  0.00     0.040 A 
ATOM     98  F   UNL     1      10.314  20.515 -13.057  1.00  0.00    -0.206 F 
ATOM     99  C   UNL     1      11.323  22.428 -10.151  1.00  0.00     0.006 A 
ENDBRANCH  75  92
ENDBRANCH  49  50
ENDBRANCH  41  44
ENDBRANCH  39  40
ENDBRANCH  38  39
ENDBRANCH  37  38
ENDBRANCH   1  37
TORSDOF 18
