REMARK SMILES CC(C)N1C(=O)C[C@@H]([N@@H+]2CC[C@H](C(=O)NCCCCCCNC(=O)c3ccc(-c4c5nc(c(-c6c(F)cccc6F)c6ccc([nH]6)c(-c6c(F)cccc6F)c6nc(c(-c7c(F)cccc7F)c7ccc4[nH]7)C=C6)C=C5)cc3)[C@@H]2C)C1=O
REMARK SMILES IDX 18 1 17 2 16 3 15 4 13 5 14 6 12 8 9 9 10 10 79 11 11 13
REMARK SMILES IDX 80 14 8 15 4 16 5 17 81 18 6 19 7 20 82 21 2 22 1 23 3 24
REMARK SMILES IDX 19 25 20 26 21 27 22 28 23 29 24 31 25 32 26 33 78 34 27 35
REMARK SMILES IDX 77 36 28 37 29 38 30 39 71 40 31 41 76 42 70 43 72 44 32 45
REMARK SMILES IDX 75 46 69 47 68 48 33 50 59 51 42 52 58 53 43 54 46 55 57 56
REMARK SMILES IDX 73 57 44 58 45 59 56 61 74 62 47 63 34 64 35 65 40 66 36 67
REMARK SMILES IDX 37 68 39 69 41 70 38 71 60 72 61 73 66 74 62 75 63 76 65 77
REMARK SMILES IDX 67 78 64 79 48 80 49 81 54 82 50 83 51 84 53 85 55 86 52 87
REMARK H PARENT 15 7 9 12 22 30 72 49 46 60
REMARK Flexibility Score: inf
ROOT
ATOM      1  C   UNL     1      -9.555   1.761  -2.152  1.00  0.00     0.002 C 
ENDROOT
BRANCH   1   2
ATOM      2  C   UNL     1      -9.182   0.281  -2.025  1.00  0.00     0.021 C 
BRANCH   2   3
ATOM      3  C   UNL     1      -8.014  -0.160  -2.902  1.00  0.00     0.116 C 
BRANCH   3   4
ATOM      4  N   UNL     1      -6.794   0.548  -2.568  1.00  0.00    -0.356 N 
ATOM      5  C   UNL     1      -5.565   0.076  -2.228  1.00  0.00     0.229 C 
ATOM      6  O   UNL     1      -4.672   0.898  -2.019  1.00  0.00    -0.275 OA
ATOM      7  H   UNL     1      -6.867   1.530  -2.591  1.00  0.00     0.163 HD
BRANCH   5   8
ATOM      8  C   UNL     1      -5.339  -1.423  -2.097  1.00  0.00     0.142 C 
ATOM      9  N   UNL     1      -3.740  -2.100  -0.431  1.00  0.00    -0.321 N 
ATOM     10  C   UNL     1      -3.009  -1.711  -1.638  1.00  0.00     0.264 C 
ATOM     11  C   UNL     1      -5.184  -1.900  -0.642  1.00  0.00     0.194 C 
ATOM     12  H   UNL     1      -3.646  -3.104  -0.278  1.00  0.00     0.349 HD
ATOM     13  C   UNL     1      -4.023  -1.814  -2.757  1.00  0.00     0.081 C 
ATOM     14  C   UNL     1      -6.000  -1.123   0.392  1.00  0.00     0.076 C 
BRANCH   9  15
ATOM     15  C   UNL     1      -3.129  -1.681   0.838  1.00  0.00     0.284 C 
ATOM     16  N   UNL     1      -0.880  -0.992   0.997  1.00  0.00    -0.275 N 
ATOM     17  C   UNL     1      -1.614   0.135   1.227  1.00  0.00     0.236 C 
ATOM     18  C   UNL     1      -1.665  -2.110   0.900  1.00  0.00     0.288 C 
ATOM     19  O   UNL     1      -1.189   1.242   1.517  1.00  0.00    -0.274 OA
ATOM     20  C   UNL     1      -3.071  -0.181   1.108  1.00  0.00     0.176 C 
ATOM     21  O   UNL     1      -1.265  -3.267   0.860  1.00  0.00    -0.267 OA
BRANCH  16  22
ATOM     22  C   UNL     1       0.580  -1.048   0.998  1.00  0.00     0.087 C 
ATOM     23  C   UNL     1       1.195  -0.040   0.025  1.00  0.00     0.031 C 
ATOM     24  C   UNL     1       1.138  -0.874   2.408  1.00  0.00     0.031 C 
ENDBRANCH  16  22
ENDBRANCH   9  15
ENDBRANCH   5   8
ENDBRANCH   3   4
ENDBRANCH   2   3
ENDBRANCH   1   2
BRANCH   1  25
ATOM     25  C   UNL     1      -9.842   2.243  -3.577  1.00  0.00     0.002 C 
BRANCH  25  26
ATOM     26  C   UNL     1     -10.904   1.441  -4.333  1.00  0.00     0.021 C 
BRANCH  26  27
ATOM     27  C   UNL     1     -12.258   1.364  -3.639  1.00  0.00     0.116 C 
BRANCH  27  28
ATOM     28  N   UNL     1     -12.878   2.670  -3.494  1.00  0.00    -0.352 N 
ATOM     29  C   UNL     1     -14.126   3.089  -3.884  1.00  0.00     0.251 C 
ATOM     30  H   UNL     1     -12.323   3.354  -3.053  1.00  0.00     0.163 HD
ATOM     31  O   UNL     1     -14.416   4.281  -3.851  1.00  0.00    -0.269 OA
BRANCH  29  32
ATOM     32  C   UNL     1     -15.115   2.103  -4.368  1.00  0.00     0.039 A 
ATOM     33  C   UNL     1     -15.851   2.396  -5.518  1.00  0.00     0.014 A 
ATOM     34  C   UNL     1     -15.315   0.894  -3.695  1.00  0.00     0.014 A 
ATOM     35  C   UNL     1     -16.740   1.449  -6.030  1.00  0.00     0.010 A 
ATOM     36  C   UNL     1     -16.143  -0.078  -4.249  1.00  0.00     0.010 A 
ATOM     37  C   UNL     1     -16.864   0.188  -5.423  1.00  0.00    -0.014 A 
BRANCH  37  38
ATOM     38  C   UNL     1     -17.730  -0.865  -6.012  1.00  0.00     0.031 A 
ATOM     39  C   UNL     1     -18.917  -1.389  -5.250  1.00  0.00     0.074 A 
ATOM     40  C   UNL     1     -17.412  -1.392  -7.211  1.00  0.00     0.049 A 
ATOM     41  N   UNL     1     -19.749  -2.346  -5.574  1.00  0.00    -0.248 NA
ATOM     42  C   UNL     1     -19.192  -0.773  -3.942  1.00  0.00     0.031 C 
ATOM     43  C   UNL     1     -16.260  -1.003  -8.028  1.00  0.00     0.029 A 
ATOM     44  N   UNL     1     -18.021  -2.378  -7.947  1.00  0.00    -0.354 N 
ATOM     45  C   UNL     1     -20.636  -2.454  -4.510  1.00  0.00     0.074 A 
ATOM     46  C   UNL     1     -20.210  -1.502  -3.508  1.00  0.00     0.031 C 
ATOM     47  C   UNL     1     -16.259  -1.725  -9.160  1.00  0.00     0.029 A 
ATOM     48  C   UNL     1     -17.380  -2.658  -9.131  1.00  0.00     0.049 A 
ATOM     49  H   UNL     1     -18.840  -2.840  -7.655  1.00  0.00     0.167 HD
ATOM     50  C   UNL     1     -21.718  -3.258  -4.390  1.00  0.00     0.037 A 
ATOM     51  C   UNL     1     -17.657  -3.573 -10.079  1.00  0.00     0.037 A 
ATOM     52  C   UNL     1     -22.151  -4.190  -5.399  1.00  0.00     0.049 A 
ATOM     53  C   UNL     1     -18.855  -4.467  -9.909  1.00  0.00     0.074 A 
ATOM     54  C   UNL     1     -23.271  -5.003  -5.394  1.00  0.00     0.029 A 
ATOM     55  N   UNL     1     -21.483  -4.436  -6.588  1.00  0.00    -0.354 N 
ATOM     56  N   UNL     1     -19.728  -4.504  -8.931  1.00  0.00    -0.248 NA
ATOM     57  C   UNL     1     -19.111  -5.444 -10.977  1.00  0.00     0.031 C 
ATOM     58  C   UNL     1     -23.250  -5.783  -6.554  1.00  0.00     0.029 A 
ATOM     59  C   UNL     1     -22.151  -5.412  -7.310  1.00  0.00     0.049 A 
ATOM     60  H   UNL     1     -20.656  -3.986  -6.876  1.00  0.00     0.167 HD
ATOM     61  C   UNL     1     -20.651  -5.482  -9.281  1.00  0.00     0.074 A 
ATOM     62  C   UNL     1     -20.242  -6.001 -10.569  1.00  0.00     0.031 C 
ATOM     63  C   UNL     1     -21.738  -5.913  -8.596  1.00  0.00     0.037 A 
BRANCH  50  64
ATOM     64  C   UNL     1     -22.519  -3.169  -3.122  1.00  0.00     0.057 A 
ATOM     65  C   UNL     1     -23.308  -2.050  -2.823  1.00  0.00     0.134 A 
ATOM     66  C   UNL     1     -22.553  -4.241  -2.222  1.00  0.00     0.134 A 
ATOM     67  F   UNL     1     -23.314  -0.984  -3.638  1.00  0.00    -0.206 F 
ATOM     68  C   UNL     1     -24.086  -1.994  -1.665  1.00  0.00     0.040 A 
ATOM     69  C   UNL     1     -23.349  -4.208  -1.075  1.00  0.00     0.040 A 
ATOM     70  F   UNL     1     -21.827  -5.346  -2.450  1.00  0.00    -0.206 F 
ATOM     71  C   UNL     1     -24.115  -3.080  -0.792  1.00  0.00     0.006 A 
ENDBRANCH  50  64
BRANCH  51  72
ATOM     72  C   UNL     1     -16.788  -3.697 -11.279  1.00  0.00     0.057 A 
ATOM     73  C   UNL     1     -17.263  -3.370 -12.555  1.00  0.00     0.134 A 
ATOM     74  C   UNL     1     -15.476  -4.176 -11.185  1.00  0.00     0.134 A 
ATOM     75  F   UNL     1     -18.518  -2.922 -12.714  1.00  0.00    -0.206 F 
ATOM     76  C   UNL     1     -16.478  -3.545 -13.696  1.00  0.00     0.040 A 
ATOM     77  C   UNL     1     -14.669  -4.327 -12.314  1.00  0.00     0.040 A 
ATOM     78  F   UNL     1     -14.956  -4.500  -9.992  1.00  0.00    -0.206 F 
ATOM     79  C   UNL     1     -15.175  -4.022 -13.576  1.00  0.00     0.006 A 
ENDBRANCH  51  72
BRANCH  63  80
ATOM     80  C   UNL     1     -22.586  -6.969  -9.244  1.00  0.00     0.057 A 
ATOM     81  C   UNL     1     -22.147  -8.292  -9.383  1.00  0.00     0.134 A 
ATOM     82  C   UNL     1     -23.876  -6.666  -9.700  1.00  0.00     0.134 A 
ATOM     83  F   UNL     1     -20.917  -8.647  -8.979  1.00  0.00    -0.206 F 
ATOM     84  C   UNL     1     -22.949  -9.268  -9.977  1.00  0.00     0.040 A 
ATOM     85  C   UNL     1     -24.698  -7.640 -10.266  1.00  0.00     0.040 A 
ATOM     86  F   UNL     1     -24.363  -5.421  -9.588  1.00  0.00    -0.206 F 
ATOM     87  C   UNL     1     -24.232  -8.944 -10.413  1.00  0.00     0.006 A 
ENDBRANCH  63  80
ENDBRANCH  37  38
ENDBRANCH  29  32
ENDBRANCH  27  28
ENDBRANCH  26  27
ENDBRANCH  25  26
ENDBRANCH   1  25
TORSDOF 15
