REMARK SMILES CCN(CC)C(=O)C[C@](C)(C(=O)NCCCCCCNC(=O)c1ccc(-c2c3nc(c(-c4c(F)cccc4F)c4ccc([nH]4)c(-c4c(F)cccc4F)c4nc(c(-c5c(F)cccc5F)c5ccc2[nH]5)C=C4)C=C3)cc1)c1ccccc1
REMARK SMILES IDX 16 1 15 2 14 3 13 4 11 5 12 6 9 8 10 9 8 10 6 11 3 12 7 13
REMARK SMILES IDX 2 14 1 15 4 16 5 17 77 18 78 19 82 20 79 21 81 22 80 23
REMARK SMILES IDX 17 24 18 25 19 26 20 27 21 28 22 30 23 31 24 32 76 33 25 34
REMARK SMILES IDX 75 35 26 36 27 37 28 38 69 39 29 40 74 41 68 42 70 43 30 44
REMARK SMILES IDX 73 45 67 46 66 47 31 49 57 50 40 51 56 52 41 53 44 54 55 55
REMARK SMILES IDX 71 56 42 57 43 58 54 60 72 61 45 62 32 63 33 64 38 65 34 66
REMARK SMILES IDX 35 67 37 68 39 69 36 70 58 71 59 72 64 73 60 74 61 75 63 76
REMARK SMILES IDX 65 77 62 78 46 79 47 80 52 81 48 82 49 83 51 84 53 85 50 86
REMARK H PARENT 13 7 20 29 70 48 44 59
REMARK Flexibility Score: inf
ROOT
ATOM      1  C   UNL     1       3.030  -4.390  -7.940  1.00  0.00     0.002 C 
ENDROOT
BRANCH   1   2
ATOM      2  C   UNL     1       2.703  -3.312  -6.900  1.00  0.00     0.021 C 
BRANCH   2   3
ATOM      3  C   UNL     1       1.981  -3.861  -5.674  1.00  0.00     0.116 C 
BRANCH   3   4
ATOM      4  N   UNL     1       2.908  -4.631  -4.859  1.00  0.00    -0.355 N 
ATOM      5  C   UNL     1       3.366  -4.487  -3.580  1.00  0.00     0.230 C 
ATOM      6  O   UNL     1       4.364  -5.166  -3.320  1.00  0.00    -0.274 OA
ATOM      7  H   UNL     1       3.281  -5.415  -5.323  1.00  0.00     0.163 HD
BRANCH   5   8
ATOM      8  C   UNL     1       2.672  -3.557  -2.545  1.00  0.00     0.080 C 
ATOM      9  C   UNL     1       3.044  -2.126  -3.050  1.00  0.00     0.027 C 
BRANCH   8  10
ATOM     10  C   UNL     1       1.128  -3.768  -2.558  1.00  0.00     0.121 C 
BRANCH  10  11
ATOM     11  C   UNL     1       0.467  -4.684  -1.526  1.00  0.00     0.223 C 
ATOM     12  N   UNL     1       0.540  -6.071  -1.636  1.00  0.00    -0.343 N 
ATOM     13  O   UNL     1      -0.211  -4.153  -0.638  1.00  0.00    -0.275 OA
BRANCH  12  14
ATOM     14  C   UNL     1      -0.141  -6.859  -0.603  1.00  0.00     0.116 C 
ATOM     15  C   UNL     1       0.555  -6.782   0.751  1.00  0.00     0.027 C 
ENDBRANCH  12  14
BRANCH  12  16
ATOM     16  C   UNL     1       1.183  -6.831  -2.707  1.00  0.00     0.116 C 
ATOM     17  C   UNL     1       0.342  -6.930  -3.968  1.00  0.00     0.027 C 
ENDBRANCH  12  16
ENDBRANCH  10  11
ENDBRANCH   8  10
BRANCH   8  18
ATOM     18  C   UNL     1       3.191  -3.706  -1.087  1.00  0.00    -0.032 A 
ATOM     19  C   UNL     1       3.563  -4.955  -0.556  1.00  0.00     0.005 A 
ATOM     20  C   UNL     1       3.219  -2.610  -0.200  1.00  0.00     0.005 A 
ATOM     21  C   UNL     1       3.951  -5.100   0.780  1.00  0.00     0.000 A 
ATOM     22  C   UNL     1       3.618  -2.751   1.132  1.00  0.00     0.000 A 
ATOM     23  C   UNL     1       3.979  -3.998   1.625  1.00  0.00     0.000 A 
ENDBRANCH   8  18
ENDBRANCH   5   8
ENDBRANCH   3   4
ENDBRANCH   2   3
ENDBRANCH   1   2
BRANCH   1  24
ATOM     24  C   UNL     1       1.807  -5.112  -8.517  1.00  0.00     0.002 C 
BRANCH  24  25
ATOM     25  C   UNL     1       0.743  -4.189  -9.115  1.00  0.00     0.021 C 
BRANCH  25  26
ATOM     26  C   UNL     1       1.266  -3.252 -10.198  1.00  0.00     0.116 C 
BRANCH  26  27
ATOM     27  N   UNL     1       1.806  -3.982 -11.334  1.00  0.00    -0.352 N 
ATOM     28  C   UNL     1       1.505  -3.856 -12.665  1.00  0.00     0.251 C 
ATOM     29  H   UNL     1       2.482  -4.664 -11.116  1.00  0.00     0.163 HD
ATOM     30  O   UNL     1       1.899  -4.694 -13.472  1.00  0.00    -0.269 OA
BRANCH  28  31
ATOM     31  C   UNL     1       0.683  -2.718 -13.121  1.00  0.00     0.039 A 
ATOM     32  C   UNL     1      -0.364  -2.957 -14.012  1.00  0.00     0.014 A 
ATOM     33  C   UNL     1       0.940  -1.422 -12.663  1.00  0.00     0.014 A 
ATOM     34  C   UNL     1      -1.195  -1.905 -14.396  1.00  0.00     0.010 A 
ATOM     35  C   UNL     1       0.066  -0.389 -12.986  1.00  0.00     0.010 A 
ATOM     36  C   UNL     1      -1.011  -0.621 -13.855  1.00  0.00    -0.014 A 
BRANCH  36  37
ATOM     37  C   UNL     1      -1.952   0.483 -14.172  1.00  0.00     0.031 A 
ATOM     38  C   UNL     1      -1.473   1.706 -14.902  1.00  0.00     0.074 A 
ATOM     39  C   UNL     1      -3.228   0.405 -13.746  1.00  0.00     0.049 A 
ATOM     40  N   UNL     1      -2.136   2.789 -15.220  1.00  0.00    -0.248 NA
ATOM     41  C   UNL     1      -0.059   1.728 -15.307  1.00  0.00     0.031 C 
ATOM     42  C   UNL     1      -3.799  -0.707 -12.982  1.00  0.00     0.029 A 
ATOM     43  N   UNL     1      -4.274   1.283 -13.883  1.00  0.00    -0.354 N 
ATOM     44  C   UNL     1      -1.220   3.622 -15.850  1.00  0.00     0.074 A 
ATOM     45  C   UNL     1       0.057   2.942 -15.825  1.00  0.00     0.031 C 
ATOM     46  C   UNL     1      -5.094  -0.455 -12.738  1.00  0.00     0.029 A 
ATOM     47  C   UNL     1      -5.436   0.853 -13.288  1.00  0.00     0.049 A 
ATOM     48  H   UNL     1      -4.200   2.139 -14.363  1.00  0.00     0.167 HD
ATOM     49  C   UNL     1      -1.430   4.834 -16.416  1.00  0.00     0.037 A 
ATOM     50  C   UNL     1      -6.638   1.451 -13.184  1.00  0.00     0.037 A 
ATOM     51  C   UNL     1      -2.708   5.497 -16.456  1.00  0.00     0.049 A 
ATOM     52  C   UNL     1      -6.840   2.803 -13.812  1.00  0.00     0.074 A 
ATOM     53  C   UNL     1      -3.037   6.695 -17.067  1.00  0.00     0.029 A 
ATOM     54  N   UNL     1      -3.864   5.025 -15.852  1.00  0.00    -0.354 N 
ATOM     55  N   UNL     1      -5.985   3.541 -14.477  1.00  0.00    -0.248 NA
ATOM     56  C   UNL     1      -8.175   3.402 -13.679  1.00  0.00     0.031 C 
ATOM     57  C   UNL     1      -4.377   6.977 -16.783  1.00  0.00     0.029 A 
ATOM     58  C   UNL     1      -4.900   5.925 -16.049  1.00  0.00     0.049 A 
ATOM     59  H   UNL     1      -3.938   4.177 -15.358  1.00  0.00     0.167 HD
ATOM     60  C   UNL     1      -6.684   4.677 -14.864  1.00  0.00     0.074 A 
ATOM     61  C   UNL     1      -8.039   4.520 -14.377  1.00  0.00     0.031 C 
ATOM     62  C   UNL     1      -6.244   5.755 -15.559  1.00  0.00     0.037 A 
BRANCH  49  63
ATOM     63  C   UNL     1      -0.254   5.529 -17.039  1.00  0.00     0.057 A 
ATOM     64  C   UNL     1       0.340   5.066 -18.221  1.00  0.00     0.134 A 
ATOM     65  C   UNL     1       0.256   6.709 -16.481  1.00  0.00     0.134 A 
ATOM     66  F   UNL     1      -0.092   3.937 -18.802  1.00  0.00    -0.206 F 
ATOM     67  C   UNL     1       1.411   5.739 -18.813  1.00  0.00     0.040 A 
ATOM     68  C   UNL     1       1.306   7.406 -17.079  1.00  0.00     0.040 A 
ATOM     69  F   UNL     1      -0.270   7.212 -15.353  1.00  0.00    -0.206 F 
ATOM     70  C   UNL     1       1.890   6.919 -18.246  1.00  0.00     0.006 A 
ENDBRANCH  49  63
BRANCH  50  71
ATOM     71  C   UNL     1      -7.746   0.778 -12.459  1.00  0.00     0.057 A 
ATOM     72  C   UNL     1      -8.883   0.320 -13.135  1.00  0.00     0.134 A 
ATOM     73  C   UNL     1      -7.705   0.593 -11.072  1.00  0.00     0.134 A 
ATOM     74  F   UNL     1      -8.991   0.483 -14.462  1.00  0.00    -0.206 F 
ATOM     75  C   UNL     1      -9.950  -0.271 -12.457  1.00  0.00     0.040 A 
ATOM     76  C   UNL     1      -8.751  -0.023 -10.384  1.00  0.00     0.040 A 
ATOM     77  F   UNL     1      -6.640   1.000 -10.365  1.00  0.00    -0.206 F 
ATOM     78  C   UNL     1      -9.883  -0.448 -11.076  1.00  0.00     0.006 A 
ENDBRANCH  50  71
BRANCH  62  79
ATOM     79  C   UNL     1      -7.244   6.833 -15.861  1.00  0.00     0.057 A 
ATOM     80  C   UNL     1      -7.750   7.677 -14.863  1.00  0.00     0.134 A 
ATOM     81  C   UNL     1      -7.679   7.054 -17.174  1.00  0.00     0.134 A 
ATOM     82  F   UNL     1      -7.384   7.511 -13.583  1.00  0.00    -0.206 F 
ATOM     83  C   UNL     1      -8.672   8.683 -15.157  1.00  0.00     0.040 A 
ATOM     84  C   UNL     1      -8.577   8.076 -17.485  1.00  0.00     0.040 A 
ATOM     85  F   UNL     1      -7.227   6.290 -18.180  1.00  0.00    -0.206 F 
ATOM     86  C   UNL     1      -9.082   8.889 -16.472  1.00  0.00     0.006 A 
ENDBRANCH  62  79
ENDBRANCH  36  37
ENDBRANCH  28  31
ENDBRANCH  26  27
ENDBRANCH  25  26
ENDBRANCH  24  25
ENDBRANCH   1  24
TORSDOF 18
