REMARK SMILES O=C(NCCCCCCNC(=O)[C@@H]1Cc2[nH]cnc2CN1C(=O)NCC(F)(F)F)c1ccc(-c2c3nc(c(-c4c(F)cccc4F)c4ccc([nH]4)c(-c4c(F)cccc4F)c4nc(c(-c5c(F)cccc5F)c5ccc2[nH]5)C=C4)C=C3)cc1
REMARK SMILES IDX 7 1 6 2 5 3 4 4 3 5 1 6 2 7 30 9 31 10 83 11 32 12 82 13
REMARK SMILES IDX 33 14 34 15 35 16 76 17 36 18 81 19 75 20 77 21 37 22 80 23
REMARK SMILES IDX 74 24 73 25 38 27 64 28 47 29 63 30 48 31 51 32 62 33 78 34
REMARK SMILES IDX 49 35 50 36 61 38 79 39 52 40 39 41 40 42 45 43 41 44 42 45
REMARK SMILES IDX 44 46 46 47 43 48 65 49 66 50 71 51 67 52 68 53 70 54 72 55
REMARK SMILES IDX 69 56 53 57 54 58 59 59 55 60 56 61 58 62 60 63 57 64 8 65
REMARK SMILES IDX 9 66 10 67 11 68 12 70 13 71 14 72 21 73 15 74 20 75 16 76
REMARK SMILES IDX 19 77 17 78 18 80 22 81 23 82 24 83 25 85 26 86 27 87 28 88
REMARK SMILES IDX 29 89
REMARK H PARENT 3 8 77 26 51 37 10 69 16 79 24 84
REMARK Flexibility Score: inf
ROOT
ATOM      1  C   UNL     1      14.453  -0.429   8.771  1.00  0.00     0.002 C 
ENDROOT
BRANCH   1   2
ATOM      2  C   UNL     1      15.274  -1.726   8.781  1.00  0.00     0.002 C 
BRANCH   2   3
ATOM      3  C   UNL     1      15.802  -2.201   7.420  1.00  0.00     0.021 C 
BRANCH   3   4
ATOM      4  C   UNL     1      16.705  -1.200   6.704  1.00  0.00     0.116 C 
BRANCH   4   5
ATOM      5  N   UNL     1      17.824  -0.752   7.502  1.00  0.00    -0.352 N 
ATOM      6  O   UNL     1      19.761  -0.524   8.518  1.00  0.00    -0.269 OA
ATOM      7  C   UNL     1      19.056  -1.251   7.842  1.00  0.00     0.251 C 
ATOM      8  H   UNL     1      17.662   0.133   7.901  1.00  0.00     0.163 HD
BRANCH   7   9
ATOM      9  C   UNL     1      19.546  -2.625   7.515  1.00  0.00     0.039 A 
ATOM     10  C   UNL     1      19.028  -3.494   6.557  1.00  0.00     0.014 A 
ATOM     11  C   UNL     1      20.657  -3.052   8.272  1.00  0.00     0.014 A 
ATOM     12  C   UNL     1      19.546  -4.789   6.433  1.00  0.00     0.010 A 
ATOM     13  C   UNL     1      21.179  -4.337   8.149  1.00  0.00     0.010 A 
ATOM     14  C   UNL     1      20.599  -5.226   7.255  1.00  0.00    -0.014 A 
BRANCH  14  15
ATOM     15  C   UNL     1      21.255  -6.508   6.967  1.00  0.00     0.031 A 
ATOM     16  C   UNL     1      21.920  -6.497   5.632  1.00  0.00     0.074 A 
ATOM     17  C   UNL     1      21.391  -7.552   7.818  1.00  0.00     0.049 A 
ATOM     18  N   UNL     1      21.529  -7.120   4.571  1.00  0.00    -0.248 NA
ATOM     19  C   UNL     1      23.023  -5.551   5.391  1.00  0.00     0.031 C 
ATOM     20  C   UNL     1      21.036  -7.618   9.237  1.00  0.00     0.029 A 
ATOM     21  N   UNL     1      21.943  -8.790   7.600  1.00  0.00    -0.354 N 
ATOM     22  C   UNL     1      22.471  -6.830   3.587  1.00  0.00     0.074 A 
ATOM     23  C   UNL     1      23.245  -5.725   4.086  1.00  0.00     0.031 C 
ATOM     24  C   UNL     1      21.573  -8.732   9.795  1.00  0.00     0.029 A 
ATOM     25  C   UNL     1      22.190  -9.541   8.756  1.00  0.00     0.049 A 
ATOM     26  H   UNL     1      22.150  -9.126   6.698  1.00  0.00     0.167 HD
ATOM     27  C   UNL     1      22.692  -7.704   2.567  1.00  0.00     0.037 A 
ATOM     28  C   UNL     1      22.853 -10.730   8.850  1.00  0.00     0.037 A 
ATOM     29  C   UNL     1      21.613  -8.658   2.475  1.00  0.00     0.049 A 
ATOM     30  C   UNL     1      22.849 -11.348   7.505  1.00  0.00     0.074 A 
ATOM     31  C   UNL     1      20.254  -8.589   2.242  1.00  0.00     0.029 A 
ATOM     32  N   UNL     1      21.840  -9.888   3.036  1.00  0.00    -0.354 N 
ATOM     33  N   UNL     1      21.781 -11.815   6.929  1.00  0.00    -0.248 NA
ATOM     34  C   UNL     1      23.952 -11.017   6.620  1.00  0.00     0.031 C 
ATOM     35  C   UNL     1      19.683  -9.578   3.096  1.00  0.00     0.029 A 
ATOM     36  C   UNL     1      20.722 -10.259   3.730  1.00  0.00     0.049 A 
ATOM     37  H   UNL     1      22.667 -10.415   2.952  1.00  0.00     0.167 HD
ATOM     38  C   UNL     1      21.885 -11.377   5.620  1.00  0.00     0.074 A 
ATOM     39  C   UNL     1      23.279 -10.957   5.469  1.00  0.00     0.031 C 
ATOM     40  C   UNL     1      20.763 -11.119   4.887  1.00  0.00     0.037 A 
BRANCH  27  41
ATOM     41  C   UNL     1      24.049  -7.997   1.966  1.00  0.00     0.057 A 
ATOM     42  C   UNL     1      24.132  -8.896   0.885  1.00  0.00     0.134 A 
ATOM     43  C   UNL     1      25.277  -7.707   2.594  1.00  0.00     0.134 A 
ATOM     44  F   UNL     1      23.033  -9.266   0.210  1.00  0.00    -0.206 F 
ATOM     45  C   UNL     1      25.328  -9.529   0.522  1.00  0.00     0.040 A 
ATOM     46  C   UNL     1      26.484  -8.297   2.207  1.00  0.00     0.040 A 
ATOM     47  F   UNL     1      25.368  -6.929   3.677  1.00  0.00    -0.206 F 
ATOM     48  C   UNL     1      26.508  -9.238   1.191  1.00  0.00     0.006 A 
ENDBRANCH  27  41
BRANCH  28  49
ATOM     49  C   UNL     1      23.752 -11.271   9.908  1.00  0.00     0.057 A 
ATOM     50  C   UNL     1      24.156 -12.621   9.915  1.00  0.00     0.134 A 
ATOM     51  C   UNL     1      24.500 -10.412  10.729  1.00  0.00     0.134 A 
ATOM     52  F   UNL     1      23.542 -13.521   9.132  1.00  0.00    -0.206 F 
ATOM     53  C   UNL     1      25.254 -13.078  10.662  1.00  0.00     0.040 A 
ATOM     54  C   UNL     1      25.598 -10.856  11.480  1.00  0.00     0.040 A 
ATOM     55  F   UNL     1      24.251  -9.096  10.750  1.00  0.00    -0.206 F 
ATOM     56  C   UNL     1      25.989 -12.189  11.437  1.00  0.00     0.006 A 
ENDBRANCH  28  49
BRANCH  40  57
ATOM     57  C   UNL     1      19.445 -11.611   5.418  1.00  0.00     0.057 A 
ATOM     58  C   UNL     1      18.857 -11.202   6.625  1.00  0.00     0.134 A 
ATOM     59  C   UNL     1      18.681 -12.446   4.594  1.00  0.00     0.134 A 
ATOM     60  F   UNL     1      19.468 -10.331   7.439  1.00  0.00    -0.206 F 
ATOM     61  C   UNL     1      17.584 -11.641   7.008  1.00  0.00     0.040 A 
ATOM     62  C   UNL     1      17.397 -12.860   4.946  1.00  0.00     0.040 A 
ATOM     63  F   UNL     1      19.160 -12.839   3.402  1.00  0.00    -0.206 F 
ATOM     64  C   UNL     1      16.848 -12.467   6.163  1.00  0.00     0.006 A 
ENDBRANCH  40  57
ENDBRANCH  14  15
ENDBRANCH   7   9
ENDBRANCH   4   5
ENDBRANCH   3   4
ENDBRANCH   2   3
ENDBRANCH   1   2
BRANCH   1  65
ATOM     65  C   UNL     1      13.261  -0.423   7.812  1.00  0.00     0.021 C 
BRANCH  65  66
ATOM     66  C   UNL     1      12.239  -1.516   8.119  1.00  0.00     0.116 C 
BRANCH  66  67
ATOM     67  N   UNL     1      11.065  -1.007   8.790  1.00  0.00    -0.354 N 
ATOM     68  C   UNL     1       9.765  -0.862   8.433  1.00  0.00     0.243 C 
ATOM     69  H   UNL     1      11.249  -0.699   9.706  1.00  0.00     0.163 HD
ATOM     70  O   UNL     1       9.041  -0.388   9.321  1.00  0.00    -0.273 OA
BRANCH  68  71
ATOM     71  C   UNL     1       9.136  -1.175   7.040  1.00  0.00     0.182 C 
ATOM     72  C   UNL     1       9.474  -2.544   6.386  1.00  0.00     0.091 C 
ATOM     73  N   UNL     1       9.180  -0.069   6.038  1.00  0.00    -0.306 N 
ATOM     74  C   UNL     1      10.578  -2.357   5.407  1.00  0.00     0.042 A 
ATOM     75  C   UNL     1      10.511   0.183   5.442  1.00  0.00     0.180 C 
ATOM     76  N   UNL     1      11.436  -3.294   4.910  1.00  0.00    -0.348 N 
ATOM     77  C   UNL     1      11.070  -1.134   4.997  1.00  0.00     0.081 A 
ATOM     78  C   UNL     1      12.460  -2.605   4.313  1.00  0.00     0.197 A 
ATOM     79  H   UNL     1      11.338  -4.272   4.968  1.00  0.00     0.167 HD
ATOM     80  N   UNL     1      12.261  -1.304   4.338  1.00  0.00    -0.240 NA
BRANCH  73  81
ATOM     81  C   UNL     1       8.170   0.688   5.534  1.00  0.00     0.318 C 
ATOM     82  O   UNL     1       8.391   1.713   4.881  1.00  0.00    -0.249 OA
ATOM     83  N   UNL     1       6.871   0.372   5.617  1.00  0.00    -0.329 N 
ATOM     84  H   UNL     1       6.315   1.040   5.153  1.00  0.00     0.165 HD
BRANCH  83  85
ATOM     85  C   UNL     1       6.044  -0.683   6.204  1.00  0.00     0.233 C 
BRANCH  85  86
ATOM     86  C   UNL     1       5.372  -0.285   7.521  1.00  0.00     0.405 C 
ATOM     87  F   UNL     1       4.297   0.503   7.282  1.00  0.00    -0.169 F 
ATOM     88  F   UNL     1       4.934  -1.381   8.181  1.00  0.00    -0.169 F 
ATOM     89  F   UNL     1       6.203   0.387   8.340  1.00  0.00    -0.169 F 
ENDBRANCH  85  86
ENDBRANCH  83  85
ENDBRANCH  73  81
ENDBRANCH  68  71
ENDBRANCH  66  67
ENDBRANCH  65  66
ENDBRANCH   1  65
TORSDOF 16
