REMARK SMILES O=C(Cn1nc(-c2ccco2)ccc1=O)NCCCCCCNC(=O)c1ccc(-c2c3nc(c(-c4c(F)cccc4F)c4ccc([nH]4)c(-c4c(F)cccc4F)c4nc(c(-c5c(F)cccc5F)c5ccc2[nH]5)C=C4)C=C3)cc1
REMARK SMILES IDX 19 1 18 2 17 3 16 4 1 5 2 6 3 8 4 9 5 10 14 11 6 12 13 13
REMARK SMILES IDX 15 14 12 15 7 16 8 17 11 18 9 19 10 20 20 21 21 22 22 23
REMARK SMILES IDX 23 24 24 25 25 27 26 28 27 29 79 30 28 31 78 32 29 33 30 34
REMARK SMILES IDX 31 35 72 36 32 37 77 38 71 39 73 40 33 41 76 42 70 43 69 44
REMARK SMILES IDX 34 46 60 47 43 48 59 49 44 50 47 51 58 52 74 53 45 54 46 55
REMARK SMILES IDX 57 57 75 58 48 59 35 60 36 61 41 62 37 63 38 64 40 65 42 66
REMARK SMILES IDX 39 67 61 68 62 69 67 70 63 71 64 72 66 73 68 74 65 75 49 76
REMARK SMILES IDX 50 77 55 78 51 79 52 80 54 81 56 82 53 83
REMARK H PARENT 16 7 23 26 73 45 47 56
REMARK Flexibility Score: inf
ROOT
ATOM      1  C   UNL     1       4.230  -2.819   2.131  1.00  0.00     0.002 C 
ENDROOT
BRANCH   1   2
ATOM      2  C   UNL     1       2.718  -2.677   1.908  1.00  0.00     0.021 C 
BRANCH   2   3
ATOM      3  C   UNL     1       2.187  -1.247   2.006  1.00  0.00     0.116 C 
BRANCH   3   4
ATOM      4  N   UNL     1       2.787  -0.385   1.014  1.00  0.00    -0.354 N 
ATOM      5  O   UNL     1       0.923  -0.197  -0.299  1.00  0.00    -0.273 OA
ATOM      6  C   UNL     1       2.088   0.119  -0.061  1.00  0.00     0.241 C 
ATOM      7  H   UNL     1       3.737  -0.146   1.111  1.00  0.00     0.163 HD
BRANCH   6   8
ATOM      8  C   UNL     1       2.920   0.917  -1.061  1.00  0.00     0.248 C 
BRANCH   8   9
ATOM      9  N   UNL     1       3.766   1.941  -0.449  1.00  0.00    -0.220 N 
ATOM     10  N   UNL     1       3.220   3.206  -0.365  1.00  0.00    -0.166 NA
ATOM     11  C   UNL     1       5.044   1.627  -0.017  1.00  0.00     0.267 A 
ATOM     12  C   UNL     1       3.992   4.179   0.011  1.00  0.00     0.126 A 
ATOM     13  C   UNL     1       5.902   2.768   0.363  1.00  0.00     0.076 A 
ATOM     14  O   UNL     1       5.481   0.483   0.076  1.00  0.00    -0.268 OA
ATOM     15  C   UNL     1       5.421   4.013   0.353  1.00  0.00     0.040 A 
BRANCH  12  16
ATOM     16  C   UNL     1       3.428   5.502   0.117  1.00  0.00     0.154 A 
ATOM     17  C   UNL     1       2.204   5.936   0.587  1.00  0.00     0.052 A 
ATOM     18  O   UNL     1       4.155   6.573  -0.327  1.00  0.00    -0.463 OA
ATOM     19  C   UNL     1       2.178   7.341   0.415  1.00  0.00     0.043 A 
ATOM     20  C   UNL     1       3.376   7.675  -0.172  1.00  0.00     0.196 A 
ENDBRANCH  12  16
ENDBRANCH   8   9
ENDBRANCH   6   8
ENDBRANCH   3   4
ENDBRANCH   2   3
ENDBRANCH   1   2
BRANCH   1  21
ATOM     21  C   UNL     1       4.764  -2.254   3.452  1.00  0.00     0.002 C 
BRANCH  21  22
ATOM     22  C   UNL     1       4.098  -2.794   4.717  1.00  0.00     0.021 C 
BRANCH  22  23
ATOM     23  C   UNL     1       4.171  -4.306   4.895  1.00  0.00     0.116 C 
BRANCH  23  24
ATOM     24  N   UNL     1       5.526  -4.795   5.102  1.00  0.00    -0.352 N 
ATOM     25  C   UNL     1       5.988  -5.709   6.021  1.00  0.00     0.251 C 
ATOM     26  H   UNL     1       6.208  -4.420   4.500  1.00  0.00     0.163 HD
ATOM     27  O   UNL     1       7.191  -5.920   6.137  1.00  0.00    -0.269 OA
BRANCH  25  28
ATOM     28  C   UNL     1       5.029  -6.408   6.908  1.00  0.00     0.039 A 
ATOM     29  C   UNL     1       3.845  -6.944   6.399  1.00  0.00     0.014 A 
ATOM     30  C   UNL     1       5.304  -6.494   8.276  1.00  0.00     0.014 A 
ATOM     31  C   UNL     1       2.863  -7.399   7.273  1.00  0.00     0.010 A 
ATOM     32  C   UNL     1       4.348  -7.029   9.146  1.00  0.00     0.010 A 
ATOM     33  C   UNL     1       3.096  -7.433   8.658  1.00  0.00    -0.014 A 
BRANCH  33  34
ATOM     34  C   UNL     1       2.002  -7.862   9.570  1.00  0.00     0.031 A 
ATOM     35  C   UNL     1       1.387  -6.892  10.545  1.00  0.00     0.074 A 
ATOM     36  C   UNL     1       1.512  -9.113   9.472  1.00  0.00     0.049 A 
ATOM     37  N   UNL     1       0.394  -7.077  11.381  1.00  0.00    -0.248 NA
ATOM     38  C   UNL     1       1.961  -5.538  10.592  1.00  0.00     0.031 C 
ATOM     39  C   UNL     1       2.013 -10.147   8.565  1.00  0.00     0.029 A 
ATOM     40  N   UNL     1       0.465  -9.718  10.120  1.00  0.00    -0.354 N 
ATOM     41  C   UNL     1       0.238  -5.875  12.061  1.00  0.00     0.074 A 
ATOM     42  C   UNL     1       1.258  -4.976  11.565  1.00  0.00     0.031 C 
ATOM     43  C   UNL     1       1.241 -11.238   8.674  1.00  0.00     0.029 A 
ATOM     44  C   UNL     1       0.227 -11.002   9.696  1.00  0.00     0.049 A 
ATOM     45  H   UNL     1      -0.064  -9.274  10.822  1.00  0.00     0.167 HD
ATOM     46  C   UNL     1      -0.680  -5.543  13.002  1.00  0.00     0.037 A 
ATOM     47  C   UNL     1      -0.701 -11.894  10.090  1.00  0.00     0.037 A 
ATOM     48  C   UNL     1      -1.710  -6.428  13.484  1.00  0.00     0.049 A 
ATOM     49  C   UNL     1      -1.680 -11.512  11.162  1.00  0.00     0.074 A 
ATOM     50  C   UNL     1      -2.700  -6.173  14.418  1.00  0.00     0.029 A 
ATOM     51  N   UNL     1      -1.882  -7.739  13.068  1.00  0.00    -0.354 N 
ATOM     52  N   UNL     1      -1.824 -10.366  11.782  1.00  0.00    -0.248 NA
ATOM     53  C   UNL     1      -2.621 -12.554  11.595  1.00  0.00     0.031 C 
ATOM     54  C   UNL     1      -3.448  -7.343  14.595  1.00  0.00     0.029 A 
ATOM     55  C   UNL     1      -2.950  -8.313  13.741  1.00  0.00     0.049 A 
ATOM     56  H   UNL     1      -1.329  -8.195  12.394  1.00  0.00     0.167 HD
ATOM     57  C   UNL     1      -2.880 -10.544  12.666  1.00  0.00     0.074 A 
ATOM     58  C   UNL     1      -3.354 -11.901  12.484  1.00  0.00     0.031 C 
ATOM     59  C   UNL     1      -3.407  -9.665  13.552  1.00  0.00     0.037 A 
BRANCH  46  60
ATOM     60  C   UNL     1      -0.601  -4.162  13.586  1.00  0.00     0.057 A 
ATOM     61  C   UNL     1      -0.169  -3.968  14.904  1.00  0.00     0.134 A 
ATOM     62  C   UNL     1      -0.977  -3.027  12.856  1.00  0.00     0.134 A 
ATOM     63  F   UNL     1       0.199  -5.012  15.662  1.00  0.00    -0.206 F 
ATOM     64  C   UNL     1      -0.112  -2.695  15.475  1.00  0.00     0.040 A 
ATOM     65  C   UNL     1      -0.902  -1.746  13.408  1.00  0.00     0.040 A 
ATOM     66  F   UNL     1      -1.387  -3.142  11.584  1.00  0.00    -0.206 F 
ATOM     67  C   UNL     1      -0.473  -1.579  14.723  1.00  0.00     0.006 A 
ENDBRANCH  46  60
BRANCH  47  68
ATOM     68  C   UNL     1      -0.747 -13.241   9.470  1.00  0.00     0.057 A 
ATOM     69  C   UNL     1       0.258 -14.186   9.705  1.00  0.00     0.134 A 
ATOM     70  C   UNL     1      -1.810 -13.619   8.642  1.00  0.00     0.134 A 
ATOM     71  F   UNL     1       1.304 -13.882  10.487  1.00  0.00    -0.206 F 
ATOM     72  C   UNL     1       0.213 -15.457   9.132  1.00  0.00     0.040 A 
ATOM     73  C   UNL     1      -1.881 -14.895   8.083  1.00  0.00     0.040 A 
ATOM     74  F   UNL     1      -2.813 -12.763   8.398  1.00  0.00    -0.206 F 
ATOM     75  C   UNL     1      -0.864 -15.817   8.324  1.00  0.00     0.006 A 
ENDBRANCH  47  68
BRANCH  59  76
ATOM     76  C   UNL     1      -4.569 -10.144  14.371  1.00  0.00     0.057 A 
ATOM     77  C   UNL     1      -5.864  -9.678  14.116  1.00  0.00     0.134 A 
ATOM     78  C   UNL     1      -4.405 -11.066  15.413  1.00  0.00     0.134 A 
ATOM     79  F   UNL     1      -6.088  -8.790  13.136  1.00  0.00    -0.206 F 
ATOM     80  C   UNL     1      -6.957 -10.115  14.866  1.00  0.00     0.040 A 
ATOM     81  C   UNL     1      -5.493 -11.530  16.154  1.00  0.00     0.040 A 
ATOM     82  F   UNL     1      -3.191 -11.564  15.696  1.00  0.00    -0.206 F 
ATOM     83  C   UNL     1      -6.774 -11.050  15.883  1.00  0.00     0.006 A 
ENDBRANCH  59  76
ENDBRANCH  33  34
ENDBRANCH  25  28
ENDBRANCH  23  24
ENDBRANCH  22  23
ENDBRANCH  21  22
ENDBRANCH   1  21
TORSDOF 15
