REMARK SMILES CC(C)C[NH2+][C@@H](CC(=O)Nc1cccc(Cl)c1)C(=O)NCCCCCCNC(=O)c1ccc(-c2c3nc(c(-c4c(F)cccc4F)c4ccc([nH]4)c(-c4c(F)cccc4F)c4nc(c(-c5c(F)cccc5F)c5ccc2[nH]5)C=C4)C=C3)cc1
REMARK SMILES IDX 23 1 22 2 21 3 20 4 18 5 19 6 6 8 5 9 4 12 2 13 1 14 3 15
REMARK SMILES IDX 7 16 8 17 9 18 10 19 11 21 12 22 17 23 13 24 15 25 14 26
REMARK SMILES IDX 16 27 24 28 25 29 26 30 27 31 28 32 29 34 30 35 31 36 83 37
REMARK SMILES IDX 32 38 82 39 33 40 34 41 35 42 76 43 36 44 81 45 75 46 77 47
REMARK SMILES IDX 37 48 80 49 74 50 73 51 38 53 64 54 47 55 63 56 48 57 51 58
REMARK SMILES IDX 62 59 78 60 49 61 50 62 61 64 79 65 52 66 39 67 40 68 45 69
REMARK SMILES IDX 41 70 42 71 44 72 46 73 43 74 65 75 66 76 71 77 67 78 68 79
REMARK SMILES IDX 70 80 72 81 69 82 53 83 54 84 59 85 55 86 56 87 58 88 60 89
REMARK SMILES IDX 57 90
REMARK H PARENT 20 7 5 10 5 11 10 20 27 33 77 52 51 63
REMARK Flexibility Score: inf
ROOT
ATOM      1  C   UNL     1      -1.745  -3.345   4.300  1.00  0.00     0.002 C 
ENDROOT
BRANCH   1   2
ATOM      2  C   UNL     1      -1.370  -2.244   3.320  1.00  0.00     0.021 C 
BRANCH   2   3
ATOM      3  C   UNL     1      -2.508  -1.766   2.427  1.00  0.00     0.116 C 
BRANCH   3   4
ATOM      4  N   UNL     1      -3.329  -0.703   2.943  1.00  0.00    -0.351 N 
ATOM      5  C   UNL     1      -3.836   0.392   2.296  1.00  0.00     0.278 C 
ATOM      6  O   UNL     1      -4.614   1.100   2.950  1.00  0.00    -0.268 OA
ATOM      7  H   UNL     1      -3.559  -0.772   3.898  1.00  0.00     0.163 HD
BRANCH   5   8
ATOM      8  C   UNL     1      -3.430   0.831   0.843  1.00  0.00     0.281 C 
BRANCH   8   9
ATOM      9  N   UNL     1      -2.147   1.521   0.879  1.00  0.00    -0.335 N 
ATOM     10  H   UNL     1      -2.315   2.428   1.313  1.00  0.00     0.346 HD
ATOM     11  H   UNL     1      -1.545   0.862   1.373  1.00  0.00     0.346 HD
BRANCH   9  12
ATOM     12  C   UNL     1      -1.409   1.777  -0.357  1.00  0.00     0.264 C 
BRANCH  12  13
ATOM     13  C   UNL     1       0.393   1.495  -0.439  1.00  0.00     0.038 C 
ATOM     14  C   UNL     1       1.555  -0.258   0.167  1.00  0.00     0.013 C 
ATOM     15  C   UNL     1       0.515   2.446  -1.890  1.00  0.00     0.013 C 
ENDBRANCH  12  13
ENDBRANCH   9  12
ENDBRANCH   8   9
BRANCH   8  16
ATOM     16  C   UNL     1      -3.685  -0.195  -0.251  1.00  0.00     0.175 C 
BRANCH  16  17
ATOM     17  C   UNL     1      -2.797  -1.394  -0.531  1.00  0.00     0.230 C 
ATOM     18  O   UNL     1      -3.346  -2.478  -0.784  1.00  0.00    -0.274 OA
ATOM     19  N   UNL     1      -1.447  -1.371  -0.691  1.00  0.00    -0.326 N 
ATOM     20  H   UNL     1      -1.107  -2.187  -1.126  1.00  0.00     0.169 HD
BRANCH  19  21
ATOM     21  C   UNL     1      -0.421  -0.461  -0.384  1.00  0.00     0.042 A 
ATOM     22  C   UNL     1      -0.083   0.294   1.241  1.00  0.00     0.026 A 
ATOM     23  C   UNL     1       0.730  -0.185  -1.737  1.00  0.00     0.046 A 
ATOM     24  C   UNL     1       1.374   1.335   1.489  1.00  0.00     0.004 A 
ATOM     25  C   UNL     1       2.196   0.811  -1.469  1.00  0.00     0.043 A 
ATOM     26  C   UNL     1       2.490   1.621   0.112  1.00  0.00     0.020 A 
ATOM     27  Cl  UNL     1       3.413   0.855  -2.690  1.00  0.00    -0.084 Cl
ENDBRANCH  19  21
ENDBRANCH  16  17
ENDBRANCH   8  16
ENDBRANCH   5   8
ENDBRANCH   3   4
ENDBRANCH   2   3
ENDBRANCH   1   2
BRANCH   1  28
ATOM     28  C   UNL     1      -2.348  -4.601   3.662  1.00  0.00     0.002 C 
BRANCH  28  29
ATOM     29  C   UNL     1      -1.487  -5.287   2.595  1.00  0.00     0.021 C 
BRANCH  29  30
ATOM     30  C   UNL     1      -0.096  -5.708   3.062  1.00  0.00     0.116 C 
BRANCH  30  31
ATOM     31  N   UNL     1      -0.146  -6.571   4.233  1.00  0.00    -0.352 N 
ATOM     32  C   UNL     1       0.306  -7.854   4.406  1.00  0.00     0.251 C 
ATOM     33  H   UNL     1      -0.571  -6.170   5.026  1.00  0.00     0.163 HD
ATOM     34  O   UNL     1      -0.020  -8.494   5.401  1.00  0.00    -0.269 OA
BRANCH  32  35
ATOM     35  C   UNL     1       1.172  -8.475   3.384  1.00  0.00     0.039 A 
ATOM     36  C   UNL     1       0.911  -9.787   2.982  1.00  0.00     0.014 A 
ATOM     37  C   UNL     1       2.240  -7.766   2.825  1.00  0.00     0.014 A 
ATOM     38  C   UNL     1       1.672 -10.361   1.962  1.00  0.00     0.010 A 
ATOM     39  C   UNL     1       2.946  -8.311   1.758  1.00  0.00     0.010 A 
ATOM     40  C   UNL     1       2.663  -9.610   1.308  1.00  0.00    -0.014 A 
BRANCH  40  41
ATOM     41  C   UNL     1       3.382 -10.149   0.126  1.00  0.00     0.031 A 
ATOM     42  C   UNL     1       4.870 -10.351   0.164  1.00  0.00     0.074 A 
ATOM     43  C   UNL     1       2.697 -10.387  -1.010  1.00  0.00     0.049 A 
ATOM     44  N   UNL     1       5.677 -10.731  -0.794  1.00  0.00    -0.248 NA
ATOM     45  C   UNL     1       5.545 -10.066   1.440  1.00  0.00     0.031 C 
ATOM     46  C   UNL     1       1.256 -10.197  -1.184  1.00  0.00     0.029 A 
ATOM     47  N   UNL     1       3.123 -10.828  -2.238  1.00  0.00    -0.354 N 
ATOM     48  C   UNL     1       6.951 -10.725  -0.241  1.00  0.00     0.074 A 
ATOM     49  C   UNL     1       6.817 -10.251   1.120  1.00  0.00     0.031 C 
ATOM     50  C   UNL     1       0.914 -10.540  -2.435  1.00  0.00     0.029 A 
ATOM     51  C   UNL     1       2.116 -10.921  -3.169  1.00  0.00     0.049 A 
ATOM     52  H   UNL     1       4.061 -11.057  -2.434  1.00  0.00     0.167 HD
ATOM     53  C   UNL     1       8.121 -11.100  -0.810  1.00  0.00     0.037 A 
ATOM     54  C   UNL     1       2.158 -11.253  -4.474  1.00  0.00     0.037 A 
ATOM     55  C   UNL     1       8.246 -11.573  -2.165  1.00  0.00     0.049 A 
ATOM     56  C   UNL     1       3.479 -11.612  -5.096  1.00  0.00     0.074 A 
ATOM     57  C   UNL     1       9.380 -12.022  -2.818  1.00  0.00     0.029 A 
ATOM     58  N   UNL     1       7.205 -11.643  -3.079  1.00  0.00    -0.354 N 
ATOM     59  N   UNL     1       4.666 -11.671  -4.542  1.00  0.00    -0.248 NA
ATOM     60  C   UNL     1       3.468 -11.952  -6.526  1.00  0.00     0.031 C 
ATOM     61  C   UNL     1       9.041 -12.295  -4.146  1.00  0.00     0.029 A 
ATOM     62  C   UNL     1       7.680 -12.089  -4.303  1.00  0.00     0.049 A 
ATOM     63  H   UNL     1       6.268 -11.410  -2.888  1.00  0.00     0.167 HD
ATOM     64  C   UNL     1       5.535 -12.082  -5.545  1.00  0.00     0.074 A 
ATOM     65  C   UNL     1       4.736 -12.274  -6.737  1.00  0.00     0.031 C 
ATOM     66  C   UNL     1       6.875 -12.281  -5.483  1.00  0.00     0.037 A 
BRANCH  53  67
ATOM     67  C   UNL     1       9.366 -11.002   0.026  1.00  0.00     0.057 A 
ATOM     68  C   UNL     1       9.586 -11.835   1.132  1.00  0.00     0.134 A 
ATOM     69  C   UNL     1      10.380 -10.093  -0.305  1.00  0.00     0.134 A 
ATOM     70  F   UNL     1       8.655 -12.724   1.510  1.00  0.00    -0.206 F 
ATOM     71  C   UNL     1      10.753 -11.746   1.894  1.00  0.00     0.040 A 
ATOM     72  C   UNL     1      11.565 -10.018   0.429  1.00  0.00     0.040 A 
ATOM     73  F   UNL     1      10.242  -9.271  -1.357  1.00  0.00    -0.206 F 
ATOM     74  C   UNL     1      11.750 -10.841   1.538  1.00  0.00     0.006 A 
ENDBRANCH  53  67
BRANCH  54  75
ATOM     75  C   UNL     1       0.911 -11.258  -5.283  1.00  0.00     0.057 A 
ATOM     76  C   UNL     1       0.388 -12.450  -5.799  1.00  0.00     0.134 A 
ATOM     77  C   UNL     1       0.221 -10.074  -5.573  1.00  0.00     0.134 A 
ATOM     78  F   UNL     1       1.011 -13.615  -5.572  1.00  0.00    -0.206 F 
ATOM     79  C   UNL     1      -0.759 -12.461  -6.595  1.00  0.00     0.040 A 
ATOM     80  C   UNL     1      -0.945 -10.075  -6.340  1.00  0.00     0.040 A 
ATOM     81  F   UNL     1       0.663  -8.899  -5.102  1.00  0.00    -0.206 F 
ATOM     82  C   UNL     1      -1.432 -11.271  -6.862  1.00  0.00     0.006 A 
ENDBRANCH  54  75
BRANCH  66  83
ATOM     83  C   UNL     1       7.562 -12.765  -6.728  1.00  0.00     0.057 A 
ATOM     84  C   UNL     1       7.728 -11.945  -7.852  1.00  0.00     0.134 A 
ATOM     85  C   UNL     1       8.113 -14.052  -6.782  1.00  0.00     0.134 A 
ATOM     86  F   UNL     1       7.214 -10.706  -7.873  1.00  0.00    -0.206 F 
ATOM     87  C   UNL     1       8.397 -12.396  -8.992  1.00  0.00     0.040 A 
ATOM     88  C   UNL     1       8.814 -14.502  -7.902  1.00  0.00     0.040 A 
ATOM     89  F   UNL     1       8.000 -14.886  -5.737  1.00  0.00    -0.206 F 
ATOM     90  C   UNL     1       8.952 -13.675  -9.014  1.00  0.00     0.006 A 
ENDBRANCH  66  83
ENDBRANCH  40  41
ENDBRANCH  32  35
ENDBRANCH  30  31
ENDBRANCH  29  30
ENDBRANCH  28  29
ENDBRANCH   1  28
TORSDOF 19
