REMARK SMILES C[C@H](C[N@H+](C)[C@H]1CC[C@H]([NH3+])CC1)C(=O)NCCCCCCNC(=O)c1ccc(-c2c3nc(c(-c4c(F)cccc4F)c4ccc([nH]4)c(-c4c(F)cccc4F)c4nc(c(-c5c(F)cccc5F)c5ccc2[nH]5)C=C4)C=C3)cc1
REMARK SMILES IDX 17 1 16 2 15 3 13 4 14 5 2 7 1 8 3 9 4 10 5 11 6 13 7 14
REMARK SMILES IDX 12 15 8 16 11 17 9 18 10 19 18 23 19 24 20 25 21 26 22 27
REMARK SMILES IDX 23 28 24 30 25 31 26 32 78 33 27 34 77 35 28 36 29 37 30 38
REMARK SMILES IDX 71 39 31 40 76 41 70 42 72 43 32 44 75 45 69 46 68 47 33 49
REMARK SMILES IDX 59 50 42 51 58 52 43 53 46 54 57 55 73 56 44 57 45 58 56 60
REMARK SMILES IDX 74 61 47 62 34 63 35 64 40 65 36 66 37 67 39 68 41 69 38 70
REMARK SMILES IDX 60 71 61 72 66 73 62 74 63 75 65 76 67 77 64 78 48 79 49 80
REMARK SMILES IDX 54 81 50 82 51 83 53 84 55 85 52 86
REMARK H PARENT 15 6 4 12 10 20 10 21 10 22 22 29 72 48 46 59
REMARK Flexibility Score: inf
ROOT
ATOM      1  C   UNL     1      -2.447  -1.449  -1.911  1.00  0.00     0.021 C 
ENDROOT
BRANCH   1   2
ATOM      2  C   UNL     1      -1.590  -0.295  -1.416  1.00  0.00     0.116 C 
BRANCH   2   3
ATOM      3  N   UNL     1      -1.944   0.274  -0.145  1.00  0.00    -0.356 N 
ATOM      4  C   UNL     1      -1.229   1.081   0.682  1.00  0.00     0.228 C 
ATOM      5  O   UNL     1      -1.907   1.688   1.525  1.00  0.00    -0.275 OA
ATOM      6  H   UNL     1      -2.845   0.043   0.177  1.00  0.00     0.163 HD
BRANCH   4   7
ATOM      7  C   UNL     1       0.311   1.238   0.722  1.00  0.00     0.130 C 
ATOM      8  C   UNL     1       0.732   2.709   0.889  1.00  0.00     0.024 C 
BRANCH   7   9
ATOM      9  C   UNL     1       1.299   0.382  -0.106  1.00  0.00     0.275 C 
BRANCH   9  10
ATOM     10  N   UNL     1       1.927   0.786  -1.381  1.00  0.00    -0.334 N 
ATOM     11  C   UNL     1       3.269   1.327  -1.236  1.00  0.00     0.332 C 
ATOM     12  H   UNL     1       2.027  -0.141  -1.794  1.00  0.00     0.348 HD
BRANCH  10  13
ATOM     13  C   UNL     1       1.131   1.228  -2.534  1.00  0.00     0.184 C 
ATOM     14  C   UNL     1       1.919   1.285  -3.866  1.00  0.00     0.071 C 
ATOM     15  C   UNL     1       0.378   2.557  -2.353  1.00  0.00     0.071 C 
ATOM     16  C   UNL     1       0.989   1.562  -5.053  1.00  0.00     0.071 C 
ATOM     17  C   UNL     1      -0.530   2.893  -3.536  1.00  0.00     0.071 C 
ATOM     18  C   UNL     1       0.216   2.870  -4.867  1.00  0.00     0.181 C 
BRANCH  18  19
ATOM     19  N   UNL     1      -0.744   3.068  -5.952  1.00  0.00    -0.355 N 
ATOM     20  H   UNL     1      -1.429   2.313  -5.942  1.00  0.00     0.344 HD
ATOM     21  H   UNL     1      -0.251   3.069  -6.846  1.00  0.00     0.344 HD
ATOM     22  H   UNL     1      -1.220   3.961  -5.826  1.00  0.00     0.344 HD
ENDBRANCH  18  19
ENDBRANCH  10  13
ENDBRANCH   9  10
ENDBRANCH   7   9
ENDBRANCH   4   7
ENDBRANCH   2   3
ENDBRANCH   1   2
BRANCH   1  23
ATOM     23  C   UNL     1      -3.821  -1.077  -2.465  1.00  0.00     0.002 C 
BRANCH  23  24
ATOM     24  C   UNL     1      -3.858  -0.004  -3.559  1.00  0.00     0.002 C 
BRANCH  24  25
ATOM     25  C   UNL     1      -2.950  -0.218  -4.773  1.00  0.00     0.021 C 
BRANCH  25  26
ATOM     26  C   UNL     1      -3.088  -1.553  -5.498  1.00  0.00     0.116 C 
BRANCH  26  27
ATOM     27  N   UNL     1      -4.444  -1.823  -5.941  1.00  0.00    -0.352 N 
ATOM     28  C   UNL     1      -4.915  -2.225  -7.166  1.00  0.00     0.251 C 
ATOM     29  H   UNL     1      -5.136  -1.698  -5.252  1.00  0.00     0.163 HD
ATOM     30  O   UNL     1      -6.124  -2.278  -7.364  1.00  0.00    -0.269 OA
BRANCH  28  31
ATOM     31  C   UNL     1      -3.980  -2.570  -8.262  1.00  0.00     0.039 A 
ATOM     32  C   UNL     1      -4.277  -2.129  -9.555  1.00  0.00     0.014 A 
ATOM     33  C   UNL     1      -2.837  -3.341  -8.036  1.00  0.00     0.014 A 
ATOM     34  C   UNL     1      -3.400  -2.407 -10.606  1.00  0.00     0.010 A 
ATOM     35  C   UNL     1      -1.926  -3.555  -9.070  1.00  0.00     0.010 A 
ATOM     36  C   UNL     1      -2.197  -3.091 -10.366  1.00  0.00    -0.014 A 
BRANCH  36  37
ATOM     37  C   UNL     1      -1.212  -3.317 -11.455  1.00  0.00     0.031 A 
ATOM     38  C   UNL     1      -0.871  -4.715 -11.896  1.00  0.00     0.074 A 
ATOM     39  C   UNL     1      -0.578  -2.264 -12.009  1.00  0.00     0.049 A 
ATOM     40  N   UNL     1       0.010  -5.112 -12.780  1.00  0.00    -0.248 NA
ATOM     41  C   UNL     1      -1.601  -5.812 -11.242  1.00  0.00     0.031 C 
ATOM     42  C   UNL     1      -0.793  -0.862 -11.646  1.00  0.00     0.029 A 
ATOM     43  N   UNL     1       0.381  -2.210 -12.989  1.00  0.00    -0.354 N 
ATOM     44  C   UNL     1      -0.053  -6.500 -12.780  1.00  0.00     0.074 A 
ATOM     45  C   UNL     1      -1.018  -6.878 -11.770  1.00  0.00     0.031 C 
ATOM     46  C   UNL     1      -0.007  -0.085 -12.409  1.00  0.00     0.029 A 
ATOM     47  C   UNL     1       0.798  -0.933 -13.282  1.00  0.00     0.049 A 
ATOM     48  H   UNL     1       0.738  -3.009 -13.439  1.00  0.00     0.167 HD
ATOM     49  C   UNL     1       0.615  -7.378 -13.566  1.00  0.00     0.037 A 
ATOM     50  C   UNL     1       1.731  -0.495 -14.148  1.00  0.00     0.037 A 
ATOM     51  C   UNL     1       1.564  -6.998 -14.580  1.00  0.00     0.049 A 
ATOM     52  C   UNL     1       2.483  -1.493 -14.985  1.00  0.00     0.074 A 
ATOM     53  C   UNL     1       2.256  -7.811 -15.460  1.00  0.00     0.029 A 
ATOM     54  N   UNL     1       1.960  -5.695 -14.845  1.00  0.00    -0.354 N 
ATOM     55  N   UNL     1       2.369  -2.799 -15.018  1.00  0.00    -0.248 NA
ATOM     56  C   UNL     1       3.492  -0.956 -15.909  1.00  0.00     0.031 C 
ATOM     57  C   UNL     1       3.111  -7.006 -16.220  1.00  0.00     0.029 A 
ATOM     58  C   UNL     1       2.907  -5.685 -15.856  1.00  0.00     0.049 A 
ATOM     59  H   UNL     1       1.617  -4.896 -14.383  1.00  0.00     0.167 HD
ATOM     60  C   UNL     1       3.265  -3.236 -15.985  1.00  0.00     0.074 A 
ATOM     61  C   UNL     1       3.905  -2.055 -16.525  1.00  0.00     0.031 C 
ATOM     62  C   UNL     1       3.532  -4.501 -16.390  1.00  0.00     0.037 A 
BRANCH  49  63
ATOM     63  C   UNL     1       0.344  -8.841 -13.359  1.00  0.00     0.057 A 
ATOM     64  C   UNL     1      -0.883  -9.423 -13.706  1.00  0.00     0.134 A 
ATOM     65  C   UNL     1       1.336  -9.689 -12.848  1.00  0.00     0.134 A 
ATOM     66  F   UNL     1      -1.881  -8.668 -14.191  1.00  0.00    -0.206 F 
ATOM     67  C   UNL     1      -1.123 -10.787 -13.525  1.00  0.00     0.040 A 
ATOM     68  C   UNL     1       1.118 -11.059 -12.692  1.00  0.00     0.040 A 
ATOM     69  F   UNL     1       2.537  -9.201 -12.504  1.00  0.00    -0.206 F 
ATOM     70  C   UNL     1      -0.117 -11.610 -13.024  1.00  0.00     0.006 A 
ENDBRANCH  49  63
BRANCH  50  71
ATOM     71  C   UNL     1       2.001   0.960 -14.281  1.00  0.00     0.057 A 
ATOM     72  C   UNL     1       1.668   1.652 -15.452  1.00  0.00     0.134 A 
ATOM     73  C   UNL     1       2.608   1.691 -13.252  1.00  0.00     0.134 A 
ATOM     74  F   UNL     1       1.102   1.004 -16.480  1.00  0.00    -0.206 F 
ATOM     75  C   UNL     1       1.950   3.011 -15.605  1.00  0.00     0.040 A 
ATOM     76  C   UNL     1       2.870   3.056 -13.380  1.00  0.00     0.040 A 
ATOM     77  F   UNL     1       2.944   1.090 -12.101  1.00  0.00    -0.206 F 
ATOM     78  C   UNL     1       2.549   3.717 -14.564  1.00  0.00     0.006 A 
ENDBRANCH  50  71
BRANCH  62  79
ATOM     79  C   UNL     1       4.532  -4.675 -17.497  1.00  0.00     0.057 A 
ATOM     80  C   UNL     1       5.901  -4.452 -17.304  1.00  0.00     0.134 A 
ATOM     81  C   UNL     1       4.121  -5.112 -18.764  1.00  0.00     0.134 A 
ATOM     82  F   UNL     1       6.359  -4.021 -16.119  1.00  0.00    -0.206 F 
ATOM     83  C   UNL     1       6.823  -4.636 -18.336  1.00  0.00     0.040 A 
ATOM     84  C   UNL     1       5.037  -5.328 -19.795  1.00  0.00     0.040 A 
ATOM     85  F   UNL     1       2.826  -5.353 -19.015  1.00  0.00    -0.206 F 
ATOM     86  C   UNL     1       6.391  -5.082 -19.584  1.00  0.00     0.006 A 
ENDBRANCH  62  79
ENDBRANCH  36  37
ENDBRANCH  28  31
ENDBRANCH  26  27
ENDBRANCH  25  26
ENDBRANCH  24  25
ENDBRANCH  23  24
ENDBRANCH   1  23
TORSDOF 17
