REMARK SMILES CCC[NH2+][C@@]1(C(=O)NCCCCCCNC(=O)c2ccc(-c3c4nc(c(-c5c(F)cccc5F)c5ccc([nH]5)c(-c5c(F)cccc5F)c5nc(c(-c6c(F)cccc6F)c6ccc3[nH]6)C=C5)C=C4)cc2)CC[C@@H](SC2CCCC2)C1
REMARK SMILES IDX 11 1 10 2 9 3 8 4 6 5 7 6 5 8 72 9 81 10 73 11 74 12 4 13
REMARK SMILES IDX 3 16 2 17 1 18 75 19 76 20 77 21 80 22 78 23 79 24 12 25
REMARK SMILES IDX 13 26 14 27 15 28 16 29 17 31 18 32 19 33 71 34 20 35 70 36
REMARK SMILES IDX 21 37 22 38 23 39 64 40 24 41 69 42 63 43 65 44 25 45 68 46
REMARK SMILES IDX 62 47 61 48 26 50 52 51 35 52 51 53 36 54 39 55 50 56 66 57
REMARK SMILES IDX 37 58 38 59 49 61 67 62 40 63 27 64 28 65 33 66 29 67 30 68
REMARK SMILES IDX 32 69 34 70 31 71 53 72 54 73 59 74 55 75 56 76 58 77 60 78
REMARK SMILES IDX 57 79 41 80 42 81 47 82 43 83 44 84 46 85 48 86 45 87
REMARK H PARENT 8 7 4 14 4 15 15 30 65 49 39 60
REMARK Flexibility Score: inf
ROOT
ATOM      1  C   UNL     1       4.167  -7.106   4.402  1.00  0.00     0.002 C 
ENDROOT
BRANCH   1   2
ATOM      2  C   UNL     1       3.991  -6.614   2.969  1.00  0.00     0.021 C 
BRANCH   2   3
ATOM      3  C   UNL     1       2.563  -6.264   2.588  1.00  0.00     0.116 C 
BRANCH   3   4
ATOM      4  N   UNL     1       2.209  -4.889   2.803  1.00  0.00    -0.351 N 
ATOM      5  C   UNL     1       1.571  -3.997   2.001  1.00  0.00     0.281 C 
ATOM      6  O   UNL     1       1.363  -2.889   2.522  1.00  0.00    -0.268 OA
ATOM      7  H   UNL     1       2.475  -4.532   3.681  1.00  0.00     0.163 HD
BRANCH   5   8
ATOM      8  C   UNL     1       1.057  -4.275   0.510  1.00  0.00     0.176 C 
ATOM      9  C   UNL     1      -0.047  -5.354   0.462  1.00  0.00     0.080 C 
ATOM     10  C   UNL     1       2.151  -4.791  -0.458  1.00  0.00     0.093 C 
ATOM     11  C   UNL     1       0.583  -6.661  -0.014  1.00  0.00     0.022 C 
ATOM     12  C   UNL     1       1.841  -6.266  -0.781  1.00  0.00     0.054 C 
BRANCH   8  13
ATOM     13  N   UNL     1       0.351  -3.001   0.123  1.00  0.00    -0.334 N 
ATOM     14  H   UNL     1      -0.560  -3.260  -0.255  1.00  0.00     0.347 HD
ATOM     15  H   UNL     1       0.331  -2.448   0.980  1.00  0.00     0.347 HD
BRANCH  13  16
ATOM     16  C   UNL     1       0.999  -2.137  -0.856  1.00  0.00     0.261 C 
BRANCH  16  17
ATOM     17  C   UNL     1       0.364  -0.744  -0.921  1.00  0.00     0.058 C 
ATOM     18  C   UNL     1       0.870   0.187   0.167  1.00  0.00     0.010 C 
ENDBRANCH  16  17
ENDBRANCH  13  16
ENDBRANCH   8  13
BRANCH  12  19
ATOM     19  S   UNL     1       2.073  -6.869  -2.499  1.00  0.00    -0.155 SA
BRANCH  19  20
ATOM     20  C   UNL     1       0.657  -6.314  -3.503  1.00  0.00     0.047 C 
ATOM     21  C   UNL     1      -0.748  -6.701  -3.073  1.00  0.00     0.014 C 
ATOM     22  C   UNL     1       0.577  -4.822  -3.780  1.00  0.00     0.014 C 
ATOM     23  C   UNL     1      -1.622  -5.871  -3.999  1.00  0.00     0.001 C 
ATOM     24  C   UNL     1      -0.890  -4.537  -4.108  1.00  0.00     0.001 C 
ENDBRANCH  19  20
ENDBRANCH  12  19
ENDBRANCH   5   8
ENDBRANCH   3   4
ENDBRANCH   2   3
ENDBRANCH   1   2
BRANCH   1  25
ATOM     25  C   UNL     1       3.288  -8.296   4.806  1.00  0.00     0.002 C 
BRANCH  25  26
ATOM     26  C   UNL     1       3.315  -9.506   3.866  1.00  0.00     0.021 C 
BRANCH  26  27
ATOM     27  C   UNL     1       4.701 -10.073   3.568  1.00  0.00     0.116 C 
BRANCH  27  28
ATOM     28  N   UNL     1       5.440 -10.384   4.779  1.00  0.00    -0.352 N 
ATOM     29  C   UNL     1       6.001 -11.564   5.194  1.00  0.00     0.251 C 
ATOM     30  H   UNL     1       5.557  -9.629   5.400  1.00  0.00     0.163 HD
ATOM     31  O   UNL     1       6.418 -11.675   6.341  1.00  0.00    -0.269 OA
BRANCH  29  32
ATOM     32  C   UNL     1       6.090 -12.709   4.265  1.00  0.00     0.039 A 
ATOM     33  C   UNL     1       5.763 -13.982   4.738  1.00  0.00     0.014 A 
ATOM     34  C   UNL     1       6.519 -12.536   2.946  1.00  0.00     0.014 A 
ATOM     35  C   UNL     1       5.812 -15.075   3.871  1.00  0.00     0.010 A 
ATOM     36  C   UNL     1       6.501 -13.614   2.065  1.00  0.00     0.010 A 
ATOM     37  C   UNL     1       6.150 -14.894   2.520  1.00  0.00    -0.014 A 
BRANCH  37  38
ATOM     38  C   UNL     1       6.132 -16.032   1.569  1.00  0.00     0.031 A 
ATOM     39  C   UNL     1       7.404 -16.494   0.914  1.00  0.00     0.074 A 
ATOM     40  C   UNL     1       4.958 -16.610   1.250  1.00  0.00     0.049 A 
ATOM     41  N   UNL     1       7.578 -17.427   0.013  1.00  0.00    -0.248 NA
ATOM     42  C   UNL     1       8.640 -15.799   1.306  1.00  0.00     0.031 C 
ATOM     43  C   UNL     1       3.652 -16.222   1.786  1.00  0.00     0.029 A 
ATOM     44  N   UNL     1       4.671 -17.640   0.390  1.00  0.00    -0.354 N 
ATOM     45  C   UNL     1       8.936 -17.424  -0.277  1.00  0.00     0.074 A 
ATOM     46  C   UNL     1       9.532 -16.362   0.504  1.00  0.00     0.031 C 
ATOM     47  C   UNL     1       2.707 -17.017   1.260  1.00  0.00     0.029 A 
ATOM     48  C   UNL     1       3.333 -17.942   0.320  1.00  0.00     0.049 A 
ATOM     49  H   UNL     1       5.359 -18.117  -0.128  1.00  0.00     0.167 HD
ATOM     50  C   UNL     1       9.627 -18.246  -1.102  1.00  0.00     0.037 A 
ATOM     51  C   UNL     1       2.683 -18.854  -0.426  1.00  0.00     0.037 A 
ATOM     52  C   UNL     1       9.030 -19.312  -1.865  1.00  0.00     0.049 A 
ATOM     53  C   UNL     1       3.470 -19.742  -1.349  1.00  0.00     0.074 A 
ATOM     54  C   UNL     1       9.652 -20.237  -2.686  1.00  0.00     0.029 A 
ATOM     55  N   UNL     1       7.673 -19.593  -1.904  1.00  0.00    -0.354 N 
ATOM     56  N   UNL     1       4.764 -19.774  -1.561  1.00  0.00    -0.248 NA
ATOM     57  C   UNL     1       2.708 -20.724  -2.132  1.00  0.00     0.031 C 
ATOM     58  C   UNL     1       8.665 -21.044  -3.261  1.00  0.00     0.029 A 
ATOM     59  C   UNL     1       7.434 -20.659  -2.756  1.00  0.00     0.049 A 
ATOM     60  H   UNL     1       6.981 -19.106  -1.400  1.00  0.00     0.167 HD
ATOM     61  C   UNL     1       4.973 -20.795  -2.479  1.00  0.00     0.074 A 
ATOM     62  C   UNL     1       3.675 -21.367  -2.770  1.00  0.00     0.031 C 
ATOM     63  C   UNL     1       6.136 -21.220  -3.032  1.00  0.00     0.037 A 
BRANCH  50  64
ATOM     64  C   UNL     1      11.107 -18.024  -1.224  1.00  0.00     0.057 A 
ATOM     65  C   UNL     1      11.986 -18.306  -0.170  1.00  0.00     0.134 A 
ATOM     66  C   UNL     1      11.664 -17.555  -2.420  1.00  0.00     0.134 A 
ATOM     67  F   UNL     1      11.518 -18.747   1.007  1.00  0.00    -0.206 F 
ATOM     68  C   UNL     1      13.362 -18.104  -0.292  1.00  0.00     0.040 A 
ATOM     69  C   UNL     1      13.041 -17.376  -2.564  1.00  0.00     0.040 A 
ATOM     70  F   UNL     1      10.882 -17.271  -3.472  1.00  0.00    -0.206 F 
ATOM     71  C   UNL     1      13.894 -17.645  -1.495  1.00  0.00     0.006 A 
ENDBRANCH  50  64
BRANCH  51  72
ATOM     72  C   UNL     1       1.208 -18.987  -0.320  1.00  0.00     0.057 A 
ATOM     73  C   UNL     1       0.624 -20.120   0.260  1.00  0.00     0.134 A 
ATOM     74  C   UNL     1       0.347 -17.992  -0.800  1.00  0.00     0.134 A 
ATOM     75  F   UNL     1       1.396 -21.114   0.722  1.00  0.00    -0.206 F 
ATOM     76  C   UNL     1      -0.761 -20.270   0.339  1.00  0.00     0.040 A 
ATOM     77  C   UNL     1      -1.040 -18.117  -0.703  1.00  0.00     0.040 A 
ATOM     78  F   UNL     1       0.843 -16.878  -1.358  1.00  0.00    -0.206 F 
ATOM     79  C   UNL     1      -1.598 -19.263  -0.140  1.00  0.00     0.006 A 
ENDBRANCH  51  72
BRANCH  63  80
ATOM     80  C   UNL     1       6.060 -22.380  -3.982  1.00  0.00     0.057 A 
ATOM     81  C   UNL     1       5.508 -22.254  -5.263  1.00  0.00     0.134 A 
ATOM     82  C   UNL     1       6.579 -23.630  -3.621  1.00  0.00     0.134 A 
ATOM     83  F   UNL     1       4.981 -21.088  -5.665  1.00  0.00    -0.206 F 
ATOM     84  C   UNL     1       5.452 -23.337  -6.142  1.00  0.00     0.040 A 
ATOM     85  C   UNL     1       6.556 -24.712  -4.502  1.00  0.00     0.040 A 
ATOM     86  F   UNL     1       7.130 -23.816  -2.412  1.00  0.00    -0.206 F 
ATOM     87  C   UNL     1       5.985 -24.569  -5.764  1.00  0.00     0.006 A 
ENDBRANCH  63  80
ENDBRANCH  37  38
ENDBRANCH  29  32
ENDBRANCH  27  28
ENDBRANCH  26  27
ENDBRANCH  25  26
ENDBRANCH   1  25
TORSDOF 18
