REMARK SMILES Nc1nc(N2CCOC[C@H]2C(=O)NCCCCCCNC(=O)c2ccc(-c3c4nc(c(-c5c(F)cccc5F)c5ccc([nH]5)c(-c5c(F)cccc5F)c5nc(c(-c6c(F)cccc6F)c6ccc3[nH]6)C=C5)C=C4)cc2)ccc1[N+](=O)[O-]
REMARK SMILES IDX 16 1 15 2 14 3 13 4 11 5 12 6 10 8 5 9 6 10 7 11 9 12 8 13
REMARK SMILES IDX 4 14 2 15 3 16 79 17 78 18 77 19 1 20 80 23 81 24 82 25
REMARK SMILES IDX 17 26 18 27 19 28 20 29 21 30 22 32 23 33 24 34 76 35 25 36
REMARK SMILES IDX 75 37 26 38 27 39 28 40 69 41 29 42 74 43 68 44 70 45 30 46
REMARK SMILES IDX 73 47 67 48 66 49 31 51 57 52 40 53 56 54 41 55 44 56 55 57
REMARK SMILES IDX 71 58 42 59 43 60 54 62 72 63 45 64 32 65 33 66 38 67 34 68
REMARK SMILES IDX 35 69 37 70 39 71 36 72 58 73 59 74 64 75 60 76 61 77 63 78
REMARK SMILES IDX 65 79 62 80 46 81 47 82 52 83 48 84 49 85 51 86 53 87 50 88
REMARK H PARENT 13 7 1 21 1 22 20 31 70 50 44 61
REMARK Flexibility Score: inf
ROOT
ATOM      1  C   UNL     1      -1.527   5.352   4.666  1.00  0.00     0.002 C 
ENDROOT
BRANCH   1   2
ATOM      2  C   UNL     1      -1.898   4.403   3.522  1.00  0.00     0.021 C 
BRANCH   2   3
ATOM      3  C   UNL     1      -2.053   5.102   2.170  1.00  0.00     0.116 C 
BRANCH   3   4
ATOM      4  N   UNL     1      -0.861   4.963   1.365  1.00  0.00    -0.354 N 
ATOM      5  C   UNL     1      -0.580   4.244   0.245  1.00  0.00     0.245 C 
ATOM      6  O   UNL     1       0.570   4.402  -0.197  1.00  0.00    -0.273 OA
ATOM      7  H   UNL     1      -0.100   5.494   1.694  1.00  0.00     0.163 HD
BRANCH   5   8
ATOM      8  C   UNL     1      -1.586   3.366  -0.535  1.00  0.00     0.199 C 
ATOM      9  N   UNL     1      -2.023   2.105   0.107  1.00  0.00    -0.340 N 
ATOM     10  C   UNL     1      -3.266   2.102   0.867  1.00  0.00     0.147 C 
ATOM     11  C   UNL     1      -4.362   2.836   0.092  1.00  0.00     0.181 C 
ATOM     12  C   UNL     1      -2.789   4.159  -1.094  1.00  0.00     0.195 C 
ATOM     13  O   UNL     1      -3.963   4.165  -0.262  1.00  0.00    -0.377 OA
BRANCH   9  14
ATOM     14  C   UNL     1      -1.244   0.974   0.005  1.00  0.00     0.132 A 
ATOM     15  C   UNL     1       0.886  -0.012   0.018  1.00  0.00     0.204 A 
ATOM     16  N   UNL     1       0.099   1.094   0.044  1.00  0.00    -0.207 NA
ATOM     17  C   UNL     1       0.337  -1.287  -0.070  1.00  0.00     0.311 A 
ATOM     18  C   UNL     1      -1.044  -1.426  -0.182  1.00  0.00     0.093 A 
ATOM     19  C   UNL     1      -1.832  -0.282  -0.146  1.00  0.00     0.054 A 
BRANCH  15  20
ATOM     20  N   UNL     1       2.230   0.249   0.193  1.00  0.00    -0.378 N 
ATOM     21  H   UNL     1       2.548   1.179   0.247  1.00  0.00     0.158 HD
ATOM     22  H   UNL     1       2.871  -0.495   0.263  1.00  0.00     0.158 HD
ENDBRANCH  15  20
BRANCH  17  23
ATOM     23  N   UNL     1       1.161  -2.486  -0.052  1.00  0.00     0.066 N 
ATOM     24  O   UNL     1       0.619  -3.540   0.317  1.00  0.00    -0.258 OA
ATOM     25  O   UNL     1       2.337  -2.403  -0.437  1.00  0.00    -0.258 OA
ENDBRANCH  17  23
ENDBRANCH   9  14
ENDBRANCH   5   8
ENDBRANCH   3   4
ENDBRANCH   2   3
ENDBRANCH   1   2
BRANCH   1  26
ATOM     26  C   UNL     1      -2.601   6.388   5.024  1.00  0.00     0.002 C 
BRANCH  26  27
ATOM     27  C   UNL     1      -3.990   5.824   5.339  1.00  0.00     0.021 C 
BRANCH  27  28
ATOM     28  C   UNL     1      -4.025   4.780   6.452  1.00  0.00     0.116 C 
BRANCH  28  29
ATOM     29  N   UNL     1      -3.539   5.310   7.716  1.00  0.00    -0.352 N 
ATOM     30  C   UNL     1      -4.169   5.397   8.932  1.00  0.00     0.251 C 
ATOM     31  H   UNL     1      -2.619   5.659   7.696  1.00  0.00     0.163 HD
ATOM     32  O   UNL     1      -3.674   6.063   9.835  1.00  0.00    -0.269 OA
BRANCH  30  33
ATOM     33  C   UNL     1      -5.451   4.698   9.155  1.00  0.00     0.039 A 
ATOM     34  C   UNL     1      -6.479   5.368   9.825  1.00  0.00     0.014 A 
ATOM     35  C   UNL     1      -5.629   3.375   8.739  1.00  0.00     0.014 A 
ATOM     36  C   UNL     1      -7.703   4.730  10.031  1.00  0.00     0.010 A 
ATOM     37  C   UNL     1      -6.871   2.764   8.886  1.00  0.00     0.010 A 
ATOM     38  C   UNL     1      -7.917   3.432   9.540  1.00  0.00    -0.014 A 
BRANCH  38  39
ATOM     39  C   UNL     1      -9.222   2.750   9.714  1.00  0.00     0.031 A 
ATOM     40  C   UNL     1      -9.324   1.522  10.574  1.00  0.00     0.074 A 
ATOM     41  C   UNL     1     -10.303   3.201   9.051  1.00  0.00     0.049 A 
ATOM     42  N   UNL     1     -10.359   0.754  10.803  1.00  0.00    -0.248 NA
ATOM     43  C   UNL     1      -8.090   1.085  11.245  1.00  0.00     0.031 C 
ATOM     44  C   UNL     1     -10.326   4.363   8.161  1.00  0.00     0.029 A 
ATOM     45  N   UNL     1     -11.592   2.733   9.022  1.00  0.00    -0.354 N 
ATOM     46  C   UNL     1      -9.899  -0.262  11.631  1.00  0.00     0.074 A 
ATOM     47  C   UNL     1      -8.480  -0.044  11.817  1.00  0.00     0.031 C 
ATOM     48  C   UNL     1     -11.575   4.537   7.699  1.00  0.00     0.029 A 
ATOM     49  C   UNL     1     -12.430   3.480   8.230  1.00  0.00     0.049 A 
ATOM     50  H   UNL     1     -11.889   1.938   9.521  1.00  0.00     0.167 HD
ATOM     51  C   UNL     1     -10.598  -1.270  12.204  1.00  0.00     0.037 A 
ATOM     52  C   UNL     1     -13.741   3.329   7.965  1.00  0.00     0.037 A 
ATOM     53  C   UNL     1     -12.012  -1.474  12.031  1.00  0.00     0.049 A 
ATOM     54  C   UNL     1     -14.491   2.188   8.591  1.00  0.00     0.074 A 
ATOM     55  C   UNL     1     -12.825  -2.434  12.608  1.00  0.00     0.029 A 
ATOM     56  N   UNL     1     -12.825  -0.702  11.213  1.00  0.00    -0.354 N 
ATOM     57  N   UNL     1     -14.057   1.266   9.415  1.00  0.00    -0.248 NA
ATOM     58  C   UNL     1     -15.915   2.068   8.249  1.00  0.00     0.031 C 
ATOM     59  C   UNL     1     -14.122  -2.268  12.107  1.00  0.00     0.029 A 
ATOM     60  C   UNL     1     -14.126  -1.177  11.252  1.00  0.00     0.049 A 
ATOM     61  H   UNL     1     -12.522   0.070  10.683  1.00  0.00     0.167 HD
ATOM     62  C   UNL     1     -15.158   0.475   9.715  1.00  0.00     0.074 A 
ATOM     63  C   UNL     1     -16.282   1.030   8.988  1.00  0.00     0.031 C 
ATOM     64  C   UNL     1     -15.233  -0.611  10.523  1.00  0.00     0.037 A 
BRANCH  51  65
ATOM     65  C   UNL     1      -9.830  -2.228  13.069  1.00  0.00     0.057 A 
ATOM     66  C   UNL     1      -9.296  -1.842  14.306  1.00  0.00     0.134 A 
ATOM     67  C   UNL     1      -9.614  -3.550  12.659  1.00  0.00     0.134 A 
ATOM     68  F   UNL     1      -9.455  -0.587  14.753  1.00  0.00    -0.206 F 
ATOM     69  C   UNL     1      -8.542  -2.722  15.084  1.00  0.00     0.040 A 
ATOM     70  C   UNL     1      -8.886  -4.447  13.441  1.00  0.00     0.040 A 
ATOM     71  F   UNL     1     -10.102  -3.989  11.489  1.00  0.00    -0.206 F 
ATOM     72  C   UNL     1      -8.338  -4.031  14.653  1.00  0.00     0.006 A 
ENDBRANCH  51  65
BRANCH  52  73
ATOM     73  C   UNL     1     -14.436   4.314   7.101  1.00  0.00     0.057 A 
ATOM     74  C   UNL     1     -15.335   5.235   7.650  1.00  0.00     0.134 A 
ATOM     75  C   UNL     1     -14.212   4.372   5.721  1.00  0.00     0.134 A 
ATOM     76  F   UNL     1     -15.602   5.214   8.964  1.00  0.00    -0.206 F 
ATOM     77  C   UNL     1     -15.995   6.174   6.857  1.00  0.00     0.040 A 
ATOM     78  C   UNL     1     -14.849   5.321   4.918  1.00  0.00     0.040 A 
ATOM     79  F   UNL     1     -13.356   3.521   5.136  1.00  0.00    -0.206 F 
ATOM     80  C   UNL     1     -15.747   6.223   5.487  1.00  0.00     0.006 A 
ENDBRANCH  52  73
BRANCH  64  81
ATOM     81  C   UNL     1     -16.581  -1.249  10.688  1.00  0.00     0.057 A 
ATOM     82  C   UNL     1     -17.166  -2.013   9.670  1.00  0.00     0.134 A 
ATOM     83  C   UNL     1     -17.285  -1.125  11.892  1.00  0.00     0.134 A 
ATOM     84  F   UNL     1     -16.549  -2.158   8.488  1.00  0.00    -0.206 F 
ATOM     85  C   UNL     1     -18.415  -2.613   9.838  1.00  0.00     0.040 A 
ATOM     86  C   UNL     1     -18.523  -1.740  12.080  1.00  0.00     0.040 A 
ATOM     87  F   UNL     1     -16.776  -0.412  12.908  1.00  0.00    -0.206 F 
ATOM     88  C   UNL     1     -19.094  -2.483  11.048  1.00  0.00     0.006 A 
ENDBRANCH  64  81
ENDBRANCH  38  39
ENDBRANCH  30  33
ENDBRANCH  28  29
ENDBRANCH  27  28
ENDBRANCH  26  27
ENDBRANCH   1  26
TORSDOF 16
