REMARK SMILES O=C(NCCCCCCNC(=O)c1cc(NC(=S)NC(=O)c2ccccc2F)ccc1Cl)c1ccc(-c2c3nc(c(-c4c(F)cccc4F)c4ccc([nH]4)c(-c4c(F)cccc4F)c4nc(c(-c5c(F)cccc5F)c5ccc2[nH]5)C=C4)C=C3)cc1
REMARK SMILES IDX 7 1 6 2 5 3 4 4 3 5 1 6 2 7 33 9 34 10 86 11 35 12 85 13
REMARK SMILES IDX 36 14 37 15 38 16 79 17 39 18 84 19 78 20 80 21 40 22 83 23
REMARK SMILES IDX 77 24 76 25 41 27 67 28 50 29 66 30 51 31 54 32 65 33 81 34
REMARK SMILES IDX 52 35 53 36 64 38 82 39 55 40 42 41 43 42 48 43 44 44 45 45
REMARK SMILES IDX 47 46 49 47 46 48 68 49 69 50 74 51 70 52 71 53 73 54 75 55
REMARK SMILES IDX 72 56 56 57 57 58 62 59 58 60 59 61 61 62 63 63 60 64 8 65
REMARK SMILES IDX 9 66 10 67 11 68 12 70 13 71 14 72 31 73 15 74 30 75 32 76
REMARK SMILES IDX 29 77 16 78 17 80 18 81 19 82 20 83 21 85 22 86 23 87 27 88
REMARK SMILES IDX 24 89 26 90 28 91 25 92
REMARK H PARENT 3 8 80 26 54 37 10 69 16 79 19 84
REMARK Flexibility Score: inf
ROOT
ATOM      1  C   UNL     1       4.748   2.487   3.403  1.00  0.00     0.002 C 
ENDROOT
BRANCH   1   2
ATOM      2  C   UNL     1       4.129   3.111   2.147  1.00  0.00     0.002 C 
BRANCH   2   3
ATOM      3  C   UNL     1       4.542   2.440   0.840  1.00  0.00     0.021 C 
BRANCH   3   4
ATOM      4  C   UNL     1       4.295   0.947   0.830  1.00  0.00     0.116 C 
BRANCH   4   5
ATOM      5  N   UNL     1       2.877   0.644   0.859  1.00  0.00    -0.352 N 
ATOM      6  O   UNL     1       0.937  -0.071  -0.061  1.00  0.00    -0.269 OA
ATOM      7  C   UNL     1       2.162  -0.075  -0.062  1.00  0.00     0.251 C 
ATOM      8  H   UNL     1       2.371   0.995   1.627  1.00  0.00     0.163 HD
BRANCH   7   9
ATOM      9  C   UNL     1       2.913  -0.849  -1.068  1.00  0.00     0.039 A 
ATOM     10  C   UNL     1       3.998  -1.635  -0.666  1.00  0.00     0.014 A 
ATOM     11  C   UNL     1       2.550  -0.764  -2.412  1.00  0.00     0.014 A 
ATOM     12  C   UNL     1       4.789  -2.253  -1.620  1.00  0.00     0.010 A 
ATOM     13  C   UNL     1       3.281  -1.480  -3.360  1.00  0.00     0.010 A 
ATOM     14  C   UNL     1       4.399  -2.233  -2.967  1.00  0.00    -0.014 A 
BRANCH  14  15
ATOM     15  C   UNL     1       5.066  -3.153  -3.917  1.00  0.00     0.031 A 
ATOM     16  C   UNL     1       5.829  -2.644  -5.100  1.00  0.00     0.074 A 
ATOM     17  C   UNL     1       4.936  -4.476  -3.692  1.00  0.00     0.049 A 
ATOM     18  N   UNL     1       6.400  -3.332  -6.054  1.00  0.00    -0.248 NA
ATOM     19  C   UNL     1       5.972  -1.187  -5.241  1.00  0.00     0.031 C 
ATOM     20  C   UNL     1       4.200  -5.069  -2.569  1.00  0.00     0.029 A 
ATOM     21  N   UNL     1       5.405  -5.561  -4.385  1.00  0.00    -0.354 N 
ATOM     22  C   UNL     1       6.953  -2.398  -6.918  1.00  0.00     0.074 A 
ATOM     23  C   UNL     1       6.642  -1.090  -6.384  1.00  0.00     0.031 C 
ATOM     24  C   UNL     1       4.289  -6.403  -2.635  1.00  0.00     0.029 A 
ATOM     25  C   UNL     1       5.005  -6.763  -3.851  1.00  0.00     0.049 A 
ATOM     26  H   UNL     1       5.972  -5.487  -5.186  1.00  0.00     0.167 HD
ATOM     27  C   UNL     1       7.656  -2.629  -8.050  1.00  0.00     0.037 A 
ATOM     28  C   UNL     1       5.149  -8.019  -4.311  1.00  0.00     0.037 A 
ATOM     29  C   UNL     1       7.968  -3.943  -8.551  1.00  0.00     0.049 A 
ATOM     30  C   UNL     1       5.886  -8.232  -5.599  1.00  0.00     0.074 A 
ATOM     31  C   UNL     1       8.729  -4.274  -9.659  1.00  0.00     0.029 A 
ATOM     32  N   UNL     1       7.528  -5.134  -7.995  1.00  0.00    -0.354 N 
ATOM     33  N   UNL     1       6.460  -7.342  -6.372  1.00  0.00    -0.248 NA
ATOM     34  C   UNL     1       5.991  -9.612  -6.088  1.00  0.00     0.031 C 
ATOM     35  C   UNL     1       8.687  -5.659  -9.817  1.00  0.00     0.029 A 
ATOM     36  C   UNL     1       7.961  -6.199  -8.768  1.00  0.00     0.049 A 
ATOM     37  H   UNL     1       6.989  -5.212  -7.175  1.00  0.00     0.167 HD
ATOM     38  C   UNL     1       7.002  -8.054  -7.430  1.00  0.00     0.074 A 
ATOM     39  C   UNL     1       6.712  -9.452  -7.189  1.00  0.00     0.031 C 
ATOM     40  C   UNL     1       7.673  -7.587  -8.509  1.00  0.00     0.037 A 
BRANCH  27  41
ATOM     41  C   UNL     1       8.145  -1.461  -8.853  1.00  0.00     0.057 A 
ATOM     42  C   UNL     1       7.621  -1.215 -10.130  1.00  0.00     0.134 A 
ATOM     43  C   UNL     1       9.241  -0.693  -8.444  1.00  0.00     0.134 A 
ATOM     44  F   UNL     1       6.577  -1.925 -10.585  1.00  0.00    -0.206 F 
ATOM     45  C   UNL     1       8.197  -0.277 -10.988  1.00  0.00     0.040 A 
ATOM     46  C   UNL     1       9.811   0.266  -9.285  1.00  0.00     0.040 A 
ATOM     47  F   UNL     1       9.786  -0.875  -7.232  1.00  0.00    -0.206 F 
ATOM     48  C   UNL     1       9.300   0.463 -10.567  1.00  0.00     0.006 A 
ENDBRANCH  27  41
BRANCH  28  49
ATOM     49  C   UNL     1       4.537  -9.149  -3.567  1.00  0.00     0.057 A 
ATOM     50  C   UNL     1       3.146  -9.263  -3.431  1.00  0.00     0.134 A 
ATOM     51  C   UNL     1       5.324 -10.130  -2.956  1.00  0.00     0.134 A 
ATOM     52  F   UNL     1       2.333  -8.349  -3.983  1.00  0.00    -0.206 F 
ATOM     53  C   UNL     1       2.562 -10.296  -2.699  1.00  0.00     0.040 A 
ATOM     54  C   UNL     1       4.752 -11.190  -2.251  1.00  0.00     0.040 A 
ATOM     55  F   UNL     1       6.660 -10.084  -3.059  1.00  0.00    -0.206 F 
ATOM     56  C   UNL     1       3.367 -11.270  -2.114  1.00  0.00     0.006 A 
ENDBRANCH  28  49
BRANCH  40  57
ATOM     57  C   UNL     1       8.154  -8.583  -9.520  1.00  0.00     0.057 A 
ATOM     58  C   UNL     1       9.524  -8.820  -9.691  1.00  0.00     0.134 A 
ATOM     59  C   UNL     1       7.271  -9.208 -10.407  1.00  0.00     0.134 A 
ATOM     60  F   UNL     1      10.423  -8.242  -8.879  1.00  0.00    -0.206 F 
ATOM     61  C   UNL     1      10.001  -9.615 -10.733  1.00  0.00     0.040 A 
ATOM     62  C   UNL     1       7.734 -10.029 -11.436  1.00  0.00     0.040 A 
ATOM     63  F   UNL     1       5.946  -9.031 -10.286  1.00  0.00    -0.206 F 
ATOM     64  C   UNL     1       9.104 -10.219 -11.611  1.00  0.00     0.006 A 
ENDBRANCH  40  57
ENDBRANCH  14  15
ENDBRANCH   7   9
ENDBRANCH   4   5
ENDBRANCH   3   4
ENDBRANCH   2   3
ENDBRANCH   1   2
BRANCH   1  65
ATOM     65  C   UNL     1       6.273   2.306   3.350  1.00  0.00     0.021 C 
BRANCH  65  66
ATOM     66  C   UNL     1       7.021   3.551   2.882  1.00  0.00     0.116 C 
BRANCH  66  67
ATOM     67  N   UNL     1       6.708   4.666   3.737  1.00  0.00    -0.352 N 
ATOM     68  C   UNL     1       7.498   5.458   4.508  1.00  0.00     0.252 C 
ATOM     69  H   UNL     1       5.752   4.896   3.769  1.00  0.00     0.163 HD
ATOM     70  O   UNL     1       6.960   6.383   5.110  1.00  0.00    -0.269 OA
BRANCH  68  71
ATOM     71  C   UNL     1       9.014   5.279   4.529  1.00  0.00     0.060 A 
ATOM     72  C   UNL     1      10.399   4.721   5.880  1.00  0.00     0.041 A 
ATOM     73  C   UNL     1       9.674   6.063   3.031  1.00  0.00     0.053 A 
ATOM     74  C   UNL     1      12.054   5.085   5.725  1.00  0.00     0.041 A 
ATOM     75  C   UNL     1      11.442   6.294   2.913  1.00  0.00     0.023 A 
ATOM     76  Cl  UNL     1       8.684   6.600   1.733  1.00  0.00    -0.083 Cl
ATOM     77  C   UNL     1      12.581   5.831   4.229  1.00  0.00     0.028 A 
BRANCH  74  78
ATOM     78  N   UNL     1      12.641   5.120   7.001  1.00  0.00    -0.332 N 
ATOM     79  H   UNL     1      13.617   5.251   7.005  1.00  0.00     0.169 HD
BRANCH  78  80
ATOM     80  C   UNL     1      12.062   4.999   8.254  1.00  0.00     0.177 C 
ATOM     81  S   UNL     1      13.132   4.878   9.548  1.00  0.00    -0.040 S 
BRANCH  80  82
ATOM     82  N   UNL     1      10.665   4.976   8.611  1.00  0.00    -0.299 N 
ATOM     83  C   UNL     1       9.181   4.995   8.344  1.00  0.00     0.260 C 
ATOM     84  H   UNL     1      10.700   4.908   9.592  1.00  0.00     0.172 HD
ATOM     85  O   UNL     1       8.402   4.862   9.284  1.00  0.00    -0.269 OA
BRANCH  83  86
ATOM     86  C   UNL     1       8.626   5.150   6.937  1.00  0.00     0.075 A 
ATOM     87  C   UNL     1       9.461   6.563   6.323  1.00  0.00     0.017 A 
ATOM     88  C   UNL     1       8.595   3.568   6.076  1.00  0.00     0.135 A 
ATOM     89  C   UNL     1      10.536   6.348   4.930  1.00  0.00     0.001 A 
ATOM     90  C   UNL     1       9.643   3.200   4.678  1.00  0.00     0.040 A 
ATOM     91  F   UNL     1       8.120   2.501   6.742  1.00  0.00    -0.206 F 
ATOM     92  C   UNL     1      10.704   4.531   4.057  1.00  0.00     0.003 A 
ENDBRANCH  83  86
ENDBRANCH  80  82
ENDBRANCH  78  80
ENDBRANCH  74  78
ENDBRANCH  68  71
ENDBRANCH  66  67
ENDBRANCH  65  66
ENDBRANCH   1  65
TORSDOF 17
