REMARK SMILES COc1ccc(-c2c(C(=O)NCCCCCCNC(=O)c3ccc(-c4c5nc(c(-c6c(F)cccc6F)c6ccc([nH]6)c(-c6c(F)cccc6F)c6nc(c(-c7c(F)cccc7F)c7ccc4[nH]7)C=C6)C=C5)cc3)sc3c2N=C(O)C[C@H]3c2ccc(OC)c(OC)c2)cc1
REMARK SMILES IDX 14 1 13 2 12 3 11 4 9 5 10 6 8 8 7 9 77 10 75 11 76 12 78 13
REMARK SMILES IDX 82 14 79 15 81 16 6 17 3 18 4 19 94 20 5 21 93 22 2 23 1 24
REMARK SMILES IDX 83 25 84 26 92 27 85 28 89 29 86 30 90 31 91 32 87 33 88 34
REMARK SMILES IDX 80 35 15 37 16 38 17 39 18 40 19 41 20 43 21 44 22 45 74 46
REMARK SMILES IDX 23 47 73 48 24 49 25 50 26 51 67 52 27 53 72 54 66 55 68 56
REMARK SMILES IDX 28 57 71 58 65 59 64 60 29 62 55 63 38 64 54 65 39 66 42 67
REMARK SMILES IDX 53 68 69 69 40 70 41 71 52 73 70 74 43 75 30 76 31 77 36 78
REMARK SMILES IDX 32 79 33 80 35 81 37 82 34 83 56 84 57 85 62 86 58 87 59 88
REMARK SMILES IDX 61 89 63 90 60 91 44 92 45 93 50 94 46 95 47 96 49 97 51 98
REMARK SMILES IDX 48 99
REMARK H PARENT 11 7 80 36 18 42 68 61 42 72
REMARK Flexibility Score: inf
ROOT
ATOM      1  C   UNL     1      -1.111  -2.773  -2.630  1.00  0.00     0.002 C 
ENDROOT
BRANCH   1   2
ATOM      2  C   UNL     1       0.239  -3.283  -2.133  1.00  0.00     0.021 C 
BRANCH   2   3
ATOM      3  C   UNL     1       0.269  -4.399  -1.100  1.00  0.00     0.116 C 
BRANCH   3   4
ATOM      4  N   UNL     1      -0.039  -5.739  -1.502  1.00  0.00    -0.351 N 
ATOM      5  C   UNL     1       0.401  -6.940  -0.968  1.00  0.00     0.262 C 
ATOM      6  O   UNL     1      -0.142  -7.921  -1.495  1.00  0.00    -0.268 OA
ATOM      7  H   UNL     1      -0.651  -5.819  -2.269  1.00  0.00     0.163 HD
BRANCH   5   8
ATOM      8  C   UNL     1       1.437  -7.093   0.083  1.00  0.00     0.102 A 
ATOM      9  C   UNL     1       2.003  -6.340   1.122  1.00  0.00     0.031 A 
ATOM     10  C   UNL     1       3.029  -7.054   1.817  1.00  0.00     0.090 A 
ATOM     11  S   UNL     1       2.215  -8.681   0.066  1.00  0.00    -0.131 S 
ATOM     12  C   UNL     1       3.243  -8.314   1.358  1.00  0.00     0.040 A 
ATOM     13  N   UNL     1       3.742  -6.484   2.882  1.00  0.00    -0.216 NA
ATOM     14  C   UNL     1       4.244  -9.250   1.943  1.00  0.00     0.071 C 
ATOM     15  C   UNL     1       4.754  -7.161   3.301  1.00  0.00     0.186 C 
ATOM     16  C   UNL     1       5.281  -8.470   2.772  1.00  0.00     0.111 C 
BRANCH   9  17
ATOM     17  C   UNL     1       1.751  -4.951   1.454  1.00  0.00    -0.014 A 
ATOM     18  C   UNL     1       1.368  -2.226   1.916  1.00  0.00     0.118 A 
ATOM     19  C   UNL     1       0.411  -3.158   2.337  1.00  0.00     0.047 A 
ATOM     20  C   UNL     1       2.566  -2.667   1.359  1.00  0.00     0.047 A 
ATOM     21  C   UNL     1       0.597  -4.527   2.110  1.00  0.00     0.012 A 
ATOM     22  C   UNL     1       2.759  -4.023   1.138  1.00  0.00     0.012 A 
BRANCH  18  23
ATOM     23  O   UNL     1       1.036  -0.909   2.082  1.00  0.00    -0.497 OA
ATOM     24  C   UNL     1       1.730  -0.008   1.221  1.00  0.00     0.278 C 
ENDBRANCH  18  23
ENDBRANCH   9  17
BRANCH  14  25
ATOM     25  C   UNL     1       3.595 -10.342   2.778  1.00  0.00    -0.035 A 
ATOM     26  C   UNL     1       2.747 -10.050   3.850  1.00  0.00     0.008 A 
ATOM     27  C   UNL     1       3.863 -11.687   2.474  1.00  0.00     0.054 A 
ATOM     28  C   UNL     1       2.185 -11.085   4.593  1.00  0.00     0.051 A 
ATOM     29  C   UNL     1       3.310 -12.739   3.220  1.00  0.00     0.161 A 
ATOM     30  C   UNL     1       2.453 -12.428   4.291  1.00  0.00     0.160 A 
BRANCH  29  31
ATOM     31  O   UNL     1       3.588 -14.054   2.959  1.00  0.00    -0.493 OA
ATOM     32  C   UNL     1       4.445 -14.357   1.866  1.00  0.00     0.278 C 
ENDBRANCH  29  31
BRANCH  30  33
ATOM     33  O   UNL     1       1.813 -13.282   5.151  1.00  0.00    -0.493 OA
ATOM     34  C   UNL     1       1.791 -14.665   4.841  1.00  0.00     0.278 C 
ENDBRANCH  30  33
ENDBRANCH  14  25
BRANCH  15  35
ATOM     35  O   UNL     1       5.499  -6.624   4.288  1.00  0.00    -0.496 OA
ATOM     36  H   UNL     1       5.245  -5.810   4.677  1.00  0.00     0.294 HD
ENDBRANCH  15  35
ENDBRANCH   5   8
ENDBRANCH   3   4
ENDBRANCH   2   3
ENDBRANCH   1   2
BRANCH   1  37
ATOM     37  C   UNL     1      -2.213  -2.418  -1.617  1.00  0.00     0.002 C 
BRANCH  37  38
ATOM     38  C   UNL     1      -1.908  -1.484  -0.437  1.00  0.00     0.021 C 
BRANCH  38  39
ATOM     39  C   UNL     1      -1.284  -0.139  -0.762  1.00  0.00     0.116 C 
BRANCH  39  40
ATOM     40  N   UNL     1      -2.137   0.808  -1.486  1.00  0.00    -0.352 N 
ATOM     41  C   UNL     1      -1.817   2.101  -1.899  1.00  0.00     0.251 C 
ATOM     42  H   UNL     1      -3.044   0.494  -1.708  1.00  0.00     0.163 HD
ATOM     43  O   UNL     1      -2.686   2.929  -2.127  1.00  0.00    -0.269 OA
BRANCH  41  44
ATOM     44  C   UNL     1      -0.391   2.458  -2.072  1.00  0.00     0.039 A 
ATOM     45  C   UNL     1       0.131   3.735  -1.834  1.00  0.00     0.014 A 
ATOM     46  C   UNL     1       0.448   1.438  -2.485  1.00  0.00     0.014 A 
ATOM     47  C   UNL     1       1.509   3.932  -1.972  1.00  0.00     0.010 A 
ATOM     48  C   UNL     1       1.793   1.556  -2.313  1.00  0.00     0.010 A 
ATOM     49  C   UNL     1       2.334   2.822  -2.213  1.00  0.00    -0.014 A 
BRANCH  49  50
ATOM     50  C   UNL     1       3.783   2.901  -2.351  1.00  0.00     0.031 A 
ATOM     51  C   UNL     1       4.482   3.527  -1.205  1.00  0.00     0.074 A 
ATOM     52  C   UNL     1       4.453   2.224  -3.315  1.00  0.00     0.049 A 
ATOM     53  N   UNL     1       5.106   4.656  -1.182  1.00  0.00    -0.248 NA
ATOM     54  C   UNL     1       4.362   2.884   0.111  1.00  0.00     0.031 C 
ATOM     55  C   UNL     1       3.931   1.292  -4.330  1.00  0.00     0.029 A 
ATOM     56  N   UNL     1       5.794   2.154  -3.530  1.00  0.00    -0.354 N 
ATOM     57  C   UNL     1       5.645   4.766   0.097  1.00  0.00     0.074 A 
ATOM     58  C   UNL     1       4.995   3.760   0.894  1.00  0.00     0.031 C 
ATOM     59  C   UNL     1       4.945   0.593  -4.884  1.00  0.00     0.029 A 
ATOM     60  C   UNL     1       6.194   1.157  -4.415  1.00  0.00     0.049 A 
ATOM     61  H   UNL     1       6.434   2.762  -3.093  1.00  0.00     0.167 HD
ATOM     62  C   UNL     1       6.766   5.506   0.321  1.00  0.00     0.037 A 
ATOM     63  C   UNL     1       7.466   0.822  -4.743  1.00  0.00     0.037 A 
ATOM     64  C   UNL     1       7.034   6.383  -0.794  1.00  0.00     0.049 A 
ATOM     65  C   UNL     1       8.322   1.978  -4.385  1.00  0.00     0.074 A 
ATOM     66  C   UNL     1       6.343   7.405  -1.415  1.00  0.00     0.029 A 
ATOM     67  N   UNL     1       8.004   5.996  -1.687  1.00  0.00    -0.354 N 
ATOM     68  N   UNL     1       8.258   3.135  -4.984  1.00  0.00    -0.248 NA
ATOM     69  C   UNL     1       8.897   1.995  -3.049  1.00  0.00     0.031 C 
ATOM     70  C   UNL     1       6.604   7.231  -2.807  1.00  0.00     0.029 A 
ATOM     71  C   UNL     1       7.494   6.165  -2.949  1.00  0.00     0.049 A 
ATOM     72  H   UNL     1       8.901   5.659  -1.462  1.00  0.00     0.167 HD
ATOM     73  C   UNL     1       8.377   4.069  -3.964  1.00  0.00     0.074 A 
ATOM     74  C   UNL     1       8.849   3.308  -2.807  1.00  0.00     0.031 C 
ATOM     75  C   UNL     1       7.807   5.306  -4.068  1.00  0.00     0.037 A 
BRANCH  62  76
ATOM     76  C   UNL     1       7.827   5.170   1.341  1.00  0.00     0.057 A 
ATOM     77  C   UNL     1       8.883   6.078   1.547  1.00  0.00     0.134 A 
ATOM     78  C   UNL     1       8.023   3.892   1.903  1.00  0.00     0.134 A 
ATOM     79  F   UNL     1       8.822   7.327   1.060  1.00  0.00    -0.206 F 
ATOM     80  C   UNL     1      10.077   5.712   2.179  1.00  0.00     0.040 A 
ATOM     81  C   UNL     1       9.191   3.533   2.583  1.00  0.00     0.040 A 
ATOM     82  F   UNL     1       7.152   2.889   1.741  1.00  0.00    -0.206 F 
ATOM     83  C   UNL     1      10.238   4.432   2.691  1.00  0.00     0.006 A 
ENDBRANCH  62  76
BRANCH  63  84
ATOM     84  C   UNL     1       8.020  -0.510  -5.074  1.00  0.00     0.057 A 
ATOM     85  C   UNL     1       9.251  -0.650  -5.730  1.00  0.00     0.134 A 
ATOM     86  C   UNL     1       7.488  -1.680  -4.502  1.00  0.00     0.134 A 
ATOM     87  F   UNL     1       9.859   0.416  -6.269  1.00  0.00    -0.206 F 
ATOM     88  C   UNL     1       9.925  -1.879  -5.796  1.00  0.00     0.040 A 
ATOM     89  C   UNL     1       8.149  -2.912  -4.563  1.00  0.00     0.040 A 
ATOM     90  F   UNL     1       6.354  -1.644  -3.787  1.00  0.00    -0.206 F 
ATOM     91  C   UNL     1       9.379  -3.012  -5.201  1.00  0.00     0.006 A 
ENDBRANCH  63  84
BRANCH  75  92
ATOM     92  C   UNL     1       7.244   5.713  -5.405  1.00  0.00     0.057 A 
ATOM     93  C   UNL     1       6.133   5.104  -6.010  1.00  0.00     0.134 A 
ATOM     94  C   UNL     1       7.732   6.872  -6.015  1.00  0.00     0.134 A 
ATOM     95  F   UNL     1       5.536   4.043  -5.457  1.00  0.00    -0.206 F 
ATOM     96  C   UNL     1       5.556   5.607  -7.181  1.00  0.00     0.040 A 
ATOM     97  C   UNL     1       7.147   7.404  -7.167  1.00  0.00     0.040 A 
ATOM     98  F   UNL     1       8.758   7.542  -5.465  1.00  0.00    -0.206 F 
ATOM     99  C   UNL     1       6.059   6.768  -7.758  1.00  0.00     0.006 A 
ENDBRANCH  75  92
ENDBRANCH  49  50
ENDBRANCH  41  44
ENDBRANCH  39  40
ENDBRANCH  38  39
ENDBRANCH  37  38
ENDBRANCH   1  37
TORSDOF 19
