REMARK SMILES CCC[NH2+]C[C@H]1CCC[N@@H+](Cc2ccc(C(=O)NCCCCCCNC(=O)c3ccc(-c4c5nc(c(-c6c(F)cccc6F)c6ccc([nH]6)c(-c6c(F)cccc6F)c6nc(c(-c7c(F)cccc7F)c7ccc4[nH]7)C=C6)C=C5)cc3)cc2)C1
REMARK SMILES IDX 19 1 18 2 16 3 17 4 15 6 12 7 13 8 83 9 14 10 82 11 11 12
REMARK SMILES IDX 10 13 6 14 7 15 84 16 8 17 9 18 5 20 4 21 3 24 2 25 1 26
REMARK SMILES IDX 20 27 21 28 22 29 23 30 24 31 25 32 26 33 27 35 28 36 29 37
REMARK SMILES IDX 81 38 30 39 80 40 31 41 32 42 33 43 74 44 34 45 79 46 73 47
REMARK SMILES IDX 75 48 35 49 78 50 72 51 71 52 36 54 62 55 45 56 61 57 46 58
REMARK SMILES IDX 49 59 60 60 76 61 47 62 48 63 59 65 77 66 50 67 37 68 38 69
REMARK SMILES IDX 43 70 39 71 40 72 42 73 44 74 41 75 63 76 64 77 69 78 65 79
REMARK SMILES IDX 66 80 68 81 70 82 67 83 51 84 52 85 57 86 53 87 54 88 56 89
REMARK SMILES IDX 58 90 55 91
REMARK H PARENT 18 5 10 19 4 22 4 23 25 34 75 53 49 64
REMARK Flexibility Score: inf
ROOT
ATOM      1  C   UNL     1       8.928   3.563   1.978  1.00  0.00     0.116 C 
ENDROOT
BRANCH   1   2
ATOM      2  N   UNL     1       9.395   4.800   2.576  1.00  0.00    -0.352 N 
ATOM      3  C   UNL     1       8.728   5.885   3.083  1.00  0.00     0.251 C 
ATOM      4  O   UNL     1       9.392   6.820   3.529  1.00  0.00    -0.269 OA
ATOM      5  H   UNL     1      10.375   4.873   2.627  1.00  0.00     0.163 HD
BRANCH   3   6
ATOM      6  C   UNL     1       7.249   5.928   3.197  1.00  0.00     0.039 A 
ATOM      7  C   UNL     1       4.478   5.856   3.706  1.00  0.00     0.006 A 
ATOM      8  C   UNL     1       5.350   6.465   4.615  1.00  0.00     0.010 A 
ATOM      9  C   UNL     1       4.998   5.401   2.482  1.00  0.00     0.010 A 
ATOM     10  C   UNL     1       6.722   6.503   4.361  1.00  0.00     0.014 A 
ATOM     11  C   UNL     1       6.373   5.439   2.227  1.00  0.00     0.014 A 
BRANCH   7  12
ATOM     12  C   UNL     1       3.015   5.652   4.068  1.00  0.00     0.299 C 
BRANCH  12  13
ATOM     13  N   UNL     1       2.650   4.319   4.599  1.00  0.00    -0.331 N 
ATOM     14  C   UNL     1       2.462   1.843   4.051  1.00  0.00     0.099 C 
ATOM     15  C   UNL     1       3.062   1.535   5.431  1.00  0.00     0.021 C 
ATOM     16  C   UNL     1       2.852   3.260   3.608  1.00  0.00     0.271 C 
ATOM     17  C   UNL     1       2.779   2.666   6.417  1.00  0.00     0.062 C 
ATOM     18  C   UNL     1       3.285   4.006   5.879  1.00  0.00     0.262 C 
ATOM     19  H   UNL     1       1.650   4.362   4.795  1.00  0.00     0.348 HD
BRANCH  14  20
ATOM     20  C   UNL     1       2.940   0.785   3.019  1.00  0.00     0.269 C 
BRANCH  20  21
ATOM     21  N   UNL     1       2.262   0.831   1.722  1.00  0.00    -0.346 N 
ATOM     22  H   UNL     1       2.236  -0.117   1.345  1.00  0.00     0.346 HD
ATOM     23  H   UNL     1       1.336   1.222   1.897  1.00  0.00     0.346 HD
BRANCH  21  24
ATOM     24  C   UNL     1       2.890   1.697   0.728  1.00  0.00     0.260 C 
BRANCH  24  25
ATOM     25  C   UNL     1       2.026   1.892  -0.525  1.00  0.00     0.058 C 
ATOM     26  C   UNL     1       0.599   2.345  -0.241  1.00  0.00     0.010 C 
ENDBRANCH  24  25
ENDBRANCH  21  24
ENDBRANCH  20  21
ENDBRANCH  14  20
ENDBRANCH  12  13
ENDBRANCH   7  12
ENDBRANCH   3   6
ENDBRANCH   1   2
BRANCH   1  27
ATOM     27  C   UNL     1       9.176   3.591   0.469  1.00  0.00     0.021 C 
BRANCH  27  28
ATOM     28  C   UNL     1      10.655   3.412   0.093  1.00  0.00     0.002 C 
BRANCH  28  29
ATOM     29  C   UNL     1      11.263   2.062   0.492  1.00  0.00     0.002 C 
BRANCH  29  30
ATOM     30  C   UNL     1      10.519   0.839  -0.049  1.00  0.00     0.021 C 
BRANCH  30  31
ATOM     31  C   UNL     1      10.461   0.770  -1.571  1.00  0.00     0.116 C 
BRANCH  31  32
ATOM     32  N   UNL     1      11.782   0.583  -2.152  1.00  0.00    -0.352 N 
ATOM     33  C   UNL     1      12.222  -0.406  -2.997  1.00  0.00     0.251 C 
ATOM     34  H   UNL     1      12.453   1.261  -1.907  1.00  0.00     0.163 HD
ATOM     35  O   UNL     1      13.417  -0.553  -3.216  1.00  0.00    -0.269 OA
BRANCH  33  36
ATOM     36  C   UNL     1      11.235  -1.305  -3.631  1.00  0.00     0.039 A 
ATOM     37  C   UNL     1      11.475  -2.681  -3.645  1.00  0.00     0.014 A 
ATOM     38  C   UNL     1      10.074  -0.784  -4.208  1.00  0.00     0.014 A 
ATOM     39  C   UNL     1      10.521  -3.541  -4.191  1.00  0.00     0.010 A 
ATOM     40  C   UNL     1       9.091  -1.647  -4.680  1.00  0.00     0.010 A 
ATOM     41  C   UNL     1       9.308  -3.033  -4.685  1.00  0.00    -0.014 A 
BRANCH  41  42
ATOM     42  C   UNL     1       8.255  -3.927  -5.231  1.00  0.00     0.031 A 
ATOM     43  C   UNL     1       7.852  -3.809  -6.676  1.00  0.00     0.074 A 
ATOM     44  C   UNL     1       7.614  -4.787  -4.415  1.00  0.00     0.049 A 
ATOM     45  N   UNL     1       6.885  -4.414  -7.317  1.00  0.00    -0.248 NA
ATOM     46  C   UNL     1       8.619  -2.862  -7.504  1.00  0.00     0.031 C 
ATOM     47  C   UNL     1       7.890  -4.970  -2.988  1.00  0.00     0.029 A 
ATOM     48  N   UNL     1       6.585  -5.659  -4.667  1.00  0.00    -0.354 N 
ATOM     49  C   UNL     1       6.914  -3.907  -8.610  1.00  0.00     0.074 A 
ATOM     50  C   UNL     1       7.961  -2.911  -8.653  1.00  0.00     0.031 C 
ATOM     51  C   UNL     1       7.064  -5.908  -2.497  1.00  0.00     0.029 A 
ATOM     52  C   UNL     1       6.170  -6.359  -3.558  1.00  0.00     0.049 A 
ATOM     53  H   UNL     1       6.181  -5.774  -5.558  1.00  0.00     0.167 HD
ATOM     54  C   UNL     1       6.149  -4.255  -9.671  1.00  0.00     0.037 A 
ATOM     55  C   UNL     1       5.170  -7.250  -3.413  1.00  0.00     0.037 A 
ATOM     56  C   UNL     1       5.133  -5.273  -9.632  1.00  0.00     0.049 A 
ATOM     57  C   UNL     1       4.325  -7.604  -4.608  1.00  0.00     0.074 A 
ATOM     58  C   UNL     1       4.351  -5.746 -10.671  1.00  0.00     0.029 A 
ATOM     59  N   UNL     1       4.758  -5.973  -8.496  1.00  0.00    -0.354 N 
ATOM     60  N   UNL     1       4.411  -7.168  -5.842  1.00  0.00    -0.248 NA
ATOM     61  C   UNL     1       3.246  -8.578  -4.392  1.00  0.00     0.031 C 
ATOM     62  C   UNL     1       3.464  -6.694 -10.153  1.00  0.00     0.029 A 
ATOM     63  C   UNL     1       3.737  -6.856  -8.805  1.00  0.00     0.049 A 
ATOM     64  H   UNL     1       5.158  -5.860  -7.604  1.00  0.00     0.167 HD
ATOM     65  C   UNL     1       3.429  -7.846  -6.554  1.00  0.00     0.074 A 
ATOM     66  C   UNL     1       2.766  -8.728  -5.618  1.00  0.00     0.031 C 
ATOM     67  C   UNL     1       3.108  -7.750  -7.867  1.00  0.00     0.037 A 
BRANCH  54  68
ATOM     68  C   UNL     1       6.377  -3.537 -10.969  1.00  0.00     0.057 A 
ATOM     69  C   UNL     1       7.530  -3.743 -11.737  1.00  0.00     0.134 A 
ATOM     70  C   UNL     1       5.398  -2.682 -11.491  1.00  0.00     0.134 A 
ATOM     71  F   UNL     1       8.512  -4.541 -11.290  1.00  0.00    -0.206 F 
ATOM     72  C   UNL     1       7.709  -3.113 -12.969  1.00  0.00     0.040 A 
ATOM     73  C   UNL     1       5.552  -2.068 -12.735  1.00  0.00     0.040 A 
ATOM     74  F   UNL     1       4.267  -2.445 -10.809  1.00  0.00    -0.206 F 
ATOM     75  C   UNL     1       6.712  -2.281 -13.476  1.00  0.00     0.006 A 
ENDBRANCH  54  68
BRANCH  55  76
ATOM     76  C   UNL     1       4.906  -7.882  -2.094  1.00  0.00     0.057 A 
ATOM     77  C   UNL     1       5.104  -9.254  -1.897  1.00  0.00     0.134 A 
ATOM     78  C   UNL     1       4.404  -7.144  -1.015  1.00  0.00     0.134 A 
ATOM     79  F   UNL     1       5.566 -10.019  -2.898  1.00  0.00    -0.206 F 
ATOM     80  C   UNL     1       4.779  -9.877  -0.691  1.00  0.00     0.040 A 
ATOM     81  C   UNL     1       4.103  -7.749   0.208  1.00  0.00     0.040 A 
ATOM     82  F   UNL     1       4.199  -5.824  -1.132  1.00  0.00    -0.206 F 
ATOM     83  C   UNL     1       4.277  -9.122   0.367  1.00  0.00     0.006 A 
ENDBRANCH  55  76
BRANCH  67  84
ATOM     84  C   UNL     1       2.038  -8.664  -8.389  1.00  0.00     0.057 A 
ATOM     85  C   UNL     1       0.686  -8.489  -8.068  1.00  0.00     0.134 A 
ATOM     86  C   UNL     1       2.365  -9.700  -9.274  1.00  0.00     0.134 A 
ATOM     87  F   UNL     1       0.308  -7.523  -7.217  1.00  0.00    -0.206 F 
ATOM     88  C   UNL     1      -0.300  -9.327  -8.592  1.00  0.00     0.040 A 
ATOM     89  C   UNL     1       1.385 -10.524  -9.828  1.00  0.00     0.040 A 
ATOM     90  F   UNL     1       3.640  -9.915  -9.631  1.00  0.00    -0.206 F 
ATOM     91  C   UNL     1       0.048 -10.341  -9.482  1.00  0.00     0.006 A 
ENDBRANCH  67  84
ENDBRANCH  41  42
ENDBRANCH  33  36
ENDBRANCH  31  32
ENDBRANCH  30  31
ENDBRANCH  29  30
ENDBRANCH  28  29
ENDBRANCH  27  28
ENDBRANCH   1  27
TORSDOF 19
