REMARK SMILES N#Cc1ccc(/C=C/C(=O)N[C@H]2C=C[C@H](C(=O)NCCCCCCNC(=O)c3ccc(-c4c5nc(c(-c6c(F)cccc6F)c6ccc([nH]6)c(-c6c(F)cccc6F)c6nc(c(-c7c(F)cccc7F)c7ccc4[nH]7)C=C6)C=C5)cc3)C2)cc1
REMARK SMILES IDX 20 1 19 2 18 3 16 4 17 5 15 7 12 8 13 9 82 10 14 11 11 12
REMARK SMILES IDX 9 13 10 14 8 16 7 17 6 18 3 19 4 20 84 21 5 22 83 23 2 24
REMARK SMILES IDX 1 25 21 26 22 27 23 28 24 29 25 30 26 31 27 33 28 34 29 35
REMARK SMILES IDX 81 36 30 37 80 38 31 39 32 40 33 41 74 42 34 43 79 44 73 45
REMARK SMILES IDX 75 46 35 47 78 48 72 49 71 50 36 52 62 53 45 54 61 55 46 56
REMARK SMILES IDX 49 57 60 58 76 59 47 60 48 61 59 63 77 64 50 65 37 66 38 67
REMARK SMILES IDX 43 68 39 69 40 70 42 71 44 72 41 73 63 74 64 75 69 76 65 77
REMARK SMILES IDX 66 78 68 79 70 80 67 81 51 82 52 83 57 84 53 85 54 86 56 87
REMARK SMILES IDX 58 88 55 89
REMARK H PARENT 18 6 11 15 25 32 75 51 49 62
REMARK Flexibility Score: inf
ROOT
ATOM      1  C   UNL     1       3.560  -6.384   3.799  1.00  0.00     0.021 C 
ENDROOT
BRANCH   1   2
ATOM      2  C   UNL     1       4.202  -5.986   2.473  1.00  0.00     0.116 C 
BRANCH   2   3
ATOM      3  N   UNL     1       3.532  -4.843   1.909  1.00  0.00    -0.356 N 
ATOM      4  C   UNL     1       3.983  -3.575   1.767  1.00  0.00     0.227 C 
ATOM      5  O   UNL     1       3.161  -2.737   1.398  1.00  0.00    -0.274 OA
ATOM      6  H   UNL     1       2.617  -5.007   1.583  1.00  0.00     0.163 HD
BRANCH   4   7
ATOM      7  C   UNL     1       5.440  -3.222   2.089  1.00  0.00     0.103 C 
ATOM      8  C   UNL     1       6.027  -1.536   0.476  1.00  0.00     0.106 C 
ATOM      9  C   UNL     1       6.879  -2.738   0.262  1.00  0.00    -0.006 C 
ATOM     10  C   UNL     1       5.637  -1.710   1.943  1.00  0.00     0.047 C 
ATOM     11  C   UNL     1       6.459  -3.717   1.084  1.00  0.00    -0.016 C 
BRANCH   8  12
ATOM     12  N   UNL     1       6.626  -0.262   0.226  1.00  0.00    -0.346 N 
ATOM     13  C   UNL     1       6.015   0.957   0.117  1.00  0.00     0.244 C 
ATOM     14  O   UNL     1       6.732   1.960   0.082  1.00  0.00    -0.270 OA
ATOM     15  H   UNL     1       7.605  -0.262   0.118  1.00  0.00     0.164 HD
BRANCH  13  16
ATOM     16  C   UNL     1       4.522   1.169   0.053  1.00  0.00     0.072 C 
ATOM     17  C   UNL     1       3.539   0.263  -0.053  1.00  0.00     0.014 C 
BRANCH  17  18
ATOM     18  C   UNL     1       2.073   0.371  -0.122  1.00  0.00    -0.025 A 
ATOM     19  C   UNL     1      -0.743   0.289  -0.102  1.00  0.00     0.052 A 
ATOM     20  C   UNL     1      -0.060   1.509   0.001  1.00  0.00     0.020 A 
ATOM     21  C   UNL     1      -0.023  -0.891  -0.244  1.00  0.00     0.020 A 
ATOM     22  C   UNL     1       1.344   1.551  -0.003  1.00  0.00     0.009 A 
ATOM     23  C   UNL     1       1.367  -0.841  -0.270  1.00  0.00     0.009 A 
BRANCH  19  24
ATOM     24  C   UNL     1      -2.175   0.233  -0.050  1.00  0.00     0.099 C 
ATOM     25  N   UNL     1      -3.330   0.159  -0.005  1.00  0.00    -0.192 NA
ENDBRANCH  19  24
ENDBRANCH  17  18
ENDBRANCH  13  16
ENDBRANCH   8  12
ENDBRANCH   4   7
ENDBRANCH   2   3
ENDBRANCH   1   2
BRANCH   1  26
ATOM     26  C   UNL     1       2.082  -6.787   3.691  1.00  0.00     0.002 C 
BRANCH  26  27
ATOM     27  C   UNL     1       1.781  -7.893   2.675  1.00  0.00     0.002 C 
BRANCH  27  28
ATOM     28  C   UNL     1       2.603  -9.168   2.860  1.00  0.00     0.021 C 
BRANCH  28  29
ATOM     29  C   UNL     1       2.445  -9.815   4.228  1.00  0.00     0.116 C 
BRANCH  29  30
ATOM     30  N   UNL     1       1.099 -10.328   4.440  1.00  0.00    -0.352 N 
ATOM     31  C   UNL     1       0.710 -11.602   4.777  1.00  0.00     0.251 C 
ATOM     32  H   UNL     1       0.371  -9.675   4.327  1.00  0.00     0.163 HD
ATOM     33  O   UNL     1      -0.469 -11.931   4.729  1.00  0.00    -0.269 OA
BRANCH  31  34
ATOM     34  C   UNL     1       1.741 -12.581   5.173  1.00  0.00     0.039 A 
ATOM     35  C   UNL     1       1.740 -13.850   4.590  1.00  0.00     0.014 A 
ATOM     36  C   UNL     1       2.736 -12.221   6.087  1.00  0.00     0.014 A 
ATOM     37  C   UNL     1       2.784 -14.735   4.869  1.00  0.00     0.010 A 
ATOM     38  C   UNL     1       3.817 -13.067   6.292  1.00  0.00     0.010 A 
ATOM     39  C   UNL     1       3.852 -14.335   5.688  1.00  0.00    -0.014 A 
BRANCH  39  40
ATOM     40  C   UNL     1       5.016 -15.218   5.947  1.00  0.00     0.031 A 
ATOM     41  C   UNL     1       5.322 -15.648   7.355  1.00  0.00     0.074 A 
ATOM     42  C   UNL     1       5.847 -15.555   4.942  1.00  0.00     0.049 A 
ATOM     43  N   UNL     1       6.364 -16.289   7.817  1.00  0.00    -0.248 NA
ATOM     44  C   UNL     1       4.336 -15.280   8.384  1.00  0.00     0.031 C 
ATOM     45  C   UNL     1       5.675 -15.179   3.538  1.00  0.00     0.029 A 
ATOM     46  N   UNL     1       7.018 -16.274   4.952  1.00  0.00    -0.354 N 
ATOM     47  C   UNL     1       6.165 -16.389   9.188  1.00  0.00     0.074 A 
ATOM     48  C   UNL     1       4.938 -15.686   9.491  1.00  0.00     0.031 C 
ATOM     49  C   UNL     1       6.696 -15.677   2.822  1.00  0.00     0.029 A 
ATOM     50  C   UNL     1       7.623 -16.358   3.721  1.00  0.00     0.049 A 
ATOM     51  H   UNL     1       7.388 -16.689   5.764  1.00  0.00     0.167 HD
ATOM     52  C   UNL     1       6.923 -17.030  10.108  1.00  0.00     0.037 A 
ATOM     53  C   UNL     1       8.804 -16.899   3.362  1.00  0.00     0.037 A 
ATOM     54  C   UNL     1       8.142 -17.730   9.800  1.00  0.00     0.049 A 
ATOM     55  C   UNL     1       9.661 -17.556   4.411  1.00  0.00     0.074 A 
ATOM     56  C   UNL     1       8.967 -18.438  10.655  1.00  0.00     0.029 A 
ATOM     57  N   UNL     1       8.715 -17.800   8.539  1.00  0.00    -0.354 N 
ATOM     58  N   UNL     1       9.439 -17.686   5.697  1.00  0.00    -0.248 NA
ATOM     59  C   UNL     1      10.932 -18.143   3.962  1.00  0.00     0.031 C 
ATOM     60  C   UNL     1      10.073 -18.879   9.925  1.00  0.00     0.029 A 
ATOM     61  C   UNL     1       9.898 -18.516   8.599  1.00  0.00     0.049 A 
ATOM     62  H   UNL     1       8.337 -17.400   7.722  1.00  0.00     0.167 HD
ATOM     63  C   UNL     1      10.517 -18.404   6.201  1.00  0.00     0.074 A 
ATOM     64  C   UNL     1      11.394 -18.680   5.083  1.00  0.00     0.031 C 
ATOM     65  C   UNL     1      10.752 -18.804   7.474  1.00  0.00     0.037 A 
BRANCH  52  66
ATOM     66  C   UNL     1       6.458 -16.993  11.537  1.00  0.00     0.057 A 
ATOM     67  C   UNL     1       5.285 -17.639  11.952  1.00  0.00     0.134 A 
ATOM     68  C   UNL     1       7.203 -16.321  12.515  1.00  0.00     0.134 A 
ATOM     69  F   UNL     1       4.519 -18.294  11.066  1.00  0.00    -0.206 F 
ATOM     70  C   UNL     1       4.851 -17.586  13.277  1.00  0.00     0.040 A 
ATOM     71  C   UNL     1       6.798 -16.293  13.850  1.00  0.00     0.040 A 
ATOM     72  F   UNL     1       8.341 -15.689  12.191  1.00  0.00    -0.206 F 
ATOM     73  C   UNL     1       5.613 -16.916  14.232  1.00  0.00     0.006 A 
ENDBRANCH  52  66
BRANCH  53  74
ATOM     74  C   UNL     1       9.249 -16.837   1.945  1.00  0.00     0.057 A 
ATOM     75  C   UNL     1       9.356 -17.996   1.167  1.00  0.00     0.134 A 
ATOM     76  C   UNL     1       9.589 -15.622   1.337  1.00  0.00     0.134 A 
ATOM     77  F   UNL     1       9.062 -19.193   1.695  1.00  0.00    -0.206 F 
ATOM     78  C   UNL     1       9.807 -17.953  -0.154  1.00  0.00     0.040 A 
ATOM     79  C   UNL     1      10.011 -15.560   0.008  1.00  0.00     0.040 A 
ATOM     80  F   UNL     1       9.499 -14.473   2.022  1.00  0.00    -0.206 F 
ATOM     81  C   UNL     1      10.131 -16.730  -0.739  1.00  0.00     0.006 A 
ENDBRANCH  53  74
BRANCH  65  82
ATOM     82  C   UNL     1      11.971 -19.642   7.734  1.00  0.00     0.057 A 
ATOM     83  C   UNL     1      13.265 -19.110   7.708  1.00  0.00     0.134 A 
ATOM     84  C   UNL     1      11.831 -20.985   8.113  1.00  0.00     0.134 A 
ATOM     85  F   UNL     1      13.470 -17.836   7.343  1.00  0.00    -0.206 F 
ATOM     86  C   UNL     1      14.377 -19.885   8.043  1.00  0.00     0.040 A 
ATOM     87  C   UNL     1      12.932 -21.760   8.479  1.00  0.00     0.040 A 
ATOM     88  F   UNL     1      10.618 -21.555   8.168  1.00  0.00    -0.206 F 
ATOM     89  C   UNL     1      14.210 -21.210   8.443  1.00  0.00     0.006 A 
ENDBRANCH  65  82
ENDBRANCH  39  40
ENDBRANCH  31  34
ENDBRANCH  29  30
ENDBRANCH  28  29
ENDBRANCH  27  28
ENDBRANCH  26  27
ENDBRANCH   1  26
TORSDOF 17
