REMARK SMILES CCCC(=O)N(c1cc2sc(=O)oc2c2ccccc12)S(=O)(=O)c1ccc(C(=O)NCCCCCCNC(=O)c2ccc(-c3c4nc(c(-c5c(F)cccc5F)c5ccc([nH]5)c(-c5c(F)cccc5F)c5nc(c(-c6c(F)cccc6F)c6ccc3[nH]6)C=C5)C=C4)cc2)cc1
REMARK SMILES IDX 32 1 31 2 30 3 28 4 29 5 27 7 24 8 25 9 95 10 26 11 94 12
REMARK SMILES IDX 21 13 22 14 23 15 6 16 4 17 5 18 3 19 2 20 1 21 7 22 8 23
REMARK SMILES IDX 20 24 9 25 15 26 19 27 10 28 14 29 16 30 18 31 11 32 13 33
REMARK SMILES IDX 17 34 12 35 33 36 34 37 35 38 36 39 37 40 38 41 39 43 40 44
REMARK SMILES IDX 41 45 93 46 42 47 92 48 43 49 44 50 45 51 86 52 46 53 91 54
REMARK SMILES IDX 85 55 87 56 47 57 90 58 84 59 83 60 48 62 74 63 57 64 73 65
REMARK SMILES IDX 58 66 61 67 72 68 88 69 59 70 60 71 71 73 89 74 62 75 49 76
REMARK SMILES IDX 50 77 55 78 51 79 52 80 54 81 56 82 53 83 75 84 76 85 81 86
REMARK SMILES IDX 77 87 78 88 80 89 82 90 79 91 63 92 64 93 69 94 65 95 66 96
REMARK SMILES IDX 68 97 70 98 67 99
REMARK H PARENT 30 6 37 42 87 61 61 72
REMARK Flexibility Score: inf
ROOT
ATOM      1  C   UNL     1       5.103  -5.349   7.413  1.00  0.00     0.021 C 
ENDROOT
BRANCH   1   2
ATOM      2  C   UNL     1       3.624  -5.124   7.116  1.00  0.00     0.116 C 
BRANCH   2   3
ATOM      3  N   UNL     1       3.143  -3.827   7.538  1.00  0.00    -0.352 N 
ATOM      4  C   UNL     1       2.229  -2.961   6.995  1.00  0.00     0.251 C 
ATOM      5  O   UNL     1       2.038  -1.900   7.592  1.00  0.00    -0.269 OA
ATOM      6  H   UNL     1       3.549  -3.504   8.374  1.00  0.00     0.163 HD
BRANCH   4   7
ATOM      7  C   UNL     1       1.513  -3.199   5.706  1.00  0.00     0.039 A 
ATOM      8  C   UNL     1       0.310  -3.400   3.169  1.00  0.00     0.088 A 
ATOM      9  C   UNL     1       0.366  -2.166   3.821  1.00  0.00     0.023 A 
ATOM     10  C   UNL     1       0.718  -4.554   3.841  1.00  0.00     0.023 A 
ATOM     11  C   UNL     1       1.009  -2.062   5.054  1.00  0.00     0.015 A 
ATOM     12  C   UNL     1       1.276  -4.451   5.125  1.00  0.00     0.015 A 
BRANCH   8  13
ATOM     13  S   UNL     1      -0.385  -3.491   1.517  1.00  0.00     0.270 S 
ATOM     14  O   UNL     1      -1.578  -2.664   1.556  1.00  0.00    -0.201 OA
ATOM     15  O   UNL     1      -0.453  -4.897   1.191  1.00  0.00    -0.201 OA
BRANCH  13  16
ATOM     16  N   UNL     1       0.779  -2.776   0.477  1.00  0.00    -0.202 N 
BRANCH  16  17
ATOM     17  C   UNL     1       0.514  -2.779  -0.937  1.00  0.00     0.241 C 
ATOM     18  O   UNL     1      -0.535  -3.214  -1.402  1.00  0.00    -0.273 OA
BRANCH  17  19
ATOM     19  C   UNL     1       1.590  -2.260  -1.890  1.00  0.00     0.101 C 
BRANCH  19  20
ATOM     20  C   UNL     1       1.284  -0.866  -2.445  1.00  0.00     0.006 C 
ATOM     21  C   UNL     1       2.416   0.124  -2.200  1.00  0.00     0.004 C 
ENDBRANCH  19  20
ENDBRANCH  17  19
ENDBRANCH  16  17
BRANCH  16  22
ATOM     22  C   UNL     1       1.522  -1.646   0.979  1.00  0.00     0.070 A 
ATOM     23  C   UNL     1       2.773  -1.952   1.540  1.00  0.00     0.051 A 
ATOM     24  C   UNL     1       1.020  -0.303   0.977  1.00  0.00     0.010 A 
ATOM     25  C   UNL     1       3.518  -0.938   2.108  1.00  0.00     0.080 A 
ATOM     26  C   UNL     1       1.845   0.731   1.497  1.00  0.00     0.028 A 
ATOM     27  C   UNL     1      -0.251   0.074   0.480  1.00  0.00     0.011 A 
ATOM     28  S   UNL     1       5.048  -1.073   2.949  1.00  0.00    -0.052 S 
ATOM     29  C   UNL     1       3.070   0.376   2.079  1.00  0.00     0.157 A 
ATOM     30  C   UNL     1       1.427   2.074   1.415  1.00  0.00     0.013 A 
ATOM     31  C   UNL     1      -0.649   1.411   0.406  1.00  0.00     0.001 A 
ATOM     32  C   UNL     1       4.995   0.672   3.230  1.00  0.00     0.396 A 
ATOM     33  O   UNL     1       3.895   1.331   2.687  1.00  0.00    -0.413 OA
ATOM     34  C   UNL     1       0.199   2.412   0.854  1.00  0.00     0.001 A 
ATOM     35  O   UNL     1       5.874   1.254   3.849  1.00  0.00    -0.233 OA
ENDBRANCH  16  22
ENDBRANCH  13  16
ENDBRANCH   8  13
ENDBRANCH   4   7
ENDBRANCH   2   3
ENDBRANCH   1   2
BRANCH   1  36
ATOM     36  C   UNL     1       5.519  -5.331   8.887  1.00  0.00     0.002 C 
BRANCH  36  37
ATOM     37  C   UNL     1       4.846  -6.355   9.808  1.00  0.00     0.002 C 
BRANCH  37  38
ATOM     38  C   UNL     1       4.737  -7.783   9.266  1.00  0.00     0.021 C 
BRANCH  38  39
ATOM     39  C   UNL     1       6.054  -8.376   8.768  1.00  0.00     0.116 C 
BRANCH  39  40
ATOM     40  N   UNL     1       6.782  -9.111   9.785  1.00  0.00    -0.352 N 
ATOM     41  C   UNL     1       6.537 -10.372  10.272  1.00  0.00     0.251 C 
ATOM     42  H   UNL     1       7.554  -8.644  10.178  1.00  0.00     0.163 HD
ATOM     43  O   UNL     1       7.215 -10.841  11.179  1.00  0.00    -0.269 OA
BRANCH  41  44
ATOM     44  C   UNL     1       5.402 -11.137   9.724  1.00  0.00     0.039 A 
ATOM     45  C   UNL     1       5.334 -11.432   8.359  1.00  0.00     0.014 A 
ATOM     46  C   UNL     1       4.387 -11.539  10.595  1.00  0.00     0.014 A 
ATOM     47  C   UNL     1       4.201 -12.051   7.845  1.00  0.00     0.010 A 
ATOM     48  C   UNL     1       3.267 -12.190  10.084  1.00  0.00     0.010 A 
ATOM     49  C   UNL     1       3.169 -12.437   8.707  1.00  0.00    -0.014 A 
BRANCH  49  50
ATOM     50  C   UNL     1       2.088 -13.255   8.141  1.00  0.00     0.031 A 
ATOM     51  C   UNL     1       2.064 -14.648   8.664  1.00  0.00     0.074 A 
ATOM     52  C   UNL     1       0.945 -12.740   7.647  1.00  0.00     0.049 A 
ATOM     53  N   UNL     1       1.530 -14.936   9.813  1.00  0.00    -0.248 NA
ATOM     54  C   UNL     1       2.861 -15.727   8.086  1.00  0.00     0.031 C 
ATOM     55  C   UNL     1       0.382 -11.447   8.048  1.00  0.00     0.029 A 
ATOM     56  N   UNL     1      -0.050 -13.333   6.905  1.00  0.00    -0.354 N 
ATOM     57  C   UNL     1       1.973 -16.194  10.160  1.00  0.00     0.074 A 
ATOM     58  C   UNL     1       2.770 -16.662   9.046  1.00  0.00     0.031 C 
ATOM     59  C   UNL     1      -0.925 -11.430   7.713  1.00  0.00     0.029 A 
ATOM     60  C   UNL     1      -1.246 -12.621   6.928  1.00  0.00     0.049 A 
ATOM     61  H   UNL     1       0.072 -14.174   6.408  1.00  0.00     0.167 HD
ATOM     62  C   UNL     1       1.683 -16.767  11.356  1.00  0.00     0.037 A 
ATOM     63  C   UNL     1      -2.486 -13.177   6.871  1.00  0.00     0.037 A 
ATOM     64  C   UNL     1       0.883 -15.986  12.251  1.00  0.00     0.049 A 
ATOM     65  C   UNL     1      -2.534 -13.979   8.141  1.00  0.00     0.074 A 
ATOM     66  C   UNL     1       1.094 -15.113  13.297  1.00  0.00     0.029 A 
ATOM     67  N   UNL     1      -0.478 -15.981  12.061  1.00  0.00    -0.354 N 
ATOM     68  N   UNL     1      -2.801 -13.508   9.327  1.00  0.00    -0.248 NA
ATOM     69  C   UNL     1      -1.948 -15.321   8.136  1.00  0.00     0.031 C 
ATOM     70  C   UNL     1      -0.087 -14.307  13.369  1.00  0.00     0.029 A 
ATOM     71  C   UNL     1      -0.911 -14.704  12.318  1.00  0.00     0.049 A 
ATOM     72  H   UNL     1      -1.036 -16.746  11.792  1.00  0.00     0.167 HD
ATOM     73  C   UNL     1      -2.177 -14.378  10.223  1.00  0.00     0.074 A 
ATOM     74  C   UNL     1      -1.706 -15.493   9.428  1.00  0.00     0.031 C 
ATOM     75  C   UNL     1      -1.921 -14.047  11.522  1.00  0.00     0.037 A 
BRANCH  62  76
ATOM     76  C   UNL     1       2.014 -18.157  11.702  1.00  0.00     0.057 A 
ATOM     77  C   UNL     1       3.232 -18.528  12.270  1.00  0.00     0.134 A 
ATOM     78  C   UNL     1       0.995 -19.114  11.636  1.00  0.00     0.134 A 
ATOM     79  F   UNL     1       4.240 -17.648  12.362  1.00  0.00    -0.206 F 
ATOM     80  C   UNL     1       3.414 -19.809  12.795  1.00  0.00     0.040 A 
ATOM     81  C   UNL     1       1.161 -20.391  12.162  1.00  0.00     0.040 A 
ATOM     82  F   UNL     1      -0.195 -18.795  11.099  1.00  0.00    -0.206 F 
ATOM     83  C   UNL     1       2.372 -20.737  12.756  1.00  0.00     0.006 A 
ENDBRANCH  62  76
BRANCH  63  84
ATOM     84  C   UNL     1      -2.910 -13.726   5.546  1.00  0.00     0.057 A 
ATOM     85  C   UNL     1      -3.531 -14.966   5.344  1.00  0.00     0.134 A 
ATOM     86  C   UNL     1      -2.731 -12.941   4.391  1.00  0.00     0.134 A 
ATOM     87  F   UNL     1      -3.868 -15.754   6.373  1.00  0.00    -0.206 F 
ATOM     88  C   UNL     1      -3.831 -15.452   4.065  1.00  0.00     0.040 A 
ATOM     89  C   UNL     1      -3.047 -13.403   3.109  1.00  0.00     0.040 A 
ATOM     90  F   UNL     1      -2.248 -11.691   4.484  1.00  0.00    -0.206 F 
ATOM     91  C   UNL     1      -3.576 -14.676   2.941  1.00  0.00     0.006 A 
ENDBRANCH  63  84
BRANCH  75  92
ATOM     92  C   UNL     1      -2.538 -12.767  11.970  1.00  0.00     0.057 A 
ATOM     93  C   UNL     1      -1.777 -11.617  12.215  1.00  0.00     0.134 A 
ATOM     94  C   UNL     1      -3.926 -12.668  12.128  1.00  0.00     0.134 A 
ATOM     95  F   UNL     1      -0.444 -11.623  12.060  1.00  0.00    -0.206 F 
ATOM     96  C   UNL     1      -2.372 -10.422  12.626  1.00  0.00     0.040 A 
ATOM     97  C   UNL     1      -4.534 -11.472  12.511  1.00  0.00     0.040 A 
ATOM     98  F   UNL     1      -4.713 -13.735  11.914  1.00  0.00    -0.206 F 
ATOM     99  C   UNL     1      -3.755 -10.346  12.769  1.00  0.00     0.006 A 
ENDBRANCH  75  92
ENDBRANCH  49  50
ENDBRANCH  41  44
ENDBRANCH  39  40
ENDBRANCH  38  39
ENDBRANCH  37  38
ENDBRANCH  36  37
ENDBRANCH   1  36
TORSDOF 19
