REMARK SMILES CCN1C(=O)/C(=C/c2ccccc2O[C@H](C)C(=O)NCCCCCCNC(=O)c2ccc(-c3c4nc(c(-c5c(F)cccc5F)c5ccc([nH]5)c(-c5c(F)cccc5F)c5nc(c(-c6c(F)cccc6F)c6ccc3[nH]6)C=C5)C=C4)cc2)S/C1=[NH+]\c1ccc(C)cc1O
REMARK SMILES IDX 21 1 20 2 19 3 17 4 18 5 15 7 16 8 14 9 13 10 8 11 9 12
REMARK SMILES IDX 10 13 12 14 11 15 7 16 3 17 4 18 84 19 5 20 6 21 83 22 85 23
REMARK SMILES IDX 2 25 1 26 86 27 87 28 92 29 88 30 91 31 89 32 90 33 93 34
REMARK SMILES IDX 22 36 23 37 24 38 25 39 26 40 27 41 28 43 29 44 30 45 82 46
REMARK SMILES IDX 31 47 81 48 32 49 33 50 34 51 75 52 35 53 80 54 74 55 76 56
REMARK SMILES IDX 36 57 79 58 73 59 72 60 37 62 63 63 46 64 62 65 47 66 50 67
REMARK SMILES IDX 61 68 77 69 48 70 49 71 60 73 78 74 51 75 38 76 39 77 44 78
REMARK SMILES IDX 40 79 41 80 43 81 45 82 42 83 64 84 65 85 70 86 66 87 67 88
REMARK SMILES IDX 69 89 71 90 68 91 52 92 53 93 58 94 54 95 55 96 57 97 59 98
REMARK SMILES IDX 56 99
REMARK H PARENT 19 6 85 24 93 35 26 42 76 61 50 72
REMARK Flexibility Score: inf
ROOT
ATOM      1  C   UNL     1       1.110  -8.359   1.054  1.00  0.00     0.021 C 
ENDROOT
BRANCH   1   2
ATOM      2  C   UNL     1       1.429  -6.871   0.995  1.00  0.00     0.116 C 
BRANCH   2   3
ATOM      3  N   UNL     1       0.355  -6.092   0.424  1.00  0.00    -0.353 N 
ATOM      4  C   UNL     1      -0.428  -5.140   1.011  1.00  0.00     0.260 C 
ATOM      5  O   UNL     1      -1.261  -4.569   0.300  1.00  0.00    -0.271 OA
ATOM      6  H   UNL     1       0.160  -6.273  -0.524  1.00  0.00     0.163 HD
BRANCH   4   7
ATOM      7  C   UNL     1      -0.324  -4.833   2.519  1.00  0.00     0.258 C 
ATOM      8  C   UNL     1      -0.865  -6.007   3.325  1.00  0.00     0.064 C 
BRANCH   7   9
ATOM      9  O   UNL     1       0.923  -4.214   2.825  1.00  0.00    -0.480 OA
BRANCH   9  10
ATOM     10  C   UNL     1       1.943  -4.716   3.571  1.00  0.00     0.127 A 
ATOM     11  C   UNL     1       3.255  -4.431   3.125  1.00  0.00     0.018 A 
ATOM     12  C   UNL     1       4.352  -4.980   3.811  1.00  0.00     0.012 A 
ATOM     13  C   UNL     1       4.158  -5.758   4.951  1.00  0.00     0.001 A 
ATOM     14  C   UNL     1       1.771  -5.431   4.755  1.00  0.00     0.047 A 
ATOM     15  C   UNL     1       2.870  -5.969   5.430  1.00  0.00     0.004 A 
BRANCH  11  16
ATOM     16  C   UNL     1       3.558  -3.619   1.927  1.00  0.00     0.036 C 
ATOM     17  N   UNL     1       2.998  -0.343   0.468  1.00  0.00    -0.186 N 
ATOM     18  C   UNL     1       3.527  -1.625   0.454  1.00  0.00     0.348 C 
ATOM     19  C   UNL     1       2.249  -0.015   1.573  1.00  0.00     0.324 C 
ATOM     20  O   UNL     1       4.241  -2.100  -0.426  1.00  0.00    -0.240 OA
ATOM     21  C   UNL     1       3.128  -2.374   1.673  1.00  0.00     0.110 C 
ATOM     22  S   UNL     1       2.120  -1.389   2.643  1.00  0.00     0.007 SA
ATOM     23  N   UNL     1       1.755   1.160   1.786  1.00  0.00    -0.231 N 
ATOM     24  H   UNL     1       1.969   1.890   1.161  1.00  0.00     0.313 HD
BRANCH  17  25
ATOM     25  C   UNL     1       3.227   0.485  -0.716  1.00  0.00     0.244 C 
ATOM     26  C   UNL     1       2.797   1.941  -0.697  1.00  0.00     0.055 C 
ENDBRANCH  17  25
BRANCH  23  27
ATOM     27  C   UNL     1       0.919   1.423   2.890  1.00  0.00     0.167 A 
ATOM     28  C   UNL     1      -0.424   1.722   2.650  1.00  0.00     0.056 A 
ATOM     29  C   UNL     1       1.378   1.458   4.216  1.00  0.00     0.162 A 
ATOM     30  C   UNL     1      -1.297   1.992   3.710  1.00  0.00     0.008 A 
ATOM     31  C   UNL     1       0.510   1.692   5.280  1.00  0.00     0.054 A 
ATOM     32  C   UNL     1      -0.841   1.956   5.034  1.00  0.00    -0.047 A 
ATOM     33  C   UNL     1      -1.785   2.243   6.162  1.00  0.00     0.044 C 
BRANCH  29  34
ATOM     34  O   UNL     1       2.701   1.269   4.516  1.00  0.00    -0.504 OA
ATOM     35  H   UNL     1       3.319   1.109   3.830  1.00  0.00     0.293 HD
ENDBRANCH  29  34
ENDBRANCH  23  27
ENDBRANCH  11  16
ENDBRANCH   9  10
ENDBRANCH   7   9
ENDBRANCH   4   7
ENDBRANCH   2   3
ENDBRANCH   1   2
BRANCH   1  36
ATOM     36  C   UNL     1       1.036  -9.045  -0.310  1.00  0.00     0.002 C 
BRANCH  36  37
ATOM     37  C   UNL     1       2.271  -8.863  -1.198  1.00  0.00     0.002 C 
BRANCH  37  38
ATOM     38  C   UNL     1       3.605  -9.240  -0.550  1.00  0.00     0.021 C 
BRANCH  38  39
ATOM     39  C   UNL     1       3.683 -10.671  -0.032  1.00  0.00     0.116 C 
BRANCH  39  40
ATOM     40  N   UNL     1       3.506 -11.648  -1.094  1.00  0.00    -0.352 N 
ATOM     41  C   UNL     1       4.317 -12.687  -1.467  1.00  0.00     0.251 C 
ATOM     42  H   UNL     1       2.682 -11.548  -1.623  1.00  0.00     0.163 HD
ATOM     43  O   UNL     1       4.106 -13.287  -2.519  1.00  0.00    -0.269 OA
BRANCH  41  44
ATOM     44  C   UNL     1       5.459 -13.079  -0.615  1.00  0.00     0.039 A 
ATOM     45  C   UNL     1       6.684 -13.368  -1.221  1.00  0.00     0.014 A 
ATOM     46  C   UNL     1       5.320 -13.180   0.772  1.00  0.00     0.014 A 
ATOM     47  C   UNL     1       7.784 -13.706  -0.431  1.00  0.00     0.010 A 
ATOM     48  C   UNL     1       6.436 -13.441   1.563  1.00  0.00     0.010 A 
ATOM     49  C   UNL     1       7.677 -13.714   0.969  1.00  0.00    -0.014 A 
BRANCH  49  50
ATOM     50  C   UNL     1       8.856 -14.002   1.824  1.00  0.00     0.031 A 
ATOM     51  C   UNL     1       8.874 -15.212   2.715  1.00  0.00     0.074 A 
ATOM     52  C   UNL     1       9.888 -13.136   1.844  1.00  0.00     0.049 A 
ATOM     53  N   UNL     1       9.792 -15.601   3.563  1.00  0.00    -0.248 NA
ATOM     54  C   UNL     1       7.691 -16.086   2.670  1.00  0.00     0.031 C 
ATOM     55  C   UNL     1       9.964 -11.895   1.070  1.00  0.00     0.029 A 
ATOM     56  N   UNL     1      11.064 -13.160   2.550  1.00  0.00    -0.354 N 
ATOM     57  C   UNL     1       9.292 -16.751   4.162  1.00  0.00     0.074 A 
ATOM     58  C   UNL     1       7.968 -16.966   3.620  1.00  0.00     0.031 C 
ATOM     59  C   UNL     1      11.132 -11.287   1.329  1.00  0.00     0.029 A 
ATOM     60  C   UNL     1      11.870 -12.073   2.313  1.00  0.00     0.049 A 
ATOM     61  H   UNL     1      11.307 -13.887   3.168  1.00  0.00     0.167 HD
ATOM     62  C   UNL     1       9.890 -17.565   5.065  1.00  0.00     0.037 A 
ATOM     63  C   UNL     1      13.064 -11.740   2.838  1.00  0.00     0.037 A 
ATOM     64  C   UNL     1      11.216 -17.357   5.585  1.00  0.00     0.049 A 
ATOM     65  C   UNL     1      13.713 -12.662   3.832  1.00  0.00     0.074 A 
ATOM     66  C   UNL     1      11.942 -18.165   6.443  1.00  0.00     0.029 A 
ATOM     67  N   UNL     1      12.013 -16.257   5.302  1.00  0.00    -0.354 N 
ATOM     68  N   UNL     1      13.266 -13.793   4.323  1.00  0.00    -0.248 NA
ATOM     69  C   UNL     1      15.035 -12.269   4.336  1.00  0.00     0.031 C 
ATOM     70  C   UNL     1      13.153 -17.526   6.726  1.00  0.00     0.029 A 
ATOM     71  C   UNL     1      13.209 -16.349   5.996  1.00  0.00     0.049 A 
ATOM     72  H   UNL     1      11.765 -15.520   4.699  1.00  0.00     0.167 HD
ATOM     73  C   UNL     1      14.259 -14.257   5.176  1.00  0.00     0.074 A 
ATOM     74  C   UNL     1      15.340 -13.294   5.119  1.00  0.00     0.031 C 
ATOM     75  C   UNL     1      14.275 -15.380   5.935  1.00  0.00     0.037 A 
BRANCH  62  76
ATOM     76  C   UNL     1       9.107 -18.751   5.554  1.00  0.00     0.057 A 
ATOM     77  C   UNL     1       8.801 -19.836   4.721  1.00  0.00     0.134 A 
ATOM     78  C   UNL     1       8.676 -18.820   6.885  1.00  0.00     0.134 A 
ATOM     79  F   UNL     1       9.174 -19.831   3.433  1.00  0.00    -0.206 F 
ATOM     80  C   UNL     1       8.065 -20.929   5.184  1.00  0.00     0.040 A 
ATOM     81  C   UNL     1       7.967 -19.922   7.368  1.00  0.00     0.040 A 
ATOM     82  F   UNL     1       8.941 -17.821   7.741  1.00  0.00    -0.206 F 
ATOM     83  C   UNL     1       7.652 -20.976   6.514  1.00  0.00     0.006 A 
ENDBRANCH  62  76
BRANCH  63  84
ATOM     84  C   UNL     1      13.729 -10.480   2.417  1.00  0.00     0.057 A 
ATOM     85  C   UNL     1      14.884 -10.497   1.628  1.00  0.00     0.134 A 
ATOM     86  C   UNL     1      13.218  -9.230   2.786  1.00  0.00     0.134 A 
ATOM     87  F   UNL     1      15.430 -11.664   1.256  1.00  0.00    -0.206 F 
ATOM     88  C   UNL     1      15.518  -9.318   1.234  1.00  0.00     0.040 A 
ATOM     89  C   UNL     1      13.826  -8.042   2.377  1.00  0.00     0.040 A 
ATOM     90  F   UNL     1      12.108  -9.145   3.534  1.00  0.00    -0.206 F 
ATOM     91  C   UNL     1      14.984  -8.085   1.604  1.00  0.00     0.006 A 
ENDBRANCH  63  84
BRANCH  75  92
ATOM     92  C   UNL     1      15.511 -15.642   6.748  1.00  0.00     0.057 A 
ATOM     93  C   UNL     1      15.836 -14.873   7.873  1.00  0.00     0.134 A 
ATOM     94  C   UNL     1      16.369 -16.700   6.420  1.00  0.00     0.134 A 
ATOM     95  F   UNL     1      15.064 -13.837   8.235  1.00  0.00    -0.206 F 
ATOM     96  C   UNL     1      16.983 -15.130   8.626  1.00  0.00     0.040 A 
ATOM     97  C   UNL     1      17.502 -16.986   7.182  1.00  0.00     0.040 A 
ATOM     98  F   UNL     1      16.111 -17.483   5.360  1.00  0.00    -0.206 F 
ATOM     99  C   UNL     1      17.815 -16.195   8.285  1.00  0.00     0.006 A 
ENDBRANCH  75  92
ENDBRANCH  49  50
ENDBRANCH  41  44
ENDBRANCH  39  40
ENDBRANCH  38  39
ENDBRANCH  37  38
ENDBRANCH  36  37
ENDBRANCH   1  36
TORSDOF 19
