REMARK SMILES O=C(C[C@H]1C[C@H]2CC[C@@H](C1)[N@H+]2C[C@@H]1CNC(=O)O1)NCCCCCCNC(=O)c1ccc(-c2c3nc(c(-c4c(F)cccc4F)c4ccc([nH]4)c(-c4c(F)cccc4F)c4nc(c(-c5c(F)cccc5F)c5ccc2[nH]5)C=C4)C=C3)cc1
REMARK SMILES IDX 22 1 21 2 20 3 19 4 1 5 2 6 3 8 4 9 5 10 10 11 6 12 9 13
REMARK SMILES IDX 7 14 11 15 8 16 12 18 13 19 14 20 18 21 15 22 16 23 17 25
REMARK SMILES IDX 23 26 24 27 25 28 26 29 27 30 28 32 29 33 30 34 82 35 31 36
REMARK SMILES IDX 81 37 32 38 33 39 34 40 75 41 35 42 80 43 74 44 76 45 36 46
REMARK SMILES IDX 79 47 73 48 72 49 37 51 63 52 46 53 62 54 47 55 50 56 61 57
REMARK SMILES IDX 77 58 48 59 49 60 60 62 78 63 51 64 38 65 39 66 44 67 40 68
REMARK SMILES IDX 41 69 43 70 45 71 42 72 64 73 65 74 70 75 66 76 67 77 69 78
REMARK SMILES IDX 71 79 68 80 52 81 53 82 58 83 54 84 55 85 57 86 59 87 56 88
REMARK H PARENT 19 7 11 17 15 24 26 31 76 50 50 61
REMARK Flexibility Score: inf
ROOT
ATOM      1  C   UNL     1       4.033   1.675   3.273  1.00  0.00     0.002 C 
ENDROOT
BRANCH   1   2
ATOM      2  C   UNL     1       2.510   1.475   3.220  1.00  0.00     0.021 C 
BRANCH   2   3
ATOM      3  C   UNL     1       1.872   1.743   1.855  1.00  0.00     0.116 C 
BRANCH   3   4
ATOM      4  N   UNL     1       2.363   0.801   0.876  1.00  0.00    -0.356 N 
ATOM      5  O   UNL     1       0.420  -0.371   0.623  1.00  0.00    -0.275 OA
ATOM      6  C   UNL     1       1.618  -0.242   0.381  1.00  0.00     0.220 C 
ATOM      7  H   UNL     1       3.284   0.912   0.545  1.00  0.00     0.163 HD
BRANCH   6   8
ATOM      8  C   UNL     1       2.383  -1.317  -0.391  1.00  0.00     0.104 C 
BRANCH   8   9
ATOM      9  C   UNL     1       3.566  -0.820  -1.240  1.00  0.00     0.010 C 
ATOM     10  C   UNL     1       4.830  -0.574  -0.369  1.00  0.00     0.069 C 
ATOM     11  C   UNL     1       3.788  -1.695  -2.501  1.00  0.00     0.069 C 
ATOM     12  C   UNL     1       6.062  -1.402  -0.706  1.00  0.00     0.184 C 
ATOM     13  C   UNL     1       5.141  -2.399  -2.574  1.00  0.00     0.184 C 
ATOM     14  C   UNL     1       5.832  -2.861  -0.290  1.00  0.00     0.071 C 
ATOM     15  N   UNL     1       6.225  -1.541  -2.132  1.00  0.00    -0.327 N 
ATOM     16  C   UNL     1       5.184  -3.511  -1.511  1.00  0.00     0.071 C 
ATOM     17  H   UNL     1       7.128  -1.961  -2.349  1.00  0.00     0.348 HD
BRANCH  15  18
ATOM     18  C   UNL     1       6.834  -0.524  -2.974  1.00  0.00     0.310 C 
BRANCH  18  19
ATOM     19  C   UNL     1       6.248   0.814  -3.506  1.00  0.00     0.252 C 
ATOM     20  C   UNL     1       5.940   1.940  -2.539  1.00  0.00     0.170 C 
ATOM     21  O   UNL     1       5.063   0.649  -4.297  1.00  0.00    -0.438 OA
ATOM     22  N   UNL     1       4.548   2.148  -2.719  1.00  0.00    -0.318 N 
ATOM     23  C   UNL     1       4.081   1.457  -3.800  1.00  0.00     0.407 C 
ATOM     24  H   UNL     1       3.991   2.717  -2.140  1.00  0.00     0.167 HD
ATOM     25  O   UNL     1       2.949   1.529  -4.237  1.00  0.00    -0.225 OA
ENDBRANCH  18  19
ENDBRANCH  15  18
ENDBRANCH   8   9
ENDBRANCH   6   8
ENDBRANCH   3   4
ENDBRANCH   2   3
ENDBRANCH   1   2
BRANCH   1  26
ATOM     26  C   UNL     1       4.531   3.082   2.928  1.00  0.00     0.002 C 
BRANCH  26  27
ATOM     27  C   UNL     1       3.906   4.215   3.743  1.00  0.00     0.021 C 
BRANCH  27  28
ATOM     28  C   UNL     1       4.075   4.094   5.255  1.00  0.00     0.116 C 
BRANCH  28  29
ATOM     29  N   UNL     1       5.465   4.192   5.669  1.00  0.00    -0.352 N 
ATOM     30  C   UNL     1       6.048   5.011   6.605  1.00  0.00     0.251 C 
ATOM     31  H   UNL     1       6.082   3.578   5.209  1.00  0.00     0.163 HD
ATOM     32  O   UNL     1       7.272   5.067   6.685  1.00  0.00    -0.269 OA
BRANCH  30  33
ATOM     33  C   UNL     1       5.215   5.848   7.499  1.00  0.00     0.039 A 
ATOM     34  C   UNL     1       5.625   7.157   7.762  1.00  0.00     0.014 A 
ATOM     35  C   UNL     1       4.049   5.353   8.091  1.00  0.00     0.014 A 
ATOM     36  C   UNL     1       4.836   7.986   8.563  1.00  0.00     0.010 A 
ATOM     37  C   UNL     1       3.221   6.205   8.822  1.00  0.00     0.010 A 
ATOM     38  C   UNL     1       3.605   7.531   9.066  1.00  0.00    -0.014 A 
BRANCH  38  39
ATOM     39  C   UNL     1       2.709   8.454   9.813  1.00  0.00     0.031 A 
ATOM     40  C   UNL     1       2.359   8.200  11.254  1.00  0.00     0.074 A 
ATOM     41  C   UNL     1       2.180   9.515   9.173  1.00  0.00     0.049 A 
ATOM     42  N   UNL     1       1.625   8.922  12.065  1.00  0.00    -0.248 NA
ATOM     43  C   UNL     1       2.879   6.965  11.858  1.00  0.00     0.031 C 
ATOM     44  C   UNL     1       2.393   9.842   7.762  1.00  0.00     0.029 A 
ATOM     45  N   UNL     1       1.363  10.521   9.626  1.00  0.00    -0.354 N 
ATOM     46  C   UNL     1       1.590   8.227  13.267  1.00  0.00     0.074 A 
ATOM     47  C   UNL     1       2.327   6.999  13.062  1.00  0.00     0.031 C 
ATOM     48  C   UNL     1       1.769  10.995   7.478  1.00  0.00     0.029 A 
ATOM     49  C   UNL     1       1.077  11.468   8.672  1.00  0.00     0.049 A 
ATOM     50  H   UNL     1       1.016  10.561  10.546  1.00  0.00     0.167 HD
ATOM     51  C   UNL     1       1.014   8.588  14.440  1.00  0.00     0.037 A 
ATOM     52  C   UNL     1       0.344  12.594   8.750  1.00  0.00     0.037 A 
ATOM     53  C   UNL     1       0.284   9.815  14.641  1.00  0.00     0.049 A 
ATOM     54  C   UNL     1      -0.297  12.963  10.058  1.00  0.00     0.074 A 
ATOM     55  C   UNL     1      -0.275  10.304  15.809  1.00  0.00     0.029 A 
ATOM     56  N   UNL     1      -0.004  10.738  13.647  1.00  0.00    -0.354 N 
ATOM     57  N   UNL     1      -0.241  12.345  11.213  1.00  0.00    -0.248 NA
ATOM     58  C   UNL     1      -1.097  14.195  10.073  1.00  0.00     0.031 C 
ATOM     59  C   UNL     1      -0.959  11.487  15.507  1.00  0.00     0.029 A 
ATOM     60  C   UNL     1      -0.768  11.773  14.165  1.00  0.00     0.049 A 
ATOM     61  H   UNL     1       0.291  10.669  12.710  1.00  0.00     0.167 HD
ATOM     62  C   UNL     1      -0.977  13.124  12.097  1.00  0.00     0.074 A 
ATOM     63  C   UNL     1      -1.444  14.273  11.349  1.00  0.00     0.031 C 
ATOM     64  C   UNL     1      -1.242  12.906  13.410  1.00  0.00     0.037 A 
BRANCH  51  65
ATOM     65  C   UNL     1       1.135   7.631  15.595  1.00  0.00     0.057 A 
ATOM     66  C   UNL     1       2.363   7.363  16.216  1.00  0.00     0.134 A 
ATOM     67  C   UNL     1       0.003   6.985  16.108  1.00  0.00     0.134 A 
ATOM     68  F   UNL     1       3.491   7.940  15.773  1.00  0.00    -0.206 F 
ATOM     69  C   UNL     1       2.466   6.462  17.279  1.00  0.00     0.040 A 
ATOM     70  C   UNL     1       0.088   6.107  17.191  1.00  0.00     0.040 A 
ATOM     71  F   UNL     1      -1.207   7.199  15.570  1.00  0.00    -0.206 F 
ATOM     72  C   UNL     1       1.324   5.836  17.773  1.00  0.00     0.006 A 
ENDBRANCH  51  65
BRANCH  52  73
ATOM     73  C   UNL     1       0.206  13.476   7.562  1.00  0.00     0.057 A 
ATOM     74  C   UNL     1       0.796  14.745   7.535  1.00  0.00     0.134 A 
ATOM     75  C   UNL     1      -0.518  13.078   6.432  1.00  0.00     0.134 A 
ATOM     76  F   UNL     1       1.487  15.191   8.594  1.00  0.00    -0.206 F 
ATOM     77  C   UNL     1       0.655  15.595   6.436  1.00  0.00     0.040 A 
ATOM     78  C   UNL     1      -0.642  13.905   5.315  1.00  0.00     0.040 A 
ATOM     79  F   UNL     1      -1.100  11.870   6.391  1.00  0.00    -0.206 F 
ATOM     80  C   UNL     1      -0.062  15.171   5.319  1.00  0.00     0.006 A 
ENDBRANCH  52  73
BRANCH  64  81
ATOM     81  C   UNL     1      -2.059  13.950  14.121  1.00  0.00     0.057 A 
ATOM     82  C   UNL     1      -3.412  14.166  13.824  1.00  0.00     0.134 A 
ATOM     83  C   UNL     1      -1.483  14.754  15.114  1.00  0.00     0.134 A 
ATOM     84  F   UNL     1      -4.024  13.441  12.876  1.00  0.00    -0.206 F 
ATOM     85  C   UNL     1      -4.147  15.171  14.455  1.00  0.00     0.040 A 
ATOM     86  C   UNL     1      -2.218  15.737  15.777  1.00  0.00     0.040 A 
ATOM     87  F   UNL     1      -0.196  14.595  15.459  1.00  0.00    -0.206 F 
ATOM     88  C   UNL     1      -3.551  15.958  15.438  1.00  0.00     0.006 A 
ENDBRANCH  64  81
ENDBRANCH  38  39
ENDBRANCH  30  33
ENDBRANCH  28  29
ENDBRANCH  27  28
ENDBRANCH  26  27
ENDBRANCH   1  26
TORSDOF 16
