REMARK SMILES Cc1cc2c(=O)c3ccccc3oc2c(C(=O)NCCCCCCNC(=O)c2ccc(-c3c4nc(c(-c5c(F)cccc5F)c5ccc([nH]5)c(-c5c(F)cccc5F)c5nc(c(-c6c(F)cccc6F)c6ccc3[nH]6)C=C5)C=C4)cc2)c1C
REMARK SMILES IDX 22 1 21 2 20 3 19 4 18 5 16 6 17 7 15 9 1 10 2 11 3 12 82 13
REMARK SMILES IDX 4 14 83 15 5 16 14 17 6 18 7 19 13 20 8 21 12 22 9 23 11 24
REMARK SMILES IDX 10 25 23 26 24 27 25 28 26 29 27 31 28 32 29 33 81 34 30 35
REMARK SMILES IDX 80 36 31 37 32 38 33 39 74 40 34 41 79 42 73 43 75 44 35 45
REMARK SMILES IDX 78 46 72 47 71 48 36 50 62 51 45 52 61 53 46 54 49 55 60 56
REMARK SMILES IDX 76 57 47 58 48 59 59 61 77 62 50 63 37 64 38 65 43 66 39 67
REMARK SMILES IDX 40 68 42 69 44 70 41 71 63 72 64 73 69 74 65 75 66 76 68 77
REMARK SMILES IDX 70 78 67 79 51 80 52 81 57 82 53 83 54 84 56 85 58 86 55 87
REMARK H PARENT 18 8 25 30 75 49 49 60
REMARK Flexibility Score: inf
ROOT
ATOM      1  C   UNL     1       6.708  -4.093   2.796  1.00  0.00     0.002 C 
ENDROOT
BRANCH   1   2
ATOM      2  C   UNL     1       5.322  -4.478   3.320  1.00  0.00     0.002 C 
BRANCH   2   3
ATOM      3  C   UNL     1       4.164  -3.739   2.643  1.00  0.00     0.021 C 
BRANCH   3   4
ATOM      4  C   UNL     1       3.983  -4.068   1.149  1.00  0.00     0.116 C 
BRANCH   4   5
ATOM      5  N   UNL     1       2.765  -4.832   0.968  1.00  0.00    -0.352 N 
ATOM      6  C   UNL     1       1.452  -4.627   0.647  1.00  0.00     0.255 C 
ATOM      7  O   UNL     1       0.753  -5.611   0.923  1.00  0.00    -0.269 OA
ATOM      8  H   UNL     1       2.935  -5.789   1.125  1.00  0.00     0.163 HD
BRANCH   6   9
ATOM      9  C   UNL     1       0.786  -3.427   0.004  1.00  0.00     0.086 A 
ATOM     10  C   UNL     1       0.599   0.433  -0.312  1.00  0.00     0.044 C 
ATOM     11  C   UNL     1       0.287  -1.042  -0.422  1.00  0.00    -0.046 A 
ATOM     12  C   UNL     1      -0.861  -1.397  -1.130  1.00  0.00     0.019 A 
ATOM     13  C   UNL     1       1.075  -2.047   0.219  1.00  0.00    -0.032 A 
ATOM     14  C   UNL     1      -1.192  -2.735  -1.291  1.00  0.00     0.066 A 
ATOM     15  C   UNL     1       2.150  -1.554   1.139  1.00  0.00     0.045 C 
ATOM     16  C   UNL     1      -2.453  -3.082  -1.968  1.00  0.00     0.200 A 
ATOM     17  C   UNL     1      -0.364  -3.743  -0.788  1.00  0.00     0.151 A 
ATOM     18  O   UNL     1      -3.216  -2.220  -2.387  1.00  0.00    -0.288 OA
ATOM     19  C   UNL     1      -2.769  -4.504  -2.091  1.00  0.00     0.065 A 
ATOM     20  O   UNL     1      -0.637  -5.072  -1.062  1.00  0.00    -0.455 OA
ATOM     21  C   UNL     1      -3.973  -4.930  -2.662  1.00  0.00     0.016 A 
ATOM     22  C   UNL     1      -1.836  -5.421  -1.627  1.00  0.00     0.138 A 
ATOM     23  C   UNL     1      -4.236  -6.295  -2.773  1.00  0.00     0.001 A 
ATOM     24  C   UNL     1      -2.103  -6.786  -1.737  1.00  0.00     0.048 A 
ATOM     25  C   UNL     1      -3.300  -7.223  -2.311  1.00  0.00     0.004 A 
ENDBRANCH   6   9
ENDBRANCH   4   5
ENDBRANCH   3   4
ENDBRANCH   2   3
ENDBRANCH   1   2
BRANCH   1  26
ATOM     26  C   UNL     1       7.041  -2.603   2.886  1.00  0.00     0.021 C 
BRANCH  26  27
ATOM     27  C   UNL     1       6.972  -2.020   4.293  1.00  0.00     0.116 C 
BRANCH  27  28
ATOM     28  N   UNL     1       7.913  -2.661   5.200  1.00  0.00    -0.352 N 
ATOM     29  C   UNL     1       8.984  -2.126   5.879  1.00  0.00     0.251 C 
ATOM     30  H   UNL     1       7.760  -3.622   5.351  1.00  0.00     0.163 HD
ATOM     31  O   UNL     1       9.799  -2.850   6.424  1.00  0.00    -0.269 OA
BRANCH  29  32
ATOM     32  C   UNL     1       9.148  -0.657   5.921  1.00  0.00     0.039 A 
ATOM     33  C   UNL     1       8.054   0.167   6.188  1.00  0.00     0.014 A 
ATOM     34  C   UNL     1      10.406  -0.102   5.670  1.00  0.00     0.014 A 
ATOM     35  C   UNL     1       8.175   1.542   6.031  1.00  0.00     0.010 A 
ATOM     36  C   UNL     1      10.545   1.286   5.601  1.00  0.00     0.010 A 
ATOM     37  C   UNL     1       9.420   2.117   5.729  1.00  0.00    -0.014 A 
BRANCH  37  38
ATOM     38  C   UNL     1       9.517   3.585   5.529  1.00  0.00     0.031 A 
ATOM     39  C   UNL     1       9.900   4.148   4.186  1.00  0.00     0.074 A 
ATOM     40  C   UNL     1       9.210   4.413   6.545  1.00  0.00     0.049 A 
ATOM     41  N   UNL     1      10.056   5.398   3.827  1.00  0.00    -0.248 NA
ATOM     42  C   UNL     1      10.143   3.181   3.103  1.00  0.00     0.031 C 
ATOM     43  C   UNL     1       8.802   3.989   7.886  1.00  0.00     0.029 A 
ATOM     44  N   UNL     1       9.176   5.782   6.605  1.00  0.00    -0.354 N 
ATOM     45  C   UNL     1      10.431   5.367   2.489  1.00  0.00     0.074 A 
ATOM     46  C   UNL     1      10.511   3.974   2.107  1.00  0.00     0.031 C 
ATOM     47  C   UNL     1       8.520   5.073   8.623  1.00  0.00     0.029 A 
ATOM     48  C   UNL     1       8.793   6.267   7.832  1.00  0.00     0.049 A 
ATOM     49  H   UNL     1       9.404   6.362   5.843  1.00  0.00     0.167 HD
ATOM     50  C   UNL     1      10.674   6.405   1.653  1.00  0.00     0.037 A 
ATOM     51  C   UNL     1       8.698   7.533   8.277  1.00  0.00     0.037 A 
ATOM     52  C   UNL     1      10.582   7.791   2.034  1.00  0.00     0.049 A 
ATOM     53  C   UNL     1       9.045   8.661   7.348  1.00  0.00     0.074 A 
ATOM     54  C   UNL     1      10.799   8.917   1.258  1.00  0.00     0.029 A 
ATOM     55  N   UNL     1      10.248   8.241   3.303  1.00  0.00    -0.354 N 
ATOM     56  N   UNL     1       9.393   8.616   6.085  1.00  0.00    -0.248 NA
ATOM     57  C   UNL     1       8.995  10.015   7.913  1.00  0.00     0.031 C 
ATOM     58  C   UNL     1      10.639  10.046   2.068  1.00  0.00     0.029 A 
ATOM     59  C   UNL     1      10.274   9.626   3.337  1.00  0.00     0.049 A 
ATOM     60  H   UNL     1      10.025   7.661   4.066  1.00  0.00     0.167 HD
ATOM     61  C   UNL     1       9.586   9.936   5.699  1.00  0.00     0.074 A 
ATOM     62  C   UNL     1       9.290  10.757   6.855  1.00  0.00     0.031 C 
ATOM     63  C   UNL     1       9.977  10.426   4.497  1.00  0.00     0.037 A 
BRANCH  50  64
ATOM     64  C   UNL     1      11.083   6.078   0.245  1.00  0.00     0.057 A 
ATOM     65  C   UNL     1      12.391   6.321  -0.193  1.00  0.00     0.134 A 
ATOM     66  C   UNL     1      10.180   5.548  -0.686  1.00  0.00     0.134 A 
ATOM     67  F   UNL     1      13.306   6.833   0.644  1.00  0.00    -0.206 F 
ATOM     68  C   UNL     1      12.786   6.051  -1.505  1.00  0.00     0.040 A 
ATOM     69  C   UNL     1      10.569   5.249  -1.994  1.00  0.00     0.040 A 
ATOM     70  F   UNL     1       8.915   5.278  -0.329  1.00  0.00    -0.206 F 
ATOM     71  C   UNL     1      11.875   5.506  -2.408  1.00  0.00     0.006 A 
ENDBRANCH  50  64
BRANCH  51  72
ATOM     72  C   UNL     1       8.286   7.805   9.677  1.00  0.00     0.057 A 
ATOM     73  C   UNL     1       9.106   7.462  10.758  1.00  0.00     0.134 A 
ATOM     74  C   UNL     1       7.075   8.446   9.963  1.00  0.00     0.134 A 
ATOM     75  F   UNL     1      10.277   6.842  10.551  1.00  0.00    -0.206 F 
ATOM     76  C   UNL     1       8.737   7.742  12.074  1.00  0.00     0.040 A 
ATOM     77  C   UNL     1       6.707   8.758  11.273  1.00  0.00     0.040 A 
ATOM     78  F   UNL     1       6.256   8.817   8.969  1.00  0.00    -0.206 F 
ATOM     79  C   UNL     1       7.538   8.402  12.333  1.00  0.00     0.006 A 
ENDBRANCH  51  72
BRANCH  63  80
ATOM     80  C   UNL     1      10.073  11.918   4.375  1.00  0.00     0.057 A 
ATOM     81  C   UNL     1       9.138  12.633   3.616  1.00  0.00     0.134 A 
ATOM     82  C   UNL     1      11.090  12.648   5.005  1.00  0.00     0.134 A 
ATOM     83  F   UNL     1       8.143  11.995   2.982  1.00  0.00    -0.206 F 
ATOM     84  C   UNL     1       9.209  14.021   3.492  1.00  0.00     0.040 A 
ATOM     85  C   UNL     1      11.154  14.039   4.911  1.00  0.00     0.040 A 
ATOM     86  F   UNL     1      12.006  12.024   5.761  1.00  0.00    -0.206 F 
ATOM     87  C   UNL     1      10.213  14.729   4.148  1.00  0.00     0.006 A 
ENDBRANCH  63  80
ENDBRANCH  37  38
ENDBRANCH  29  32
ENDBRANCH  27  28
ENDBRANCH  26  27
ENDBRANCH   1  26
TORSDOF 13
