REMARK SMILES Cc1cc(=O)n2nc(C[N@@H+](C)CC(=O)NCCCCCCNC(=O)c3ccc(-c4c5nc(c(-c6c(F)cccc6F)c6ccc([nH]6)c(-c6c(F)cccc6F)c6nc(c(-c7c(F)cccc7F)c7ccc4[nH]7)C=C6)C=C5)cc3)sc2n1
REMARK SMILES IDX 18 1 17 2 16 3 15 4 13 5 14 6 12 8 10 9 11 10 9 12 8 13 1 14
REMARK SMILES IDX 2 15 3 16 81 17 4 18 80 19 5 20 6 21 79 22 7 23 19 24 20 25
REMARK SMILES IDX 21 26 22 27 23 28 24 30 25 31 26 32 78 33 27 34 77 35 28 36
REMARK SMILES IDX 29 37 30 38 71 39 31 40 76 41 70 42 72 43 32 44 75 45 69 46
REMARK SMILES IDX 68 47 33 49 59 50 42 51 58 52 43 53 46 54 57 55 73 56 44 57
REMARK SMILES IDX 45 58 56 60 74 61 47 62 34 63 35 64 40 65 36 66 37 67 39 68
REMARK SMILES IDX 41 69 38 70 60 71 61 72 66 73 62 74 63 75 65 76 67 77 64 78
REMARK SMILES IDX 48 79 49 80 54 81 50 82 51 83 53 84 55 85 52 86
REMARK H PARENT 15 7 10 11 22 29 72 48 46 59
REMARK Flexibility Score: inf
ROOT
ATOM      1  C   UNL     1       0.260  12.229   3.131  1.00  0.00     0.002 C 
ENDROOT
BRANCH   1   2
ATOM      2  C   UNL     1       1.148  11.274   2.330  1.00  0.00     0.021 C 
BRANCH   2   3
ATOM      3  C   UNL     1       1.972  10.314   3.188  1.00  0.00     0.116 C 
BRANCH   3   4
ATOM      4  N   UNL     1       1.141   9.251   3.700  1.00  0.00    -0.351 N 
ATOM      5  C   UNL     1       1.107   7.939   3.341  1.00  0.00     0.275 C 
ATOM      6  O   UNL     1       0.220   7.235   3.827  1.00  0.00    -0.269 OA
ATOM      7  H   UNL     1       0.508   9.513   4.407  1.00  0.00     0.163 HD
BRANCH   5   8
ATOM      8  C   UNL     1       2.156   7.353   2.393  1.00  0.00     0.363 C 
BRANCH   8   9
ATOM      9  N   UNL     1       1.875   7.492   0.954  1.00  0.00    -0.324 N 
ATOM     10  C   UNL     1       2.444   8.638   0.281  1.00  0.00     0.333 C 
ATOM     11  H   UNL     1       2.434   6.717   0.597  1.00  0.00     0.348 HD
BRANCH   9  12
ATOM     12  C   UNL     1       0.505   7.174   0.529  1.00  0.00     0.333 C 
BRANCH  12  13
ATOM     13  C   UNL     1       0.329   5.678   0.498  1.00  0.00     0.172 A 
ATOM     14  C   UNL     1       0.829  -0.259   0.131  1.00  0.00     0.067 C 
ATOM     15  C   UNL     1       0.343   1.123   0.457  1.00  0.00     0.046 A 
ATOM     16  C   UNL     1      -0.642   1.329   1.346  1.00  0.00     0.097 A 
ATOM     17  N   UNL     1       0.998   2.133  -0.210  1.00  0.00    -0.224 NA
ATOM     18  C   UNL     1      -1.066   2.714   1.664  1.00  0.00     0.275 A 
ATOM     19  C   UNL     1       0.636   3.330   0.101  1.00  0.00     0.215 A 
ATOM     20  O   UNL     1      -1.990   2.895   2.450  1.00  0.00    -0.267 OA
ATOM     21  N   UNL     1      -0.333   3.675   1.003  1.00  0.00    -0.167 N 
ATOM     22  S   UNL     1       1.340   4.746  -0.593  1.00  0.00    -0.073 S 
ATOM     23  N   UNL     1      -0.512   5.020   1.232  1.00  0.00    -0.150 NA
ENDBRANCH  12  13
ENDBRANCH   9  12
ENDBRANCH   8   9
ENDBRANCH   5   8
ENDBRANCH   3   4
ENDBRANCH   2   3
ENDBRANCH   1   2
BRANCH   1  24
ATOM     24  C   UNL     1       0.984  13.087   4.179  1.00  0.00     0.002 C 
BRANCH  24  25
ATOM     25  C   UNL     1       2.225  13.849   3.692  1.00  0.00     0.021 C 
BRANCH  25  26
ATOM     26  C   UNL     1       1.929  14.855   2.594  1.00  0.00     0.116 C 
BRANCH  26  27
ATOM     27  N   UNL     1       1.053  15.933   3.045  1.00  0.00    -0.352 N 
ATOM     28  C   UNL     1       0.592  17.022   2.330  1.00  0.00     0.251 C 
ATOM     29  H   UNL     1       0.751  15.877   3.980  1.00  0.00     0.163 HD
ATOM     30  O   UNL     1       0.165  18.012   2.898  1.00  0.00    -0.269 OA
BRANCH  28  31
ATOM     31  C   UNL     1       0.626  16.962   0.857  1.00  0.00     0.039 A 
ATOM     32  C   UNL     1       0.944  18.087   0.095  1.00  0.00     0.014 A 
ATOM     33  C   UNL     1       0.335  15.747   0.242  1.00  0.00     0.014 A 
ATOM     34  C   UNL     1       1.023  17.953  -1.288  1.00  0.00     0.010 A 
ATOM     35  C   UNL     1       0.596  15.571  -1.090  1.00  0.00     0.010 A 
ATOM     36  C   UNL     1       0.863  16.683  -1.871  1.00  0.00    -0.014 A 
BRANCH  36  37
ATOM     37  C   UNL     1       1.033  16.494  -3.304  1.00  0.00     0.031 A 
ATOM     38  C   UNL     1       2.303  17.035  -3.846  1.00  0.00     0.074 A 
ATOM     39  C   UNL     1       0.193  15.767  -4.070  1.00  0.00     0.049 A 
ATOM     40  N   UNL     1       2.448  18.090  -4.574  1.00  0.00    -0.248 NA
ATOM     41  C   UNL     1       3.570  16.430  -3.409  1.00  0.00     0.031 C 
ATOM     42  C   UNL     1      -0.941  14.924  -3.669  1.00  0.00     0.029 A 
ATOM     43  N   UNL     1       0.231  15.588  -5.417  1.00  0.00    -0.354 N 
ATOM     44  C   UNL     1       3.806  18.177  -4.861  1.00  0.00     0.074 A 
ATOM     45  C   UNL     1       4.461  17.240  -3.985  1.00  0.00     0.031 C 
ATOM     46  C   UNL     1      -1.337  14.164  -4.715  1.00  0.00     0.029 A 
ATOM     47  C   UNL     1      -0.619  14.601  -5.897  1.00  0.00     0.049 A 
ATOM     48  H   UNL     1       0.817  16.116  -6.006  1.00  0.00     0.167 HD
ATOM     49  C   UNL     1       4.240  18.853  -5.960  1.00  0.00     0.037 A 
ATOM     50  C   UNL     1      -0.724  14.181  -7.181  1.00  0.00     0.037 A 
ATOM     51  C   UNL     1       3.206  19.718  -6.475  1.00  0.00     0.049 A 
ATOM     52  C   UNL     1      -0.195  15.271  -8.036  1.00  0.00     0.074 A 
ATOM     53  C   UNL     1       2.494  20.790  -5.971  1.00  0.00     0.029 A 
ATOM     54  N   UNL     1       2.487  19.274  -7.559  1.00  0.00    -0.354 N 
ATOM     55  N   UNL     1      -0.774  16.432  -8.170  1.00  0.00    -0.248 NA
ATOM     56  C   UNL     1       1.218  15.233  -8.377  1.00  0.00     0.031 C 
ATOM     57  C   UNL     1       1.167  20.615  -6.463  1.00  0.00     0.029 A 
ATOM     58  C   UNL     1       1.160  19.493  -7.293  1.00  0.00     0.049 A 
ATOM     59  H   UNL     1       2.858  18.871  -8.377  1.00  0.00     0.167 HD
ATOM     60  C   UNL     1       0.269  17.346  -8.184  1.00  0.00     0.074 A 
ATOM     61  C   UNL     1       1.472  16.544  -8.399  1.00  0.00     0.031 C 
ATOM     62  C   UNL     1       0.093  18.625  -7.740  1.00  0.00     0.037 A 
BRANCH  49  63
ATOM     63  C   UNL     1       5.440  18.461  -6.786  1.00  0.00     0.057 A 
ATOM     64  C   UNL     1       5.844  19.297  -7.844  1.00  0.00     0.134 A 
ATOM     65  C   UNL     1       6.023  17.178  -6.784  1.00  0.00     0.134 A 
ATOM     66  F   UNL     1       5.356  20.541  -7.964  1.00  0.00    -0.206 F 
ATOM     67  C   UNL     1       6.695  18.859  -8.866  1.00  0.00     0.040 A 
ATOM     68  C   UNL     1       6.913  16.748  -7.772  1.00  0.00     0.040 A 
ATOM     69  F   UNL     1       5.692  16.236  -5.894  1.00  0.00    -0.206 F 
ATOM     70  C   UNL     1       7.225  17.576  -8.837  1.00  0.00     0.006 A 
ENDBRANCH  49  63
BRANCH  50  71
ATOM     71  C   UNL     1      -0.925  12.806  -7.690  1.00  0.00     0.057 A 
ATOM     72  C   UNL     1      -1.246  12.578  -9.036  1.00  0.00     0.134 A 
ATOM     73  C   UNL     1      -0.503  11.684  -6.956  1.00  0.00     0.134 A 
ATOM     74  F   UNL     1      -1.626  13.592  -9.825  1.00  0.00    -0.206 F 
ATOM     75  C   UNL     1      -1.111  11.316  -9.631  1.00  0.00     0.040 A 
ATOM     76  C   UNL     1      -0.369  10.418  -7.537  1.00  0.00     0.040 A 
ATOM     77  F   UNL     1      -0.117  11.797  -5.677  1.00  0.00    -0.206 F 
ATOM     78  C   UNL     1      -0.655  10.235  -8.884  1.00  0.00     0.006 A 
ENDBRANCH  50  71
BRANCH  62  79
ATOM     79  C   UNL     1      -1.313  19.093  -7.469  1.00  0.00     0.057 A 
ATOM     80  C   UNL     1      -2.144  18.564  -6.469  1.00  0.00     0.134 A 
ATOM     81  C   UNL     1      -1.779  20.232  -8.135  1.00  0.00     0.134 A 
ATOM     82  F   UNL     1      -1.754  17.530  -5.716  1.00  0.00    -0.206 F 
ATOM     83  C   UNL     1      -3.390  19.127  -6.168  1.00  0.00     0.040 A 
ATOM     84  C   UNL     1      -3.006  20.823  -7.822  1.00  0.00     0.040 A 
ATOM     85  F   UNL     1      -1.019  20.825  -9.069  1.00  0.00    -0.206 F 
ATOM     86  C   UNL     1      -3.820  20.266  -6.839  1.00  0.00     0.006 A 
ENDBRANCH  62  79
ENDBRANCH  36  37
ENDBRANCH  28  31
ENDBRANCH  26  27
ENDBRANCH  25  26
ENDBRANCH  24  25
ENDBRANCH   1  24
TORSDOF 16
