REMARK SMILES C[C@@H](C(=O)NCCCCCCNC(=O)c1ccc(-c2c3nc(c(-c4c(F)cccc4F)c4ccc([nH]4)c(-c4c(F)cccc4F)c4nc(c(-c5c(F)cccc5F)c5ccc2[nH]5)C=C4)C=C3)cc1)c1ccc(C[C@@H]2CCC[C@@H]2O)cc1F
REMARK SMILES IDX 7 1 6 2 5 3 3 4 4 5 2 7 1 8 69 9 70 10 81 11 71 12 80 13
REMARK SMILES IDX 82 14 72 15 73 16 74 17 75 18 78 19 76 20 77 21 79 22 8 24
REMARK SMILES IDX 9 25 10 26 11 27 12 28 13 29 14 31 15 32 16 33 68 34 17 35
REMARK SMILES IDX 67 36 18 37 19 38 20 39 61 40 21 41 66 42 60 43 62 44 22 45
REMARK SMILES IDX 65 46 59 47 58 48 23 50 49 51 32 52 48 53 33 54 36 55 47 56
REMARK SMILES IDX 63 57 34 58 35 59 46 61 64 62 37 63 24 64 25 65 30 66 26 67
REMARK SMILES IDX 27 68 29 69 31 70 28 71 50 72 51 73 56 74 52 75 53 76 55 77
REMARK SMILES IDX 57 78 54 79 38 80 39 81 44 82 40 83 41 84 43 85 45 86 42 87
REMARK H PARENT 5 6 79 23 12 30 62 49 36 60
REMARK Flexibility Score: inf
ROOT
ATOM      1  C   UNL     1     -11.788   5.965   7.348  1.00  0.00     0.021 C 
ENDROOT
BRANCH   1   2
ATOM      2  C   UNL     1     -11.359   4.497   7.314  1.00  0.00     0.116 C 
BRANCH   2   3
ATOM      3  N   UNL     1     -11.852   3.848   6.119  1.00  0.00    -0.356 N 
ATOM      4  C   UNL     1     -11.206   3.502   4.970  1.00  0.00     0.227 C 
ATOM      5  O   UNL     1     -11.902   3.029   4.070  1.00  0.00    -0.274 OA
ATOM      6  H   UNL     1     -12.810   3.619   6.139  1.00  0.00     0.163 HD
BRANCH   4   7
ATOM      7  C   UNL     1      -9.679   3.634   4.881  1.00  0.00     0.108 C 
ATOM      8  C   UNL     1      -9.185   5.087   4.884  1.00  0.00     0.023 C 
BRANCH   7   9
ATOM      9  C   UNL     1      -9.124   2.890   3.677  1.00  0.00    -0.000 A 
ATOM     10  C   UNL     1      -8.456   1.669   3.843  1.00  0.00     0.008 A 
ATOM     11  C   UNL     1      -9.261   3.399   2.382  1.00  0.00     0.127 A 
ATOM     12  C   UNL     1      -7.876   1.024   2.747  1.00  0.00     0.004 A 
ATOM     13  C   UNL     1      -8.674   2.769   1.292  1.00  0.00     0.043 A 
ATOM     14  F   UNL     1      -9.932   4.540   2.168  1.00  0.00    -0.207 F 
ATOM     15  C   UNL     1      -7.935   1.595   1.470  1.00  0.00    -0.045 A 
BRANCH  15  16
ATOM     16  C   UNL     1      -7.186   1.000   0.306  1.00  0.00     0.041 C 
BRANCH  16  17
ATOM     17  C   UNL     1      -5.671   1.297   0.210  1.00  0.00     0.022 C 
ATOM     18  C   UNL     1      -4.823   0.649   1.312  1.00  0.00     0.007 C 
ATOM     19  C   UNL     1      -5.220   2.763   0.261  1.00  0.00     0.117 C 
ATOM     20  C   UNL     1      -4.517   1.743   2.338  1.00  0.00     0.003 C 
ATOM     21  C   UNL     1      -5.000   3.059   1.738  1.00  0.00     0.032 C 
BRANCH  19  22
ATOM     22  O   UNL     1      -6.125   3.672  -0.329  1.00  0.00    -0.393 OA
ATOM     23  H   UNL     1      -6.975   3.629   0.137  1.00  0.00     0.210 HD
ENDBRANCH  19  22
ENDBRANCH  16  17
ENDBRANCH  15  16
ENDBRANCH   7   9
ENDBRANCH   4   7
ENDBRANCH   2   3
ENDBRANCH   1   2
BRANCH   1  24
ATOM     24  C   UNL     1     -13.308   6.171   7.413  1.00  0.00     0.002 C 
BRANCH  24  25
ATOM     25  C   UNL     1     -14.010   5.477   8.584  1.00  0.00     0.002 C 
BRANCH  25  26
ATOM     26  C   UNL     1     -13.447   5.812   9.967  1.00  0.00     0.021 C 
BRANCH  26  27
ATOM     27  C   UNL     1     -13.477   7.293  10.325  1.00  0.00     0.116 C 
BRANCH  27  28
ATOM     28  N   UNL     1     -14.832   7.810  10.413  1.00  0.00    -0.352 N 
ATOM     29  C   UNL     1     -15.396   8.599  11.380  1.00  0.00     0.251 C 
ATOM     30  H   UNL     1     -15.430   7.556   9.673  1.00  0.00     0.163 HD
ATOM     31  O   UNL     1     -16.612   8.798  11.380  1.00  0.00    -0.269 OA
BRANCH  29  32
ATOM     32  C   UNL     1     -14.557   9.204  12.435  1.00  0.00     0.039 A 
ATOM     33  C   UNL     1     -15.030   9.205  13.751  1.00  0.00     0.014 A 
ATOM     34  C   UNL     1     -13.330   9.803  12.131  1.00  0.00     0.014 A 
ATOM     35  C   UNL     1     -14.260   9.778  14.765  1.00  0.00     0.010 A 
ATOM     36  C   UNL     1     -12.535  10.316  13.153  1.00  0.00     0.010 A 
ATOM     37  C   UNL     1     -13.000  10.325  14.476  1.00  0.00    -0.014 A 
BRANCH  37  38
ATOM     38  C   UNL     1     -12.178  10.949  15.542  1.00  0.00     0.031 A 
ATOM     39  C   UNL     1     -11.912  12.429  15.518  1.00  0.00     0.074 A 
ATOM     40  C   UNL     1     -11.637  10.181  16.507  1.00  0.00     0.049 A 
ATOM     41  N   UNL     1     -11.195  13.155  16.339  1.00  0.00    -0.248 NA
ATOM     42  C   UNL     1     -12.507  13.191  14.409  1.00  0.00     0.031 C 
ATOM     43  C   UNL     1     -11.784   8.729  16.616  1.00  0.00     0.029 A 
ATOM     44  N   UNL     1     -10.851  10.518  17.579  1.00  0.00    -0.354 N 
ATOM     45  C   UNL     1     -11.235  14.448  15.833  1.00  0.00     0.074 A 
ATOM     46  C   UNL     1     -12.008  14.401  14.611  1.00  0.00     0.031 C 
ATOM     47  C   UNL     1     -11.134   8.304  17.712  1.00  0.00     0.029 A 
ATOM     48  C   UNL     1     -10.505   9.447  18.366  1.00  0.00     0.049 A 
ATOM     49  H   UNL     1     -10.562  11.441  17.767  1.00  0.00     0.167 HD
ATOM     50  C   UNL     1     -10.695  15.577  16.351  1.00  0.00     0.037 A 
ATOM     51  C   UNL     1      -9.769   9.396  19.491  1.00  0.00     0.037 A 
ATOM     52  C   UNL     1      -9.965  15.631  17.589  1.00  0.00     0.049 A 
ATOM     53  C   UNL     1      -9.203  10.667  20.060  1.00  0.00     0.074 A 
ATOM     54  C   UNL     1      -9.443  16.737  18.236  1.00  0.00     0.029 A 
ATOM     55  N   UNL     1      -9.655  14.527  18.369  1.00  0.00    -0.354 N 
ATOM     56  N   UNL     1      -9.307  11.893  19.609  1.00  0.00    -0.248 NA
ATOM     57  C   UNL     1      -8.423  10.546  21.300  1.00  0.00     0.031 C 
ATOM     58  C   UNL     1      -8.789  16.299  19.393  1.00  0.00     0.029 A 
ATOM     59  C   UNL     1      -8.936  14.924  19.485  1.00  0.00     0.049 A 
ATOM     60  H   UNL     1      -9.909  13.599  18.162  1.00  0.00     0.167 HD
ATOM     61  C   UNL     1      -8.638  12.694  20.526  1.00  0.00     0.074 A 
ATOM     62  C   UNL     1      -8.136  11.814  21.561  1.00  0.00     0.031 C 
ATOM     63  C   UNL     1      -8.457  14.037  20.512  1.00  0.00     0.037 A 
BRANCH  50  64
ATOM     64  C   UNL     1     -10.881  16.848  15.575  1.00  0.00     0.057 A 
ATOM     65  C   UNL     1     -12.126  17.486  15.488  1.00  0.00     0.134 A 
ATOM     66  C   UNL     1      -9.798  17.452  14.925  1.00  0.00     0.134 A 
ATOM     67  F   UNL     1     -13.206  16.952  16.078  1.00  0.00    -0.206 F 
ATOM     68  C   UNL     1     -12.292  18.664  14.757  1.00  0.00     0.040 A 
ATOM     69  C   UNL     1      -9.947  18.643  14.212  1.00  0.00     0.040 A 
ATOM     70  F   UNL     1      -8.578  16.896  14.973  1.00  0.00    -0.206 F 
ATOM     71  C   UNL     1     -11.199  19.248  14.121  1.00  0.00     0.006 A 
ENDBRANCH  50  64
BRANCH  51  72
ATOM     72  C   UNL     1      -9.564   8.101  20.186  1.00  0.00     0.057 A 
ATOM     73  C   UNL     1     -10.209   7.829  21.398  1.00  0.00     0.134 A 
ATOM     74  C   UNL     1      -8.722   7.114  19.665  1.00  0.00     0.134 A 
ATOM     75  F   UNL     1     -11.014   8.746  21.954  1.00  0.00    -0.206 F 
ATOM     76  C   UNL     1     -10.010   6.627  22.077  1.00  0.00     0.040 A 
ATOM     77  C   UNL     1      -8.530   5.898  20.323  1.00  0.00     0.040 A 
ATOM     78  F   UNL     1      -8.081   7.313  18.504  1.00  0.00    -0.206 F 
ATOM     79  C   UNL     1      -9.171   5.655  21.537  1.00  0.00     0.006 A 
ENDBRANCH  51  72
BRANCH  63  80
ATOM     80  C   UNL     1      -7.722  14.639  21.672  1.00  0.00     0.057 A 
ATOM     81  C   UNL     1      -6.337  14.501  21.821  1.00  0.00     0.134 A 
ATOM     82  C   UNL     1      -8.407  15.392  22.634  1.00  0.00     0.134 A 
ATOM     83  F   UNL     1      -5.626  13.780  20.941  1.00  0.00    -0.206 F 
ATOM     84  C   UNL     1      -5.661  15.072  22.901  1.00  0.00     0.040 A 
ATOM     85  C   UNL     1      -7.739  15.987  23.704  1.00  0.00     0.040 A 
ATOM     86  F   UNL     1      -9.734  15.568  22.543  1.00  0.00    -0.206 F 
ATOM     87  C   UNL     1      -6.362  15.823  23.843  1.00  0.00     0.006 A 
ENDBRANCH  63  80
ENDBRANCH  37  38
ENDBRANCH  29  32
ENDBRANCH  27  28
ENDBRANCH  26  27
ENDBRANCH  25  26
ENDBRANCH  24  25
ENDBRANCH   1  24
TORSDOF 17
