REMARK SMILES O=C(NCCCCCCNC(=O)[C@@H](c1ccc(NC(=O)N2CCCC2)cc1)[NH+]1CCCCCCC1)c1ccc(-c2c3nc(c(-c4c(F)cccc4F)c4ccc([nH]4)c(-c4c(F)cccc4F)c4nc(c(-c5c(F)cccc5F)c5ccc2[nH]5)C=C4)C=C3)cc1
REMARK SMILES IDX 8 1 7 2 6 3 5 4 4 5 3 6 1 7 2 8 36 10 37 11 89 12 38 13
REMARK SMILES IDX 88 14 39 15 40 16 41 17 82 18 42 19 87 20 81 21 83 22 43 23
REMARK SMILES IDX 86 24 80 25 79 26 44 28 70 29 53 30 69 31 54 32 57 33 68 34
REMARK SMILES IDX 84 35 55 36 56 37 67 39 85 40 58 41 45 42 46 43 51 44 47 45
REMARK SMILES IDX 48 46 50 47 52 48 49 49 71 50 72 51 77 52 73 53 74 54 76 55
REMARK SMILES IDX 78 56 75 57 59 58 60 59 65 60 61 61 62 62 64 63 66 64 63 65
REMARK SMILES IDX 9 66 10 67 11 68 12 70 13 71 14 72 15 73 27 74 16 75 26 76
REMARK SMILES IDX 17 77 18 78 19 79 20 81 21 82 22 83 25 84 23 85 24 86 28 87
REMARK SMILES IDX 29 89 30 90 31 91 35 93 34 94 33 95 32 96
REMARK H PARENT 3 9 83 27 57 38 10 69 18 80 28 88
REMARK Flexibility Score: 90.00
ROOT
ATOM      1  C   UNL     1       5.828  -3.941  -1.901  1.00  0.00     0.021 C 
ENDROOT
BRANCH   1   2
ATOM      2  C   UNL     1       4.315  -4.001  -1.705  1.00  0.00     0.002 C 
BRANCH   2   3
ATOM      3  C   UNL     1       3.837  -3.757  -0.275  1.00  0.00     0.002 C 
BRANCH   3   4
ATOM      4  C   UNL     1       4.417  -2.513   0.401  1.00  0.00     0.021 C 
BRANCH   4   5
ATOM      5  C   UNL     1       4.298  -1.226  -0.409  1.00  0.00     0.116 C 
BRANCH   5   6
ATOM      6  N   UNL     1       2.917  -0.849  -0.656  1.00  0.00    -0.352 N 
ATOM      7  O   UNL     1       1.006   0.313  -0.351  1.00  0.00    -0.269 OA
ATOM      8  C   UNL     1       2.216   0.243  -0.202  1.00  0.00     0.251 C 
ATOM      9  H   UNL     1       2.409  -1.464  -1.233  1.00  0.00     0.163 HD
BRANCH   8  10
ATOM     10  C   UNL     1       2.942   1.324   0.497  1.00  0.00     0.039 A 
ATOM     11  C   UNL     1       4.133   1.830  -0.028  1.00  0.00     0.014 A 
ATOM     12  C   UNL     1       2.434   1.820   1.699  1.00  0.00     0.014 A 
ATOM     13  C   UNL     1       4.899   2.706   0.729  1.00  0.00     0.010 A 
ATOM     14  C   UNL     1       3.159   2.779   2.411  1.00  0.00     0.010 A 
ATOM     15  C   UNL     1       4.418   3.199   1.953  1.00  0.00    -0.014 A 
BRANCH  15  16
ATOM     16  C   UNL     1       5.237   4.177   2.714  1.00  0.00     0.031 A 
ATOM     17  C   UNL     1       5.771   3.849   4.080  1.00  0.00     0.074 A 
ATOM     18  C   UNL     1       5.523   5.364   2.143  1.00  0.00     0.049 A 
ATOM     19  N   UNL     1       6.524   4.576   4.868  1.00  0.00    -0.248 NA
ATOM     20  C   UNL     1       5.408   2.540   4.644  1.00  0.00     0.031 C 
ATOM     21  C   UNL     1       5.056   5.799   0.825  1.00  0.00     0.029 A 
ATOM     22  N   UNL     1       6.290   6.410   2.585  1.00  0.00    -0.354 N 
ATOM     23  C   UNL     1       6.702   3.828   6.025  1.00  0.00     0.074 A 
ATOM     24  C   UNL     1       5.956   2.600   5.849  1.00  0.00     0.031 C 
ATOM     25  C   UNL     1       5.590   6.995   0.541  1.00  0.00     0.029 A 
ATOM     26  C   UNL     1       6.381   7.441   1.681  1.00  0.00     0.049 A 
ATOM     27  H   UNL     1       6.733   6.422   3.464  1.00  0.00     0.167 HD
ATOM     28  C   UNL     1       7.426   4.135   7.129  1.00  0.00     0.037 A 
ATOM     29  C   UNL     1       7.021   8.621   1.765  1.00  0.00     0.037 A 
ATOM     30  C   UNL     1       8.180   5.353   7.290  1.00  0.00     0.049 A 
ATOM     31  C   UNL     1       7.795   8.944   3.009  1.00  0.00     0.074 A 
ATOM     32  C   UNL     1       8.980   5.739   8.352  1.00  0.00     0.029 A 
ATOM     33  N   UNL     1       8.222   6.387   6.366  1.00  0.00    -0.354 N 
ATOM     34  N   UNL     1       7.987   8.210   4.078  1.00  0.00    -0.248 NA
ATOM     35  C   UNL     1       8.442  10.261   3.057  1.00  0.00     0.031 C 
ATOM     36  C   UNL     1       9.460   7.028   8.096  1.00  0.00     0.029 A 
ATOM     37  C   UNL     1       9.012   7.421   6.845  1.00  0.00     0.049 A 
ATOM     38  H   UNL     1       7.758   6.387   5.497  1.00  0.00     0.167 HD
ATOM     39  C   UNL     1       8.805   8.961   4.911  1.00  0.00     0.074 A 
ATOM     40  C   UNL     1       9.080  10.202   4.217  1.00  0.00     0.031 C 
ATOM     41  C   UNL     1       9.287   8.648   6.139  1.00  0.00     0.037 A 
BRANCH  28  42
ATOM     42  C   UNL     1       7.414   3.151   8.266  1.00  0.00     0.057 A 
ATOM     43  C   UNL     1       8.048   1.905   8.184  1.00  0.00     0.134 A 
ATOM     44  C   UNL     1       6.783   3.472   9.476  1.00  0.00     0.134 A 
ATOM     45  F   UNL     1       8.663   1.527   7.053  1.00  0.00    -0.206 F 
ATOM     46  C   UNL     1       8.029   1.002   9.251  1.00  0.00     0.040 A 
ATOM     47  C   UNL     1       6.782   2.591  10.559  1.00  0.00     0.040 A 
ATOM     48  F   UNL     1       6.163   4.652   9.630  1.00  0.00    -0.206 F 
ATOM     49  C   UNL     1       7.400   1.347  10.445  1.00  0.00     0.006 A 
ENDBRANCH  28  42
BRANCH  29  50
ATOM     50  C   UNL     1       6.964   9.575   0.630  1.00  0.00     0.057 A 
ATOM     51  C   UNL     1       8.103   9.859  -0.132  1.00  0.00     0.134 A 
ATOM     52  C   UNL     1       5.774  10.222   0.276  1.00  0.00     0.134 A 
ATOM     53  F   UNL     1       9.277   9.282   0.167  1.00  0.00    -0.206 F 
ATOM     54  C   UNL     1       8.066  10.765  -1.193  1.00  0.00     0.040 A 
ATOM     55  C   UNL     1       5.715  11.107  -0.800  1.00  0.00     0.040 A 
ATOM     56  F   UNL     1       4.645   9.985   0.960  1.00  0.00    -0.206 F 
ATOM     57  C   UNL     1       6.867  11.387  -1.533  1.00  0.00     0.006 A 
ENDBRANCH  29  50
BRANCH  41  58
ATOM     58  C   UNL     1      10.210   9.642   6.783  1.00  0.00     0.057 A 
ATOM     59  C   UNL     1       9.760  10.877   7.264  1.00  0.00     0.134 A 
ATOM     60  C   UNL     1      11.572   9.347   6.933  1.00  0.00     0.134 A 
ATOM     61  F   UNL     1       8.471  11.228   7.138  1.00  0.00    -0.206 F 
ATOM     62  C   UNL     1      10.636  11.798   7.842  1.00  0.00     0.040 A 
ATOM     63  C   UNL     1      12.451  10.246   7.538  1.00  0.00     0.040 A 
ATOM     64  F   UNL     1      12.069   8.178   6.502  1.00  0.00    -0.206 F 
ATOM     65  C   UNL     1      11.986  11.480   7.985  1.00  0.00     0.006 A 
ENDBRANCH  41  58
ENDBRANCH  15  16
ENDBRANCH   8  10
ENDBRANCH   5   6
ENDBRANCH   4   5
ENDBRANCH   3   4
ENDBRANCH   2   3
ENDBRANCH   1   2
BRANCH   1  66
ATOM     66  C   UNL     1       6.621  -5.057  -1.215  1.00  0.00     0.116 C 
BRANCH  66  67
ATOM     67  N   UNL     1       6.554  -6.313  -1.938  1.00  0.00    -0.351 N 
ATOM     68  C   UNL     1       7.573  -7.060  -2.480  1.00  0.00     0.283 C 
ATOM     69  H   UNL     1       5.650  -6.684  -2.057  1.00  0.00     0.163 HD
ATOM     70  O   UNL     1       7.254  -8.099  -3.071  1.00  0.00    -0.268 OA
BRANCH  68  71
ATOM     71  C   UNL     1       9.077  -6.628  -2.370  1.00  0.00     0.305 C 
BRANCH  71  72
ATOM     72  C   UNL     1       9.449  -5.420  -3.240  1.00  0.00     0.019 A 
ATOM     73  C   UNL     1      10.798  -5.082  -3.419  1.00  0.00     0.012 A 
ATOM     74  C   UNL     1       8.501  -4.609  -3.873  1.00  0.00     0.012 A 
ATOM     75  C   UNL     1      11.158  -3.896  -4.056  1.00  0.00     0.027 A 
ATOM     76  C   UNL     1       8.847  -3.409  -4.494  1.00  0.00     0.027 A 
ATOM     77  C   UNL     1      10.185  -3.068  -4.620  1.00  0.00     0.042 A 
BRANCH  77  78
ATOM     78  N   UNL     1      10.507  -1.928  -5.369  1.00  0.00    -0.308 N 
ATOM     79  C   UNL     1      11.676  -1.658  -6.017  1.00  0.00     0.321 C 
ATOM     80  H   UNL     1       9.806  -1.240  -5.435  1.00  0.00     0.171 HD
ATOM     81  O   UNL     1      12.041  -0.489  -6.142  1.00  0.00    -0.248 OA
ATOM     82  N   UNL     1      12.392  -2.707  -6.528  1.00  0.00    -0.325 N 
ATOM     83  C   UNL     1      11.890  -3.957  -7.078  1.00  0.00     0.121 C 
ATOM     84  C   UNL     1      13.809  -2.600  -6.772  1.00  0.00     0.121 C 
ATOM     85  C   UNL     1      13.036  -4.915  -6.819  1.00  0.00     0.023 C 
ATOM     86  C   UNL     1      14.281  -4.040  -6.980  1.00  0.00     0.023 C 
ENDBRANCH  77  78
ENDBRANCH  71  72
BRANCH  71  87
ATOM     87  N   UNL     1       9.434  -6.584  -0.897  1.00  0.00    -0.321 N 
ATOM     88  H   UNL     1       8.587  -6.321  -0.394  1.00  0.00     0.349 HD
BRANCH  87  89
ATOM     89  C   UNL     1       9.867  -7.929  -0.478  1.00  0.00     0.263 C 
BRANCH  89  90
ATOM     90  C   UNL     1       9.874  -8.211   1.027  1.00  0.00     0.061 C 
BRANCH  90  91
ATOM     91  C   UNL     1       8.621  -7.719   1.754  1.00  0.00     0.006 CG0
ATOM     92  G   UNL     1       8.820  -6.430   2.553  1.00  0.00     0.000 G0
ENDBRANCH  90  91
ENDBRANCH  89  90
ENDBRANCH  87  89
BRANCH  87  93
ATOM     93  C   UNL     1      10.347  -5.514  -0.485  1.00  0.00     0.263 C 
BRANCH  93  94
ATOM     94  C   UNL     1      10.441  -5.176   1.009  1.00  0.00     0.061 C 
BRANCH  94  95
ATOM     95  C   UNL     1       9.106  -5.162   1.748  1.00  0.00     0.006 C 
BRANCH  95  96
ATOM     96  C   UNL     1       8.820  -6.430   2.553  1.00  0.00     0.000 CG0
ATOM     97  G   UNL     1       8.621  -7.719   1.754  1.00  0.00     0.000 G0
ENDBRANCH  95  96
ENDBRANCH  94  95
ENDBRANCH  93  94
ENDBRANCH  87  93
ENDBRANCH  71  87
ENDBRANCH  68  71
ENDBRANCH  66  67
ENDBRANCH   1  66
TORSDOF 16
