REMARK SMILES C=CCc1cccc(-c2ccc([C@@H](C)C(=O)NCCCCCCNC(=O)c3ccc(-c4c5nc(c(-c6c(F)cccc6F)c6ccc([nH]6)c(-c6c(F)cccc6F)c6nc(c(-c7c(F)cccc7F)c7ccc4[nH]7)C=C6)C=C5)cc3)cc2)c1
REMARK SMILES IDX 19 1 18 2 17 3 15 4 16 5 13 7 14 8 12 9 9 10 10 11 82 12
REMARK SMILES IDX 11 13 81 14 8 15 4 16 5 17 83 18 6 19 7 20 3 21 2 22 1 23
REMARK SMILES IDX 20 24 21 25 22 26 23 27 24 28 25 29 26 31 27 32 28 33 80 34
REMARK SMILES IDX 29 35 79 36 30 37 31 38 32 39 73 40 33 41 78 42 72 43 74 44
REMARK SMILES IDX 34 45 77 46 71 47 70 48 35 50 61 51 44 52 60 53 45 54 48 55
REMARK SMILES IDX 59 56 75 57 46 58 47 59 58 61 76 62 49 63 36 64 37 65 42 66
REMARK SMILES IDX 38 67 39 68 41 69 43 70 40 71 62 72 63 73 68 74 64 75 65 76
REMARK SMILES IDX 67 77 69 78 66 79 50 80 51 81 56 82 52 83 53 84 55 85 57 86
REMARK SMILES IDX 54 87
REMARK H PARENT 17 6 24 30 74 49 48 60
REMARK Flexibility Score: inf
ROOT
ATOM      1  C   UNL     1      -4.647  -7.282   3.311  1.00  0.00     0.021 C 
ENDROOT
BRANCH   1   2
ATOM      2  C   UNL     1      -3.782  -8.466   3.747  1.00  0.00     0.116 C 
BRANCH   2   3
ATOM      3  N   UNL     1      -2.860  -8.872   2.708  1.00  0.00    -0.356 N 
ATOM      4  C   UNL     1      -1.526  -8.649   2.554  1.00  0.00     0.227 C 
ATOM      5  O   UNL     1      -1.016  -9.057   1.503  1.00  0.00    -0.274 OA
ATOM      6  H   UNL     1      -3.269  -9.403   1.987  1.00  0.00     0.163 HD
BRANCH   4   7
ATOM      7  C   UNL     1      -0.655  -7.946   3.606  1.00  0.00     0.105 C 
ATOM      8  C   UNL     1      -0.603  -8.665   4.954  1.00  0.00     0.023 C 
BRANCH   7   9
ATOM      9  C   UNL     1      -0.861  -6.440   3.651  1.00  0.00    -0.036 A 
ATOM     10  C   UNL     1      -1.266  -3.607   3.558  1.00  0.00    -0.018 A 
ATOM     11  C   UNL     1      -1.974  -4.425   4.452  1.00  0.00     0.009 A 
ATOM     12  C   UNL     1      -0.322  -4.245   2.736  1.00  0.00     0.009 A 
ATOM     13  C   UNL     1      -1.755  -5.808   4.519  1.00  0.00     0.005 A 
ATOM     14  C   UNL     1      -0.139  -5.633   2.764  1.00  0.00     0.005 A 
BRANCH  10  15
ATOM     15  C   UNL     1      -1.498  -2.142   3.484  1.00  0.00    -0.018 A 
ATOM     16  C   UNL     1      -1.465  -0.039   2.199  1.00  0.00    -0.044 A 
ATOM     17  C   UNL     1      -1.877   0.666   3.332  1.00  0.00     0.004 A 
ATOM     18  C   UNL     1      -1.304  -1.434   2.283  1.00  0.00     0.012 A 
ATOM     19  C   UNL     1      -2.104  -0.011   4.527  1.00  0.00     0.001 A 
ATOM     20  C   UNL     1      -1.904  -1.394   4.603  1.00  0.00     0.009 A 
BRANCH  16  21
ATOM     21  C   UNL     1      -1.128   0.677   0.912  1.00  0.00     0.062 C 
BRANCH  21  22
ATOM     22  C   UNL     1       0.360   0.760   0.705  1.00  0.00    -0.030 C 
ATOM     23  C   UNL     1       1.026   0.145  -0.282  1.00  0.00     0.004 C 
ENDBRANCH  21  22
ENDBRANCH  16  21
ENDBRANCH  10  15
ENDBRANCH   7   9
ENDBRANCH   4   7
ENDBRANCH   2   3
ENDBRANCH   1   2
BRANCH   1  24
ATOM     24  C   UNL     1      -5.935  -7.686   2.585  1.00  0.00     0.002 C 
BRANCH  24  25
ATOM     25  C   UNL     1      -6.929  -8.504   3.420  1.00  0.00     0.002 C 
BRANCH  25  26
ATOM     26  C   UNL     1      -7.345  -7.881   4.757  1.00  0.00     0.021 C 
BRANCH  26  27
ATOM     27  C   UNL     1      -8.016  -6.513   4.653  1.00  0.00     0.116 C 
BRANCH  27  28
ATOM     28  N   UNL     1      -9.261  -6.572   3.907  1.00  0.00    -0.352 N 
ATOM     29  C   UNL     1     -10.526  -6.180   4.265  1.00  0.00     0.251 C 
ATOM     30  H   UNL     1      -9.186  -6.954   3.003  1.00  0.00     0.163 HD
ATOM     31  O   UNL     1     -11.483  -6.504   3.569  1.00  0.00    -0.269 OA
BRANCH  29  32
ATOM     32  C   UNL     1     -10.753  -5.375   5.487  1.00  0.00     0.039 A 
ATOM     33  C   UNL     1     -11.865  -5.668   6.282  1.00  0.00     0.014 A 
ATOM     34  C   UNL     1      -9.924  -4.299   5.818  1.00  0.00     0.014 A 
ATOM     35  C   UNL     1     -12.124  -4.910   7.426  1.00  0.00     0.010 A 
ATOM     36  C   UNL     1     -10.149  -3.580   6.993  1.00  0.00     0.010 A 
ATOM     37  C   UNL     1     -11.257  -3.871   7.801  1.00  0.00    -0.014 A 
BRANCH  37  38
ATOM     38  C   UNL     1     -11.518  -3.075   9.027  1.00  0.00     0.031 A 
ATOM     39  C   UNL     1     -11.888  -1.620   8.925  1.00  0.00     0.074 A 
ATOM     40  C   UNL     1     -11.395  -3.655  10.236  1.00  0.00     0.049 A 
ATOM     41  N   UNL     1     -12.132  -0.760   9.882  1.00  0.00    -0.248 NA
ATOM     42  C   UNL     1     -11.974  -1.051   7.571  1.00  0.00     0.031 C 
ATOM     43  C   UNL     1     -10.993  -5.043  10.472  1.00  0.00     0.029 A 
ATOM     44  N   UNL     1     -11.592  -3.147  11.496  1.00  0.00    -0.354 N 
ATOM     45  C   UNL     1     -12.398   0.447   9.247  1.00  0.00     0.074 A 
ATOM     46  C   UNL     1     -12.231   0.223   7.827  1.00  0.00     0.031 C 
ATOM     47  C   UNL     1     -10.993  -5.282  11.794  1.00  0.00     0.029 A 
ATOM     48  C   UNL     1     -11.373  -4.061  12.498  1.00  0.00     0.049 A 
ATOM     49  H   UNL     1     -11.865  -2.217  11.665  1.00  0.00     0.167 HD
ATOM     50  C   UNL     1     -12.773   1.629   9.794  1.00  0.00     0.037 A 
ATOM     51  C   UNL     1     -11.472  -3.929  13.834  1.00  0.00     0.037 A 
ATOM     52  C   UNL     1     -12.955   1.850  11.205  1.00  0.00     0.049 A 
ATOM     53  C   UNL     1     -11.918  -2.616  14.412  1.00  0.00     0.074 A 
ATOM     54  C   UNL     1     -13.343   3.009  11.856  1.00  0.00     0.029 A 
ATOM     55  N   UNL     1     -12.771   0.886  12.183  1.00  0.00    -0.354 N 
ATOM     56  N   UNL     1     -12.207  -1.496  13.795  1.00  0.00    -0.248 NA
ATOM     57  C   UNL     1     -12.072  -2.554  15.873  1.00  0.00     0.031 C 
ATOM     58  C   UNL     1     -13.376   2.750  13.231  1.00  0.00     0.029 A 
ATOM     59  C   UNL     1     -13.042   1.421  13.432  1.00  0.00     0.049 A 
ATOM     60  H   UNL     1     -12.488  -0.043  12.015  1.00  0.00     0.167 HD
ATOM     61  C   UNL     1     -12.601  -0.607  14.787  1.00  0.00     0.074 A 
ATOM     62  C   UNL     1     -12.533  -1.324  16.043  1.00  0.00     0.031 C 
ATOM     63  C   UNL     1     -12.981   0.688  14.669  1.00  0.00     0.037 A 
BRANCH  50  64
ATOM     64  C   UNL     1     -13.033   2.770   8.855  1.00  0.00     0.057 A 
ATOM     65  C   UNL     1     -14.169   2.797   8.036  1.00  0.00     0.134 A 
ATOM     66  C   UNL     1     -12.165   3.866   8.793  1.00  0.00     0.134 A 
ATOM     67  F   UNL     1     -15.034   1.771   8.038  1.00  0.00    -0.206 F 
ATOM     68  C   UNL     1     -14.422   3.865   7.172  1.00  0.00     0.040 A 
ATOM     69  C   UNL     1     -12.419   4.950   7.950  1.00  0.00     0.040 A 
ATOM     70  F   UNL     1     -11.061   3.906   9.554  1.00  0.00    -0.206 F 
ATOM     71  C   UNL     1     -13.548   4.949   7.133  1.00  0.00     0.006 A 
ENDBRANCH  50  64
BRANCH  51  72
ATOM     72  C   UNL     1     -11.175  -5.082  14.720  1.00  0.00     0.057 A 
ATOM     73  C   UNL     1     -12.196  -5.742  15.413  1.00  0.00     0.134 A 
ATOM     74  C   UNL     1      -9.865  -5.534  14.914  1.00  0.00     0.134 A 
ATOM     75  F   UNL     1     -13.470  -5.342  15.281  1.00  0.00    -0.206 F 
ATOM     76  C   UNL     1     -11.924  -6.794  16.289  1.00  0.00     0.040 A 
ATOM     77  C   UNL     1      -9.580  -6.600  15.768  1.00  0.00     0.040 A 
ATOM     78  F   UNL     1      -8.845  -4.948  14.271  1.00  0.00    -0.206 F 
ATOM     79  C   UNL     1     -10.611  -7.227  16.466  1.00  0.00     0.006 A 
ENDBRANCH  51  72
BRANCH  63  80
ATOM     80  C   UNL     1     -13.389   1.393  15.928  1.00  0.00     0.057 A 
ATOM     81  C   UNL     1     -12.453   1.783  16.894  1.00  0.00     0.134 A 
ATOM     82  C   UNL     1     -14.736   1.692  16.172  1.00  0.00     0.134 A 
ATOM     83  F   UNL     1     -11.150   1.513  16.725  1.00  0.00    -0.206 F 
ATOM     84  C   UNL     1     -12.845   2.417  18.074  1.00  0.00     0.040 A 
ATOM     85  C   UNL     1     -15.137   2.347  17.337  1.00  0.00     0.040 A 
ATOM     86  F   UNL     1     -15.681   1.352  15.283  1.00  0.00    -0.206 F 
ATOM     87  C   UNL     1     -14.191   2.704  18.296  1.00  0.00     0.006 A 
ENDBRANCH  63  80
ENDBRANCH  37  38
ENDBRANCH  29  32
ENDBRANCH  27  28
ENDBRANCH  26  27
ENDBRANCH  25  26
ENDBRANCH  24  25
ENDBRANCH   1  24
TORSDOF 17
