REMARK SMILES Cc1ccc(C(=O)N2C[C@H](C(=O)NCCCCCCNC(=O)c3ccc(-c4c5nc(c(-c6c(F)cccc6F)c6ccc([nH]6)c(-c6c(F)cccc6F)c6nc(c(-c7c(F)cccc7F)c7ccc4[nH]7)C=C6)C=C5)cc3)Oc3ccccc32)o1
REMARK SMILES IDX 16 1 15 2 14 3 13 4 11 5 12 6 10 8 8 9 9 10 83 11 78 12
REMARK SMILES IDX 82 13 77 14 79 15 81 16 80 17 6 18 7 19 5 20 1 21 2 22 3 23
REMARK SMILES IDX 84 24 4 25 17 26 18 27 19 28 20 29 21 30 22 32 23 33 24 34
REMARK SMILES IDX 76 35 25 36 75 37 26 38 27 39 28 40 69 41 29 42 74 43 68 44
REMARK SMILES IDX 70 45 30 46 73 47 67 48 66 49 31 51 57 52 40 53 56 54 41 55
REMARK SMILES IDX 44 56 55 57 71 58 42 59 43 60 54 62 72 63 45 64 32 65 33 66
REMARK SMILES IDX 38 67 34 68 35 69 37 70 39 71 36 72 58 73 59 74 64 75 60 76
REMARK SMILES IDX 61 77 63 78 65 79 62 80 46 81 47 82 52 83 48 84 49 85 51 86
REMARK SMILES IDX 53 87 50 88
REMARK H PARENT 13 7 20 31 70 50 44 61
REMARK Flexibility Score: inf
ROOT
ATOM      1  C   UNL     1      -6.275  -3.947   2.631  1.00  0.00     0.002 C 
ENDROOT
BRANCH   1   2
ATOM      2  C   UNL     1      -5.771  -2.939   1.591  1.00  0.00     0.021 C 
BRANCH   2   3
ATOM      3  C   UNL     1      -6.600  -1.659   1.486  1.00  0.00     0.116 C 
BRANCH   3   4
ATOM      4  N   UNL     1      -6.398  -0.799   2.639  1.00  0.00    -0.353 N 
ATOM      5  C   UNL     1      -5.936   0.485   2.712  1.00  0.00     0.262 C 
ATOM      6  O   UNL     1      -5.848   0.996   3.832  1.00  0.00    -0.271 OA
ATOM      7  H   UNL     1      -6.630  -1.206   3.505  1.00  0.00     0.163 HD
BRANCH   5   8
ATOM      8  C   UNL     1      -5.482   1.248   1.464  1.00  0.00     0.281 C 
ATOM      9  N   UNL     1      -3.686   1.389  -0.227  1.00  0.00    -0.298 N 
ATOM     10  C   UNL     1      -4.143   0.699   0.984  1.00  0.00     0.181 C 
ATOM     11  C   UNL     1      -4.721   1.799  -1.127  1.00  0.00     0.087 A 
ATOM     12  C   UNL     1      -6.071   1.639  -0.763  1.00  0.00     0.144 A 
ATOM     13  C   UNL     1      -4.440   2.272  -2.417  1.00  0.00     0.030 A 
ATOM     14  O   UNL     1      -6.492   1.177   0.458  1.00  0.00    -0.477 OA
ATOM     15  C   UNL     1      -7.098   1.919  -1.669  1.00  0.00     0.049 A 
ATOM     16  C   UNL     1      -5.469   2.563  -3.318  1.00  0.00     0.002 A 
ATOM     17  C   UNL     1      -6.798   2.381  -2.947  1.00  0.00     0.004 A 
BRANCH   9  18
ATOM     18  C   UNL     1      -2.332   1.654  -0.454  1.00  0.00     0.294 C 
ATOM     19  O   UNL     1      -1.964   2.723  -0.980  1.00  0.00    -0.265 OA
BRANCH  18  20
ATOM     20  C   UNL     1      -1.369   0.623  -0.104  1.00  0.00     0.192 A 
ATOM     21  C   UNL     1       2.143   0.032   0.300  1.00  0.00     0.087 C 
ATOM     22  C   UNL     1       0.679  -0.143   0.217  1.00  0.00     0.101 A 
ATOM     23  C   UNL     1      -0.151  -1.237   0.286  1.00  0.00     0.046 A 
ATOM     24  O   UNL     1      -0.049   0.983  -0.005  1.00  0.00    -0.456 OA
ATOM     25  C   UNL     1      -1.464  -0.751   0.067  1.00  0.00     0.056 A 
ENDBRANCH  18  20
ENDBRANCH   9  18
ENDBRANCH   5   8
ENDBRANCH   3   4
ENDBRANCH   2   3
ENDBRANCH   1   2
BRANCH   1  26
ATOM     26  C   UNL     1      -7.687  -4.495   2.394  1.00  0.00     0.002 C 
BRANCH  26  27
ATOM     27  C   UNL     1      -7.952  -5.088   1.006  1.00  0.00     0.021 C 
BRANCH  27  28
ATOM     28  C   UNL     1      -7.007  -6.208   0.574  1.00  0.00     0.116 C 
BRANCH  28  29
ATOM     29  N   UNL     1      -7.115  -7.389   1.412  1.00  0.00    -0.352 N 
ATOM     30  C   UNL     1      -7.159  -8.711   1.042  1.00  0.00     0.251 C 
ATOM     31  H   UNL     1      -7.165  -7.219   2.380  1.00  0.00     0.163 HD
ATOM     32  O   UNL     1      -7.377  -9.581   1.883  1.00  0.00    -0.269 OA
BRANCH  30  33
ATOM     33  C   UNL     1      -6.972  -9.094  -0.374  1.00  0.00     0.039 A 
ATOM     34  C   UNL     1      -7.891  -9.972  -0.958  1.00  0.00     0.014 A 
ATOM     35  C   UNL     1      -5.891  -8.610  -1.117  1.00  0.00     0.014 A 
ATOM     36  C   UNL     1      -7.766 -10.315  -2.306  1.00  0.00     0.010 A 
ATOM     37  C   UNL     1      -5.785  -8.927  -2.471  1.00  0.00     0.010 A 
ATOM     38  C   UNL     1      -6.727  -9.773  -3.078  1.00  0.00    -0.014 A 
BRANCH  38  39
ATOM     39  C   UNL     1      -6.618 -10.062  -4.528  1.00  0.00     0.031 A 
ATOM     40  C   UNL     1      -5.518 -10.942  -5.046  1.00  0.00     0.074 A 
ATOM     41  C   UNL     1      -7.470  -9.473  -5.388  1.00  0.00     0.049 A 
ATOM     42  N   UNL     1      -5.191 -11.210  -6.284  1.00  0.00    -0.248 NA
ATOM     43  C   UNL     1      -4.664 -11.590  -4.040  1.00  0.00     0.031 C 
ATOM     44  C   UNL     1      -8.567  -8.579  -5.014  1.00  0.00     0.029 A 
ATOM     45  N   UNL     1      -7.532  -9.525  -6.757  1.00  0.00    -0.354 N 
ATOM     46  C   UNL     1      -4.079 -12.036  -6.210  1.00  0.00     0.074 A 
ATOM     47  C   UNL     1      -3.780 -12.218  -4.804  1.00  0.00     0.031 C 
ATOM     48  C   UNL     1      -9.196  -8.170  -6.128  1.00  0.00     0.029 A 
ATOM     49  C   UNL     1      -8.530  -8.749  -7.291  1.00  0.00     0.049 A 
ATOM     50  H   UNL     1      -6.919 -10.068  -7.304  1.00  0.00     0.167 HD
ATOM     51  C   UNL     1      -3.373 -12.596  -7.220  1.00  0.00     0.037 A 
ATOM     52  C   UNL     1      -8.863  -8.520  -8.574  1.00  0.00     0.037 A 
ATOM     53  C   UNL     1      -3.684 -12.449  -8.617  1.00  0.00     0.049 A 
ATOM     54  C   UNL     1      -8.076  -9.166  -9.676  1.00  0.00     0.074 A 
ATOM     55  C   UNL     1      -3.055 -13.026  -9.707  1.00  0.00     0.029 A 
ATOM     56  N   UNL     1      -4.718 -11.674  -9.115  1.00  0.00    -0.354 N 
ATOM     57  N   UNL     1      -7.038  -9.961  -9.589  1.00  0.00    -0.248 NA
ATOM     58  C   UNL     1      -8.503  -8.879 -11.053  1.00  0.00     0.031 C 
ATOM     59  C   UNL     1      -3.701 -12.586 -10.869  1.00  0.00     0.029 A 
ATOM     60  C   UNL     1      -4.740 -11.749 -10.498  1.00  0.00     0.049 A 
ATOM     61  H   UNL     1      -5.345 -11.148  -8.568  1.00  0.00     0.167 HD
ATOM     62  C   UNL     1      -6.694 -10.277 -10.895  1.00  0.00     0.074 A 
ATOM     63  C   UNL     1      -7.636  -9.594 -11.757  1.00  0.00     0.031 C 
ATOM     64  C   UNL     1      -5.685 -11.064 -11.339  1.00  0.00     0.037 A 
BRANCH  51  65
ATOM     65  C   UNL     1      -2.182 -13.419  -6.845  1.00  0.00     0.057 A 
ATOM     66  C   UNL     1      -2.316 -14.736  -6.391  1.00  0.00     0.134 A 
ATOM     67  C   UNL     1      -0.888 -12.898  -6.962  1.00  0.00     0.134 A 
ATOM     68  F   UNL     1      -3.532 -15.284  -6.246  1.00  0.00    -0.206 F 
ATOM     69  C   UNL     1      -1.201 -15.505  -6.053  1.00  0.00     0.040 A 
ATOM     70  C   UNL     1       0.235 -13.661  -6.639  1.00  0.00     0.040 A 
ATOM     71  F   UNL     1      -0.697 -11.640  -7.389  1.00  0.00    -0.206 F 
ATOM     72  C   UNL     1       0.079 -14.968  -6.181  1.00  0.00     0.006 A 
ENDBRANCH  51  65
BRANCH  52  73
ATOM     73  C   UNL     1     -10.007  -7.635  -8.888  1.00  0.00     0.057 A 
ATOM     74  C   UNL     1     -11.246  -8.170  -9.256  1.00  0.00     0.134 A 
ATOM     75  C   UNL     1      -9.891  -6.243  -8.822  1.00  0.00     0.134 A 
ATOM     76  F   UNL     1     -11.406  -9.498  -9.351  1.00  0.00    -0.206 F 
ATOM     77  C   UNL     1     -12.333  -7.348  -9.554  1.00  0.00     0.040 A 
ATOM     78  C   UNL     1     -10.972  -5.409  -9.106  1.00  0.00     0.040 A 
ATOM     79  F   UNL     1      -8.726  -5.677  -8.473  1.00  0.00    -0.206 F 
ATOM     80  C   UNL     1     -12.198  -5.963  -9.476  1.00  0.00     0.006 A 
ENDBRANCH  52  73
BRANCH  64  81
ATOM     81  C   UNL     1      -5.561 -11.236 -12.819  1.00  0.00     0.057 A 
ATOM     82  C   UNL     1      -4.927 -10.274 -13.613  1.00  0.00     0.134 A 
ATOM     83  C   UNL     1      -6.052 -12.385 -13.450  1.00  0.00     0.134 A 
ATOM     84  F   UNL     1      -4.449  -9.147 -13.065  1.00  0.00    -0.206 F 
ATOM     85  C   UNL     1      -4.793 -10.445 -14.992  1.00  0.00     0.040 A 
ATOM     86  C   UNL     1      -5.914 -12.572 -14.825  1.00  0.00     0.040 A 
ATOM     87  F   UNL     1      -6.669 -13.340 -12.739  1.00  0.00    -0.206 F 
ATOM     88  C   UNL     1      -5.284 -11.600 -15.600  1.00  0.00     0.006 A 
ENDBRANCH  64  81
ENDBRANCH  38  39
ENDBRANCH  30  33
ENDBRANCH  28  29
ENDBRANCH  27  28
ENDBRANCH  26  27
ENDBRANCH   1  26
TORSDOF 15
