REMARK SMILES Cc1ccccc1[C@@H](CC(=O)NCCCCCCNC(=O)c1ccc(-c2c3nc(c(-c4c(F)cccc4F)c4ccc([nH]4)c(-c4c(F)cccc4F)c4nc(c(-c5c(F)cccc5F)c5ccc2[nH]5)C=C4)C=C3)cc1)NC(=O)C(F)(F)F
REMARK SMILES IDX 15 1 14 2 13 3 12 4 10 5 11 6 9 8 8 9 7 10 1 11 2 12 3 13
REMARK SMILES IDX 4 14 6 15 5 16 76 17 77 18 78 20 79 21 80 22 81 23 82 24
REMARK SMILES IDX 16 25 17 26 18 27 19 28 20 29 21 31 22 32 23 33 75 34 24 35
REMARK SMILES IDX 74 36 25 37 26 38 27 39 68 40 28 41 73 42 67 43 69 44 29 45
REMARK SMILES IDX 72 46 66 47 65 48 30 50 56 51 39 52 55 53 40 54 43 55 54 56
REMARK SMILES IDX 70 57 41 58 42 59 53 61 71 62 44 63 31 64 32 65 37 66 33 67
REMARK SMILES IDX 34 68 36 69 38 70 35 71 57 72 58 73 63 74 59 75 60 76 62 77
REMARK SMILES IDX 64 78 61 79 45 80 46 81 51 82 47 83 48 84 50 85 52 86 49 87
REMARK H PARENT 12 7 76 19 19 30 69 49 43 60
REMARK Flexibility Score: inf
ROOT
ATOM      1  C   UNL     1      -4.651   0.993  -0.838  1.00  0.00     0.002 C 
ENDROOT
BRANCH   1   2
ATOM      2  C   UNL     1      -3.222   1.349  -0.411  1.00  0.00     0.021 C 
BRANCH   2   3
ATOM      3  C   UNL     1      -2.269   1.825  -1.517  1.00  0.00     0.116 C 
BRANCH   3   4
ATOM      4  N   UNL     1      -1.804   3.175  -1.258  1.00  0.00    -0.356 N 
ATOM      5  C   UNL     1      -0.554   3.675  -1.089  1.00  0.00     0.222 C 
ATOM      6  O   UNL     1      -0.453   4.879  -0.839  1.00  0.00    -0.275 OA
ATOM      7  H   UNL     1      -2.522   3.845  -1.194  1.00  0.00     0.163 HD
BRANCH   5   8
ATOM      8  C   UNL     1       0.683   2.811  -1.194  1.00  0.00     0.129 C 
BRANCH   8   9
ATOM      9  C   UNL     1       1.292   2.346   0.147  1.00  0.00     0.122 C 
BRANCH   9  10
ATOM     10  C   UNL     1       0.982   0.874   0.411  1.00  0.00    -0.022 A 
ATOM     11  C   UNL     1       3.194   0.037  -0.630  1.00  0.00     0.045 C 
ATOM     12  C   UNL     1       1.814  -0.172  -0.058  1.00  0.00    -0.046 A 
ATOM     13  C   UNL     1       1.396  -1.509   0.091  1.00  0.00     0.004 A 
ATOM     14  C   UNL     1       0.187  -1.825   0.703  1.00  0.00     0.000 A 
ATOM     15  C   UNL     1      -0.211   0.524   1.073  1.00  0.00     0.006 A 
ATOM     16  C   UNL     1      -0.605  -0.808   1.216  1.00  0.00     0.000 A 
ENDBRANCH   9  10
BRANCH   9  17
ATOM     17  N   UNL     1       0.965   3.197   1.288  1.00  0.00    -0.341 N 
ATOM     18  C   UNL     1       1.804   3.630   2.291  1.00  0.00     0.326 C 
ATOM     19  H   UNL     1       0.029   3.498   1.348  1.00  0.00     0.164 HD
ATOM     20  O   UNL     1       1.298   4.289   3.205  1.00  0.00    -0.265 OA
BRANCH  18  21
ATOM     21  C   UNL     1       3.313   3.301   2.224  1.00  0.00     0.471 C 
ATOM     22  F   UNL     1       3.552   1.960   2.170  1.00  0.00    -0.162 F 
ATOM     23  F   UNL     1       3.901   3.830   1.111  1.00  0.00    -0.162 F 
ATOM     24  F   UNL     1       4.018   3.774   3.288  1.00  0.00    -0.162 F 
ENDBRANCH  18  21
ENDBRANCH   9  17
ENDBRANCH   8   9
ENDBRANCH   5   8
ENDBRANCH   3   4
ENDBRANCH   2   3
ENDBRANCH   1   2
BRANCH   1  25
ATOM     25  C   UNL     1      -4.814   0.093  -2.070  1.00  0.00     0.002 C 
BRANCH  25  26
ATOM     26  C   UNL     1      -3.893  -1.123  -2.142  1.00  0.00     0.021 C 
BRANCH  26  27
ATOM     27  C   UNL     1      -4.266  -2.257  -1.195  1.00  0.00     0.116 C 
BRANCH  27  28
ATOM     28  N   UNL     1      -5.295  -3.135  -1.743  1.00  0.00    -0.352 N 
ATOM     29  C   UNL     1      -5.802  -4.321  -1.245  1.00  0.00     0.251 C 
ATOM     30  H   UNL     1      -5.687  -2.838  -2.596  1.00  0.00     0.163 HD
ATOM     31  O   UNL     1      -6.736  -4.881  -1.812  1.00  0.00    -0.269 OA
BRANCH  29  32
ATOM     32  C   UNL     1      -5.308  -4.835   0.049  1.00  0.00     0.039 A 
ATOM     33  C   UNL     1      -6.256  -5.147   1.030  1.00  0.00     0.014 A 
ATOM     34  C   UNL     1      -3.951  -4.806   0.363  1.00  0.00     0.014 A 
ATOM     35  C   UNL     1      -5.872  -5.156   2.366  1.00  0.00     0.010 A 
ATOM     36  C   UNL     1      -3.580  -4.728   1.691  1.00  0.00     0.010 A 
ATOM     37  C   UNL     1      -4.559  -4.814   2.686  1.00  0.00    -0.014 A 
BRANCH  37  38
ATOM     38  C   UNL     1      -4.177  -4.347   4.012  1.00  0.00     0.031 A 
ATOM     39  C   UNL     1      -3.412  -5.211   4.932  1.00  0.00     0.074 A 
ATOM     40  C   UNL     1      -4.503  -3.084   4.371  1.00  0.00     0.049 A 
ATOM     41  N   UNL     1      -3.321  -4.998   6.201  1.00  0.00    -0.248 NA
ATOM     42  C   UNL     1      -2.760  -6.449   4.512  1.00  0.00     0.031 C 
ATOM     43  C   UNL     1      -3.993  -2.318   5.504  1.00  0.00     0.029 A 
ATOM     44  N   UNL     1      -5.572  -2.315   3.883  1.00  0.00    -0.354 N 
ATOM     45  C   UNL     1      -2.392  -5.872   6.707  1.00  0.00     0.074 A 
ATOM     46  C   UNL     1      -2.183  -6.835   5.657  1.00  0.00     0.031 C 
ATOM     47  C   UNL     1      -4.878  -1.356   5.809  1.00  0.00     0.029 A 
ATOM     48  C   UNL     1      -6.051  -1.571   4.982  1.00  0.00     0.049 A 
ATOM     49  H   UNL     1      -5.917  -2.299   2.961  1.00  0.00     0.167 HD
ATOM     50  C   UNL     1      -1.814  -5.588   7.906  1.00  0.00     0.037 A 
ATOM     51  C   UNL     1      -7.318  -1.736   5.461  1.00  0.00     0.037 A 
ATOM     52  C   UNL     1      -2.571  -4.557   8.617  1.00  0.00     0.049 A 
ATOM     53  C   UNL     1      -7.382  -2.161   6.909  1.00  0.00     0.074 A 
ATOM     54  C   UNL     1      -2.354  -3.214   8.869  1.00  0.00     0.029 A 
ATOM     55  N   UNL     1      -3.892  -4.819   8.975  1.00  0.00    -0.354 N 
ATOM     56  N   UNL     1      -6.377  -2.675   7.562  1.00  0.00    -0.248 NA
ATOM     57  C   UNL     1      -8.592  -2.076   7.722  1.00  0.00     0.031 C 
ATOM     58  C   UNL     1      -3.591  -2.647   9.283  1.00  0.00     0.029 A 
ATOM     59  C   UNL     1      -4.541  -3.655   9.331  1.00  0.00     0.049 A 
ATOM     60  H   UNL     1      -4.304  -5.713   8.975  1.00  0.00     0.167 HD
ATOM     61  C   UNL     1      -6.785  -3.032   8.820  1.00  0.00     0.074 A 
ATOM     62  C   UNL     1      -8.171  -2.606   8.884  1.00  0.00     0.031 C 
ATOM     63  C   UNL     1      -5.953  -3.673   9.693  1.00  0.00     0.037 A 
BRANCH  50  64
ATOM     64  C   UNL     1      -0.461  -6.092   8.372  1.00  0.00     0.057 A 
ATOM     65  C   UNL     1       0.033  -5.724   9.641  1.00  0.00     0.134 A 
ATOM     66  C   UNL     1       0.465  -6.810   7.586  1.00  0.00     0.134 A 
ATOM     67  F   UNL     1      -0.716  -5.026  10.507  1.00  0.00    -0.206 F 
ATOM     68  C   UNL     1       1.333  -6.030  10.078  1.00  0.00     0.040 A 
ATOM     69  C   UNL     1       1.747  -7.165   8.030  1.00  0.00     0.040 A 
ATOM     70  F   UNL     1       0.219  -7.160   6.320  1.00  0.00    -0.206 F 
ATOM     71  C   UNL     1       2.194  -6.761   9.275  1.00  0.00     0.006 A 
ENDBRANCH  50  64
BRANCH  51  72
ATOM     72  C   UNL     1      -8.308  -2.115   4.422  1.00  0.00     0.057 A 
ATOM     73  C   UNL     1      -8.627  -1.183   3.420  1.00  0.00     0.134 A 
ATOM     74  C   UNL     1      -8.658  -3.447   4.187  1.00  0.00     0.134 A 
ATOM     75  F   UNL     1      -8.317   0.113   3.583  1.00  0.00    -0.206 F 
ATOM     76  C   UNL     1      -9.176  -1.572   2.196  1.00  0.00     0.040 A 
ATOM     77  C   UNL     1      -9.215  -3.849   2.966  1.00  0.00     0.040 A 
ATOM     78  F   UNL     1      -8.364  -4.399   5.085  1.00  0.00    -0.206 F 
ATOM     79  C   UNL     1      -9.441  -2.916   1.954  1.00  0.00     0.006 A 
ENDBRANCH  51  72
BRANCH  63  80
ATOM     80  C   UNL     1      -6.376  -4.324  10.989  1.00  0.00     0.057 A 
ATOM     81  C   UNL     1      -7.646  -4.874  11.221  1.00  0.00     0.134 A 
ATOM     82  C   UNL     1      -5.432  -4.550  12.015  1.00  0.00     0.134 A 
ATOM     83  F   UNL     1      -8.608  -4.842  10.288  1.00  0.00    -0.206 F 
ATOM     84  C   UNL     1      -7.973  -5.542  12.410  1.00  0.00     0.040 A 
ATOM     85  C   UNL     1      -5.732  -5.261  13.182  1.00  0.00     0.040 A 
ATOM     86  F   UNL     1      -4.169  -4.109  11.917  1.00  0.00    -0.206 F 
ATOM     87  C   UNL     1      -7.012  -5.747  13.391  1.00  0.00     0.006 A 
ENDBRANCH  63  80
ENDBRANCH  37  38
ENDBRANCH  29  32
ENDBRANCH  27  28
ENDBRANCH  26  27
ENDBRANCH  25  26
ENDBRANCH   1  25
TORSDOF 17
