REMARK SMILES CC[NH2+][C@@]1(C(=O)NCCCCCCNC(=O)c2ccc(-c3c4nc(c(-c5c(F)cccc5F)c5ccc([nH]5)c(-c5c(F)cccc5F)c5nc(c(-c6c(F)cccc6F)c6ccc3[nH]6)C=C5)C=C4)cc2)CC[C@H](Oc2ccc3c(c2)OCO3)C1
REMARK SMILES IDX 10 1 9 2 8 3 7 4 5 5 6 6 4 8 71 9 84 10 72 11 73 12 3 13
REMARK SMILES IDX 2 16 1 17 74 18 75 19 76 20 80 21 77 22 79 23 78 24 81 25
REMARK SMILES IDX 83 26 82 27 11 28 12 29 13 30 14 31 15 32 16 34 17 35 18 36
REMARK SMILES IDX 70 37 19 38 69 39 20 40 21 41 22 42 63 43 23 44 68 45 62 46
REMARK SMILES IDX 64 47 24 48 67 49 61 50 60 51 25 53 51 54 34 55 50 56 35 57
REMARK SMILES IDX 38 58 49 59 65 60 36 61 37 62 48 64 66 65 39 66 26 67 27 68
REMARK SMILES IDX 32 69 28 70 29 71 31 72 33 73 30 74 52 75 53 76 58 77 54 78
REMARK SMILES IDX 55 79 57 80 59 81 56 82 40 83 41 84 46 85 42 86 43 87 45 88
REMARK SMILES IDX 47 89 44 90
REMARK H PARENT 7 7 3 14 3 15 14 33 64 52 38 63
REMARK Flexibility Score: inf
ROOT
ATOM      1  C   UNL     1      -4.177   5.098  -4.986  1.00  0.00     0.002 C 
ENDROOT
BRANCH   1   2
ATOM      2  C   UNL     1      -2.650   5.044  -4.977  1.00  0.00     0.021 C 
BRANCH   2   3
ATOM      3  C   UNL     1      -1.984   4.789  -3.629  1.00  0.00     0.116 C 
BRANCH   3   4
ATOM      4  N   UNL     1      -2.063   3.412  -3.205  1.00  0.00    -0.351 N 
ATOM      5  C   UNL     1      -1.132   2.559  -2.688  1.00  0.00     0.281 C 
ATOM      6  O   UNL     1      -1.559   1.415  -2.484  1.00  0.00    -0.268 OA
ATOM      7  H   UNL     1      -2.957   3.013  -3.309  1.00  0.00     0.163 HD
BRANCH   5   8
ATOM      8  C   UNL     1       0.374   2.971  -2.391  1.00  0.00     0.179 C 
ATOM      9  C   UNL     1       0.543   4.201  -1.461  1.00  0.00     0.083 C 
ATOM     10  C   UNL     1       1.080   3.357  -3.720  1.00  0.00     0.124 C 
ATOM     11  C   UNL     1       1.138   5.334  -2.287  1.00  0.00     0.052 C 
ATOM     12  C   UNL     1       1.873   4.635  -3.424  1.00  0.00     0.180 C 
BRANCH   8  13
ATOM     13  N   UNL     1       1.091   1.800  -1.793  1.00  0.00    -0.334 N 
ATOM     14  H   UNL     1       0.956   0.998  -2.409  1.00  0.00     0.347 HD
ATOM     15  H   UNL     1       2.068   2.080  -1.701  1.00  0.00     0.347 HD
BRANCH  13  16
ATOM     16  C   UNL     1       0.645   1.419  -0.446  1.00  0.00     0.257 C 
ATOM     17  C   UNL     1       1.158   0.030  -0.093  1.00  0.00     0.071 C 
ENDBRANCH  13  16
ENDBRANCH   8  13
BRANCH  12  18
ATOM     18  O   UNL     1       2.231   5.402  -4.580  1.00  0.00    -0.490 OA
BRANCH  18  19
ATOM     19  C   UNL     1       1.279   6.169  -5.189  1.00  0.00     0.123 A 
ATOM     20  C   UNL     1       0.918   7.423  -4.662  1.00  0.00     0.050 A 
ATOM     21  C   UNL     1       0.806   5.771  -6.442  1.00  0.00     0.097 A 
ATOM     22  C   UNL     1       0.015   8.253  -5.335  1.00  0.00     0.054 A 
ATOM     23  C   UNL     1      -0.065   6.618  -7.097  1.00  0.00     0.169 A 
ATOM     24  C   UNL     1      -0.457   7.820  -6.554  1.00  0.00     0.166 A 
ATOM     25  O   UNL     1      -0.636   6.388  -8.310  1.00  0.00    -0.453 OA
ATOM     26  O   UNL     1      -1.333   8.486  -7.350  1.00  0.00    -0.454 OA
ATOM     27  C   UNL     1      -1.462   7.559  -8.449  1.00  0.00     0.468 C 
ENDBRANCH  18  19
ENDBRANCH  12  18
ENDBRANCH   5   8
ENDBRANCH   3   4
ENDBRANCH   2   3
ENDBRANCH   1   2
BRANCH   1  28
ATOM     28  C   UNL     1      -4.824   6.156  -4.087  1.00  0.00     0.002 C 
BRANCH  28  29
ATOM     29  C   UNL     1      -4.281   7.589  -4.186  1.00  0.00     0.021 C 
BRANCH  29  30
ATOM     30  C   UNL     1      -4.267   8.232  -5.575  1.00  0.00     0.116 C 
BRANCH  30  31
ATOM     31  N   UNL     1      -5.592   8.427  -6.138  1.00  0.00    -0.352 N 
ATOM     32  C   UNL     1      -6.056   9.453  -6.925  1.00  0.00     0.251 C 
ATOM     33  H   UNL     1      -6.249   7.726  -5.924  1.00  0.00     0.163 HD
ATOM     34  O   UNL     1      -7.239   9.480  -7.265  1.00  0.00    -0.269 OA
BRANCH  32  35
ATOM     35  C   UNL     1      -5.158  10.548  -7.357  1.00  0.00     0.039 A 
ATOM     36  C   UNL     1      -5.537  11.871  -7.122  1.00  0.00     0.014 A 
ATOM     37  C   UNL     1      -3.971  10.286  -8.043  1.00  0.00     0.014 A 
ATOM     38  C   UNL     1      -4.701  12.921  -7.524  1.00  0.00     0.010 A 
ATOM     39  C   UNL     1      -3.109  11.334  -8.395  1.00  0.00     0.010 A 
ATOM     40  C   UNL     1      -3.459  12.668  -8.136  1.00  0.00    -0.014 A 
BRANCH  40  41
ATOM     41  C   UNL     1      -2.523  13.790  -8.455  1.00  0.00     0.031 A 
ATOM     42  C   UNL     1      -2.092  14.092  -9.869  1.00  0.00     0.074 A 
ATOM     43  C   UNL     1      -2.012  14.536  -7.453  1.00  0.00     0.049 A 
ATOM     44  N   UNL     1      -1.280  15.027 -10.304  1.00  0.00    -0.248 NA
ATOM     45  C   UNL     1      -2.620  13.223 -10.930  1.00  0.00     0.031 C 
ATOM     46  C   UNL     1      -2.274  14.330  -6.027  1.00  0.00     0.029 A 
ATOM     47  N   UNL     1      -1.168  15.621  -7.479  1.00  0.00    -0.354 N 
ATOM     48  C   UNL     1      -1.175  14.840 -11.677  1.00  0.00     0.074 A 
ATOM     49  C   UNL     1      -1.986  13.684 -12.001  1.00  0.00     0.031 C 
ATOM     50  C   UNL     1      -1.644  15.282  -5.322  1.00  0.00     0.029 A 
ATOM     51  C   UNL     1      -0.904  16.146  -6.237  1.00  0.00     0.049 A 
ATOM     52  H   UNL     1      -0.789  15.988  -8.311  1.00  0.00     0.167 HD
ATOM     53  C   UNL     1      -0.486  15.570 -12.589  1.00  0.00     0.037 A 
ATOM     54  C   UNL     1      -0.158  17.205  -5.867  1.00  0.00     0.037 A 
ATOM     55  C   UNL     1       0.276  16.757 -12.295  1.00  0.00     0.049 A 
ATOM     56  C   UNL     1       0.552  18.029  -6.903  1.00  0.00     0.074 A 
ATOM     57  C   UNL     1       0.925  17.605 -13.181  1.00  0.00     0.029 A 
ATOM     58  N   UNL     1       0.491  17.270 -11.027  1.00  0.00    -0.354 N 
ATOM     59  N   UNL     1       0.575  17.880  -8.203  1.00  0.00    -0.248 NA
ATOM     60  C   UNL     1       1.336  19.176  -6.416  1.00  0.00     0.031 C 
ATOM     61  C   UNL     1       1.557  18.613 -12.445  1.00  0.00     0.029 A 
ATOM     62  C   UNL     1       1.273  18.413 -11.106  1.00  0.00     0.049 A 
ATOM     63  H   UNL     1       0.142  16.880 -10.194  1.00  0.00     0.167 HD
ATOM     64  C   UNL     1       1.351  18.923  -8.691  1.00  0.00     0.074 A 
ATOM     65  C   UNL     1       1.773  19.706  -7.550  1.00  0.00     0.031 C 
ATOM     66  C   UNL     1       1.682  19.202  -9.974  1.00  0.00     0.037 A 
BRANCH  53  67
ATOM     67  C   UNL     1      -0.531  15.118 -14.021  1.00  0.00     0.057 A 
ATOM     68  C   UNL     1      -1.673  15.290 -14.813  1.00  0.00     0.134 A 
ATOM     69  C   UNL     1       0.607  14.578 -14.635  1.00  0.00     0.134 A 
ATOM     70  F   UNL     1      -2.795  15.800 -14.284  1.00  0.00    -0.206 F 
ATOM     71  C   UNL     1      -1.689  14.922 -16.159  1.00  0.00     0.040 A 
ATOM     72  C   UNL     1       0.610  14.228 -15.986  1.00  0.00     0.040 A 
ATOM     73  F   UNL     1       1.739  14.402 -13.937  1.00  0.00    -0.206 F 
ATOM     74  C   UNL     1      -0.542  14.396 -16.751  1.00  0.00     0.006 A 
ENDBRANCH  53  67
BRANCH  54  75
ATOM     75  C   UNL     1      -0.069  17.577  -4.434  1.00  0.00     0.057 A 
ATOM     76  C   UNL     1      -0.729  18.711  -3.946  1.00  0.00     0.134 A 
ATOM     77  C   UNL     1       0.680  16.821  -3.526  1.00  0.00     0.134 A 
ATOM     78  F   UNL     1      -1.444  19.485  -4.776  1.00  0.00    -0.206 F 
ATOM     79  C   UNL     1      -0.635  19.090  -2.607  1.00  0.00     0.040 A 
ATOM     80  C   UNL     1       0.765  17.176  -2.179  1.00  0.00     0.040 A 
ATOM     81  F   UNL     1       1.329  15.721  -3.934  1.00  0.00    -0.206 F 
ATOM     82  C   UNL     1       0.112  18.318  -1.718  1.00  0.00     0.006 A 
ENDBRANCH  54  75
BRANCH  66  83
ATOM     83  C   UNL     1       2.512  20.426 -10.224  1.00  0.00     0.057 A 
ATOM     84  C   UNL     1       3.881  20.464  -9.929  1.00  0.00     0.134 A 
ATOM     85  C   UNL     1       1.942  21.570 -10.797  1.00  0.00     0.134 A 
ATOM     86  F   UNL     1       4.484  19.407  -9.365  1.00  0.00    -0.206 F 
ATOM     87  C   UNL     1       4.649  21.603 -10.179  1.00  0.00     0.040 A 
ATOM     88  C   UNL     1       2.704  22.707 -11.071  1.00  0.00     0.040 A 
ATOM     89  F   UNL     1       0.637  21.597 -11.108  1.00  0.00    -0.206 F 
ATOM     90  C   UNL     1       4.061  22.727 -10.758  1.00  0.00     0.006 A 
ENDBRANCH  66  83
ENDBRANCH  40  41
ENDBRANCH  32  35
ENDBRANCH  30  31
ENDBRANCH  29  30
ENDBRANCH  28  29
ENDBRANCH   1  28
TORSDOF 17
