REMARK SMILES CC1(C)S[C@@H]2[C@H]([NH2+]Cn3nnc4ccccc43)C(=O)N2[C@@H]1C(=O)NCCCCCCNC(=O)c1ccc(-c2c3nc(c(-c4c(F)cccc4F)c4ccc([nH]4)c(-c4c(F)cccc4F)c4nc(c(-c5c(F)cccc5F)c5ccc2[nH]5)C=C4)C=C3)cc1
REMARK SMILES IDX 27 1 26 2 25 3 24 4 22 5 23 6 21 8 1 9 2 10 3 11 4 12 5 13
REMARK SMILES IDX 20 14 6 15 18 16 19 17 7 18 8 21 9 22 10 23 17 24 11 25
REMARK SMILES IDX 12 26 16 27 13 28 15 29 14 30 28 31 29 32 30 33 31 34 32 35
REMARK SMILES IDX 33 37 34 38 35 39 87 40 36 41 86 42 37 43 38 44 39 45 80 46
REMARK SMILES IDX 40 47 85 48 79 49 81 50 41 51 84 52 78 53 77 54 42 56 68 57
REMARK SMILES IDX 51 58 67 59 52 60 55 61 66 62 82 63 53 64 54 65 65 67 83 68
REMARK SMILES IDX 56 69 43 70 44 71 49 72 45 73 46 74 48 75 50 76 47 77 69 78
REMARK SMILES IDX 70 79 75 80 71 81 72 82 74 83 76 84 73 85 57 86 58 87 63 88
REMARK SMILES IDX 59 89 60 90 62 91 64 92 61 93
REMARK H PARENT 24 7 7 19 7 20 31 36 81 55 55 66
REMARK Flexibility Score: inf
ROOT
ATOM      1  C   UNL     1      -2.223  -0.303  -4.361  1.00  0.00     0.002 C 
ENDROOT
BRANCH   1   2
ATOM      2  C   UNL     1      -1.763  -0.554  -2.962  1.00  0.00     0.021 C 
BRANCH   2   3
ATOM      3  C   UNL     1      -0.421   0.009  -2.566  1.00  0.00     0.116 C 
BRANCH   3   4
ATOM      4  N   UNL     1      -0.415   1.414  -2.387  1.00  0.00    -0.354 N 
ATOM      5  C   UNL     1      -0.197   2.073  -1.203  1.00  0.00     0.244 C 
ATOM      6  O   UNL     1      -0.221   3.307  -1.248  1.00  0.00    -0.273 OA
ATOM      7  H   UNL     1      -0.582   1.968  -3.183  1.00  0.00     0.163 HD
BRANCH   5   8
ATOM      8  C   UNL     1       0.213   1.312   0.144  1.00  0.00     0.191 C 
ATOM      9  C   UNL     1       2.520   1.044  -1.025  1.00  0.00     0.026 C 
ATOM     10  C   UNL     1       1.601   0.596   0.120  1.00  0.00     0.042 C 
ATOM     11  C   UNL     1       2.366   0.650   1.450  1.00  0.00     0.026 C 
ATOM     12  S   UNL     1       1.298  -1.221   0.146  1.00  0.00    -0.121 SA
ATOM     13  C   UNL     1      -0.362  -1.078   0.938  1.00  0.00     0.213 C 
ATOM     14  N   UNL     1      -0.736   0.310   0.652  1.00  0.00    -0.306 N 
ATOM     15  C   UNL     1      -1.745  -1.529   0.343  1.00  0.00     0.307 C 
ATOM     16  C   UNL     1      -1.968   0.036   0.154  1.00  0.00     0.285 C 
ATOM     17  O   UNL     1      -2.794   0.804  -0.278  1.00  0.00    -0.268 OA
BRANCH  15  18
ATOM     18  N   UNL     1      -1.755  -2.548  -0.777  1.00  0.00    -0.315 N 
ATOM     19  H   UNL     1      -2.238  -2.131  -1.572  1.00  0.00     0.348 HD
ATOM     20  H   UNL     1      -2.214  -3.373  -0.389  1.00  0.00     0.348 HD
BRANCH  18  21
ATOM     21  C   UNL     1      -0.436  -3.017  -1.247  1.00  0.00     0.415 C 
BRANCH  21  22
ATOM     22  N   UNL     1      -0.256  -3.897  -2.414  1.00  0.00    -0.194 N 
ATOM     23  N   UNL     1      -1.202  -4.740  -2.841  1.00  0.00    -0.061 NA
ATOM     24  C   UNL     1       0.846  -3.870  -3.288  1.00  0.00     0.095 A 
ATOM     25  N   UNL     1      -0.767  -5.268  -3.981  1.00  0.00    -0.130 NA
ATOM     26  C   UNL     1       0.426  -4.686  -4.330  1.00  0.00     0.113 A 
ATOM     27  C   UNL     1       2.056  -3.148  -3.383  1.00  0.00     0.030 A 
ATOM     28  C   UNL     1       1.137  -4.660  -5.548  1.00  0.00     0.032 A 
ATOM     29  C   UNL     1       2.854  -3.345  -4.532  1.00  0.00     0.002 A 
ATOM     30  C   UNL     1       2.386  -4.057  -5.625  1.00  0.00     0.002 A 
ENDBRANCH  21  22
ENDBRANCH  18  21
ENDBRANCH  15  18
ENDBRANCH   5   8
ENDBRANCH   3   4
ENDBRANCH   2   3
ENDBRANCH   1   2
BRANCH   1  31
ATOM     31  C   UNL     1      -1.238  -0.891  -5.353  1.00  0.00     0.002 C 
BRANCH  31  32
ATOM     32  C   UNL     1      -1.197  -2.410  -5.291  1.00  0.00     0.021 C 
BRANCH  32  33
ATOM     33  C   UNL     1      -2.472  -3.249  -5.356  1.00  0.00     0.116 C 
BRANCH  33  34
ATOM     34  N   UNL     1      -2.911  -3.286  -6.709  1.00  0.00    -0.352 N 
ATOM     35  C   UNL     1      -2.943  -4.252  -7.667  1.00  0.00     0.251 C 
ATOM     36  H   UNL     1      -3.271  -2.424  -7.019  1.00  0.00     0.163 HD
ATOM     37  O   UNL     1      -3.364  -3.833  -8.754  1.00  0.00    -0.269 OA
BRANCH  35  38
ATOM     38  C   UNL     1      -2.399  -5.658  -7.655  1.00  0.00     0.039 A 
ATOM     39  C   UNL     1      -1.617  -6.309  -6.736  1.00  0.00     0.014 A 
ATOM     40  C   UNL     1      -2.140  -6.102  -8.969  1.00  0.00     0.014 A 
ATOM     41  C   UNL     1      -0.365  -6.894  -7.326  1.00  0.00     0.010 A 
ATOM     42  C   UNL     1      -1.256  -7.124  -9.258  1.00  0.00     0.010 A 
ATOM     43  C   UNL     1      -0.044  -6.750  -8.816  1.00  0.00    -0.014 A 
BRANCH  43  44
ATOM     44  C   UNL     1       1.150  -7.243  -9.998  1.00  0.00     0.031 A 
ATOM     45  C   UNL     1       1.021  -8.897  -9.256  1.00  0.00     0.074 A 
ATOM     46  C   UNL     1       2.074  -6.426 -11.375  1.00  0.00     0.049 A 
ATOM     47  N   UNL     1       1.522  -9.216  -8.101  1.00  0.00    -0.248 NA
ATOM     48  C   UNL     1      -0.248 -10.010  -9.200  1.00  0.00     0.031 C 
ATOM     49  C   UNL     1       2.168  -5.032 -12.373  1.00  0.00     0.029 A 
ATOM     50  N   UNL     1       3.290  -6.829 -12.120  1.00  0.00    -0.354 N 
ATOM     51  C   UNL     1       1.478 -10.641  -8.073  1.00  0.00     0.074 A 
ATOM     52  C   UNL     1       0.246 -11.091  -8.549  1.00  0.00     0.031 C 
ATOM     53  C   UNL     1       2.907  -5.215 -13.631  1.00  0.00     0.029 A 
ATOM     54  C   UNL     1       3.623  -6.477 -13.514  1.00  0.00     0.049 A 
ATOM     55  H   UNL     1       3.941  -7.386 -11.636  1.00  0.00     0.167 HD
ATOM     56  C   UNL     1       2.608 -11.318  -8.313  1.00  0.00     0.037 A 
ATOM     57  C   UNL     1       4.384  -7.059 -14.549  1.00  0.00     0.037 A 
ATOM     58  C   UNL     1       3.662 -10.361  -8.262  1.00  0.00     0.049 A 
ATOM     59  C   UNL     1       4.882  -8.164 -13.721  1.00  0.00     0.074 A 
ATOM     60  C   UNL     1       4.051  -9.499  -7.260  1.00  0.00     0.029 A 
ATOM     61  N   UNL     1       3.859  -9.735  -9.451  1.00  0.00    -0.354 N 
ATOM     62  N   UNL     1       5.702  -7.958 -12.713  1.00  0.00    -0.248 NA
ATOM     63  C   UNL     1       3.842  -9.193 -13.580  1.00  0.00     0.031 C 
ATOM     64  C   UNL     1       4.452  -8.302  -7.890  1.00  0.00     0.029 A 
ATOM     65  C   UNL     1       4.425  -8.518  -9.259  1.00  0.00     0.049 A 
ATOM     66  H   UNL     1       3.623 -10.112 -10.329  1.00  0.00     0.167 HD
ATOM     67  C   UNL     1       5.009  -8.461 -11.613  1.00  0.00     0.074 A 
ATOM     68  C   UNL     1       3.874  -9.295 -12.241  1.00  0.00     0.031 C 
ATOM     69  C   UNL     1       4.965  -7.811 -10.369  1.00  0.00     0.037 A 
BRANCH  56  70
ATOM     70  C   UNL     1       2.755 -12.627  -8.997  1.00  0.00     0.057 A 
ATOM     71  C   UNL     1       1.999 -13.219 -10.033  1.00  0.00     0.134 A 
ATOM     72  C   UNL     1       3.954 -13.240  -8.656  1.00  0.00     0.134 A 
ATOM     73  F   UNL     1       0.829 -12.724 -10.468  1.00  0.00    -0.206 F 
ATOM     74  C   UNL     1       2.476 -14.341 -10.718  1.00  0.00     0.040 A 
ATOM     75  C   UNL     1       4.495 -14.256  -9.416  1.00  0.00     0.040 A 
ATOM     76  F   UNL     1       4.646 -12.807  -7.592  1.00  0.00    -0.206 F 
ATOM     77  C   UNL     1       3.774 -14.782 -10.480  1.00  0.00     0.006 A 
ENDBRANCH  56  70
BRANCH  57  78
ATOM     78  C   UNL     1       4.057  -7.256 -16.081  1.00  0.00     0.057 A 
ATOM     79  C   UNL     1       2.689  -7.279 -16.390  1.00  0.00     0.134 A 
ATOM     80  C   UNL     1       4.862  -7.708 -17.182  1.00  0.00     0.134 A 
ATOM     81  F   UNL     1       1.806  -6.920 -15.454  1.00  0.00    -0.206 F 
ATOM     82  C   UNL     1       2.134  -7.707 -17.610  1.00  0.00     0.040 A 
ATOM     83  C   UNL     1       4.313  -8.056 -18.468  1.00  0.00     0.040 A 
ATOM     84  F   UNL     1       6.194  -7.857 -17.078  1.00  0.00    -0.206 F 
ATOM     85  C   UNL     1       2.939  -8.036 -18.683  1.00  0.00     0.006 A 
ENDBRANCH  57  78
BRANCH  69  86
ATOM     86  C   UNL     1       5.664  -6.471 -10.005  1.00  0.00     0.057 A 
ATOM     87  C   UNL     1       6.823  -6.593  -9.257  1.00  0.00     0.134 A 
ATOM     88  C   UNL     1       5.236  -5.119 -10.139  1.00  0.00     0.134 A 
ATOM     89  F   UNL     1       7.195  -7.797  -8.806  1.00  0.00    -0.206 F 
ATOM     90  C   UNL     1       7.613  -5.497  -8.909  1.00  0.00     0.040 A 
ATOM     91  C   UNL     1       6.089  -4.018  -9.963  1.00  0.00     0.040 A 
ATOM     92  F   UNL     1       3.963  -4.786 -10.371  1.00  0.00    -0.206 F 
ATOM     93  C   UNL     1       7.332  -4.233  -9.409  1.00  0.00     0.006 A 
ENDBRANCH  69  86
ENDBRANCH  43  44
ENDBRANCH  35  38
ENDBRANCH  33  34
ENDBRANCH  32  33
ENDBRANCH  31  32
ENDBRANCH   1  31
TORSDOF 16
