REMARK SMILES CNC(=O)c1cc(S(=O)(=O)N2CCC(C(=O)NCCCCCCNC(=O)c3ccc(-c4c5nc(c(-c6c(F)cccc6F)c6ccc([nH]6)c(-c6c(F)cccc6F)c6nc(c(-c7c(F)cccc7F)c7ccc4[nH]7)C=C6)C=C5)cc3)CC2)ccc1OC
REMARK SMILES IDX 20 1 19 2 18 3 17 4 15 5 16 6 14 8 11 9 12 10 82 11 13 12
REMARK SMILES IDX 81 13 8 14 9 15 10 16 7 17 5 18 6 19 85 20 84 21 83 22 3 23
REMARK SMILES IDX 1 24 2 25 4 27 86 28 87 29 21 30 22 31 23 32 24 33 25 34
REMARK SMILES IDX 26 36 27 37 28 38 80 39 29 40 79 41 30 42 31 43 32 44 73 45
REMARK SMILES IDX 33 46 78 47 72 48 74 49 34 50 77 51 71 52 70 53 35 55 61 56
REMARK SMILES IDX 44 57 60 58 45 59 48 60 59 61 75 62 46 63 47 64 58 66 76 67
REMARK SMILES IDX 49 68 36 69 37 70 42 71 38 72 39 73 41 74 43 75 40 76 62 77
REMARK SMILES IDX 63 78 68 79 64 80 65 81 67 82 69 83 66 84 50 85 51 86 56 87
REMARK SMILES IDX 52 88 53 89 55 90 57 91 54 92
REMARK H PARENT 17 7 2 26 24 35 74 54 48 65
REMARK Flexibility Score: inf
ROOT
ATOM      1  C   UNL     1      -3.209  -5.407 -12.040  1.00  0.00     0.002 C 
ENDROOT
BRANCH   1   2
ATOM      2  C   UNL     1      -2.599  -4.414 -11.049  1.00  0.00     0.021 C 
BRANCH   2   3
ATOM      3  C   UNL     1      -3.563  -3.963  -9.959  1.00  0.00     0.116 C 
BRANCH   3   4
ATOM      4  N   UNL     1      -3.830  -5.029  -9.010  1.00  0.00    -0.356 N 
ATOM      5  C   UNL     1      -3.607  -5.108  -7.672  1.00  0.00     0.223 C 
ATOM      6  O   UNL     1      -3.910  -6.152  -7.091  1.00  0.00    -0.275 OA
ATOM      7  H   UNL     1      -4.244  -5.831  -9.403  1.00  0.00     0.163 HD
BRANCH   5   8
ATOM      8  C   UNL     1      -3.015  -3.944  -6.896  1.00  0.00     0.081 C 
ATOM      9  N   UNL     1      -1.928  -1.290  -6.568  1.00  0.00    -0.198 NA
ATOM     10  C   UNL     1      -1.006  -2.450  -6.596  1.00  0.00     0.103 C 
ATOM     11  C   UNL     1      -3.363  -1.507  -6.269  1.00  0.00     0.103 C 
ATOM     12  C   UNL     1      -1.587  -3.640  -7.329  1.00  0.00     0.030 C 
ATOM     13  C   UNL     1      -3.944  -2.736  -6.934  1.00  0.00     0.030 C 
BRANCH   9  14
ATOM     14  S   UNL     1      -1.262   0.136  -5.884  1.00  0.00     0.243 S 
ATOM     15  O   UNL     1      -2.226   1.201  -6.086  1.00  0.00    -0.207 OA
ATOM     16  O   UNL     1       0.102   0.251  -6.343  1.00  0.00    -0.207 OA
BRANCH  14  17
ATOM     17  C   UNL     1      -1.176  -0.127  -4.118  1.00  0.00     0.083 A 
ATOM     18  C   UNL     1      -0.579   0.789  -1.957  1.00  0.00     0.083 A 
ATOM     19  C   UNL     1      -0.668   0.924  -3.350  1.00  0.00     0.039 A 
ATOM     20  C   UNL     1      -1.068  -0.361  -1.325  1.00  0.00     0.131 A 
ATOM     21  C   UNL     1      -1.532  -1.421  -2.100  1.00  0.00     0.048 A 
ATOM     22  C   UNL     1      -1.580  -1.308  -3.489  1.00  0.00     0.025 A 
BRANCH  18  23
ATOM     23  C   UNL     1       0.072   1.889  -1.226  1.00  0.00     0.254 C 
ATOM     24  C   UNL     1       1.918   0.386  -0.361  1.00  0.00     0.143 C 
ATOM     25  N   UNL     1       1.208   1.638  -0.501  1.00  0.00    -0.355 N 
ATOM     26  H   UNL     1       1.589   2.405  -0.016  1.00  0.00     0.163 HD
ATOM     27  O   UNL     1      -0.396   3.020  -1.300  1.00  0.00    -0.269 OA
ENDBRANCH  18  23
BRANCH  20  28
ATOM     28  O   UNL     1      -1.087  -0.585   0.024  1.00  0.00    -0.496 OA
ATOM     29  C   UNL     1      -1.776   0.431   0.755  1.00  0.00     0.278 C 
ENDBRANCH  20  28
ENDBRANCH  14  17
ENDBRANCH   9  14
ENDBRANCH   5   8
ENDBRANCH   3   4
ENDBRANCH   2   3
ENDBRANCH   1   2
BRANCH   1  30
ATOM     30  C   UNL     1      -4.499  -4.932 -12.719  1.00  0.00     0.002 C 
BRANCH  30  31
ATOM     31  C   UNL     1      -4.423  -3.549 -13.370  1.00  0.00     0.021 C 
BRANCH  31  32
ATOM     32  C   UNL     1      -3.322  -3.396 -14.412  1.00  0.00     0.116 C 
BRANCH  32  33
ATOM     33  N   UNL     1      -3.513  -4.285 -15.545  1.00  0.00    -0.352 N 
ATOM     34  C   UNL     1      -3.467  -3.990 -16.884  1.00  0.00     0.251 C 
ATOM     35  H   UNL     1      -3.701  -5.225 -15.322  1.00  0.00     0.163 HD
ATOM     36  O   UNL     1      -3.818  -4.818 -17.717  1.00  0.00    -0.269 OA
BRANCH  34  37
ATOM     37  C   UNL     1      -3.009  -2.654 -17.316  1.00  0.00     0.039 A 
ATOM     38  C   UNL     1      -3.764  -1.951 -18.258  1.00  0.00     0.014 A 
ATOM     39  C   UNL     1      -1.839  -2.099 -16.789  1.00  0.00     0.014 A 
ATOM     40  C   UNL     1      -3.372  -0.666 -18.637  1.00  0.00     0.010 A 
ATOM     41  C   UNL     1      -1.485  -0.796 -17.120  1.00  0.00     0.010 A 
ATOM     42  C   UNL     1      -2.244  -0.070 -18.052  1.00  0.00    -0.014 A 
BRANCH  42  43
ATOM     43  C   UNL     1      -1.813   1.301 -18.418  1.00  0.00     0.031 A 
ATOM     44  C   UNL     1      -0.498   1.506 -19.116  1.00  0.00     0.074 A 
ATOM     45  C   UNL     1      -2.562   2.361 -18.058  1.00  0.00     0.049 A 
ATOM     46  N   UNL     1       0.122   2.621 -19.406  1.00  0.00    -0.248 NA
ATOM     47  C   UNL     1       0.231   0.290 -19.515  1.00  0.00     0.031 C 
ATOM     48  C   UNL     1      -3.842   2.295 -17.351  1.00  0.00     0.029 A 
ATOM     49  N   UNL     1      -2.342   3.705 -18.223  1.00  0.00    -0.354 N 
ATOM     50  C   UNL     1       1.320   2.242 -19.997  1.00  0.00     0.074 A 
ATOM     51  C   UNL     1       1.361   0.796 -19.987  1.00  0.00     0.031 C 
ATOM     52  C   UNL     1      -4.299   3.542 -17.154  1.00  0.00     0.029 A 
ATOM     53  C   UNL     1      -3.328   4.495 -17.685  1.00  0.00     0.049 A 
ATOM     54  H   UNL     1      -1.552   4.069 -18.684  1.00  0.00     0.167 HD
ATOM     55  C   UNL     1       2.291   3.029 -20.519  1.00  0.00     0.037 A 
ATOM     56  C   UNL     1      -3.430   5.835 -17.616  1.00  0.00     0.037 A 
ATOM     57  C   UNL     1       2.233   4.465 -20.558  1.00  0.00     0.049 A 
ATOM     58  C   UNL     1      -2.338   6.687 -18.204  1.00  0.00     0.074 A 
ATOM     59  C   UNL     1       3.144   5.351 -21.106  1.00  0.00     0.029 A 
ATOM     60  N   UNL     1       1.200   5.226 -20.033  1.00  0.00    -0.354 N 
ATOM     61  N   UNL     1      -1.230   6.316 -18.798  1.00  0.00    -0.248 NA
ATOM     62  C   UNL     1      -2.514   8.143 -18.115  1.00  0.00     0.031 C 
ATOM     63  C   UNL     1       2.676   6.651 -20.887  1.00  0.00     0.029 A 
ATOM     64  C   UNL     1       1.455   6.572 -20.237  1.00  0.00     0.049 A 
ATOM     65  H   UNL     1       0.404   4.864 -19.582  1.00  0.00     0.167 HD
ATOM     66  C   UNL     1      -0.594   7.489 -19.183  1.00  0.00     0.074 A 
ATOM     67  C   UNL     1      -1.443   8.584 -18.761  1.00  0.00     0.031 C 
ATOM     68  C   UNL     1       0.586   7.646 -19.830  1.00  0.00     0.037 A 
BRANCH  55  69
ATOM     69  C   UNL     1       3.496   2.346 -21.096  1.00  0.00     0.057 A 
ATOM     70  C   UNL     1       3.432   1.630 -22.298  1.00  0.00     0.134 A 
ATOM     71  C   UNL     1       4.739   2.428 -20.457  1.00  0.00     0.134 A 
ATOM     72  F   UNL     1       2.268   1.502 -22.952  1.00  0.00    -0.206 F 
ATOM     73  C   UNL     1       4.556   0.998 -22.831  1.00  0.00     0.040 A 
ATOM     74  C   UNL     1       5.876   1.821 -20.994  1.00  0.00     0.040 A 
ATOM     75  F   UNL     1       4.871   3.102 -19.304  1.00  0.00    -0.206 F 
ATOM     76  C   UNL     1       5.785   1.098 -22.181  1.00  0.00     0.006 A 
ENDBRANCH  55  69
BRANCH  56  77
ATOM     77  C   UNL     1      -4.618   6.461 -16.986  1.00  0.00     0.057 A 
ATOM     78  C   UNL     1      -5.575   7.127 -17.761  1.00  0.00     0.134 A 
ATOM     79  C   UNL     1      -4.821   6.422 -15.602  1.00  0.00     0.134 A 
ATOM     80  F   UNL     1      -5.425   7.213 -19.090  1.00  0.00    -0.206 F 
ATOM     81  C   UNL     1      -6.681   7.750 -17.180  1.00  0.00     0.040 A 
ATOM     82  C   UNL     1      -5.934   7.021 -15.010  1.00  0.00     0.040 A 
ATOM     83  F   UNL     1      -3.944   5.793 -14.806  1.00  0.00    -0.206 F 
ATOM     84  C   UNL     1      -6.864   7.694 -15.800  1.00  0.00     0.006 A 
ENDBRANCH  56  77
BRANCH  68  85
ATOM     85  C   UNL     1       1.004   9.045 -20.169  1.00  0.00     0.057 A 
ATOM     86  C   UNL     1       1.492   9.927 -19.199  1.00  0.00     0.134 A 
ATOM     87  C   UNL     1       0.960   9.495 -21.495  1.00  0.00     0.134 A 
ATOM     88  F   UNL     1       1.546   9.559 -17.910  1.00  0.00    -0.206 F 
ATOM     89  C   UNL     1       1.908  11.217 -19.533  1.00  0.00     0.040 A 
ATOM     90  C   UNL     1       1.395  10.774 -21.844  1.00  0.00     0.040 A 
ATOM     91  F   UNL     1       0.509   8.695 -22.472  1.00  0.00    -0.206 F 
ATOM     92  C   UNL     1       1.867  11.640 -20.860  1.00  0.00     0.006 A 
ENDBRANCH  68  85
ENDBRANCH  42  43
ENDBRANCH  34  37
ENDBRANCH  32  33
ENDBRANCH  31  32
ENDBRANCH  30  31
ENDBRANCH   1  30
TORSDOF 17
