REMARK SMILES Cc1ccc(F)c(-c2ncccc2C(=O)NCCCCCCNC(=O)c2ccc(-c3c4nc(c(-c5c(F)cccc5F)c5ccc([nH]5)c(-c5c(F)cccc5F)c5nc(c(-c6c(F)cccc6F)c6ccc3[nH]6)C=C5)C=C4)cc2)c1
REMARK SMILES IDX 20 1 19 2 18 3 17 4 16 5 14 6 15 7 13 9 8 10 9 11 10 12
REMARK SMILES IDX 12 13 11 14 7 15 1 16 2 17 3 18 80 19 4 20 5 21 6 22 21 23
REMARK SMILES IDX 22 24 23 25 24 26 25 28 26 29 27 30 79 31 28 32 78 33 29 34
REMARK SMILES IDX 30 35 31 36 72 37 32 38 77 39 71 40 73 41 33 42 76 43 70 44
REMARK SMILES IDX 69 45 34 47 60 48 43 49 59 50 44 51 47 52 58 53 74 54 45 55
REMARK SMILES IDX 46 56 57 58 75 59 48 60 35 61 36 62 41 63 37 64 38 65 40 66
REMARK SMILES IDX 42 67 39 68 61 69 62 70 67 71 63 72 64 73 66 74 68 75 65 76
REMARK SMILES IDX 49 77 50 78 55 79 51 80 52 81 54 82 56 83 53 84
REMARK H PARENT 16 8 23 27 73 46 47 57
REMARK Flexibility Score: inf
ROOT
ATOM      1  C   UNL     1       0.637  -6.178   6.094  1.00  0.00     0.002 C 
ENDROOT
BRANCH   1   2
ATOM      2  C   UNL     1       1.262  -6.062   4.697  1.00  0.00     0.002 C 
BRANCH   2   3
ATOM      3  C   UNL     1       0.280  -6.219   3.524  1.00  0.00     0.021 C 
BRANCH   3   4
ATOM      4  C   UNL     1      -0.888  -5.235   3.572  1.00  0.00     0.116 C 
BRANCH   4   5
ATOM      5  N   UNL     1      -0.448  -3.905   3.212  1.00  0.00    -0.352 N 
ATOM      6  C   UNL     1      -0.521  -3.075   2.128  1.00  0.00     0.253 C 
ATOM      7  O   UNL     1       0.031  -1.991   2.328  1.00  0.00    -0.269 OA
ATOM      8  H   UNL     1       0.040  -3.480   3.954  1.00  0.00     0.163 HD
BRANCH   6   9
ATOM      9  C   UNL     1      -1.217  -3.355   0.826  1.00  0.00     0.066 A 
ATOM     10  C   UNL     1      -1.308  -2.353  -0.166  1.00  0.00     0.086 A 
ATOM     11  N   UNL     1      -2.044  -2.503  -1.312  1.00  0.00    -0.255 NA
ATOM     12  C   UNL     1      -2.699  -3.659  -1.505  1.00  0.00     0.112 A 
ATOM     13  C   UNL     1      -1.839  -4.572   0.518  1.00  0.00     0.018 A 
ATOM     14  C   UNL     1      -2.607  -4.723  -0.638  1.00  0.00     0.021 A 
BRANCH  10  15
ATOM     15  C   UNL     1      -0.565  -1.085  -0.162  1.00  0.00     0.037 A 
ATOM     16  C   UNL     1       3.070   0.105  -0.195  1.00  0.00     0.044 C 
ATOM     17  C   UNL     1       1.570   0.123  -0.196  1.00  0.00    -0.050 A 
ATOM     18  C   UNL     1       0.879   1.335  -0.095  1.00  0.00     0.006 A 
ATOM     19  C   UNL     1       0.842  -1.074  -0.262  1.00  0.00     0.016 A 
ATOM     20  C   UNL     1      -0.514   1.346  -0.036  1.00  0.00     0.040 A 
ATOM     21  C   UNL     1      -1.222   0.145  -0.061  1.00  0.00     0.132 A 
ATOM     22  F   UNL     1      -2.560   0.195   0.039  1.00  0.00    -0.206 F 
ENDBRANCH  10  15
ENDBRANCH   6   9
ENDBRANCH   4   5
ENDBRANCH   3   4
ENDBRANCH   2   3
ENDBRANCH   1   2
BRANCH   1  23
ATOM     23  C   UNL     1      -0.243  -7.411   6.310  1.00  0.00     0.021 C 
BRANCH  23  24
ATOM     24  C   UNL     1       0.486  -8.738   6.136  1.00  0.00     0.116 C 
BRANCH  24  25
ATOM     25  N   UNL     1       1.492  -8.940   7.165  1.00  0.00    -0.352 N 
ATOM     26  C   UNL     1       1.642  -9.991   8.033  1.00  0.00     0.251 C 
ATOM     27  H   UNL     1       2.160  -8.221   7.250  1.00  0.00     0.163 HD
ATOM     28  O   UNL     1       2.413  -9.906   8.983  1.00  0.00    -0.269 OA
BRANCH  26  29
ATOM     29  C   UNL     1       0.858 -11.227   7.827  1.00  0.00     0.039 A 
ATOM     30  C   UNL     1       0.243 -11.831   8.926  1.00  0.00     0.014 A 
ATOM     31  C   UNL     1       0.746 -11.796   6.555  1.00  0.00     0.014 A 
ATOM     32  C   UNL     1      -0.525 -12.982   8.742  1.00  0.00     0.010 A 
ATOM     33  C   UNL     1      -0.077 -12.901   6.362  1.00  0.00     0.010 A 
ATOM     34  C   UNL     1      -0.712 -13.511   7.454  1.00  0.00    -0.014 A 
BRANCH  34  35
ATOM     35  C   UNL     1      -1.549 -14.716   7.230  1.00  0.00     0.031 A 
ATOM     36  C   UNL     1      -0.920 -15.981   6.716  1.00  0.00     0.074 A 
ATOM     37  C   UNL     1      -2.879 -14.653   7.430  1.00  0.00     0.049 A 
ATOM     38  N   UNL     1      -1.489 -17.110   6.379  1.00  0.00    -0.248 NA
ATOM     39  C   UNL     1       0.540 -15.966   6.531  1.00  0.00     0.031 C 
ATOM     40  C   UNL     1      -3.612 -13.472   7.891  1.00  0.00     0.029 A 
ATOM     41  N   UNL     1      -3.854 -15.603   7.259  1.00  0.00    -0.354 N 
ATOM     42  C   UNL     1      -0.462 -17.931   5.930  1.00  0.00     0.074 A 
ATOM     43  C   UNL     1       0.756 -17.153   5.986  1.00  0.00     0.031 C 
ATOM     44  C   UNL     1      -4.917 -13.775   7.986  1.00  0.00     0.029 A 
ATOM     45  C   UNL     1      -5.118 -15.155   7.557  1.00  0.00     0.049 A 
ATOM     46  H   UNL     1      -3.665 -16.519   6.952  1.00  0.00     0.167 HD
ATOM     47  C   UNL     1      -0.524 -19.223   5.530  1.00  0.00     0.037 A 
ATOM     48  C   UNL     1      -6.305 -15.786   7.486  1.00  0.00     0.037 A 
ATOM     49  C   UNL     1      -1.734 -20.002   5.500  1.00  0.00     0.049 A 
ATOM     50  C   UNL     1      -6.349 -17.218   7.027  1.00  0.00     0.074 A 
ATOM     51  C   UNL     1      -1.895 -21.333   5.158  1.00  0.00     0.029 A 
ATOM     52  N   UNL     1      -2.992 -19.517   5.826  1.00  0.00    -0.354 N 
ATOM     53  N   UNL     1      -5.363 -17.999   6.659  1.00  0.00    -0.248 NA
ATOM     54  C   UNL     1      -7.671 -17.858   6.980  1.00  0.00     0.031 C 
ATOM     55  C   UNL     1      -3.257 -21.643   5.239  1.00  0.00     0.029 A 
ATOM     56  C   UNL     1      -3.937 -20.518   5.677  1.00  0.00     0.049 A 
ATOM     57  H   UNL     1      -3.185 -18.598   6.121  1.00  0.00     0.167 HD
ATOM     58  C   UNL     1      -5.939 -19.229   6.368  1.00  0.00     0.074 A 
ATOM     59  C   UNL     1      -7.360 -19.092   6.613  1.00  0.00     0.031 C 
ATOM     60  C   UNL     1      -5.346 -20.369   5.939  1.00  0.00     0.037 A 
BRANCH  47  61
ATOM     61  C   UNL     1       0.756 -19.876   5.098  1.00  0.00     0.057 A 
ATOM     62  C   UNL     1       1.770 -20.190   6.013  1.00  0.00     0.134 A 
ATOM     63  C   UNL     1       0.967 -20.223   3.757  1.00  0.00     0.134 A 
ATOM     64  F   UNL     1       1.637 -19.873   7.310  1.00  0.00    -0.206 F 
ATOM     65  C   UNL     1       2.958 -20.800   5.607  1.00  0.00     0.040 A 
ATOM     66  C   UNL     1       2.139 -20.859   3.344  1.00  0.00     0.040 A 
ATOM     67  F   UNL     1       0.036 -19.956   2.829  1.00  0.00    -0.206 F 
ATOM     68  C   UNL     1       3.142 -21.143   4.269  1.00  0.00     0.006 A 
ENDBRANCH  47  61
BRANCH  48  69
ATOM     69  C   UNL     1      -7.550 -15.079   7.879  1.00  0.00     0.057 A 
ATOM     70  C   UNL     1      -8.245 -15.435   9.040  1.00  0.00     0.134 A 
ATOM     71  C   UNL     1      -8.081 -14.042   7.102  1.00  0.00     0.134 A 
ATOM     72  F   UNL     1      -7.795 -16.433   9.816  1.00  0.00    -0.206 F 
ATOM     73  C   UNL     1      -9.434 -14.803   9.405  1.00  0.00     0.040 A 
ATOM     74  C   UNL     1      -9.257 -13.384   7.467  1.00  0.00     0.040 A 
ATOM     75  F   UNL     1      -7.459 -13.648   5.981  1.00  0.00    -0.206 F 
ATOM     76  C   UNL     1      -9.941 -13.771   8.618  1.00  0.00     0.006 A 
ENDBRANCH  48  69
BRANCH  60  77
ATOM     77  C   UNL     1      -6.223 -21.570   5.748  1.00  0.00     0.057 A 
ATOM     78  C   UNL     1      -7.121 -21.671   4.678  1.00  0.00     0.134 A 
ATOM     79  C   UNL     1      -6.138 -22.659   6.626  1.00  0.00     0.134 A 
ATOM     80  F   UNL     1      -7.259 -20.657   3.810  1.00  0.00    -0.206 F 
ATOM     81  C   UNL     1      -7.918 -22.802   4.499  1.00  0.00     0.040 A 
ATOM     82  C   UNL     1      -6.910 -23.806   6.443  1.00  0.00     0.040 A 
ATOM     83  F   UNL     1      -5.292 -22.630   7.667  1.00  0.00    -0.206 F 
ATOM     84  C   UNL     1      -7.807 -23.878   5.380  1.00  0.00     0.006 A 
ENDBRANCH  60  77
ENDBRANCH  34  35
ENDBRANCH  26  29
ENDBRANCH  24  25
ENDBRANCH  23  24
ENDBRANCH   1  23
TORSDOF 14
