REMARK SMILES C[C@@H](C(=O)NCCCCCCNC(=O)c1ccc(-c2c3nc(c(-c4c(F)cccc4F)c4ccc([nH]4)c(-c4c(F)cccc4F)c4nc(c(-c5c(F)cccc5F)c5ccc2[nH]5)C=C4)C=C3)cc1)c1ccc(C[SiH](C)C)cc1
REMARK SMILES IDX 8 1 7 2 6 3 5 4 3 5 4 6 2 8 1 9 69 10 70 11 78 12 71 13
REMARK SMILES IDX 77 14 72 15 73 16 74 17 75 18 76 19 9 21 10 22 11 23 12 24
REMARK SMILES IDX 13 25 14 27 15 28 16 29 68 30 17 31 67 32 18 33 19 34 20 35
REMARK SMILES IDX 61 36 21 37 66 38 60 39 62 40 22 41 65 42 59 43 58 44 23 46
REMARK SMILES IDX 49 47 32 48 48 49 33 50 36 51 47 52 63 53 34 54 35 55 46 57
REMARK SMILES IDX 64 58 37 59 24 60 25 61 30 62 26 63 27 64 29 65 31 66 28 67
REMARK SMILES IDX 50 68 51 69 56 70 52 71 53 72 55 73 57 74 54 75 38 76 39 77
REMARK SMILES IDX 44 78 40 79 41 80 43 81 45 82 42 83
REMARK H PARENT 5 7 74 20 12 26 62 45 36 56
REMARK Flexibility Score: inf
ROOT
ATOM      1  C   UNL     1       4.925  -1.618  -2.260  1.00  0.00     0.002 C 
ENDROOT
BRANCH   1   2
ATOM      2  C   UNL     1       4.203  -0.689  -1.275  1.00  0.00     0.021 C 
BRANCH   2   3
ATOM      3  C   UNL     1       3.354   0.398  -1.939  1.00  0.00     0.116 C 
BRANCH   3   4
ATOM      4  N   UNL     1       2.281  -0.192  -2.709  1.00  0.00    -0.356 N 
ATOM      5  C   UNL     1       0.954  -0.324  -2.418  1.00  0.00     0.227 C 
ATOM      6  O   UNL     1       0.291  -1.025  -3.185  1.00  0.00    -0.274 OA
ATOM      7  H   UNL     1       2.550  -0.556  -3.583  1.00  0.00     0.163 HD
BRANCH   5   8
ATOM      8  C   UNL     1       0.359   0.412  -1.208  1.00  0.00     0.105 C 
ATOM      9  C   UNL     1       0.786  -0.209   0.128  1.00  0.00     0.023 C 
BRANCH   8  10
ATOM     10  C   UNL     1      -1.163   0.494  -1.268  1.00  0.00    -0.036 A 
ATOM     11  C   UNL     1      -1.796   1.726  -1.469  1.00  0.00     0.005 A 
ATOM     12  C   UNL     1      -1.958  -0.651  -1.105  1.00  0.00     0.005 A 
ATOM     13  C   UNL     1      -3.190   1.814  -1.471  1.00  0.00     0.004 A 
ATOM     14  C   UNL     1      -3.349  -0.561  -1.090  1.00  0.00     0.004 A 
ATOM     15  C   UNL     1      -3.980   0.676  -1.256  1.00  0.00    -0.051 A 
BRANCH  15  16
ATOM     16  C   UNL     1      -5.485   0.779  -1.178  1.00  0.00     0.021 C 
BRANCH  16  17
ATOM     17  Si  UNL     1      -6.168   1.442   0.458  1.00  0.00     0.035 Si
ATOM     18  C   UNL     1      -5.611   3.199   0.737  1.00  0.00    -0.013 C 
ATOM     19  C   UNL     1      -8.029   1.352   0.445  1.00  0.00    -0.013 C 
ATOM     20  H   UNL     1      -5.668   0.642   1.519  1.00  0.00     0.014 H 
ENDBRANCH  16  17
ENDBRANCH  15  16
ENDBRANCH   8  10
ENDBRANCH   5   8
ENDBRANCH   3   4
ENDBRANCH   2   3
ENDBRANCH   1   2
BRANCH   1  21
ATOM     21  C   UNL     1       5.850  -0.918  -3.260  1.00  0.00     0.002 C 
BRANCH  21  22
ATOM     22  C   UNL     1       6.913  -0.010  -2.636  1.00  0.00     0.021 C 
BRANCH  22  23
ATOM     23  C   UNL     1       7.856  -0.705  -1.660  1.00  0.00     0.116 C 
BRANCH  23  24
ATOM     24  N   UNL     1       8.672  -1.717  -2.308  1.00  0.00    -0.352 N 
ATOM     25  C   UNL     1      10.016  -1.953  -2.188  1.00  0.00     0.251 C 
ATOM     26  H   UNL     1       8.191  -2.319  -2.921  1.00  0.00     0.163 HD
ATOM     27  O   UNL     1      10.570  -2.751  -2.945  1.00  0.00    -0.269 OA
BRANCH  25  28
ATOM     28  C   UNL     1      10.813  -1.245  -1.164  1.00  0.00     0.039 A 
ATOM     29  C   UNL     1      12.078  -0.763  -1.513  1.00  0.00     0.014 A 
ATOM     30  C   UNL     1      10.344  -1.093   0.145  1.00  0.00     0.014 A 
ATOM     31  C   UNL     1      12.860  -0.105  -0.561  1.00  0.00     0.010 A 
ATOM     32  C   UNL     1      11.097  -0.381   1.076  1.00  0.00     0.010 A 
ATOM     33  C   UNL     1      12.370   0.102   0.738  1.00  0.00    -0.014 A 
BRANCH  33  34
ATOM     34  C   UNL     1      13.200   0.777   1.766  1.00  0.00     0.031 A 
ATOM     35  C   UNL     1      13.699   0.005   2.956  1.00  0.00     0.074 A 
ATOM     36  C   UNL     1      13.471   2.091   1.652  1.00  0.00     0.049 A 
ATOM     37  N   UNL     1      14.409   0.420   3.974  1.00  0.00    -0.248 NA
ATOM     38  C   UNL     1      13.329  -1.418   3.023  1.00  0.00     0.031 C 
ATOM     39  C   UNL     1      13.009   2.961   0.570  1.00  0.00     0.029 A 
ATOM     40  N   UNL     1      14.202   2.924   2.461  1.00  0.00    -0.354 N 
ATOM     41  C   UNL     1      14.548  -0.680   4.811  1.00  0.00     0.074 A 
ATOM     42  C   UNL     1      13.814  -1.769   4.205  1.00  0.00     0.031 C 
ATOM     43  C   UNL     1      13.490   4.200   0.768  1.00  0.00     0.029 A 
ATOM     44  C   UNL     1      14.272   4.216   2.000  1.00  0.00     0.049 A 
ATOM     45  H   UNL     1      14.634   2.624   3.293  1.00  0.00     0.167 HD
ATOM     46  C   UNL     1      15.243  -0.781   5.969  1.00  0.00     0.037 A 
ATOM     47  C   UNL     1      14.903   5.289   2.512  1.00  0.00     0.037 A 
ATOM     48  C   UNL     1      16.011   0.289   6.548  1.00  0.00     0.049 A 
ATOM     49  C   UNL     1      15.696   5.143   3.781  1.00  0.00     0.074 A 
ATOM     50  C   UNL     1      16.807   0.266   7.680  1.00  0.00     0.029 A 
ATOM     51  N   UNL     1      16.082   1.574   6.035  1.00  0.00    -0.354 N 
ATOM     52  N   UNL     1      15.874   4.080   4.526  1.00  0.00    -0.248 NA
ATOM     53  C   UNL     1      16.384   6.345   4.273  1.00  0.00     0.031 C 
ATOM     54  C   UNL     1      17.337   1.547   7.868  1.00  0.00     0.029 A 
ATOM     55  C   UNL     1      16.899   2.357   6.833  1.00  0.00     0.049 A 
ATOM     56  H   UNL     1      15.620   1.885   5.223  1.00  0.00     0.167 HD
ATOM     57  C   UNL     1      16.720   4.474   5.555  1.00  0.00     0.074 A 
ATOM     58  C   UNL     1      17.024   5.873   5.333  1.00  0.00     0.031 C 
ATOM     59  C   UNL     1      17.203   3.743   6.588  1.00  0.00     0.037 A 
BRANCH  46  60
ATOM     60  C   UNL     1      15.206  -2.100   6.682  1.00  0.00     0.057 A 
ATOM     61  C   UNL     1      15.878  -3.226   6.189  1.00  0.00     0.134 A 
ATOM     62  C   UNL     1      14.507  -2.241   7.887  1.00  0.00     0.134 A 
ATOM     63  F   UNL     1      16.555  -3.161   5.032  1.00  0.00    -0.206 F 
ATOM     64  C   UNL     1      15.833  -4.453   6.854  1.00  0.00     0.040 A 
ATOM     65  C   UNL     1      14.475  -3.456   8.574  1.00  0.00     0.040 A 
ATOM     66  F   UNL     1      13.845  -1.202   8.417  1.00  0.00    -0.206 F 
ATOM     67  C   UNL     1      15.134  -4.568   8.054  1.00  0.00     0.006 A 
ENDBRANCH  46  60
BRANCH  47  68
ATOM     68  C   UNL     1      14.855   6.588   1.798  1.00  0.00     0.057 A 
ATOM     69  C   UNL     1      15.982   7.080   1.129  1.00  0.00     0.134 A 
ATOM     70  C   UNL     1      13.694   7.368   1.771  1.00  0.00     0.134 A 
ATOM     71  F   UNL     1      17.128   6.384   1.137  1.00  0.00    -0.206 F 
ATOM     72  C   UNL     1      15.963   8.312   0.473  1.00  0.00     0.040 A 
ATOM     73  C   UNL     1      13.655   8.592   1.101  1.00  0.00     0.040 A 
ATOM     74  F   UNL     1      12.581   6.947   2.387  1.00  0.00    -0.206 F 
ATOM     75  C   UNL     1      14.794   9.070   0.455  1.00  0.00     0.006 A 
ENDBRANCH  47  68
BRANCH  59  76
ATOM     76  C   UNL     1      18.145   4.431   7.530  1.00  0.00     0.057 A 
ATOM     77  C   UNL     1      17.698   5.368   8.470  1.00  0.00     0.134 A 
ATOM     78  C   UNL     1      19.512   4.127   7.516  1.00  0.00     0.134 A 
ATOM     79  F   UNL     1      16.402   5.711   8.524  1.00  0.00    -0.206 F 
ATOM     80  C   UNL     1      18.582   5.995   9.348  1.00  0.00     0.040 A 
ATOM     81  C   UNL     1      20.402   4.731   8.404  1.00  0.00     0.040 A 
ATOM     82  F   UNL     1      20.002   3.233   6.644  1.00  0.00    -0.206 F 
ATOM     83  C   UNL     1      19.938   5.673   9.320  1.00  0.00     0.006 A 
ENDBRANCH  59  76
ENDBRANCH  33  34
ENDBRANCH  25  28
ENDBRANCH  23  24
ENDBRANCH  22  23
ENDBRANCH  21  22
ENDBRANCH   1  21
TORSDOF 16
