REMARK SMILES C[C@H](NC(=O)N1CC[C@@H](C(=O)NCCCCCCNC(=O)c2ccc(-c3c4nc(c(-c5c(F)cccc5F)c5ccc([nH]5)c(-c5c(F)cccc5F)c5nc(c(-c6c(F)cccc6F)c6ccc3[nH]6)C=C5)C=C4)cc2)[C@H]1C)c1ccc(Cl)cc1
REMARK SMILES IDX 15 1 14 2 13 3 12 4 10 5 11 6 9 8 6 9 7 10 76 11 8 12 77 13
REMARK SMILES IDX 4 14 3 15 5 17 2 18 1 19 78 20 79 21 84 22 80 23 83 24 81 25
REMARK SMILES IDX 82 26 16 27 17 28 18 29 19 30 20 31 21 33 22 34 23 35 75 36
REMARK SMILES IDX 24 37 74 38 25 39 26 40 27 41 68 42 28 43 73 44 67 45 69 46
REMARK SMILES IDX 29 47 72 48 66 49 65 50 30 52 56 53 39 54 55 55 40 56 43 57
REMARK SMILES IDX 54 58 70 59 41 60 42 61 53 63 71 64 44 65 31 66 32 67 37 68
REMARK SMILES IDX 33 69 34 70 36 71 38 72 35 73 57 74 58 75 63 76 59 77 60 78
REMARK SMILES IDX 62 79 64 80 61 81 45 82 46 83 51 84 47 85 48 86 50 87 52 88
REMARK SMILES IDX 49 89
REMARK H PARENT 12 7 3 16 19 32 69 51 43 62
REMARK Flexibility Score: inf
ROOT
ATOM      1  C   UNL     1      -3.194  -5.313  -2.241  1.00  0.00     0.002 C 
ENDROOT
BRANCH   1   2
ATOM      2  C   UNL     1      -2.119  -4.271  -1.935  1.00  0.00     0.021 C 
BRANCH   2   3
ATOM      3  C   UNL     1      -0.836  -4.364  -2.761  1.00  0.00     0.116 C 
BRANCH   3   4
ATOM      4  N   UNL     1      -1.031  -3.870  -4.109  1.00  0.00    -0.356 N 
ATOM      5  C   UNL     1      -0.427  -2.875  -4.805  1.00  0.00     0.225 C 
ATOM      6  O   UNL     1      -0.872  -2.647  -5.936  1.00  0.00    -0.275 OA
ATOM      7  H   UNL     1      -1.732  -4.345  -4.612  1.00  0.00     0.163 HD
BRANCH   5   8
ATOM      8  C   UNL     1       0.734  -2.043  -4.279  1.00  0.00     0.102 C 
ATOM      9  N   UNL     1       1.499  -1.251  -2.151  1.00  0.00    -0.321 N 
ATOM     10  C   UNL     1       2.614  -1.913  -2.803  1.00  0.00     0.122 C 
ATOM     11  C   UNL     1       0.459  -1.015  -3.163  1.00  0.00     0.096 C 
ATOM     12  C   UNL     1       1.971  -2.826  -3.831  1.00  0.00     0.037 C 
ATOM     13  C   UNL     1      -0.950  -0.942  -2.612  1.00  0.00     0.032 C 
BRANCH   9  14
ATOM     14  C   UNL     1       1.792  -0.244  -1.258  1.00  0.00     0.318 C 
ATOM     15  N   UNL     1       1.106  -0.240  -0.084  1.00  0.00    -0.331 N 
ATOM     16  H   UNL     1       1.037   0.628   0.376  1.00  0.00     0.165 HD
ATOM     17  O   UNL     1       2.639   0.618  -1.472  1.00  0.00    -0.249 OA
BRANCH  15  18
ATOM     18  C   UNL     1       0.461  -1.369   0.573  1.00  0.00     0.111 C 
ATOM     19  C   UNL     1       1.181  -1.661   1.891  1.00  0.00     0.036 C 
BRANCH  18  20
ATOM     20  C   UNL     1      -1.035  -1.188   0.790  1.00  0.00    -0.026 A 
ATOM     21  C   UNL     1      -1.690   0.043   0.631  1.00  0.00     0.007 A 
ATOM     22  C   UNL     1      -1.817  -2.321   1.083  1.00  0.00     0.007 A 
ATOM     23  C   UNL     1      -3.087   0.121   0.669  1.00  0.00     0.021 A 
ATOM     24  C   UNL     1      -3.211  -2.244   1.124  1.00  0.00     0.021 A 
ATOM     25  C   UNL     1      -3.841  -1.026   0.894  1.00  0.00     0.041 A 
ATOM     26  Cl  UNL     1      -5.559  -0.949   0.861  1.00  0.00    -0.084 Cl
ENDBRANCH  18  20
ENDBRANCH  15  18
ENDBRANCH   9  14
ENDBRANCH   5   8
ENDBRANCH   3   4
ENDBRANCH   2   3
ENDBRANCH   1   2
BRANCH   1  27
ATOM     27  C   UNL     1      -2.811  -6.762  -1.934  1.00  0.00     0.002 C 
BRANCH  27  28
ATOM     28  C   UNL     1      -2.264  -7.021  -0.527  1.00  0.00     0.021 C 
BRANCH  28  29
ATOM     29  C   UNL     1      -3.159  -6.555   0.618  1.00  0.00     0.116 C 
BRANCH  29  30
ATOM     30  N   UNL     1      -4.437  -7.244   0.639  1.00  0.00    -0.352 N 
ATOM     31  C   UNL     1      -5.004  -8.005   1.631  1.00  0.00     0.251 C 
ATOM     32  H   UNL     1      -4.977  -7.151  -0.178  1.00  0.00     0.163 HD
ATOM     33  O   UNL     1      -6.007  -8.671   1.398  1.00  0.00    -0.269 OA
BRANCH  31  34
ATOM     34  C   UNL     1      -4.399  -8.039   2.980  1.00  0.00     0.039 A 
ATOM     35  C   UNL     1      -4.263  -9.270   3.627  1.00  0.00     0.014 A 
ATOM     36  C   UNL     1      -3.996  -6.862   3.619  1.00  0.00     0.014 A 
ATOM     37  C   UNL     1      -3.679  -9.326   4.895  1.00  0.00     0.010 A 
ATOM     38  C   UNL     1      -3.351  -6.928   4.853  1.00  0.00     0.010 A 
ATOM     39  C   UNL     1      -3.195  -8.159   5.508  1.00  0.00    -0.014 A 
BRANCH  39  40
ATOM     40  C   UNL     1      -2.545  -8.209   6.843  1.00  0.00     0.031 A 
ATOM     41  C   UNL     1      -3.180  -7.514   8.018  1.00  0.00     0.074 A 
ATOM     42  C   UNL     1      -1.363  -8.839   6.992  1.00  0.00     0.049 A 
ATOM     43  N   UNL     1      -2.740  -7.394   9.245  1.00  0.00    -0.248 NA
ATOM     44  C   UNL     1      -4.470  -6.848   7.776  1.00  0.00     0.031 C 
ATOM     45  C   UNL     1      -0.627  -9.521   5.926  1.00  0.00     0.029 A 
ATOM     46  N   UNL     1      -0.569  -9.003   8.100  1.00  0.00    -0.354 N 
ATOM     47  C   UNL     1      -3.691  -6.633   9.915  1.00  0.00     0.074 A 
ATOM     48  C   UNL     1      -4.702  -6.271   8.946  1.00  0.00     0.031 C 
ATOM     49  C   UNL     1       0.498 -10.049   6.436  1.00  0.00     0.029 A 
ATOM     50  C   UNL     1       0.583  -9.710   7.853  1.00  0.00     0.049 A 
ATOM     51  H   UNL     1      -0.803  -8.647   8.987  1.00  0.00     0.167 HD
ATOM     52  C   UNL     1      -3.732  -6.289  11.225  1.00  0.00     0.037 A 
ATOM     53  C   UNL     1       1.597 -10.042   8.675  1.00  0.00     0.037 A 
ATOM     54  C   UNL     1      -2.737  -6.668  12.193  1.00  0.00     0.049 A 
ATOM     55  C   UNL     1       1.536  -9.628  10.121  1.00  0.00     0.074 A 
ATOM     56  C   UNL     1      -2.711  -6.403  13.552  1.00  0.00     0.029 A 
ATOM     57  N   UNL     1      -1.591  -7.394  11.905  1.00  0.00    -0.354 N 
ATOM     58  N   UNL     1       0.603  -8.957  10.752  1.00  0.00    -0.248 NA
ATOM     59  C   UNL     1       2.668 -10.024  10.971  1.00  0.00     0.031 C 
ATOM     60  C   UNL     1      -1.527  -6.929  14.077  1.00  0.00     0.029 A 
ATOM     61  C   UNL     1      -0.843  -7.571  13.058  1.00  0.00     0.049 A 
ATOM     62  H   UNL     1      -1.346  -7.734  11.014  1.00  0.00     0.167 HD
ATOM     63  C   UNL     1       1.015  -8.886  12.077  1.00  0.00     0.074 A 
ATOM     64  C   UNL     1       2.277  -9.590  12.161  1.00  0.00     0.031 C 
ATOM     65  C   UNL     1       0.403  -8.291  13.130  1.00  0.00     0.037 A 
BRANCH  52  66
ATOM     66  C   UNL     1      -4.899  -5.465  11.690  1.00  0.00     0.057 A 
ATOM     67  C   UNL     1      -6.193  -5.997  11.770  1.00  0.00     0.134 A 
ATOM     68  C   UNL     1      -4.720  -4.140  12.107  1.00  0.00     0.134 A 
ATOM     69  F   UNL     1      -6.436  -7.257  11.376  1.00  0.00    -0.206 F 
ATOM     70  C   UNL     1      -7.270  -5.234  12.223  1.00  0.00     0.040 A 
ATOM     71  C   UNL     1      -5.784  -3.376  12.589  1.00  0.00     0.040 A 
ATOM     72  F   UNL     1      -3.506  -3.570  12.064  1.00  0.00    -0.206 F 
ATOM     73  C   UNL     1      -7.065  -3.922  12.642  1.00  0.00     0.006 A 
ENDBRANCH  52  66
BRANCH  53  74
ATOM     74  C   UNL     1       2.753 -10.823   8.164  1.00  0.00     0.057 A 
ATOM     75  C   UNL     1       2.983 -12.137   8.589  1.00  0.00     0.134 A 
ATOM     76  C   UNL     1       3.673 -10.267   7.266  1.00  0.00     0.134 A 
ATOM     77  F   UNL     1       2.149 -12.719   9.463  1.00  0.00    -0.206 F 
ATOM     78  C   UNL     1       4.100 -12.859   8.166  1.00  0.00     0.040 A 
ATOM     79  C   UNL     1       4.779 -10.988   6.812  1.00  0.00     0.040 A 
ATOM     80  F   UNL     1       3.506  -9.016   6.812  1.00  0.00    -0.206 F 
ATOM     81  C   UNL     1       5.000 -12.285   7.271  1.00  0.00     0.006 A 
ENDBRANCH  53  74
BRANCH  65  82
ATOM     82  C   UNL     1       1.059  -8.422  14.473  1.00  0.00     0.057 A 
ATOM     83  C   UNL     1       2.243  -7.746  14.793  1.00  0.00     0.134 A 
ATOM     84  C   UNL     1       0.474  -9.209  15.475  1.00  0.00     0.134 A 
ATOM     85  F   UNL     1       2.861  -6.986  13.876  1.00  0.00    -0.206 F 
ATOM     86  C   UNL     1       2.836  -7.868  16.051  1.00  0.00     0.040 A 
ATOM     87  C   UNL     1       1.040  -9.315  16.745  1.00  0.00     0.040 A 
ATOM     88  F   UNL     1      -0.666  -9.876  15.238  1.00  0.00    -0.206 F 
ATOM     89  C   UNL     1       2.229  -8.649  17.034  1.00  0.00     0.006 A 
ENDBRANCH  65  82
ENDBRANCH  39  40
ENDBRANCH  31  34
ENDBRANCH  29  30
ENDBRANCH  28  29
ENDBRANCH  27  28
ENDBRANCH   1  27
TORSDOF 16
