REMARK SMILES O=C(C[C@@H]1C(=O)O[C@H]2[C@@H]3OC(=O)c4cc(O)c(O)c(O)c4-c4ccccc4C(=O)OC[C@H]2O[C@@H](OC(=O)c2cc(O)c(O)c(O)c2)[C@@H]3OC(=O)c2cc(O)c(O)c3c2[C@H]1[C@H](O)C(=O)O3)NCCCCCCNC(=O)c1ccc(-c2c3nc(c(-c4c(F)cccc4F)c4ccc([nH]4)c(-c4c(F)cccc4F)c4nc(c(-c5c(F)cccc5F)c5ccc2[nH]5)C=C4)C=C3)cc1
REMARK SMILES IDX 3 1 2 2 1 3 65 4 66 6 67 7 68 8 69 9 70 10 71 11 72 12 73 13
REMARK SMILES IDX 74 15 75 16 76 17 128 18 77 19 127 20 78 21 79 22 80 23
REMARK SMILES IDX 121 24 81 25 126 26 120 27 122 28 82 29 125 30 119 31 118 32
REMARK SMILES IDX 83 34 109 35 92 36 108 37 93 38 96 39 107 40 123 41 94 42
REMARK SMILES IDX 95 43 106 45 124 46 97 47 84 48 85 49 90 50 86 51 87 52
REMARK SMILES IDX 89 53 91 54 88 55 110 56 111 57 116 58 112 59 113 60 115 61
REMARK SMILES IDX 117 62 114 63 98 64 99 65 104 66 100 67 101 68 103 69 105 70
REMARK SMILES IDX 102 71 4 72 5 74 6 75 7 76 8 77 9 78 32 79 47 80 33 81 34 83
REMARK SMILES IDX 10 84 11 85 12 86 13 87 14 88 21 89 15 90 19 91 17 92 22 93
REMARK SMILES IDX 23 94 27 95 24 96 26 97 25 98 28 99 29 100 30 101 31 102
REMARK SMILES IDX 16 104 20 106 18 108 48 110 49 111 50 112 51 113 52 114
REMARK SMILES IDX 58 115 53 116 57 117 59 118 55 119 64 120 60 121 62 123
REMARK SMILES IDX 63 124 54 125 56 127 61 129 35 131 36 132 37 133 38 134
REMARK SMILES IDX 39 135 46 136 40 137 44 138 42 139 41 140 45 142 43 144
REMARK H PARENT 65 5 72 14 122 33 96 44 16 105 20 107 18 109 54 126 56 128
REMARK H PARENT 61 130 41 141 45 143 43 145
REMARK Flexibility Score: 170.00
ROOT
ATOM      1  C   UNL     1       1.871   1.086   1.983  1.00  0.00     0.116 C 
ENDROOT
BRANCH   1   2
ATOM      2  C   UNL     1       2.529   0.620   3.298  1.00  0.00     0.220 C 
ATOM      3  O   UNL     1       2.481   1.296   4.321  1.00  0.00    -0.275 OA
ATOM      4  N   UNL     1       3.158  -0.593   3.213  1.00  0.00    -0.356 N 
ATOM      5  H   UNL     1       3.235  -1.007   2.323  1.00  0.00     0.163 HD
BRANCH   4   6
ATOM      6  C   UNL     1       3.719  -1.311   4.343  1.00  0.00     0.116 C 
BRANCH   6   7
ATOM      7  C   UNL     1       2.886  -2.552   4.658  1.00  0.00     0.021 C 
BRANCH   7   8
ATOM      8  C   UNL     1       2.646  -3.463   3.446  1.00  0.00     0.002 C 
BRANCH   8   9
ATOM      9  C   UNL     1       3.912  -4.025   2.790  1.00  0.00     0.002 C 
BRANCH   9  10
ATOM     10  C   UNL     1       4.776  -4.898   3.698  1.00  0.00     0.021 C 
BRANCH  10  11
ATOM     11  C   UNL     1       4.039  -6.050   4.368  1.00  0.00     0.116 C 
BRANCH  11  12
ATOM     12  N   UNL     1       3.473  -7.003   3.423  1.00  0.00    -0.352 N 
ATOM     13  C   UNL     1       3.448  -8.377   3.505  1.00  0.00     0.251 C 
ATOM     14  H   UNL     1       3.054  -6.614   2.622  1.00  0.00     0.163 HD
ATOM     15  O   UNL     1       3.029  -9.056   2.575  1.00  0.00    -0.269 OA
BRANCH  13  16
ATOM     16  C   UNL     1       3.985  -9.026   4.719  1.00  0.00     0.039 A 
ATOM     17  C   UNL     1       3.607  -8.571   5.983  1.00  0.00     0.014 A 
ATOM     18  C   UNL     1       4.942 -10.035   4.586  1.00  0.00     0.014 A 
ATOM     19  C   UNL     1       4.323  -8.984   7.099  1.00  0.00     0.010 A 
ATOM     20  C   UNL     1       5.597 -10.515   5.723  1.00  0.00     0.010 A 
ATOM     21  C   UNL     1       5.338  -9.947   6.981  1.00  0.00    -0.014 A 
BRANCH  21  22
ATOM     22  C   UNL     1       6.141 -10.311   8.179  1.00  0.00     0.031 A 
ATOM     23  C   UNL     1       7.617 -10.011   8.235  1.00  0.00     0.074 A 
ATOM     24  C   UNL     1       5.526 -10.852   9.247  1.00  0.00     0.049 A 
ATOM     25  N   UNL     1       8.472 -10.245   9.199  1.00  0.00    -0.248 NA
ATOM     26  C   UNL     1       8.212  -9.369   7.052  1.00  0.00     0.031 C 
ATOM     27  C   UNL     1       4.100 -11.175   9.327  1.00  0.00     0.029 A 
ATOM     28  N   UNL     1       6.016 -11.207  10.477  1.00  0.00    -0.354 N 
ATOM     29  C   UNL     1       9.704  -9.797   8.736  1.00  0.00     0.074 A 
ATOM     30  C   UNL     1       9.493  -9.310   7.389  1.00  0.00     0.031 C 
ATOM     31  C   UNL     1       3.822 -11.635  10.555  1.00  0.00     0.029 A 
ATOM     32  C   UNL     1       5.058 -11.702  11.327  1.00  0.00     0.049 A 
ATOM     33  H   UNL     1       6.964 -11.115  10.728  1.00  0.00     0.167 HD
ATOM     34  C   UNL     1      10.899  -9.778   9.376  1.00  0.00     0.037 A 
ATOM     35  C   UNL     1       5.164 -12.177  12.581  1.00  0.00     0.037 A 
ATOM     36  C   UNL     1      11.107 -10.251  10.721  1.00  0.00     0.049 A 
ATOM     37  C   UNL     1       6.511 -12.200  13.245  1.00  0.00     0.074 A 
ATOM     38  C   UNL     1      12.277 -10.263  11.461  1.00  0.00     0.029 A 
ATOM     39  N   UNL     1      10.120 -10.797  11.527  1.00  0.00    -0.354 N 
ATOM     40  N   UNL     1       7.663 -11.765  12.796  1.00  0.00    -0.248 NA
ATOM     41  C   UNL     1       6.570 -12.788  14.589  1.00  0.00     0.031 C 
ATOM     42  C   UNL     1      12.007 -10.857  12.700  1.00  0.00     0.029 A 
ATOM     43  C   UNL     1      10.658 -11.169  12.750  1.00  0.00     0.049 A 
ATOM     44  H   UNL     1       9.176 -10.905  11.270  1.00  0.00     0.167 HD
ATOM     45  C   UNL     1       8.581 -12.010  13.808  1.00  0.00     0.074 A 
ATOM     46  C   UNL     1       7.845 -12.609  14.903  1.00  0.00     0.031 C 
ATOM     47  C   UNL     1       9.914 -11.765  13.829  1.00  0.00     0.037 A 
BRANCH  34  48
ATOM     48  C   UNL     1      12.081  -9.245   8.616  1.00  0.00     0.057 A 
ATOM     49  C   UNL     1      13.105 -10.103   8.194  1.00  0.00     0.134 A 
ATOM     50  C   UNL     1      12.219  -7.883   8.320  1.00  0.00     0.134 A 
ATOM     51  F   UNL     1      13.042 -11.418   8.452  1.00  0.00    -0.206 F 
ATOM     52  C   UNL     1      14.221  -9.626   7.504  1.00  0.00     0.040 A 
ATOM     53  C   UNL     1      13.317  -7.397   7.606  1.00  0.00     0.040 A 
ATOM     54  F   UNL     1      11.269  -7.008   8.683  1.00  0.00    -0.206 F 
ATOM     55  C   UNL     1      14.325  -8.270   7.200  1.00  0.00     0.006 A 
ENDBRANCH  34  48
BRANCH  35  56
ATOM     56  C   UNL     1       3.962 -12.688  13.287  1.00  0.00     0.057 A 
ATOM     57  C   UNL     1       3.321 -13.863  12.875  1.00  0.00     0.134 A 
ATOM     58  C   UNL     1       3.439 -12.023  14.401  1.00  0.00     0.134 A 
ATOM     59  F   UNL     1       3.772 -14.543  11.810  1.00  0.00    -0.206 F 
ATOM     60  C   UNL     1       2.199 -14.355  13.541  1.00  0.00     0.040 A 
ATOM     61  C   UNL     1       2.335 -12.519  15.095  1.00  0.00     0.040 A 
ATOM     62  F   UNL     1       4.022 -10.903  14.854  1.00  0.00    -0.206 F 
ATOM     63  C   UNL     1       1.709 -13.687  14.661  1.00  0.00     0.006 A 
ENDBRANCH  35  56
BRANCH  47  64
ATOM     64  C   UNL     1      10.648 -12.118  15.090  1.00  0.00     0.057 A 
ATOM     65  C   UNL     1      11.123 -11.115  15.943  1.00  0.00     0.134 A 
ATOM     66  C   UNL     1      10.888 -13.448  15.458  1.00  0.00     0.134 A 
ATOM     67  F   UNL     1      10.933  -9.820  15.646  1.00  0.00    -0.206 F 
ATOM     68  C   UNL     1      11.807 -11.422  17.120  1.00  0.00     0.040 A 
ATOM     69  C   UNL     1      11.546 -13.768  16.647  1.00  0.00     0.040 A 
ATOM     70  F   UNL     1      10.443 -14.457  14.693  1.00  0.00    -0.206 F 
ATOM     71  C   UNL     1      12.012 -12.752  17.479  1.00  0.00     0.006 A 
ENDBRANCH  47  64
ENDBRANCH  21  22
ENDBRANCH  13  16
ENDBRANCH  11  12
ENDBRANCH  10  11
ENDBRANCH   9  10
ENDBRANCH   8   9
ENDBRANCH   7   8
ENDBRANCH   6   7
ENDBRANCH   4   6
ENDBRANCH   1   2
BRANCH   1  72
ATOM     72  C   UNL     1       2.594   2.170   0.705  1.00  0.00     0.119 CG0
ATOM     73  G   UNL     1       4.702   2.775   0.530  1.00  0.00     0.000 G0
BRANCH  72  74
ATOM     74  C   UNL     1       1.409   1.869  -0.314  1.00  0.00     0.310 C 
ATOM     75  O   UNL     1       0.223   1.875  -0.021  1.00  0.00    -0.252 OA
BRANCH  74  76
ATOM     76  O   UNL     1       1.825   1.486  -1.505  1.00  0.00    -0.455 OA
BRANCH  76  77
ATOM     77  C   UNL     1       3.188   1.716  -1.439  1.00  0.00     0.254 C 
ATOM     78  C   UNL     1       3.451   3.196  -1.449  1.00  0.00     0.267 C 
ATOM     79  C   UNL     1       3.843   0.659  -0.487  1.00  0.00     0.205 CG1
ATOM     80  C   UNL     1       3.286   3.928   0.151  1.00  0.00     0.290 C 
ATOM     81  O   UNL     1       3.982   1.029   1.260  1.00  0.00    -0.329 OA
ATOM     82  G   UNL     1       4.587  -0.394  -1.539  1.00  0.00     0.000 G1
ATOM     83  C   UNL     1       3.852   2.834   1.933  1.00  0.00     0.357 C 
BRANCH  78  84
ATOM     84  O   UNL     1       4.754   3.420  -2.324  1.00  0.00    -0.450 OA
BRANCH  84  85
ATOM     85  C   UNL     1       5.813   2.513  -2.498  1.00  0.00     0.339 C 
ATOM     86  O   UNL     1       6.264   1.810  -1.602  1.00  0.00    -0.246 OA
BRANCH  85  87
ATOM     87  C   UNL     1       6.313   2.221  -3.896  1.00  0.00     0.075 A 
ATOM     88  C   UNL     1       7.512   1.493  -4.074  1.00  0.00     0.066 A 
ATOM     89  C   UNL     1       5.497   2.386  -5.024  1.00  0.00     0.043 A 
ATOM     90  C   UNL     1       7.912   1.086  -5.352  1.00  0.00     0.162 A 
ATOM     91  C   UNL     1       5.997   2.132  -6.314  1.00  0.00     0.170 A 
ATOM     92  C   UNL     1       7.193   1.463  -6.472  1.00  0.00     0.200 A 
BRANCH  89  93
ATOM     93  C   UNL     1       4.087   2.647  -4.870  1.00  0.00     0.001 A 
ATOM     94  C   UNL     1       3.699   4.010  -4.990  1.00  0.00     0.010 A 
ATOM     95  C   UNL     1       3.158   1.616  -4.556  1.00  0.00     0.068 A 
ATOM     96  C   UNL     1       2.385   4.392  -4.803  1.00  0.00     0.001 A 
ATOM     97  C   UNL     1       1.811   2.039  -4.470  1.00  0.00     0.016 A 
ATOM     98  C   UNL     1       1.438   3.402  -4.568  1.00  0.00     0.001 A 
BRANCH  95  99
ATOM     99  C   UNL     1       3.481   0.158  -3.944  1.00  0.00     0.338 C 
ATOM    100  O   UNL     1       2.626  -0.716  -3.955  1.00  0.00    -0.246 OA
BRANCH  99 101
ATOM    101  O   UNL     1       4.578   0.109  -3.068  1.00  0.00    -0.459 OA
BRANCH 101 102
ATOM    102  C   UNL     1       4.587  -0.394  -1.539  1.00  0.00     0.269 CG1
ATOM    103  G   UNL     1       3.843   0.659  -0.487  1.00  0.00     0.000 G1
ENDBRANCH 101 102
ENDBRANCH  99 101
ENDBRANCH  95  99
ENDBRANCH  89  93
BRANCH  90 104
ATOM    104  O   UNL     1       8.996   0.271  -5.507  1.00  0.00    -0.504 OA
ATOM    105  H   UNL     1       9.494   0.006  -4.759  1.00  0.00     0.293 HD
ENDBRANCH  90 104
BRANCH  91 106
ATOM    106  O   UNL     1       5.321   2.453  -7.465  1.00  0.00    -0.504 OA
ATOM    107  H   UNL     1       5.700   2.261  -8.300  1.00  0.00     0.293 HD
ENDBRANCH  91 106
BRANCH  92 108
ATOM    108  O   UNL     1       7.628   1.113  -7.720  1.00  0.00    -0.502 OA
ATOM    109  H   UNL     1       8.441   0.658  -7.822  1.00  0.00     0.293 HD
ENDBRANCH  92 108
ENDBRANCH  85  87
ENDBRANCH  84  85
ENDBRANCH  78  84
BRANCH  80 110
ATOM    110  O   UNL     1       2.295   4.931   0.196  1.00  0.00    -0.448 OA
BRANCH 110 111
ATOM    111  C   UNL     1       2.993   6.099   0.183  1.00  0.00     0.339 C 
ATOM    112  O   UNL     1       2.665   7.107  -0.406  1.00  0.00    -0.246 OA
BRANCH 111 113
ATOM    113  C   UNL     1       4.088   5.934   1.198  1.00  0.00     0.071 A 
ATOM    114  C   UNL     1       3.978   6.989   2.151  1.00  0.00     0.066 A 
ATOM    115  C   UNL     1       4.588   4.624   1.570  1.00  0.00     0.021 A 
ATOM    116  C   UNL     1       4.076   6.794   3.550  1.00  0.00     0.162 A 
ATOM    117  C   UNL     1       4.562   4.548   3.243  1.00  0.00     0.180 A 
ATOM    118  C   UNL     1       4.702   2.775   0.530  1.00  0.00     0.079 CG0
ATOM    119  C   UNL     1       4.313   5.561   4.140  1.00  0.00     0.201 A 
ATOM    120  O   UNL     1       5.014   3.049   3.938  1.00  0.00    -0.420 OA
ATOM    121  C   UNL     1       5.893   1.496   1.538  1.00  0.00     0.232 C 
ATOM    122  G   UNL     1       2.594   2.170   0.705  1.00  0.00     0.000 G0
ATOM    123  C   UNL     1       5.623   1.623   3.388  1.00  0.00     0.341 C 
ATOM    124  O   UNL     1       5.942   0.755   4.195  1.00  0.00    -0.249 OA
BRANCH 116 125
ATOM    125  O   UNL     1       3.837   7.893   4.333  1.00  0.00    -0.504 OA
ATOM    126  H   UNL     1       3.677   8.726   3.935  1.00  0.00     0.293 HD
ENDBRANCH 116 125
BRANCH 119 127
ATOM    127  O   UNL     1       4.345   5.412   5.483  1.00  0.00    -0.502 OA
ATOM    128  H   UNL     1       4.165   6.144   6.040  1.00  0.00     0.293 HD
ENDBRANCH 119 127
BRANCH 121 129
ATOM    129  O   UNL     1       6.026   0.143   1.052  1.00  0.00    -0.381 OA
ATOM    130  H   UNL     1       5.193  -0.334   1.193  1.00  0.00     0.211 HD
ENDBRANCH 121 129
ENDBRANCH 111 113
ENDBRANCH 110 111
ENDBRANCH  80 110
BRANCH  83 131
ATOM    131  O   UNL     1       5.774   3.299   2.158  1.00  0.00    -0.428 OA
BRANCH 131 132
ATOM    132  C   UNL     1       6.917   3.966   1.557  1.00  0.00     0.340 C 
ATOM    133  O   UNL     1       7.235   3.829   0.383  1.00  0.00    -0.246 OA
BRANCH 132 134
ATOM    134  C   UNL     1       7.487   5.117   2.337  1.00  0.00     0.067 A 
ATOM    135  C   UNL     1       7.885   6.224   1.559  1.00  0.00     0.066 A 
ATOM    136  C   UNL     1       7.414   5.244   3.730  1.00  0.00     0.066 A 
ATOM    137  C   UNL     1       8.086   7.459   2.156  1.00  0.00     0.162 A 
ATOM    138  C   UNL     1       7.553   6.514   4.299  1.00  0.00     0.162 A 
ATOM    139  C   UNL     1       7.889   7.614   3.518  1.00  0.00     0.200 A 
BRANCH 137 140
ATOM    140  O   UNL     1       8.391   8.535   1.377  1.00  0.00    -0.504 OA
ATOM    141  H   UNL     1       8.524   8.424   0.456  1.00  0.00     0.293 HD
ENDBRANCH 137 140
BRANCH 138 142
ATOM    142  O   UNL     1       7.244   6.747   5.612  1.00  0.00    -0.504 OA
ATOM    143  H   UNL     1       7.345   7.606   5.972  1.00  0.00     0.293 HD
ENDBRANCH 138 142
BRANCH 139 144
ATOM    144  O   UNL     1       7.958   8.869   4.056  1.00  0.00    -0.502 OA
ATOM    145  H   UNL     1       8.185   9.599   3.515  1.00  0.00     0.293 HD
ENDBRANCH 139 144
ENDBRANCH 132 134
ENDBRANCH 131 132
ENDBRANCH  83 131
ENDBRANCH  76  77
ENDBRANCH  74  76
ENDBRANCH  72  74
ENDBRANCH   1  72
TORSDOF 26
