REMARK SMILES CC(C)(C)OC(=O)N1C[C@@H](Oc2cccnc2)C[C@H]1C(=O)NCCCCCCNC(=O)c1ccc(-c2c3nc(c(-c4c(F)cccc4F)c4ccc([nH]4)c(-c4c(F)cccc4F)c4nc(c(-c5c(F)cccc5F)c5ccc2[nH]5)C=C4)C=C3)cc1
REMARK SMILES IDX 25 1 24 2 23 3 22 4 20 5 21 6 19 8 8 9 9 10 10 11 18 12 6 13
REMARK SMILES IDX 7 14 5 15 2 16 1 17 3 18 4 19 11 20 12 21 13 22 17 23 14 24
REMARK SMILES IDX 16 25 15 26 26 27 27 28 28 29 29 30 30 31 31 33 32 34 33 35
REMARK SMILES IDX 85 36 34 37 84 38 35 39 36 40 37 41 78 42 38 43 83 44 77 45
REMARK SMILES IDX 79 46 39 47 82 48 76 49 75 50 40 52 66 53 49 54 65 55 50 56
REMARK SMILES IDX 53 57 64 58 80 59 51 60 52 61 63 63 81 64 54 65 41 66 42 67
REMARK SMILES IDX 47 68 43 69 44 70 46 71 48 72 45 73 67 74 68 75 73 76 69 77
REMARK SMILES IDX 70 78 72 79 74 80 71 81 55 82 56 83 61 84 57 85 58 86 60 87
REMARK SMILES IDX 62 88 59 89
REMARK H PARENT 22 7 29 32 79 51 53 62
REMARK Flexibility Score: inf
ROOT
ATOM      1  C   UNL     1      -1.691   7.312  -1.957  1.00  0.00     0.002 C 
ENDROOT
BRANCH   1   2
ATOM      2  C   UNL     1      -1.938   6.221  -0.919  1.00  0.00     0.021 C 
BRANCH   2   3
ATOM      3  C   UNL     1      -0.763   5.849  -0.026  1.00  0.00     0.116 C 
BRANCH   3   4
ATOM      4  N   UNL     1      -0.376   6.869   0.912  1.00  0.00    -0.354 N 
ATOM      5  C   UNL     1       0.085   6.714   2.188  1.00  0.00     0.243 C 
ATOM      6  O   UNL     1       0.257   7.760   2.823  1.00  0.00    -0.273 OA
ATOM      7  H   UNL     1      -0.454   7.797   0.594  1.00  0.00     0.163 HD
BRANCH   5   8
ATOM      8  C   UNL     1       0.218   5.311   2.870  1.00  0.00     0.181 C 
ATOM      9  N   UNL     1       0.915   4.260   2.116  1.00  0.00    -0.292 N 
ATOM     10  C   UNL     1       2.328   4.244   2.452  1.00  0.00     0.169 C 
ATOM     11  C   UNL     1       2.319   4.619   3.934  1.00  0.00     0.195 C 
ATOM     12  C   UNL     1       1.021   5.409   4.185  1.00  0.00     0.082 C 
BRANCH   9  13
ATOM     13  C   UNL     1       0.247   3.199   1.543  1.00  0.00     0.411 C 
ATOM     14  O   UNL     1      -0.969   3.064   1.637  1.00  0.00    -0.224 OA
BRANCH  13  15
ATOM     15  O   UNL     1       1.063   2.382   0.836  1.00  0.00    -0.444 OA
BRANCH  15  16
ATOM     16  C   UNL     1       0.586   1.385  -0.122  1.00  0.00     0.106 C 
ATOM     17  C   UNL     1       1.292   0.067   0.213  1.00  0.00     0.056 C 
ATOM     18  C   UNL     1       1.054   1.880  -1.497  1.00  0.00     0.056 C 
ATOM     19  C   UNL     1      -0.927   1.127  -0.177  1.00  0.00     0.056 C 
ENDBRANCH  15  16
ENDBRANCH  13  15
ENDBRANCH   9  13
BRANCH  11  20
ATOM     20  O   UNL     1       3.523   5.144   4.475  1.00  0.00    -0.487 OA
BRANCH  20  21
ATOM     21  C   UNL     1       3.987   6.393   4.214  1.00  0.00     0.138 A 
ATOM     22  C   UNL     1       3.526   7.287   3.260  1.00  0.00     0.050 A 
ATOM     23  C   UNL     1       5.061   6.814   4.995  1.00  0.00     0.157 A 
ATOM     24  C   UNL     1       4.113   8.547   3.140  1.00  0.00     0.024 A 
ATOM     25  N   UNL     1       5.667   8.024   4.898  1.00  0.00    -0.261 NA
ATOM     26  C   UNL     1       5.170   8.868   3.973  1.00  0.00     0.111 A 
ENDBRANCH  20  21
ENDBRANCH  11  20
ENDBRANCH   5   8
ENDBRANCH   3   4
ENDBRANCH   2   3
ENDBRANCH   1   2
BRANCH   1  27
ATOM     27  C   UNL     1      -0.489   7.104  -2.879  1.00  0.00     0.002 C 
BRANCH  27  28
ATOM     28  C   UNL     1      -0.421   5.760  -3.608  1.00  0.00     0.021 C 
BRANCH  28  29
ATOM     29  C   UNL     1      -1.670   5.360  -4.387  1.00  0.00     0.116 C 
BRANCH  29  30
ATOM     30  N   UNL     1      -2.058   6.349  -5.378  1.00  0.00    -0.352 N 
ATOM     31  C   UNL     1      -2.296   6.205  -6.721  1.00  0.00     0.251 C 
ATOM     32  H   UNL     1      -2.167   7.264  -5.031  1.00  0.00     0.163 HD
ATOM     33  O   UNL     1      -2.466   7.198  -7.422  1.00  0.00    -0.269 OA
BRANCH  31  34
ATOM     34  C   UNL     1      -2.323   4.861  -7.336  1.00  0.00     0.039 A 
ATOM     35  C   UNL     1      -1.677   4.672  -8.561  1.00  0.00     0.014 A 
ATOM     36  C   UNL     1      -2.991   3.796  -6.726  1.00  0.00     0.014 A 
ATOM     37  C   UNL     1      -1.649   3.403  -9.142  1.00  0.00     0.010 A 
ATOM     38  C   UNL     1      -2.896   2.515  -7.267  1.00  0.00     0.010 A 
ATOM     39  C   UNL     1      -2.226   2.306  -8.482  1.00  0.00    -0.014 A 
BRANCH  39  40
ATOM     40  C   UNL     1      -2.128   0.934  -9.045  1.00  0.00     0.031 A 
ATOM     41  C   UNL     1      -3.366   0.188  -9.457  1.00  0.00     0.074 A 
ATOM     42  C   UNL     1      -0.923   0.338  -9.131  1.00  0.00     0.049 A 
ATOM     43  N   UNL     1      -3.482  -1.030  -9.923  1.00  0.00    -0.248 NA
ATOM     44  C   UNL     1      -4.647   0.894  -9.299  1.00  0.00     0.031 C 
ATOM     45  C   UNL     1       0.349   0.939  -8.726  1.00  0.00     0.029 A 
ATOM     46  N   UNL     1      -0.571  -0.910  -9.583  1.00  0.00    -0.354 N 
ATOM     47  C   UNL     1      -4.843  -1.239 -10.102  1.00  0.00     0.074 A 
ATOM     48  C   UNL     1      -5.517  -0.045  -9.641  1.00  0.00     0.031 C 
ATOM     49  C   UNL     1       1.344   0.073  -8.977  1.00  0.00     0.029 A 
ATOM     50  C   UNL     1       0.778  -1.160  -9.516  1.00  0.00     0.049 A 
ATOM     51  H   UNL     1      -1.224  -1.564  -9.922  1.00  0.00     0.167 HD
ATOM     52  C   UNL     1      -5.474  -2.320 -10.622  1.00  0.00     0.037 A 
ATOM     53  C   UNL     1       1.481  -2.260  -9.847  1.00  0.00     0.037 A 
ATOM     54  C   UNL     1      -4.797  -3.502 -11.092  1.00  0.00     0.049 A 
ATOM     55  C   UNL     1       0.756  -3.456 -10.398  1.00  0.00     0.074 A 
ATOM     56  C   UNL     1      -5.340  -4.624 -11.693  1.00  0.00     0.029 A 
ATOM     57  N   UNL     1      -3.430  -3.719 -11.004  1.00  0.00    -0.354 N 
ATOM     58  N   UNL     1      -0.525  -3.613 -10.631  1.00  0.00    -0.248 NA
ATOM     59  C   UNL     1       1.576  -4.628 -10.735  1.00  0.00     0.031 C 
ATOM     60  C   UNL     1      -4.311  -5.545 -11.911  1.00  0.00     0.029 A 
ATOM     61  C   UNL     1      -3.116  -4.971 -11.507  1.00  0.00     0.049 A 
ATOM     62  H   UNL     1      -2.779  -3.077 -10.638  1.00  0.00     0.167 HD
ATOM     63  C   UNL     1      -0.661  -4.885 -11.171  1.00  0.00     0.074 A 
ATOM     64  C   UNL     1       0.670  -5.452 -11.243  1.00  0.00     0.031 C 
ATOM     65  C   UNL     1      -1.786  -5.525 -11.574  1.00  0.00     0.037 A 
BRANCH  52  66
ATOM     66  C   UNL     1      -6.974  -2.277 -10.698  1.00  0.00     0.057 A 
ATOM     67  C   UNL     1      -7.651  -1.406 -11.564  1.00  0.00     0.134 A 
ATOM     68  C   UNL     1      -7.754  -3.134  -9.911  1.00  0.00     0.134 A 
ATOM     69  F   UNL     1      -6.967  -0.551 -12.339  1.00  0.00    -0.206 F 
ATOM     70  C   UNL     1      -9.046  -1.365 -11.618  1.00  0.00     0.040 A 
ATOM     71  C   UNL     1      -9.148  -3.126  -9.980  1.00  0.00     0.040 A 
ATOM     72  F   UNL     1      -7.174  -4.000  -9.066  1.00  0.00    -0.206 F 
ATOM     73  C   UNL     1      -9.798  -2.232 -10.829  1.00  0.00     0.006 A 
ENDBRANCH  52  66
BRANCH  53  74
ATOM     74  C   UNL     1       2.958  -2.272  -9.689  1.00  0.00     0.057 A 
ATOM     75  C   UNL     1       3.801  -2.293 -10.806  1.00  0.00     0.134 A 
ATOM     76  C   UNL     1       3.562  -2.266  -8.426  1.00  0.00     0.134 A 
ATOM     77  F   UNL     1       3.283  -2.318 -12.043  1.00  0.00    -0.206 F 
ATOM     78  C   UNL     1       5.191  -2.325 -10.674  1.00  0.00     0.040 A 
ATOM     79  C   UNL     1       4.950  -2.270  -8.279  1.00  0.00     0.040 A 
ATOM     80  F   UNL     1       2.810  -2.238  -7.315  1.00  0.00    -0.206 F 
ATOM     81  C   UNL     1       5.768  -2.308  -9.406  1.00  0.00     0.006 A 
ENDBRANCH  53  74
BRANCH  65  82
ATOM     82  C   UNL     1      -1.625  -6.897 -12.165  1.00  0.00     0.057 A 
ATOM     83  C   UNL     1      -1.267  -8.005 -11.386  1.00  0.00     0.134 A 
ATOM     84  C   UNL     1      -1.868  -7.118 -13.527  1.00  0.00     0.134 A 
ATOM     85  F   UNL     1      -1.007  -7.861 -10.077  1.00  0.00    -0.206 F 
ATOM     86  C   UNL     1      -1.130  -9.277 -11.945  1.00  0.00     0.040 A 
ATOM     87  C   UNL     1      -1.766  -8.390 -14.091  1.00  0.00     0.040 A 
ATOM     88  F   UNL     1      -2.224  -6.104 -14.329  1.00  0.00    -0.206 F 
ATOM     89  C   UNL     1      -1.388  -9.473 -13.300  1.00  0.00     0.006 A 
ENDBRANCH  65  82
ENDBRANCH  39  40
ENDBRANCH  31  34
ENDBRANCH  29  30
ENDBRANCH  28  29
ENDBRANCH  27  28
ENDBRANCH   1  27
TORSDOF 18
