REMARK SMILES COc1ncccc1C(=O)N[C@@](C)(C(=O)NCCCCCCNC(=O)c1ccc(-c2c3nc(c(-c4c(F)cccc4F)c4ccc([nH]4)c(-c4c(F)cccc4F)c4nc(c(-c5c(F)cccc5F)c5ccc2[nH]5)C=C4)C=C3)cc1)C(F)(F)F
REMARK SMILES IDX 19 1 18 2 17 3 16 4 14 5 15 6 12 8 13 9 11 10 9 11 10 12
REMARK SMILES IDX 8 14 3 15 4 16 5 17 7 18 6 19 2 20 1 21 80 22 81 23 82 24
REMARK SMILES IDX 83 25 20 26 21 27 22 28 23 29 24 30 25 32 26 33 27 34 79 35
REMARK SMILES IDX 28 36 78 37 29 38 30 39 31 40 72 41 32 42 77 43 71 44 73 45
REMARK SMILES IDX 33 46 76 47 70 48 69 49 34 51 60 52 43 53 59 54 44 55 47 56
REMARK SMILES IDX 58 57 74 58 45 59 46 60 57 62 75 63 48 64 35 65 36 66 41 67
REMARK SMILES IDX 37 68 38 69 40 70 42 71 39 72 61 73 62 74 67 75 63 76 64 77
REMARK SMILES IDX 66 78 68 79 65 80 49 81 50 82 55 83 51 84 52 85 54 86 56 87
REMARK SMILES IDX 53 88
REMARK H PARENT 16 7 11 13 23 31 73 50 47 61
REMARK Flexibility Score: inf
ROOT
ATOM      1  C   UNL     1       9.126   0.269   2.094  1.00  0.00     0.002 C 
ENDROOT
BRANCH   1   2
ATOM      2  C   UNL     1       7.873   0.267   1.209  1.00  0.00     0.021 C 
BRANCH   2   3
ATOM      3  C   UNL     1       7.513  -1.084   0.593  1.00  0.00     0.116 C 
BRANCH   3   4
ATOM      4  N   UNL     1       7.362  -2.108   1.610  1.00  0.00    -0.354 N 
ATOM      5  C   UNL     1       6.479  -3.119   1.832  1.00  0.00     0.254 C 
ATOM      6  O   UNL     1       6.705  -3.766   2.858  1.00  0.00    -0.272 OA
ATOM      7  H   UNL     1       8.062  -2.061   2.301  1.00  0.00     0.163 HD
BRANCH   5   8
ATOM      8  C   UNL     1       5.234  -3.374   0.947  1.00  0.00     0.212 C 
ATOM      9  C   UNL     1       5.605  -3.511  -0.542  1.00  0.00     0.056 C 
BRANCH   8  10
ATOM     10  N   UNL     1       4.404  -2.133   1.176  1.00  0.00    -0.330 N 
ATOM     11  C   UNL     1       3.167  -1.592   1.354  1.00  0.00     0.257 C 
ATOM     12  O   UNL     1       3.228  -0.357   1.381  1.00  0.00    -0.269 OA
ATOM     13  H   UNL     1       5.039  -1.382   1.213  1.00  0.00     0.165 HD
BRANCH  11  14
ATOM     14  C   UNL     1       1.841  -2.247   1.530  1.00  0.00     0.101 A 
ATOM     15  C   UNL     1       0.658  -1.500   1.408  1.00  0.00     0.226 A 
ATOM     16  N   UNL     1      -0.598  -1.987   1.616  1.00  0.00    -0.221 NA
ATOM     17  C   UNL     1      -0.709  -3.276   1.974  1.00  0.00     0.115 A 
ATOM     18  C   UNL     1       1.656  -3.567   1.923  1.00  0.00     0.021 A 
ATOM     19  C   UNL     1       0.381  -4.101   2.133  1.00  0.00     0.021 A 
BRANCH  15  20
ATOM     20  O   UNL     1       0.661  -0.154   1.158  1.00  0.00    -0.480 OA
ATOM     21  C   UNL     1       0.542   0.074  -0.240  1.00  0.00     0.280 C 
ENDBRANCH  15  20
ENDBRANCH  11  14
ENDBRANCH   8  10
BRANCH   8  22
ATOM     22  C   UNL     1       4.740  -4.760   1.395  1.00  0.00     0.420 C 
ATOM     23  F   UNL     1       4.332  -4.806   2.680  1.00  0.00    -0.168 F 
ATOM     24  F   UNL     1       3.697  -5.160   0.620  1.00  0.00    -0.168 F 
ATOM     25  F   UNL     1       5.692  -5.713   1.235  1.00  0.00    -0.168 F 
ENDBRANCH   8  22
ENDBRANCH   5   8
ENDBRANCH   3   4
ENDBRANCH   2   3
ENDBRANCH   1   2
BRANCH   1  26
ATOM     26  C   UNL     1      10.383  -0.331   1.458  1.00  0.00     0.002 C 
BRANCH  26  27
ATOM     27  C   UNL     1      10.784   0.283   0.117  1.00  0.00     0.021 C 
BRANCH  27  28
ATOM     28  C   UNL     1      10.950   1.796   0.139  1.00  0.00     0.116 C 
BRANCH  28  29
ATOM     29  N   UNL     1      12.008   2.222   1.040  1.00  0.00    -0.352 N 
ATOM     30  C   UNL     1      13.064   3.063   0.790  1.00  0.00     0.251 C 
ATOM     31  H   UNL     1      11.961   1.858   1.953  1.00  0.00     0.163 HD
ATOM     32  O   UNL     1      13.975   3.178   1.599  1.00  0.00    -0.269 OA
BRANCH  30  33
ATOM     33  C   UNL     1      13.102   3.812  -0.483  1.00  0.00     0.039 A 
ATOM     34  C   UNL     1      14.290   3.838  -1.217  1.00  0.00     0.014 A 
ATOM     35  C   UNL     1      11.962   4.466  -0.958  1.00  0.00     0.014 A 
ATOM     36  C   UNL     1      14.317   4.474  -2.458  1.00  0.00     0.010 A 
ATOM     37  C   UNL     1      11.968   5.025  -2.231  1.00  0.00     0.010 A 
ATOM     38  C   UNL     1      13.147   5.043  -2.990  1.00  0.00    -0.014 A 
BRANCH  38  39
ATOM     39  C   UNL     1      13.139   5.666  -4.336  1.00  0.00     0.031 A 
ATOM     40  C   UNL     1      12.851   7.134  -4.486  1.00  0.00     0.074 A 
ATOM     41  C   UNL     1      13.333   4.900  -5.426  1.00  0.00     0.049 A 
ATOM     42  N   UNL     1      12.757   7.852  -5.576  1.00  0.00    -0.248 NA
ATOM     43  C   UNL     1      12.607   7.889  -3.247  1.00  0.00     0.031 C 
ATOM     44  C   UNL     1      13.584   3.458  -5.414  1.00  0.00     0.029 A 
ATOM     45  N   UNL     1      13.347   5.228  -6.758  1.00  0.00    -0.354 N 
ATOM     46  C   UNL     1      12.430   9.135  -5.155  1.00  0.00     0.074 A 
ATOM     47  C   UNL     1      12.280   9.082  -3.717  1.00  0.00     0.031 C 
ATOM     48  C   UNL     1      13.767   3.034  -6.674  1.00  0.00     0.029 A 
ATOM     49  C   UNL     1      13.603   4.162  -7.585  1.00  0.00     0.049 A 
ATOM     50  H   UNL     1      13.188   6.142  -7.090  1.00  0.00     0.167 HD
ATOM     51  C   UNL     1      12.290  10.260  -5.896  1.00  0.00     0.037 A 
ATOM     52  C   UNL     1      13.694   4.102  -8.927  1.00  0.00     0.037 A 
ATOM     53  C   UNL     1      12.454  10.308  -7.326  1.00  0.00     0.049 A 
ATOM     54  C   UNL     1      13.498   5.357  -9.731  1.00  0.00     0.074 A 
ATOM     55  C   UNL     1      12.396  11.407  -8.164  1.00  0.00     0.029 A 
ATOM     56  N   UNL     1      12.695   9.203  -8.130  1.00  0.00    -0.354 N 
ATOM     57  N   UNL     1      13.265   6.579  -9.316  1.00  0.00    -0.248 NA
ATOM     58  C   UNL     1      13.579   5.223 -11.192  1.00  0.00     0.031 C 
ATOM     59  C   UNL     1      12.540  10.959  -9.482  1.00  0.00     0.029 A 
ATOM     60  C   UNL     1      12.752   9.589  -9.460  1.00  0.00     0.049 A 
ATOM     61  H   UNL     1      12.809   8.281  -7.804  1.00  0.00     0.167 HD
ATOM     62  C   UNL     1      13.207   7.365 -10.460  1.00  0.00     0.074 A 
ATOM     63  C   UNL     1      13.439   6.481 -11.585  1.00  0.00     0.031 C 
ATOM     64  C   UNL     1      12.985   8.698 -10.570  1.00  0.00     0.037 A 
BRANCH  51  65
ATOM     65  C   UNL     1      11.927  11.524  -5.167  1.00  0.00     0.057 A 
ATOM     66  C   UNL     1      12.808  12.147  -4.272  1.00  0.00     0.134 A 
ATOM     67  C   UNL     1      10.678  12.127  -5.365  1.00  0.00     0.134 A 
ATOM     68  F   UNL     1      14.016  11.617  -4.026  1.00  0.00    -0.206 F 
ATOM     69  C   UNL     1      12.444  13.296  -3.568  1.00  0.00     0.040 A 
ATOM     70  C   UNL     1      10.317  13.296  -4.693  1.00  0.00     0.040 A 
ATOM     71  F   UNL     1       9.788  11.592  -6.213  1.00  0.00    -0.206 F 
ATOM     72  C   UNL     1      11.196  13.877  -3.782  1.00  0.00     0.006 A 
ENDBRANCH  51  65
BRANCH  52  73
ATOM     73  C   UNL     1      14.024   2.817  -9.593  1.00  0.00     0.057 A 
ATOM     74  C   UNL     1      15.261   2.636 -10.223  1.00  0.00     0.134 A 
ATOM     75  C   UNL     1      13.125   1.745  -9.618  1.00  0.00     0.134 A 
ATOM     76  F   UNL     1      16.158   3.632 -10.248  1.00  0.00    -0.206 F 
ATOM     77  C   UNL     1      15.585   1.442 -10.870  1.00  0.00     0.040 A 
ATOM     78  C   UNL     1      13.446   0.536 -10.239  1.00  0.00     0.040 A 
ATOM     79  F   UNL     1      11.926   1.851  -9.025  1.00  0.00    -0.206 F 
ATOM     80  C   UNL     1      14.677   0.386 -10.873  1.00  0.00     0.006 A 
ENDBRANCH  52  73
BRANCH  64  81
ATOM     81  C   UNL     1      13.021   9.290 -11.950  1.00  0.00     0.057 A 
ATOM     82  C   UNL     1      12.016   9.041 -12.893  1.00  0.00     0.134 A 
ATOM     83  C   UNL     1      14.062  10.149 -12.328  1.00  0.00     0.134 A 
ATOM     84  F   UNL     1      10.998   8.216 -12.601  1.00  0.00    -0.206 F 
ATOM     85  C   UNL     1      12.057   9.604 -14.169  1.00  0.00     0.040 A 
ATOM     86  C   UNL     1      14.098  10.743 -13.590  1.00  0.00     0.040 A 
ATOM     87  F   UNL     1      15.053  10.438 -11.471  1.00  0.00    -0.206 F 
ATOM     88  C   UNL     1      13.097  10.465 -14.518  1.00  0.00     0.006 A 
ENDBRANCH  64  81
ENDBRANCH  38  39
ENDBRANCH  30  33
ENDBRANCH  28  29
ENDBRANCH  27  28
ENDBRANCH  26  27
ENDBRANCH   1  26
TORSDOF 17
