REMARK SMILES CS(=O)(=O)c1ccc(/C=C(/C(=O)NCCCCCCNC(=O)c2ccc(-c3c4nc(c(-c5c(F)cccc5F)c5ccc([nH]5)c(-c5c(F)cccc5F)c5nc(c(-c6c(F)cccc6F)c6ccc3[nH]6)C=C5)C=C4)cc2)c2ccc(O)cc2)cc1
REMARK SMILES IDX 16 1 15 2 14 3 13 4 11 5 12 6 10 8 9 9 8 10 5 11 6 12 85 13
REMARK SMILES IDX 7 14 84 15 2 16 1 17 3 18 4 19 77 20 78 21 83 22 79 23 82 24
REMARK SMILES IDX 80 25 81 26 17 28 18 29 19 30 20 31 21 32 22 34 23 35 24 36
REMARK SMILES IDX 76 37 25 38 75 39 26 40 27 41 28 42 69 43 29 44 74 45 68 46
REMARK SMILES IDX 70 47 30 48 73 49 67 50 66 51 31 53 57 54 40 55 56 56 41 57
REMARK SMILES IDX 44 58 55 59 71 60 42 61 43 62 54 64 72 65 45 66 32 67 33 68
REMARK SMILES IDX 38 69 34 70 35 71 37 72 39 73 36 74 58 75 59 76 64 77 60 78
REMARK SMILES IDX 61 79 63 80 65 81 62 82 46 83 47 84 52 85 48 86 49 87 51 88
REMARK SMILES IDX 53 89 50 90
REMARK H PARENT 13 7 81 27 20 33 70 52 44 63
REMARK Flexibility Score: inf
ROOT
ATOM      1  C   UNL     1       2.468   1.223  11.458  1.00  0.00     0.002 C 
ENDROOT
BRANCH   1   2
ATOM      2  C   UNL     1       2.197   1.331   9.948  1.00  0.00     0.021 C 
BRANCH   2   3
ATOM      3  C   UNL     1       3.161   0.507   9.089  1.00  0.00     0.116 C 
BRANCH   3   4
ATOM      4  N   UNL     1       2.853  -0.904   9.217  1.00  0.00    -0.352 N 
ATOM      5  C   UNL     1       2.227  -1.815   8.428  1.00  0.00     0.251 C 
ATOM      6  O   UNL     1       2.089  -2.943   8.909  1.00  0.00    -0.269 OA
ATOM      7  H   UNL     1       3.168  -1.288  10.067  1.00  0.00     0.163 HD
BRANCH   5   8
ATOM      8  C   UNL     1       1.793  -1.537   7.008  1.00  0.00     0.047 C 
ATOM      9  C   UNL     1       1.325  -0.331   6.610  1.00  0.00     0.022 C 
BRANCH   9  10
ATOM     10  C   UNL     1       0.973   0.112   5.242  1.00  0.00    -0.025 A 
ATOM     11  C   UNL     1       0.511   1.000   2.620  1.00  0.00     0.067 A 
ATOM     12  C   UNL     1      -0.102  -0.168   3.075  1.00  0.00     0.021 A 
ATOM     13  C   UNL     1       1.307   1.761   3.476  1.00  0.00     0.021 A 
ATOM     14  C   UNL     1       0.118  -0.597   4.388  1.00  0.00     0.009 A 
ATOM     15  C   UNL     1       1.536   1.313   4.781  1.00  0.00     0.009 A 
BRANCH  11  16
ATOM     16  S   UNL     1       0.249   1.526   0.943  1.00  0.00     0.175 S 
ATOM     17  C   UNL     1       1.049   0.276  -0.029  1.00  0.00     0.163 C 
ATOM     18  O   UNL     1       0.979   2.762   0.749  1.00  0.00    -0.224 OA
ATOM     19  O   UNL     1      -1.180   1.453   0.695  1.00  0.00    -0.224 OA
ENDBRANCH  11  16
ENDBRANCH   9  10
BRANCH   8  20
ATOM     20  C   UNL     1       1.716  -2.702   6.090  1.00  0.00    -0.013 A 
ATOM     21  C   UNL     1       0.709  -3.659   6.307  1.00  0.00     0.013 A 
ATOM     22  C   UNL     1       2.538  -2.823   4.961  1.00  0.00     0.013 A 
ATOM     23  C   UNL     1       0.491  -4.684   5.389  1.00  0.00     0.047 A 
ATOM     24  C   UNL     1       2.314  -3.849   4.035  1.00  0.00     0.047 A 
ATOM     25  C   UNL     1       1.280  -4.758   4.250  1.00  0.00     0.115 A 
BRANCH  25  26
ATOM     26  O   UNL     1       0.991  -5.738   3.348  1.00  0.00    -0.508 OA
ATOM     27  H   UNL     1       0.290  -6.337   3.516  1.00  0.00     0.293 HD
ENDBRANCH  25  26
ENDBRANCH   8  20
ENDBRANCH   5   8
ENDBRANCH   3   4
ENDBRANCH   2   3
ENDBRANCH   1   2
BRANCH   1  28
ATOM     28  C   UNL     1       3.824   1.772  11.920  1.00  0.00     0.002 C 
BRANCH  28  29
ATOM     29  C   UNL     1       4.112   3.220  11.516  1.00  0.00     0.021 C 
BRANCH  29  30
ATOM     30  C   UNL     1       3.109   4.241  12.045  1.00  0.00     0.116 C 
BRANCH  30  31
ATOM     31  N   UNL     1       3.169   4.365  13.492  1.00  0.00    -0.352 N 
ATOM     32  C   UNL     1       3.356   5.487  14.262  1.00  0.00     0.251 C 
ATOM     33  H   UNL     1       3.059   3.525  13.992  1.00  0.00     0.163 HD
ATOM     34  O   UNL     1       3.574   5.382  15.465  1.00  0.00    -0.269 OA
BRANCH  32  35
ATOM     35  C   UNL     1       3.313   6.827  13.638  1.00  0.00     0.039 A 
ATOM     36  C   UNL     1       4.305   7.756  13.964  1.00  0.00     0.014 A 
ATOM     37  C   UNL     1       2.288   7.173  12.752  1.00  0.00     0.014 A 
ATOM     38  C   UNL     1       4.304   9.013  13.355  1.00  0.00     0.010 A 
ATOM     39  C   UNL     1       2.320   8.405  12.103  1.00  0.00     0.010 A 
ATOM     40  C   UNL     1       3.328   9.336  12.399  1.00  0.00    -0.014 A 
BRANCH  40  41
ATOM     41  C   UNL     1       3.345  10.643  11.696  1.00  0.00     0.031 A 
ATOM     42  C   UNL     1       2.243  11.638  11.922  1.00  0.00     0.074 A 
ATOM     43  C   UNL     1       4.317  10.904  10.802  1.00  0.00     0.049 A 
ATOM     44  N   UNL     1       2.041  12.795  11.344  1.00  0.00    -0.248 NA
ATOM     45  C   UNL     1       1.218  11.275  12.914  1.00  0.00     0.031 C 
ATOM     46  C   UNL     1       5.420  10.004  10.463  1.00  0.00     0.029 A 
ATOM     47  N   UNL     1       4.527  12.002  10.005  1.00  0.00    -0.354 N 
ATOM     48  C   UNL     1       0.863  13.289  11.886  1.00  0.00     0.074 A 
ATOM     49  C   UNL     1       0.371  12.289  12.810  1.00  0.00     0.031 C 
ATOM     50  C   UNL     1       6.198  10.591   9.540  1.00  0.00     0.029 A 
ATOM     51  C   UNL     1       5.632  11.892   9.198  1.00  0.00     0.049 A 
ATOM     52  H   UNL     1       3.940  12.792  10.011  1.00  0.00     0.167 HD
ATOM     53  C   UNL     1       0.255  14.476  11.651  1.00  0.00     0.037 A 
ATOM     54  C   UNL     1       6.130  12.743   8.281  1.00  0.00     0.037 A 
ATOM     55  C   UNL     1       0.758  15.482  10.754  1.00  0.00     0.049 A 
ATOM     56  C   UNL     1       5.437  14.054   8.038  1.00  0.00     0.074 A 
ATOM     57  C   UNL     1       0.247  16.743  10.496  1.00  0.00     0.029 A 
ATOM     58  N   UNL     1       1.891  15.341   9.966  1.00  0.00    -0.354 N 
ATOM     59  N   UNL     1       4.355  14.533   8.602  1.00  0.00    -0.248 NA
ATOM     60  C   UNL     1       6.037  14.943   7.033  1.00  0.00     0.031 C 
ATOM     61  C   UNL     1       1.053  17.352   9.527  1.00  0.00     0.029 A 
ATOM     62  C   UNL     1       2.084  16.484   9.208  1.00  0.00     0.049 A 
ATOM     63  H   UNL     1       2.471  14.546   9.948  1.00  0.00     0.167 HD
ATOM     64  C   UNL     1       4.156  15.786   8.038  1.00  0.00     0.074 A 
ATOM     65  C   UNL     1       5.236  15.998   7.097  1.00  0.00     0.031 C 
ATOM     66  C   UNL     1       3.166  16.680   8.278  1.00  0.00     0.037 A 
BRANCH  53  67
ATOM     67  C   UNL     1      -1.025  14.751  12.383  1.00  0.00     0.057 A 
ATOM     68  C   UNL     1      -1.043  15.030  13.756  1.00  0.00     0.134 A 
ATOM     69  C   UNL     1      -2.250  14.764  11.704  1.00  0.00     0.134 A 
ATOM     70  F   UNL     1       0.096  15.020  14.466  1.00  0.00    -0.206 F 
ATOM     71  C   UNL     1      -2.236  15.287  14.433  1.00  0.00     0.040 A 
ATOM     72  C   UNL     1      -3.447  15.043  12.366  1.00  0.00     0.040 A 
ATOM     73  F   UNL     1      -2.302  14.510  10.388  1.00  0.00    -0.206 F 
ATOM     74  C   UNL     1      -3.442  15.300  13.736  1.00  0.00     0.006 A 
ENDBRANCH  53  67
BRANCH  54  75
ATOM     75  C   UNL     1       7.364  12.390   7.539  1.00  0.00     0.057 A 
ATOM     76  C   UNL     1       8.575  13.037   7.811  1.00  0.00     0.134 A 
ATOM     77  C   UNL     1       7.366  11.405   6.545  1.00  0.00     0.134 A 
ATOM     78  F   UNL     1       8.630  14.003   8.740  1.00  0.00    -0.206 F 
ATOM     79  C   UNL     1       9.742  12.726   7.112  1.00  0.00     0.040 A 
ATOM     80  C   UNL     1       8.530  11.070   5.852  1.00  0.00     0.040 A 
ATOM     81  F   UNL     1       6.237  10.745   6.244  1.00  0.00    -0.206 F 
ATOM     82  C   UNL     1       9.722  11.736   6.132  1.00  0.00     0.006 A 
ENDBRANCH  54  75
BRANCH  66  83
ATOM     83  C   UNL     1       3.221  17.977   7.528  1.00  0.00     0.057 A 
ATOM     84  C   UNL     1       2.887  18.056   6.171  1.00  0.00     0.134 A 
ATOM     85  C   UNL     1       3.581  19.163   8.179  1.00  0.00     0.134 A 
ATOM     86  F   UNL     1       2.549  16.952   5.488  1.00  0.00    -0.206 F 
ATOM     87  C   UNL     1       2.926  19.270   5.482  1.00  0.00     0.040 A 
ATOM     88  C   UNL     1       3.602  20.385   7.507  1.00  0.00     0.040 A 
ATOM     89  F   UNL     1       3.907  19.154   9.481  1.00  0.00    -0.206 F 
ATOM     90  C   UNL     1       3.278  20.440   6.153  1.00  0.00     0.006 A 
ENDBRANCH  66  83
ENDBRANCH  40  41
ENDBRANCH  32  35
ENDBRANCH  30  31
ENDBRANCH  29  30
ENDBRANCH  28  29
ENDBRANCH   1  28
TORSDOF 17
