REMARK SMILES Cc1ccccc1[C@H](C(=O)NC[C@H]1CC[C@@H](C(=O)NCCCCCCNC(=O)c2ccc(-c3c4nc(c(-c5c(F)cccc5F)c5ccc([nH]5)c(-c5c(F)cccc5F)c5nc(c(-c6c(F)cccc6F)c6ccc3[nH]6)C=C5)C=C4)cc2)CC1)[NH+](C)C
REMARK SMILES IDX 21 1 20 2 19 3 17 4 18 5 16 7 13 8 14 9 84 10 15 11 83 12
REMARK SMILES IDX 12 13 11 14 9 15 10 16 8 18 7 19 1 20 2 21 3 22 4 23 6 24
REMARK SMILES IDX 5 25 85 26 86 27 87 28 22 30 23 31 24 32 25 33 26 34 27 35
REMARK SMILES IDX 28 37 29 38 30 39 82 40 31 41 81 42 32 43 33 44 34 45 75 46
REMARK SMILES IDX 35 47 80 48 74 49 76 50 36 51 79 52 73 53 72 54 37 56 63 57
REMARK SMILES IDX 46 58 62 59 47 60 50 61 61 62 77 63 48 64 49 65 60 67 78 68
REMARK SMILES IDX 51 69 38 70 39 71 44 72 40 73 41 74 43 75 45 76 42 77 64 78
REMARK SMILES IDX 65 79 70 80 66 81 67 82 69 83 71 84 68 85 52 86 53 87 58 88
REMARK SMILES IDX 54 89 55 90 57 91 59 92 56 93
REMARK H PARENT 19 6 11 17 85 29 26 36 76 55 50 66
REMARK Flexibility Score: inf
ROOT
ATOM      1  C   UNL     1       3.480   0.449  -2.939  1.00  0.00     0.021 C 
ENDROOT
BRANCH   1   2
ATOM      2  C   UNL     1       3.138   1.443  -4.058  1.00  0.00     0.116 C 
BRANCH   2   3
ATOM      3  N   UNL     1       1.876   1.122  -4.769  1.00  0.00    -0.356 N 
ATOM      4  C   UNL     1       1.246   2.072  -5.547  1.00  0.00     0.223 C 
ATOM      5  O   UNL     1       1.902   3.014  -6.002  1.00  0.00    -0.275 OA
ATOM      6  H   UNL     1       1.485   0.223  -4.685  1.00  0.00     0.163 HD
BRANCH   4   7
ATOM      7  C   UNL     1      -0.288   1.980  -5.830  1.00  0.00     0.078 C 
ATOM      8  C   UNL     1      -2.434   2.667  -3.661  1.00  0.00     0.008 C 
ATOM      9  C   UNL     1      -1.845   3.757  -4.578  1.00  0.00     0.006 C 
ATOM     10  C   UNL     1      -1.719   1.320  -3.766  1.00  0.00     0.006 C 
ATOM     11  C   UNL     1      -0.948   3.379  -5.771  1.00  0.00     0.014 C 
ATOM     12  C   UNL     1      -1.175   0.941  -5.146  1.00  0.00     0.014 C 
BRANCH   8  13
ATOM     13  C   UNL     1      -2.652   3.256  -2.204  1.00  0.00     0.119 C 
BRANCH  13  14
ATOM     14  N   UNL     1      -2.592   2.344  -1.061  1.00  0.00    -0.350 N 
ATOM     15  C   UNL     1      -1.982   2.410   0.173  1.00  0.00     0.283 C 
ATOM     16  O   UNL     1      -2.408   1.582   0.997  1.00  0.00    -0.268 OA
ATOM     17  H   UNL     1      -3.091   1.507  -1.204  1.00  0.00     0.163 HD
BRANCH  15  18
ATOM     18  C   UNL     1      -0.750   3.329   0.574  1.00  0.00     0.305 C 
BRANCH  18  19
ATOM     19  C   UNL     1      -0.048   4.043  -0.565  1.00  0.00     0.022 A 
ATOM     20  C   UNL     1       0.702   1.766  -1.430  1.00  0.00     0.045 C 
ATOM     21  C   UNL     1       0.533   3.259  -1.573  1.00  0.00    -0.041 A 
ATOM     22  C   UNL     1       1.016   3.912  -2.708  1.00  0.00     0.004 A 
ATOM     23  C   UNL     1       1.094   5.293  -2.816  1.00  0.00     0.000 A 
ATOM     24  C   UNL     1       0.030   5.447  -0.680  1.00  0.00     0.011 A 
ATOM     25  C   UNL     1       0.639   6.067  -1.771  1.00  0.00     0.001 A 
ENDBRANCH  18  19
BRANCH  18  26
ATOM     26  N   UNL     1      -0.950   4.053   1.858  1.00  0.00    -0.326 N 
ATOM     27  C   UNL     1       0.193   4.817   2.359  1.00  0.00     0.333 C 
ATOM     28  C   UNL     1      -2.202   4.771   1.983  1.00  0.00     0.333 C 
ATOM     29  H   UNL     1      -1.026   3.266   2.502  1.00  0.00     0.348 HD
ENDBRANCH  18  26
ENDBRANCH  15  18
ENDBRANCH  13  14
ENDBRANCH   8  13
ENDBRANCH   4   7
ENDBRANCH   2   3
ENDBRANCH   1   2
BRANCH   1  30
ATOM     30  C   UNL     1       4.386   0.884  -1.748  1.00  0.00     0.002 C 
BRANCH  30  31
ATOM     31  C   UNL     1       4.630   2.360  -1.371  1.00  0.00     0.002 C 
BRANCH  31  32
ATOM     32  C   UNL     1       3.860   3.020  -0.207  1.00  0.00     0.021 C 
BRANCH  32  33
ATOM     33  C   UNL     1       3.886   2.321   1.160  1.00  0.00     0.116 C 
BRANCH  33  34
ATOM     34  N   UNL     1       4.001   3.292   2.261  1.00  0.00    -0.352 N 
ATOM     35  C   UNL     1       3.670   3.182   3.604  1.00  0.00     0.251 C 
ATOM     36  H   UNL     1       4.374   4.165   2.001  1.00  0.00     0.163 HD
ATOM     37  O   UNL     1       4.072   3.980   4.419  1.00  0.00    -0.269 OA
BRANCH  35  38
ATOM     38  C   UNL     1       2.850   2.031   4.030  1.00  0.00     0.039 A 
ATOM     39  C   UNL     1       3.353   1.131   4.968  1.00  0.00     0.014 A 
ATOM     40  C   UNL     1       1.648   1.784   3.379  1.00  0.00     0.014 A 
ATOM     41  C   UNL     1       2.777  -0.135   5.050  1.00  0.00     0.010 A 
ATOM     42  C   UNL     1       1.070   0.538   3.455  1.00  0.00     0.010 A 
ATOM     43  C   UNL     1       1.701  -0.447   4.210  1.00  0.00    -0.014 A 
BRANCH  43  44
ATOM     44  C   UNL     1       1.331  -1.815   3.887  1.00  0.00     0.031 A 
ATOM     45  C   UNL     1       0.288  -2.530   4.629  1.00  0.00     0.074 A 
ATOM     46  C   UNL     1       1.969  -2.427   2.865  1.00  0.00     0.049 A 
ATOM     47  N   UNL     1       0.300  -3.806   4.818  1.00  0.00    -0.248 NA
ATOM     48  C   UNL     1      -0.846  -1.852   5.237  1.00  0.00     0.031 C 
ATOM     49  C   UNL     1       1.663  -3.721   2.267  1.00  0.00     0.029 A 
ATOM     50  N   UNL     1       3.206  -2.067   2.313  1.00  0.00    -0.354 N 
ATOM     51  C   UNL     1      -0.924  -4.156   5.332  1.00  0.00     0.074 A 
ATOM     52  C   UNL     1      -1.574  -2.899   5.643  1.00  0.00     0.031 C 
ATOM     53  C   UNL     1       2.780  -4.197   1.694  1.00  0.00     0.029 A 
ATOM     54  C   UNL     1       3.861  -3.281   2.018  1.00  0.00     0.049 A 
ATOM     55  H   UNL     1       3.547  -1.156   2.161  1.00  0.00     0.167 HD
ATOM     56  C   UNL     1      -1.310  -5.465   5.317  1.00  0.00     0.037 A 
ATOM     57  C   UNL     1       5.020  -3.611   2.658  1.00  0.00     0.037 A 
ATOM     58  C   UNL     1      -0.294  -6.328   4.716  1.00  0.00     0.049 A 
ATOM     59  C   UNL     1       4.954  -4.881   3.481  1.00  0.00     0.074 A 
ATOM     60  C   UNL     1      -0.131  -6.889   3.459  1.00  0.00     0.029 A 
ATOM     61  N   UNL     1       0.918  -6.494   5.361  1.00  0.00    -0.354 N 
ATOM     62  N   UNL     1       3.881  -5.599   3.660  1.00  0.00    -0.248 NA
ATOM     63  C   UNL     1       6.089  -5.370   4.266  1.00  0.00     0.031 C 
ATOM     64  C   UNL     1       1.187  -7.415   3.368  1.00  0.00     0.029 A 
ATOM     65  C   UNL     1       1.825  -7.173   4.569  1.00  0.00     0.049 A 
ATOM     66  H   UNL     1       1.111  -6.170   6.271  1.00  0.00     0.167 HD
ATOM     67  C   UNL     1       4.133  -6.560   4.606  1.00  0.00     0.074 A 
ATOM     68  C   UNL     1       5.529  -6.377   4.954  1.00  0.00     0.031 C 
ATOM     69  C   UNL     1       3.167  -7.401   5.079  1.00  0.00     0.037 A 
BRANCH  56  70
ATOM     70  C   UNL     1      -2.723  -5.912   5.603  1.00  0.00     0.057 A 
ATOM     71  C   UNL     1      -3.277  -7.033   4.957  1.00  0.00     0.134 A 
ATOM     72  C   UNL     1      -3.600  -5.256   6.483  1.00  0.00     0.134 A 
ATOM     73  F   UNL     1      -2.539  -7.843   4.187  1.00  0.00    -0.206 F 
ATOM     74  C   UNL     1      -4.629  -7.383   5.065  1.00  0.00     0.040 A 
ATOM     75  C   UNL     1      -4.967  -5.560   6.561  1.00  0.00     0.040 A 
ATOM     76  F   UNL     1      -3.160  -4.325   7.341  1.00  0.00    -0.206 F 
ATOM     77  C   UNL     1      -5.491  -6.617   5.832  1.00  0.00     0.006 A 
ENDBRANCH  56  70
BRANCH  57  78
ATOM     78  C   UNL     1       5.854  -2.430   3.013  1.00  0.00     0.057 A 
ATOM     79  C   UNL     1       6.354  -1.608   1.988  1.00  0.00     0.134 A 
ATOM     80  C   UNL     1       5.898  -1.923   4.314  1.00  0.00     0.134 A 
ATOM     81  F   UNL     1       6.332  -2.027   0.712  1.00  0.00    -0.206 F 
ATOM     82  C   UNL     1       6.788  -0.303   2.234  1.00  0.00     0.040 A 
ATOM     83  C   UNL     1       6.347  -0.625   4.574  1.00  0.00     0.040 A 
ATOM     84  F   UNL     1       5.417  -2.634   5.344  1.00  0.00    -0.206 F 
ATOM     85  C   UNL     1       6.756   0.202   3.530  1.00  0.00     0.006 A 
ENDBRANCH  57  78
BRANCH  69  86
ATOM     86  C   UNL     1       3.415  -8.490   6.089  1.00  0.00     0.057 A 
ATOM     87  C   UNL     1       4.565  -9.294   6.078  1.00  0.00     0.134 A 
ATOM     88  C   UNL     1       2.446  -8.844   7.051  1.00  0.00     0.134 A 
ATOM     89  F   UNL     1       5.514  -9.135   5.144  1.00  0.00    -0.206 F 
ATOM     90  C   UNL     1       4.773 -10.320   7.010  1.00  0.00     0.040 A 
ATOM     91  C   UNL     1       2.619  -9.898   7.952  1.00  0.00     0.040 A 
ATOM     92  F   UNL     1       1.292  -8.174   7.173  1.00  0.00    -0.206 F 
ATOM     93  C   UNL     1       3.796 -10.629   7.948  1.00  0.00     0.006 A 
ENDBRANCH  69  86
ENDBRANCH  43  44
ENDBRANCH  35  38
ENDBRANCH  33  34
ENDBRANCH  32  33
ENDBRANCH  31  32
ENDBRANCH  30  31
ENDBRANCH   1  30
TORSDOF 18
