REMARK SMILES CC(C)(C[NH+]1CCC(C(N)=S)CC1)C(=O)NCCCCCCNC(=O)c1ccc(-c2c3nc(c(-c4c(F)cccc4F)c4ccc([nH]4)c(-c4c(F)cccc4F)c4nc(c(-c5c(F)cccc5F)c5ccc2[nH]5)C=C4)C=C3)cc1
REMARK SMILES IDX 18 1 17 2 16 3 14 4 15 5 2 7 1 8 3 9 4 10 5 11 6 12 13 13
REMARK SMILES IDX 7 15 12 16 8 17 9 18 11 19 10 20 19 23 20 24 21 25 22 26
REMARK SMILES IDX 23 27 24 28 25 30 26 31 27 32 79 33 28 34 78 35 29 36 30 37
REMARK SMILES IDX 31 38 72 39 32 40 77 41 71 42 73 43 33 44 76 45 70 46 69 47
REMARK SMILES IDX 34 49 60 50 43 51 59 52 44 53 47 54 58 55 74 56 45 57 46 58
REMARK SMILES IDX 57 60 75 61 48 62 35 63 36 64 41 65 37 66 38 67 40 68 42 69
REMARK SMILES IDX 39 70 61 71 62 72 67 73 63 74 64 75 66 76 68 77 65 78 49 79
REMARK SMILES IDX 50 80 55 81 51 82 52 83 54 84 56 85 53 86
REMARK H PARENT 16 6 5 14 10 21 10 22 23 29 73 48 47 59
REMARK Flexibility Score: inf
ROOT
ATOM      1  C   UNL     1      -1.316   2.635  -4.348  1.00  0.00     0.021 C 
ENDROOT
BRANCH   1   2
ATOM      2  C   UNL     1      -0.168   1.635  -4.224  1.00  0.00     0.116 C 
BRANCH   2   3
ATOM      3  N   UNL     1       0.822   2.035  -3.244  1.00  0.00    -0.355 N 
ATOM      4  C   UNL     1       1.201   1.519  -2.044  1.00  0.00     0.231 C 
ATOM      5  O   UNL     1       2.169   2.074  -1.512  1.00  0.00    -0.274 OA
ATOM      6  H   UNL     1       1.320   2.845  -3.498  1.00  0.00     0.163 HD
BRANCH   4   7
ATOM      7  C   UNL     1       0.506   0.311  -1.390  1.00  0.00     0.092 C 
ATOM      8  C   UNL     1       1.133   0.048   0.002  1.00  0.00     0.027 C 
ATOM      9  C   UNL     1       0.838  -0.936  -2.242  1.00  0.00     0.027 C 
BRANCH   7  10
ATOM     10  C   UNL     1      -1.035   0.485  -1.216  1.00  0.00     0.278 C 
BRANCH  10  11
ATOM     11  N   UNL     1      -1.513   1.439  -0.186  1.00  0.00    -0.334 N 
ATOM     12  C   UNL     1      -1.201   2.843  -0.482  1.00  0.00     0.262 C 
ATOM     13  C   UNL     1      -2.960   1.278   0.037  1.00  0.00     0.262 C 
ATOM     14  H   UNL     1      -1.002   1.206   0.665  1.00  0.00     0.348 HD
ATOM     15  C   UNL     1      -1.602   3.765   0.665  1.00  0.00     0.072 C 
ATOM     16  C   UNL     1      -3.438   2.136   1.212  1.00  0.00     0.072 C 
ATOM     17  C   UNL     1      -3.084   3.613   1.010  1.00  0.00     0.058 C 
BRANCH  17  18
ATOM     18  C   UNL     1      -3.453   4.505   2.192  1.00  0.00     0.076 C 
ATOM     19  S   UNL     1      -3.007   4.247   3.780  1.00  0.00    -0.066 S 
BRANCH  18  20
ATOM     20  N   UNL     1      -4.160   5.632   1.885  1.00  0.00    -0.393 N 
ATOM     21  H   UNL     1      -4.433   5.803   0.955  1.00  0.00     0.157 HD
ATOM     22  H   UNL     1      -4.397   6.273   2.594  1.00  0.00     0.157 HD
ENDBRANCH  18  20
ENDBRANCH  17  18
ENDBRANCH  10  11
ENDBRANCH   7  10
ENDBRANCH   4   7
ENDBRANCH   2   3
ENDBRANCH   1   2
BRANCH   1  23
ATOM     23  C   UNL     1      -0.892   4.044  -4.769  1.00  0.00     0.002 C 
BRANCH  23  24
ATOM     24  C   UNL     1      -0.141   4.111  -6.102  1.00  0.00     0.002 C 
BRANCH  24  25
ATOM     25  C   UNL     1      -0.839   3.406  -7.266  1.00  0.00     0.021 C 
BRANCH  25  26
ATOM     26  C   UNL     1      -2.246   3.914  -7.550  1.00  0.00     0.116 C 
BRANCH  26  27
ATOM     27  N   UNL     1      -2.239   5.277  -8.055  1.00  0.00    -0.352 N 
ATOM     28  C   UNL     1      -2.797   5.757  -9.214  1.00  0.00     0.251 C 
ATOM     29  H   UNL     1      -1.775   5.941  -7.495  1.00  0.00     0.163 HD
ATOM     30  O   UNL     1      -2.540   6.887  -9.616  1.00  0.00    -0.269 OA
BRANCH  28  31
ATOM     31  C   UNL     1      -3.705   4.883  -9.983  1.00  0.00     0.039 A 
ATOM     32  C   UNL     1      -3.502   4.722 -11.355  1.00  0.00     0.014 A 
ATOM     33  C   UNL     1      -4.733   4.197  -9.331  1.00  0.00     0.014 A 
ATOM     34  C   UNL     1      -4.301   3.826 -12.068  1.00  0.00     0.010 A 
ATOM     35  C   UNL     1      -5.475   3.250 -10.025  1.00  0.00     0.010 A 
ATOM     36  C   UNL     1      -5.274   3.062 -11.402  1.00  0.00    -0.014 A 
BRANCH  36  37
ATOM     37  C   UNL     1      -6.123   2.078 -12.119  1.00  0.00     0.031 A 
ATOM     38  C   UNL     1      -7.611   2.284 -12.167  1.00  0.00     0.074 A 
ATOM     39  C   UNL     1      -5.574   0.967 -12.647  1.00  0.00     0.049 A 
ATOM     40  N   UNL     1      -8.546   1.481 -12.608  1.00  0.00    -0.248 NA
ATOM     41  C   UNL     1      -8.118   3.550 -11.614  1.00  0.00     0.031 C 
ATOM     42  C   UNL     1      -4.148   0.639 -12.643  1.00  0.00     0.029 A 
ATOM     43  N   UNL     1      -6.160  -0.106 -13.273  1.00  0.00    -0.354 N 
ATOM     44  C   UNL     1      -9.747   2.135 -12.365  1.00  0.00     0.074 A 
ATOM     45  C   UNL     1      -9.428   3.372 -11.688  1.00  0.00     0.031 C 
ATOM     46  C   UNL     1      -3.968  -0.545 -13.249  1.00  0.00     0.029 A 
ATOM     47  C   UNL     1      -5.267  -1.083 -13.642  1.00  0.00     0.049 A 
ATOM     48  H   UNL     1      -7.128  -0.169 -13.441  1.00  0.00     0.167 HD
ATOM     49  C   UNL     1     -11.002   1.749 -12.696  1.00  0.00     0.037 A 
ATOM     50  C   UNL     1      -5.476  -2.283 -14.215  1.00  0.00     0.037 A 
ATOM     51  C   UNL     1     -11.312   0.528 -13.391  1.00  0.00     0.049 A 
ATOM     52  C   UNL     1      -6.883  -2.703 -14.549  1.00  0.00     0.074 A 
ATOM     53  C   UNL     1     -12.546   0.066 -13.813  1.00  0.00     0.029 A 
ATOM     54  N   UNL     1     -10.377  -0.425 -13.766  1.00  0.00    -0.354 N 
ATOM     55  N   UNL     1      -8.007  -2.056 -14.356  1.00  0.00    -0.248 NA
ATOM     56  C   UNL     1      -7.050  -4.019 -15.182  1.00  0.00     0.031 C 
ATOM     57  C   UNL     1     -12.363  -1.190 -14.401  1.00  0.00     0.029 A 
ATOM     58  C   UNL     1     -11.009  -1.482 -14.398  1.00  0.00     0.049 A 
ATOM     59  H   UNL     1      -9.407  -0.360 -13.607  1.00  0.00     0.167 HD
ATOM     60  C   UNL     1      -9.007  -2.865 -14.882  1.00  0.00     0.074 A 
ATOM     61  C   UNL     1      -8.357  -4.049 -15.402  1.00  0.00     0.031 C 
ATOM     62  C   UNL     1     -10.344  -2.643 -14.933  1.00  0.00     0.037 A 
BRANCH  49  63
ATOM     63  C   UNL     1     -12.132   2.658 -12.305  1.00  0.00     0.057 A 
ATOM     64  C   UNL     1     -12.317   3.910 -12.905  1.00  0.00     0.134 A 
ATOM     65  C   UNL     1     -13.062   2.265 -11.334  1.00  0.00     0.134 A 
ATOM     66  F   UNL     1     -11.455   4.353 -13.834  1.00  0.00    -0.206 F 
ATOM     67  C   UNL     1     -13.365   4.753 -12.532  1.00  0.00     0.040 A 
ATOM     68  C   UNL     1     -14.133   3.086 -10.974  1.00  0.00     0.040 A 
ATOM     69  F   UNL     1     -12.949   1.077 -10.722  1.00  0.00    -0.206 F 
ATOM     70  C   UNL     1     -14.281   4.337 -11.568  1.00  0.00     0.006 A 
ENDBRANCH  49  63
BRANCH  50  71
ATOM     71  C   UNL     1      -4.328  -3.172 -14.528  1.00  0.00     0.057 A 
ATOM     72  C   UNL     1      -3.956  -3.431 -15.853  1.00  0.00     0.134 A 
ATOM     73  C   UNL     1      -3.585  -3.796 -13.518  1.00  0.00     0.134 A 
ATOM     74  F   UNL     1      -4.641  -2.877 -16.865  1.00  0.00    -0.206 F 
ATOM     75  C   UNL     1      -2.905  -4.294 -16.164  1.00  0.00     0.040 A 
ATOM     76  C   UNL     1      -2.513  -4.640 -13.814  1.00  0.00     0.040 A 
ATOM     77  F   UNL     1      -3.883  -3.584 -12.228  1.00  0.00    -0.206 F 
ATOM     78  C   UNL     1      -2.177  -4.899 -15.141  1.00  0.00     0.006 A 
ENDBRANCH  50  71
BRANCH  62  79
ATOM     79  C   UNL     1     -11.191  -3.668 -15.630  1.00  0.00     0.057 A 
ATOM     80  C   UNL     1     -11.458  -4.922 -15.068  1.00  0.00     0.134 A 
ATOM     81  C   UNL     1     -11.802  -3.363 -16.854  1.00  0.00     0.134 A 
ATOM     82  F   UNL     1     -10.896  -5.280 -13.904  1.00  0.00    -0.206 F 
ATOM     83  C   UNL     1     -12.290  -5.844 -15.707  1.00  0.00     0.040 A 
ATOM     84  C   UNL     1     -12.657  -4.265 -17.488  1.00  0.00     0.040 A 
ATOM     85  F   UNL     1     -11.596  -2.175 -17.442  1.00  0.00    -0.206 F 
ATOM     86  C   UNL     1     -12.900  -5.511 -16.916  1.00  0.00     0.006 A 
ENDBRANCH  62  79
ENDBRANCH  36  37
ENDBRANCH  28  31
ENDBRANCH  26  27
ENDBRANCH  25  26
ENDBRANCH  24  25
ENDBRANCH  23  24
ENDBRANCH   1  23
TORSDOF 17
