REMARK SMILES Cc1ccc(NC(=O)C[C@H]([NH2+]Cc2cccnc2)C(=O)NCCCCCCNC(=O)c2ccc(-c3c4nc(c(-c5c(F)cccc5F)c5ccc([nH]5)c(-c5c(F)cccc5F)c5nc(c(-c6c(F)cccc6F)c6ccc3[nH]6)C=C5)C=C4)cc2)cc1Cl
REMARK SMILES IDX 24 1 23 2 22 3 21 4 19 5 20 6 10 8 9 9 7 10 6 11 8 13 5 14
REMARK SMILES IDX 1 15 2 16 3 17 86 18 4 19 85 20 87 21 11 22 12 25 13 26
REMARK SMILES IDX 14 27 18 28 15 29 17 30 16 31 25 32 26 33 27 34 28 35 29 36
REMARK SMILES IDX 30 38 31 39 32 40 84 41 33 42 83 43 34 44 35 45 36 46 77 47
REMARK SMILES IDX 37 48 82 49 76 50 78 51 38 52 81 53 75 54 74 55 39 57 65 58
REMARK SMILES IDX 48 59 64 60 49 61 52 62 63 63 79 64 50 65 51 66 62 68 80 69
REMARK SMILES IDX 53 70 40 71 41 72 46 73 42 74 43 75 45 76 47 77 44 78 66 79
REMARK SMILES IDX 67 80 72 81 68 82 69 83 71 84 73 85 70 86 54 87 55 88 60 89
REMARK SMILES IDX 56 90 57 91 59 92 61 93 58 94
REMARK H PARENT 21 7 6 12 11 23 11 24 28 37 78 56 52 67
REMARK Flexibility Score: inf
ROOT
ATOM      1  C   UNL     1       4.455  -2.449   1.964  1.00  0.00     0.002 C 
ENDROOT
BRANCH   1   2
ATOM      2  C   UNL     1       3.091  -2.837   1.393  1.00  0.00     0.021 C 
BRANCH   2   3
ATOM      3  C   UNL     1       2.670  -2.133   0.093  1.00  0.00     0.116 C 
BRANCH   3   4
ATOM      4  N   UNL     1       2.211  -3.078  -0.931  1.00  0.00    -0.351 N 
ATOM      5  C   UNL     1       1.051  -3.384  -1.569  1.00  0.00     0.278 C 
ATOM      6  O   UNL     1       1.144  -4.292  -2.412  1.00  0.00    -0.268 OA
ATOM      7  H   UNL     1       2.949  -3.650  -1.242  1.00  0.00     0.163 HD
BRANCH   5   8
ATOM      8  C   UNL     1      -0.371  -2.788  -1.298  1.00  0.00     0.282 C 
BRANCH   8   9
ATOM      9  C   UNL     1      -0.413  -1.391  -0.721  1.00  0.00     0.175 C 
BRANCH   9  10
ATOM     10  C   UNL     1      -0.642  -0.931   0.710  1.00  0.00     0.230 C 
ATOM     11  N   UNL     1      -0.583  -1.547   1.904  1.00  0.00    -0.326 N 
ATOM     12  H   UNL     1      -0.797  -0.903   2.617  1.00  0.00     0.169 HD
ATOM     13  O   UNL     1      -0.918   0.282   0.823  1.00  0.00    -0.274 OA
BRANCH  11  14
ATOM     14  C   UNL     1      -0.319  -2.802   2.473  1.00  0.00     0.042 A 
ATOM     15  C   UNL     1       0.234  -6.599   4.512  1.00  0.00     0.046 C 
ATOM     16  C   UNL     1       0.087  -5.282   3.812  1.00  0.00    -0.032 A 
ATOM     17  C   UNL     1      -0.343  -4.149   4.512  1.00  0.00     0.007 A 
ATOM     18  C   UNL     1       0.331  -5.150   2.447  1.00  0.00     0.046 A 
ATOM     19  C   UNL     1      -0.543  -2.929   3.849  1.00  0.00     0.026 A 
ATOM     20  C   UNL     1       0.156  -3.918   1.812  1.00  0.00     0.047 A 
ATOM     21  Cl  UNL     1       0.860  -6.482   1.479  1.00  0.00    -0.084 Cl
ENDBRANCH  11  14
ENDBRANCH   9  10
ENDBRANCH   8   9
BRANCH   8  22
ATOM     22  N   UNL     1      -1.235  -3.840  -0.736  1.00  0.00    -0.332 N 
ATOM     23  H   UNL     1      -0.854  -4.085   0.178  1.00  0.00     0.347 HD
ATOM     24  H   UNL     1      -1.222  -4.576  -1.441  1.00  0.00     0.347 HD
BRANCH  22  25
ATOM     25  C   UNL     1      -2.650  -3.551  -0.549  1.00  0.00     0.299 C 
BRANCH  25  26
ATOM     26  C   UNL     1      -3.143  -4.201   0.723  1.00  0.00     0.024 A 
ATOM     27  C   UNL     1      -3.094  -5.585   0.922  1.00  0.00     0.013 A 
ATOM     28  C   UNL     1      -3.607  -3.430   1.788  1.00  0.00     0.120 A 
ATOM     29  C   UNL     1      -3.465  -6.125   2.152  1.00  0.00     0.021 A 
ATOM     30  N   UNL     1      -3.983  -3.926   2.992  1.00  0.00    -0.264 NA
ATOM     31  C   UNL     1      -3.891  -5.263   3.148  1.00  0.00     0.111 A 
ENDBRANCH  25  26
ENDBRANCH  22  25
ENDBRANCH   8  22
ENDBRANCH   5   8
ENDBRANCH   3   4
ENDBRANCH   2   3
ENDBRANCH   1   2
BRANCH   1  32
ATOM     32  C   UNL     1       4.606  -0.990   2.405  1.00  0.00     0.002 C 
BRANCH  32  33
ATOM     33  C   UNL     1       3.644  -0.488   3.490  1.00  0.00     0.021 C 
BRANCH  33  34
ATOM     34  C   UNL     1       3.619  -1.268   4.807  1.00  0.00     0.116 C 
BRANCH  34  35
ATOM     35  N   UNL     1       4.932  -1.374   5.431  1.00  0.00    -0.352 N 
ATOM     36  C   UNL     1       5.427  -0.883   6.606  1.00  0.00     0.251 C 
ATOM     37  H   UNL     1       5.583  -1.896   4.908  1.00  0.00     0.163 HD
ATOM     38  O   UNL     1       6.641  -0.982   6.824  1.00  0.00    -0.269 OA
BRANCH  36  39
ATOM     39  C   UNL     1       4.575  -0.228   7.625  1.00  0.00     0.039 A 
ATOM     40  C   UNL     1       5.099   0.871   8.320  1.00  0.00     0.014 A 
ATOM     41  C   UNL     1       3.315  -0.722   7.981  1.00  0.00     0.014 A 
ATOM     42  C   UNL     1       4.351   1.498   9.322  1.00  0.00     0.010 A 
ATOM     43  C   UNL     1       2.545  -0.059   8.943  1.00  0.00     0.010 A 
ATOM     44  C   UNL     1       3.054   1.056   9.625  1.00  0.00    -0.014 A 
BRANCH  44  45
ATOM     45  C   UNL     1       2.229   1.772  10.637  1.00  0.00     0.031 A 
ATOM     46  C   UNL     1       1.844   1.113  11.934  1.00  0.00     0.074 A 
ATOM     47  C   UNL     1       1.793   3.019  10.371  1.00  0.00     0.049 A 
ATOM     48  N   UNL     1       1.129   1.589  12.924  1.00  0.00    -0.248 NA
ATOM     49  C   UNL     1       2.304  -0.269  12.138  1.00  0.00     0.031 C 
ATOM     50  C   UNL     1       2.054   3.760   9.136  1.00  0.00     0.029 A 
ATOM     51  N   UNL     1       1.038   3.885  11.123  1.00  0.00    -0.354 N 
ATOM     52  C   UNL     1       1.042   0.566  13.859  1.00  0.00     0.074 A 
ATOM     53  C   UNL     1       1.742  -0.572  13.300  1.00  0.00     0.031 C 
ATOM     54  C   UNL     1       1.494   4.976   9.226  1.00  0.00     0.029 A 
ATOM     55  C   UNL     1       0.811   5.093  10.510  1.00  0.00     0.049 A 
ATOM     56  H   UNL     1       0.692   3.661  12.018  1.00  0.00     0.167 HD
ATOM     57  C   UNL     1       0.449   0.576  15.078  1.00  0.00     0.037 A 
ATOM     58  C   UNL     1       0.133   6.176  10.934  1.00  0.00     0.037 A 
ATOM     59  C   UNL     1      -0.226   1.714  15.649  1.00  0.00     0.049 A 
ATOM     60  C   UNL     1      -0.505   6.166  12.294  1.00  0.00     0.074 A 
ATOM     61  C   UNL     1      -0.794   1.840  16.906  1.00  0.00     0.029 A 
ATOM     62  N   UNL     1      -0.428   2.922  14.999  1.00  0.00    -0.354 N 
ATOM     63  N   UNL     1      -0.514   5.216  13.197  1.00  0.00    -0.248 NA
ATOM     64  C   UNL     1      -1.220   7.386  12.698  1.00  0.00     0.031 C 
ATOM     65  C   UNL     1      -1.374   3.110  17.002  1.00  0.00     0.029 A 
ATOM     66  C   UNL     1      -1.131   3.790  15.820  1.00  0.00     0.049 A 
ATOM     67  H   UNL     1      -0.118   3.132  14.089  1.00  0.00     0.167 HD
ATOM     68  C   UNL     1      -1.213   5.729  14.281  1.00  0.00     0.074 A 
ATOM     69  C   UNL     1      -1.596   7.081  13.931  1.00  0.00     0.031 C 
ATOM     70  C   UNL     1      -1.510   5.133  15.462  1.00  0.00     0.037 A 
BRANCH  57  71
ATOM     71  C   UNL     1       0.502  -0.690  15.884  1.00  0.00     0.057 A 
ATOM     72  C   UNL     1       1.689  -1.139  16.478  1.00  0.00     0.134 A 
ATOM     73  C   UNL     1      -0.656  -1.447  16.105  1.00  0.00     0.134 A 
ATOM     74  F   UNL     1       2.835  -0.465  16.300  1.00  0.00    -0.206 F 
ATOM     75  C   UNL     1       1.728  -2.309  17.239  1.00  0.00     0.040 A 
ATOM     76  C   UNL     1      -0.634  -2.605  16.884  1.00  0.00     0.040 A 
ATOM     77  F   UNL     1      -1.829  -1.070  15.573  1.00  0.00    -0.206 F 
ATOM     78  C   UNL     1       0.562  -3.042  17.449  1.00  0.00     0.006 A 
ENDBRANCH  57  71
BRANCH  58  79
ATOM     79  C   UNL     1       0.051   7.383  10.074  1.00  0.00     0.057 A 
ATOM     80  C   UNL     1       0.753   8.548  10.402  1.00  0.00     0.134 A 
ATOM     81  C   UNL     1      -0.732   7.404   8.915  1.00  0.00     0.134 A 
ATOM     82  F   UNL     1       1.504   8.594  11.513  1.00  0.00    -0.206 F 
ATOM     83  C   UNL     1       0.667   9.699   9.617  1.00  0.00     0.040 A 
ATOM     84  C   UNL     1      -0.810   8.540   8.108  1.00  0.00     0.040 A 
ATOM     85  F   UNL     1      -1.424   6.316   8.545  1.00  0.00    -0.206 F 
ATOM     86  C   UNL     1      -0.114   9.694   8.463  1.00  0.00     0.006 A 
ENDBRANCH  58  79
BRANCH  70  87
ATOM     87  C   UNL     1      -2.267   5.952  16.466  1.00  0.00     0.057 A 
ATOM     88  C   UNL     1      -3.622   6.262  16.295  1.00  0.00     0.134 A 
ATOM     89  C   UNL     1      -1.634   6.430  17.620  1.00  0.00     0.134 A 
ATOM     90  F   UNL     1      -4.283   5.847  15.204  1.00  0.00    -0.206 F 
ATOM     91  C   UNL     1      -4.314   7.045  17.222  1.00  0.00     0.040 A 
ATOM     92  C   UNL     1      -2.321   7.192  18.566  1.00  0.00     0.040 A 
ATOM     93  F   UNL     1      -0.340   6.163  17.848  1.00  0.00    -0.206 F 
ATOM     94  C   UNL     1      -3.663   7.509  18.364  1.00  0.00     0.006 A 
ENDBRANCH  70  87
ENDBRANCH  44  45
ENDBRANCH  36  39
ENDBRANCH  34  35
ENDBRANCH  33  34
ENDBRANCH  32  33
ENDBRANCH   1  32
TORSDOF 19
