REMARK SMILES CO[C@H]1C[C@@H](C(=O)NCCCCCCNC(=O)c2ccc(-c3c4nc(c(-c5c(F)cccc5F)c5ccc([nH]5)c(-c5c(F)cccc5F)c5nc(c(-c6c(F)cccc6F)c6ccc3[nH]6)C=C5)C=C4)cc2)N(C(=O)CSc2cccs2)C1
REMARK SMILES IDX 10 1 9 2 8 3 6 4 7 5 5 7 3 8 4 9 82 10 72 11 2 12 1 13 73 14
REMARK SMILES IDX 74 15 75 16 76 17 77 18 78 19 81 20 79 21 80 22 11 23 12 24
REMARK SMILES IDX 13 25 14 26 15 27 16 28 17 30 18 31 19 32 71 33 20 34 70 35
REMARK SMILES IDX 21 36 22 37 23 38 64 39 24 40 69 41 63 42 65 43 25 44 68 45
REMARK SMILES IDX 62 46 61 47 26 49 52 50 35 51 51 52 36 53 39 54 50 55 66 56
REMARK SMILES IDX 37 57 38 58 49 60 67 61 40 62 27 63 28 64 33 65 29 66 30 67
REMARK SMILES IDX 32 68 34 69 31 70 53 71 54 72 59 73 55 74 56 75 58 76 60 77
REMARK SMILES IDX 57 78 41 79 42 80 47 81 43 82 44 83 46 84 48 85 45 86
REMARK H PARENT 8 6 15 29 65 48 39 59
REMARK Flexibility Score: inf
ROOT
ATOM      1  C   UNL     1       3.118   7.807   2.466  1.00  0.00     0.021 C 
ENDROOT
BRANCH   1   2
ATOM      2  C   UNL     1       2.267   6.574   2.798  1.00  0.00     0.116 C 
BRANCH   2   3
ATOM      3  N   UNL     1       0.969   6.654   2.153  1.00  0.00    -0.354 N 
ATOM      4  C   UNL     1       0.369   5.939   1.169  1.00  0.00     0.242 C 
ATOM      5  O   UNL     1      -0.731   6.363   0.793  1.00  0.00    -0.273 OA
ATOM      6  H   UNL     1       0.405   7.380   2.504  1.00  0.00     0.163 HD
BRANCH   4   7
ATOM      7  C   UNL     1       0.856   4.567   0.657  1.00  0.00     0.177 C 
ATOM      8  C   UNL     1       0.907   2.243   1.282  1.00  0.00     0.139 C 
ATOM      9  C   UNL     1       0.087   3.512   1.473  1.00  0.00     0.069 C 
ATOM     10  C   UNL     1       2.344   2.767   1.278  1.00  0.00     0.152 C 
ATOM     11  N   UNL     1       2.253   4.114   0.718  1.00  0.00    -0.327 N 
BRANCH   8  12
ATOM     12  O   UNL     1       0.652   1.183   2.192  1.00  0.00    -0.380 OA
ATOM     13  C   UNL     1       0.583   1.514   3.569  1.00  0.00     0.195 C 
ENDBRANCH   8  12
BRANCH  11  14
ATOM     14  C   UNL     1       3.329   4.622   0.010  1.00  0.00     0.233 C 
ATOM     15  O   UNL     1       4.417   4.039  -0.001  1.00  0.00    -0.274 OA
BRANCH  14  16
ATOM     16  C   UNL     1       3.176   5.962  -0.685  1.00  0.00     0.175 C 
BRANCH  16  17
ATOM     17  S   UNL     1       2.428   5.806  -2.320  1.00  0.00    -0.105 SA
BRANCH  17  18
ATOM     18  C   UNL     1       3.845   5.445  -3.278  1.00  0.00     0.060 A 
ATOM     19  C   UNL     1       4.808   6.347  -3.677  1.00  0.00     0.027 A 
ATOM     20  S   UNL     1       4.156   3.872  -3.860  1.00  0.00    -0.137 S 
ATOM     21  C   UNL     1       5.823   5.729  -4.464  1.00  0.00     0.013 A 
ATOM     22  C   UNL     1       5.590   4.382  -4.637  1.00  0.00     0.066 A 
ENDBRANCH  17  18
ENDBRANCH  16  17
ENDBRANCH  14  16
ENDBRANCH  11  14
ENDBRANCH   4   7
ENDBRANCH   2   3
ENDBRANCH   1   2
BRANCH   1  23
ATOM     23  C   UNL     1       2.596   9.127   3.050  1.00  0.00     0.002 C 
BRANCH  23  24
ATOM     24  C   UNL     1       2.697   9.248   4.571  1.00  0.00     0.002 C 
BRANCH  24  25
ATOM     25  C   UNL     1       4.097   9.037   5.154  1.00  0.00     0.021 C 
BRANCH  25  26
ATOM     26  C   UNL     1       5.205   9.875   4.518  1.00  0.00     0.116 C 
BRANCH  26  27
ATOM     27  N   UNL     1       4.966  11.301   4.645  1.00  0.00    -0.352 N 
ATOM     28  C   UNL     1       5.753  12.281   5.195  1.00  0.00     0.251 C 
ATOM     29  H   UNL     1       4.106  11.614   4.281  1.00  0.00     0.163 HD
ATOM     30  O   UNL     1       5.296  13.407   5.363  1.00  0.00    -0.269 OA
BRANCH  28  31
ATOM     31  C   UNL     1       7.144  11.987   5.605  1.00  0.00     0.039 A 
ATOM     32  C   UNL     1       7.596  12.493   6.827  1.00  0.00     0.014 A 
ATOM     33  C   UNL     1       8.013  11.261   4.784  1.00  0.00     0.014 A 
ATOM     34  C   UNL     1       8.903  12.235   7.244  1.00  0.00     0.010 A 
ATOM     35  C   UNL     1       9.298  10.951   5.230  1.00  0.00     0.010 A 
ATOM     36  C   UNL     1       9.758  11.443   6.460  1.00  0.00    -0.014 A 
BRANCH  36  37
ATOM     37  C   UNL     1      11.131  11.133   6.934  1.00  0.00     0.031 A 
ATOM     38  C   UNL     1      12.333  11.690   6.224  1.00  0.00     0.074 A 
ATOM     39  C   UNL     1      11.293  10.333   8.005  1.00  0.00     0.049 A 
ATOM     40  N   UNL     1      13.601  11.572   6.532  1.00  0.00    -0.248 NA
ATOM     41  C   UNL     1      12.084  12.461   4.997  1.00  0.00     0.031 C 
ATOM     42  C   UNL     1      10.210   9.678   8.742  1.00  0.00     0.029 A 
ATOM     43  N   UNL     1      12.430   9.941   8.665  1.00  0.00    -0.354 N 
ATOM     44  C   UNL     1      14.297  12.248   5.538  1.00  0.00     0.074 A 
ATOM     45  C   UNL     1      13.316  12.728   4.589  1.00  0.00     0.031 C 
ATOM     46  C   UNL     1      10.732   8.996   9.773  1.00  0.00     0.029 A 
ATOM     47  C   UNL     1      12.184   9.150   9.761  1.00  0.00     0.049 A 
ATOM     48  H   UNL     1      13.336  10.202   8.380  1.00  0.00     0.167 HD
ATOM     49  C   UNL     1      15.630  12.470   5.439  1.00  0.00     0.037 A 
ATOM     50  C   UNL     1      13.031   8.624  10.664  1.00  0.00     0.037 A 
ATOM     51  C   UNL     1      16.604  12.012   6.395  1.00  0.00     0.049 A 
ATOM     52  C   UNL     1      14.501   8.914  10.551  1.00  0.00     0.074 A 
ATOM     53  C   UNL     1      17.969  12.239   6.414  1.00  0.00     0.029 A 
ATOM     54  N   UNL     1      16.314  11.229   7.502  1.00  0.00    -0.354 N 
ATOM     55  N   UNL     1      15.136   9.626   9.652  1.00  0.00    -0.248 NA
ATOM     56  C   UNL     1      15.369   8.340  11.588  1.00  0.00     0.031 C 
ATOM     57  C   UNL     1      18.510  11.566   7.515  1.00  0.00     0.029 A 
ATOM     58  C   UNL     1      17.476  10.951   8.203  1.00  0.00     0.049 A 
ATOM     59  H   UNL     1      15.415  10.917   7.753  1.00  0.00     0.167 HD
ATOM     60  C   UNL     1      16.474   9.601  10.024  1.00  0.00     0.074 A 
ATOM     61  C   UNL     1      16.554   8.823  11.243  1.00  0.00     0.031 C 
ATOM     62  C   UNL     1      17.540  10.170   9.411  1.00  0.00     0.037 A 
BRANCH  49  63
ATOM     63  C   UNL     1      16.110  13.256   4.254  1.00  0.00     0.057 A 
ATOM     64  C   UNL     1      15.875  14.633   4.139  1.00  0.00     0.134 A 
ATOM     65  C   UNL     1      16.843  12.639   3.232  1.00  0.00     0.134 A 
ATOM     66  F   UNL     1      15.169  15.282   5.078  1.00  0.00    -0.206 F 
ATOM     67  C   UNL     1      16.330  15.363   3.040  1.00  0.00     0.040 A 
ATOM     68  C   UNL     1      17.324  13.363   2.140  1.00  0.00     0.040 A 
ATOM     69  F   UNL     1      17.109  11.325   3.282  1.00  0.00    -0.206 F 
ATOM     70  C   UNL     1      17.062  14.728   2.039  1.00  0.00     0.006 A 
ENDBRANCH  49  63
BRANCH  50  71
ATOM     71  C   UNL     1      12.504   7.809  11.785  1.00  0.00     0.057 A 
ATOM     72  C   UNL     1      12.489   8.307  13.093  1.00  0.00     0.134 A 
ATOM     73  C   UNL     1      12.005   6.518  11.578  1.00  0.00     0.134 A 
ATOM     74  F   UNL     1      12.970   9.531  13.354  1.00  0.00    -0.206 F 
ATOM     75  C   UNL     1      12.012   7.544  14.159  1.00  0.00     0.040 A 
ATOM     76  C   UNL     1      11.505   5.752  12.632  1.00  0.00     0.040 A 
ATOM     77  F   UNL     1      11.986   5.989  10.346  1.00  0.00    -0.206 F 
ATOM     78  C   UNL     1      11.514   6.263  13.929  1.00  0.00     0.006 A 
ENDBRANCH  50  71
BRANCH  62  79
ATOM     79  C   UNL     1      18.878   9.979  10.062  1.00  0.00     0.057 A 
ATOM     80  C   UNL     1      19.541   8.746  10.035  1.00  0.00     0.134 A 
ATOM     81  C   UNL     1      19.514  11.043  10.714  1.00  0.00     0.134 A 
ATOM     82  F   UNL     1      18.978   7.684   9.438  1.00  0.00    -0.206 F 
ATOM     83  C   UNL     1      20.776   8.569  10.660  1.00  0.00     0.040 A 
ATOM     84  C   UNL     1      20.760  10.885  11.322  1.00  0.00     0.040 A 
ATOM     85  F   UNL     1      18.936  12.252  10.769  1.00  0.00    -0.206 F 
ATOM     86  C   UNL     1      21.391   9.642  11.303  1.00  0.00     0.006 A 
ENDBRANCH  62  79
ENDBRANCH  36  37
ENDBRANCH  28  31
ENDBRANCH  26  27
ENDBRANCH  25  26
ENDBRANCH  24  25
ENDBRANCH  23  24
ENDBRANCH   1  23
TORSDOF 18
