REMARK SMILES O=C(Cn1nnnc1SCc1ccc([N+](=O)[O-])c(F)c1)NCCCCCCNC(=O)c1ccc(-c2c3nc(c(-c4c(F)cccc4F)c4ccc([nH]4)c(-c4c(F)cccc4F)c4nc(c(-c5c(F)cccc5F)c5ccc2[nH]5)C=C4)C=C3)cc1
REMARK SMILES IDX 23 1 22 2 21 3 1 4 2 5 3 7 4 8 5 9 8 10 6 11 7 12 9 13 10 14
REMARK SMILES IDX 11 15 12 16 20 17 13 18 18 19 14 20 19 21 15 22 16 23 17 24
REMARK SMILES IDX 24 25 25 26 26 27 27 28 28 29 29 30 30 32 31 33 32 34 84 35
REMARK SMILES IDX 33 36 83 37 34 38 35 39 36 40 77 41 37 42 82 43 76 44 78 45
REMARK SMILES IDX 38 46 81 47 75 48 74 49 39 51 65 52 48 53 64 54 49 55 52 56
REMARK SMILES IDX 63 57 79 58 50 59 51 60 62 62 80 63 53 64 40 65 41 66 46 67
REMARK SMILES IDX 42 68 43 69 45 70 47 71 44 72 66 73 67 74 72 75 68 76 69 77
REMARK SMILES IDX 71 78 73 79 70 80 54 81 55 82 60 83 56 84 57 85 59 86 61 87
REMARK SMILES IDX 58 88
REMARK H PARENT 21 6 28 31 78 50 52 61
REMARK Flexibility Score: inf
ROOT
ATOM      1  C   UNL     1       2.966  -3.423  -1.930  1.00  0.00     0.021 C 
ENDROOT
BRANCH   1   2
ATOM      2  C   UNL     1       2.287  -2.161  -1.396  1.00  0.00     0.116 C 
BRANCH   2   3
ATOM      3  N   UNL     1       3.170  -1.011  -1.303  1.00  0.00    -0.354 N 
ATOM      4  O   UNL     1       1.554   0.469  -0.651  1.00  0.00    -0.273 OA
ATOM      5  C   UNL     1       2.736   0.226  -0.868  1.00  0.00     0.241 C 
ATOM      6  H   UNL     1       4.114  -1.117  -1.562  1.00  0.00     0.163 HD
BRANCH   5   7
ATOM      7  C   UNL     1       3.828   1.252  -0.724  1.00  0.00     0.249 C 
BRANCH   7   8
ATOM      8  N   UNL     1       4.092   1.737   0.616  1.00  0.00    -0.211 N 
ATOM      9  N   UNL     1       4.300   3.072   0.734  1.00  0.00    -0.044 NA
ATOM     10  C   UNL     1       4.501   1.139   1.782  1.00  0.00     0.210 A 
ATOM     11  N   UNL     1       4.847   3.255   1.923  1.00  0.00    -0.023 NA
ATOM     12  N   UNL     1       4.984   2.069   2.579  1.00  0.00    -0.102 NA
BRANCH  10  13
ATOM     13  S   UNL     1       4.587  -0.513   2.219  1.00  0.00    -0.080 SA
BRANCH  13  14
ATOM     14  C   UNL     1       2.983  -1.282   2.164  1.00  0.00     0.113 C 
BRANCH  14  15
ATOM     15  C   UNL     1       1.635  -0.609   2.206  1.00  0.00    -0.034 A 
ATOM     16  C   UNL     1       0.532  -1.436   1.889  1.00  0.00     0.012 A 
ATOM     17  C   UNL     1       1.393   0.754   2.388  1.00  0.00     0.051 A 
ATOM     18  C   UNL     1      -0.723  -0.901   1.597  1.00  0.00     0.089 A 
ATOM     19  C   UNL     1       0.144   1.302   2.065  1.00  0.00     0.200 A 
ATOM     20  C   UNL     1      -0.896   0.485   1.633  1.00  0.00     0.304 A 
ATOM     21  F   UNL     1       0.013   2.633   2.153  1.00  0.00    -0.199 F 
BRANCH  20  22
ATOM     22  N   UNL     1      -2.158   1.057   1.175  1.00  0.00     0.065 N 
ATOM     23  O   UNL     1      -3.114   0.277   1.035  1.00  0.00    -0.258 OA
ATOM     24  O   UNL     1      -2.211   2.267   0.926  1.00  0.00    -0.258 OA
ENDBRANCH  20  22
ENDBRANCH  14  15
ENDBRANCH  13  14
ENDBRANCH  10  13
ENDBRANCH   7   8
ENDBRANCH   5   7
ENDBRANCH   2   3
ENDBRANCH   1   2
BRANCH   1  25
ATOM     25  C   UNL     1       4.382  -3.734  -1.426  1.00  0.00     0.002 C 
BRANCH  25  26
ATOM     26  C   UNL     1       4.580  -4.142   0.038  1.00  0.00     0.002 C 
BRANCH  26  27
ATOM     27  C   UNL     1       3.849  -5.383   0.558  1.00  0.00     0.021 C 
BRANCH  27  28
ATOM     28  C   UNL     1       4.088  -6.665  -0.229  1.00  0.00     0.116 C 
BRANCH  28  29
ATOM     29  N   UNL     1       5.487  -7.098  -0.254  1.00  0.00    -0.352 N 
ATOM     30  C   UNL     1       6.058  -8.090  -1.043  1.00  0.00     0.251 C 
ATOM     31  H   UNL     1       6.096  -6.631   0.362  1.00  0.00     0.163 HD
ATOM     32  O   UNL     1       7.106  -8.626  -0.736  1.00  0.00    -0.269 OA
BRANCH  30  33
ATOM     33  C   UNL     1       5.360  -8.468  -2.286  1.00  0.00     0.039 A 
ATOM     34  C   UNL     1       5.182  -9.796  -2.676  1.00  0.00     0.014 A 
ATOM     35  C   UNL     1       4.813  -7.430  -3.027  1.00  0.00     0.014 A 
ATOM     36  C   UNL     1       4.354 -10.064  -3.766  1.00  0.00     0.010 A 
ATOM     37  C   UNL     1       3.848  -7.700  -3.955  1.00  0.00     0.010 A 
ATOM     38  C   UNL     1       3.666  -9.007  -4.385  1.00  0.00    -0.014 A 
BRANCH  38  39
ATOM     39  C   UNL     1       2.673  -9.241  -5.426  1.00  0.00     0.031 A 
ATOM     40  C   UNL     1       1.584 -10.190  -5.062  1.00  0.00     0.074 A 
ATOM     41  C   UNL     1       2.596  -8.470  -6.535  1.00  0.00     0.049 A 
ATOM     42  N   UNL     1       1.322 -11.338  -5.593  1.00  0.00    -0.248 NA
ATOM     43  C   UNL     1       0.751  -9.876  -3.888  1.00  0.00     0.031 C 
ATOM     44  C   UNL     1       3.379  -7.276  -6.885  1.00  0.00     0.029 A 
ATOM     45  N   UNL     1       1.700  -8.537  -7.553  1.00  0.00    -0.354 N 
ATOM     46  C   UNL     1       0.173 -11.806  -4.959  1.00  0.00     0.074 A 
ATOM     47  C   UNL     1      -0.030 -10.956  -3.815  1.00  0.00     0.031 C 
ATOM     48  C   UNL     1       2.769  -6.607  -7.887  1.00  0.00     0.029 A 
ATOM     49  C   UNL     1       1.673  -7.417  -8.377  1.00  0.00     0.049 A 
ATOM     50  H   UNL     1       1.116  -9.316  -7.697  1.00  0.00     0.167 HD
ATOM     51  C   UNL     1      -0.647 -12.714  -5.557  1.00  0.00     0.037 A 
ATOM     52  C   UNL     1       0.793  -7.173  -9.377  1.00  0.00     0.037 A 
ATOM     53  C   UNL     1       0.013 -13.367  -6.659  1.00  0.00     0.049 A 
ATOM     54  C   UNL     1       0.192  -8.478  -9.751  1.00  0.00     0.074 A 
ATOM     55  C   UNL     1       1.152 -14.139  -6.785  1.00  0.00     0.029 A 
ATOM     56  N   UNL     1      -0.286 -12.941  -7.930  1.00  0.00    -0.354 N 
ATOM     57  N   UNL     1       0.859  -9.454 -10.302  1.00  0.00    -0.248 NA
ATOM     58  C   UNL     1      -1.042  -8.859  -9.083  1.00  0.00     0.031 C 
ATOM     59  C   UNL     1       1.750 -13.708  -8.007  1.00  0.00     0.029 A 
ATOM     60  C   UNL     1       0.905 -12.760  -8.585  1.00  0.00     0.049 A 
ATOM     61  H   UNL     1      -1.187 -12.795  -8.301  1.00  0.00     0.167 HD
ATOM     62  C   UNL     1       0.368 -10.602  -9.698  1.00  0.00     0.074 A 
ATOM     63  C   UNL     1      -0.854 -10.179  -9.015  1.00  0.00     0.031 C 
ATOM     64  C   UNL     1       1.141 -11.720  -9.561  1.00  0.00     0.037 A 
BRANCH  51  65
ATOM     65  C   UNL     1      -2.144 -12.764  -5.377  1.00  0.00     0.057 A 
ATOM     66  C   UNL     1      -2.928 -11.672  -4.953  1.00  0.00     0.134 A 
ATOM     67  C   UNL     1      -2.870 -13.845  -5.913  1.00  0.00     0.134 A 
ATOM     68  F   UNL     1      -2.387 -10.529  -4.515  1.00  0.00    -0.206 F 
ATOM     69  C   UNL     1      -4.322 -11.652  -5.053  1.00  0.00     0.040 A 
ATOM     70  C   UNL     1      -4.262 -13.813  -6.068  1.00  0.00     0.040 A 
ATOM     71  F   UNL     1      -2.241 -14.935  -6.376  1.00  0.00    -0.206 F 
ATOM     72  C   UNL     1      -4.993 -12.712  -5.640  1.00  0.00     0.006 A 
ENDBRANCH  51  65
BRANCH  52  73
ATOM     73  C   UNL     1       0.190  -5.881  -9.779  1.00  0.00     0.057 A 
ATOM     74  C   UNL     1       0.026  -4.825  -8.865  1.00  0.00     0.134 A 
ATOM     75  C   UNL     1      -0.512  -5.764 -10.987  1.00  0.00     0.134 A 
ATOM     76  F   UNL     1       0.604  -4.857  -7.655  1.00  0.00    -0.206 F 
ATOM     77  C   UNL     1      -0.817  -3.737  -9.122  1.00  0.00     0.040 A 
ATOM     78  C   UNL     1      -1.364  -4.684 -11.254  1.00  0.00     0.040 A 
ATOM     79  F   UNL     1      -0.444  -6.736 -11.909  1.00  0.00    -0.206 F 
ATOM     80  C   UNL     1      -1.531  -3.674 -10.312  1.00  0.00     0.006 A 
ENDBRANCH  52  73
BRANCH  64  81
ATOM     81  C   UNL     1       2.462 -11.772 -10.283  1.00  0.00     0.057 A 
ATOM     82  C   UNL     1       2.710 -12.847 -11.144  1.00  0.00     0.134 A 
ATOM     83  C   UNL     1       3.546 -10.922 -10.010  1.00  0.00     0.134 A 
ATOM     84  F   UNL     1       1.738 -13.732 -11.414  1.00  0.00    -0.206 F 
ATOM     85  C   UNL     1       3.973 -13.077 -11.696  1.00  0.00     0.040 A 
ATOM     86  C   UNL     1       4.807 -11.122 -10.582  1.00  0.00     0.040 A 
ATOM     87  F   UNL     1       3.438  -9.918  -9.133  1.00  0.00    -0.206 F 
ATOM     88  C   UNL     1       5.027 -12.211 -11.418  1.00  0.00     0.006 A 
ENDBRANCH  64  81
ENDBRANCH  38  39
ENDBRANCH  30  33
ENDBRANCH  28  29
ENDBRANCH  27  28
ENDBRANCH  26  27
ENDBRANCH  25  26
ENDBRANCH   1  25
TORSDOF 18
