REMARK SMILES C[C@H](Cc1cccs1)N(C)C(=O)[C@@H]([NH3+])CCC(=O)NCCCCCCNC(=O)c1ccc(-c2c3nc(c(-c4c(F)cccc4F)c4ccc([nH]4)c(-c4c(F)cccc4F)c4nc(c(-c5c(F)cccc5F)c5ccc2[nH]5)C=C4)C=C3)cc1
REMARK SMILES IDX 20 1 19 2 17 3 18 4 16 6 15 7 13 8 11 9 12 10 9 11 10 12
REMARK SMILES IDX 2 13 1 14 3 15 4 16 5 17 8 18 6 19 7 20 14 21 21 25 22 26
REMARK SMILES IDX 23 27 24 28 25 29 26 30 27 31 28 33 29 34 30 35 82 36 31 37
REMARK SMILES IDX 81 38 32 39 33 40 34 41 75 42 35 43 80 44 74 45 76 46 36 47
REMARK SMILES IDX 79 48 73 49 72 50 37 52 63 53 46 54 62 55 47 56 50 57 61 58
REMARK SMILES IDX 77 59 48 60 49 61 60 63 78 64 51 65 38 66 39 67 44 68 40 69
REMARK SMILES IDX 41 70 43 71 45 72 42 73 64 74 65 75 70 76 66 77 67 78 69 79
REMARK SMILES IDX 71 80 68 81 52 82 53 83 58 84 54 85 55 86 57 87 59 88 56 89
REMARK H PARENT 19 5 14 22 14 23 14 24 26 32 76 51 50 62
REMARK Flexibility Score: inf
ROOT
ATOM      1  C   UNL     1      -3.146  -3.978  -0.049  1.00  0.00     0.116 C 
ENDROOT
BRANCH   1   2
ATOM      2  N   UNL     1      -4.186  -4.193  -1.038  1.00  0.00    -0.356 N 
ATOM      3  C   UNL     1      -4.369  -3.627  -2.263  1.00  0.00     0.220 C 
ATOM      4  O   UNL     1      -5.386  -3.927  -2.892  1.00  0.00    -0.275 OA
ATOM      5  H   UNL     1      -4.870  -4.854  -0.783  1.00  0.00     0.163 HD
BRANCH   3   6
ATOM      6  C   UNL     1      -3.356  -2.658  -2.848  1.00  0.00     0.106 C 
BRANCH   6   7
ATOM      7  C   UNL     1      -3.703  -1.183  -2.598  1.00  0.00     0.085 C 
BRANCH   7   8
ATOM      8  C   UNL     1      -3.067  -0.590  -1.336  1.00  0.00     0.271 C 
BRANCH   8   9
ATOM      9  C   UNL     1      -1.508  -0.586  -1.379  1.00  0.00     0.280 C 
ATOM     10  O   UNL     1      -0.936  -1.584  -0.923  1.00  0.00    -0.268 OA
BRANCH   9  11
ATOM     11  N   UNL     1      -0.779   0.468  -1.923  1.00  0.00    -0.338 N 
ATOM     12  C   UNL     1      -1.395   1.662  -2.492  1.00  0.00     0.147 C 
BRANCH  11  13
ATOM     13  C   UNL     1       0.690   0.533  -1.721  1.00  0.00     0.087 C 
ATOM     14  C   UNL     1       1.446  -0.754  -2.084  1.00  0.00     0.031 C 
BRANCH  13  15
ATOM     15  C   UNL     1       1.130   1.137  -0.364  1.00  0.00     0.071 C 
BRANCH  15  16
ATOM     16  C   UNL     1       0.620   0.464   0.882  1.00  0.00     0.007 A 
ATOM     17  C   UNL     1       1.233  -0.511   1.647  1.00  0.00     0.015 A 
ATOM     18  S   UNL     1      -0.865   0.962   1.589  1.00  0.00    -0.149 S 
ATOM     19  C   UNL     1       0.445  -0.898   2.770  1.00  0.00     0.012 A 
ATOM     20  C   UNL     1      -0.738  -0.199   2.833  1.00  0.00     0.065 A 
ENDBRANCH  15  16
ENDBRANCH  13  15
ENDBRANCH  11  13
ENDBRANCH   9  11
ENDBRANCH   8   9
BRANCH   8  21
ATOM     21  N   UNL     1      -3.636   0.735  -1.008  1.00  0.00    -0.347 N 
ATOM     22  H   UNL     1      -3.415   1.394  -1.755  1.00  0.00     0.345 HD
ATOM     23  H   UNL     1      -3.237   1.068  -0.131  1.00  0.00     0.345 HD
ATOM     24  H   UNL     1      -4.648   0.655  -0.913  1.00  0.00     0.345 HD
ENDBRANCH   8  21
ENDBRANCH   7   8
ENDBRANCH   6   7
ENDBRANCH   3   6
ENDBRANCH   1   2
BRANCH   1  25
ATOM     25  C   UNL     1      -3.713  -3.288   1.196  1.00  0.00     0.021 C 
BRANCH  25  26
ATOM     26  C   UNL     1      -4.153  -4.256   2.299  1.00  0.00     0.002 C 
BRANCH  26  27
ATOM     27  C   UNL     1      -3.014  -5.003   3.007  1.00  0.00     0.002 C 
BRANCH  27  28
ATOM     28  C   UNL     1      -1.899  -4.131   3.594  1.00  0.00     0.021 C 
BRANCH  28  29
ATOM     29  C   UNL     1      -2.344  -3.093   4.623  1.00  0.00     0.116 C 
BRANCH  29  30
ATOM     30  N   UNL     1      -2.804  -3.698   5.859  1.00  0.00    -0.352 N 
ATOM     31  C   UNL     1      -2.414  -3.454   7.151  1.00  0.00     0.251 C 
ATOM     32  H   UNL     1      -3.499  -4.387   5.755  1.00  0.00     0.163 HD
ATOM     33  O   UNL     1      -2.795  -4.208   8.049  1.00  0.00    -0.269 OA
BRANCH  31  34
ATOM     34  C   UNL     1      -1.540  -2.307   7.495  1.00  0.00     0.039 A 
ATOM     35  C   UNL     1      -0.537  -2.499   8.453  1.00  0.00     0.014 A 
ATOM     36  C   UNL     1      -1.753  -1.030   6.966  1.00  0.00     0.014 A 
ATOM     37  C   UNL     1       0.256  -1.424   8.868  1.00  0.00     0.010 A 
ATOM     38  C   UNL     1      -0.929   0.035   7.346  1.00  0.00     0.010 A 
ATOM     39  C   UNL     1       0.068  -0.147   8.318  1.00  0.00    -0.014 A 
BRANCH  39  40
ATOM     40  C   UNL     1       0.866   1.011   8.803  1.00  0.00     0.031 A 
ATOM     41  C   UNL     1       0.209   2.099   9.610  1.00  0.00     0.074 A 
ATOM     42  C   UNL     1       2.179   1.101   8.514  1.00  0.00     0.049 A 
ATOM     43  N   UNL     1       0.729   3.196  10.103  1.00  0.00    -0.248 NA
ATOM     44  C   UNL     1      -1.227   1.939   9.888  1.00  0.00     0.031 C 
ATOM     45  C   UNL     1       2.940   0.131   7.728  1.00  0.00     0.029 A 
ATOM     46  N   UNL     1       3.103   2.059   8.850  1.00  0.00    -0.354 N 
ATOM     47  C   UNL     1      -0.315   3.861  10.734  1.00  0.00     0.074 A 
ATOM     48  C   UNL     1      -1.506   3.065  10.528  1.00  0.00     0.031 C 
ATOM     49  C   UNL     1       4.220   0.534   7.657  1.00  0.00     0.029 A 
ATOM     50  C   UNL     1       4.364   1.801   8.369  1.00  0.00     0.049 A 
ATOM     51  H   UNL     1       2.884   2.855   9.386  1.00  0.00     0.167 HD
ATOM     52  C   UNL     1      -0.285   5.018  11.438  1.00  0.00     0.037 A 
ATOM     53  C   UNL     1       5.506   2.504   8.489  1.00  0.00     0.037 A 
ATOM     54  C   UNL     1       0.898   5.804  11.671  1.00  0.00     0.049 A 
ATOM     55  C   UNL     1       5.515   3.786   9.275  1.00  0.00     0.074 A 
ATOM     56  C   UNL     1       1.030   6.972  12.404  1.00  0.00     0.029 A 
ATOM     57  N   UNL     1       2.157   5.499  11.178  1.00  0.00    -0.354 N 
ATOM     58  N   UNL     1       4.529   4.379   9.902  1.00  0.00    -0.248 NA
ATOM     59  C   UNL     1       6.801   4.492   9.378  1.00  0.00     0.031 C 
ATOM     60  C   UNL     1       2.363   7.389  12.330  1.00  0.00     0.029 A 
ATOM     61  C   UNL     1       3.069   6.460  11.583  1.00  0.00     0.049 A 
ATOM     62  H   UNL     1       2.372   4.715  10.623  1.00  0.00     0.167 HD
ATOM     63  C   UNL     1       5.080   5.505  10.500  1.00  0.00     0.074 A 
ATOM     64  C   UNL     1       6.489   5.511  10.166  1.00  0.00     0.031 C 
ATOM     65  C   UNL     1       4.472   6.448  11.260  1.00  0.00     0.037 A 
BRANCH  52  66
ATOM     66  C   UNL     1      -1.583   5.507  12.013  1.00  0.00     0.057 A 
ATOM     67  C   UNL     1      -2.184   4.879  13.111  1.00  0.00     0.134 A 
ATOM     68  C   UNL     1      -2.222   6.633  11.481  1.00  0.00     0.134 A 
ATOM     69  F   UNL     1      -1.627   3.788  13.659  1.00  0.00    -0.206 F 
ATOM     70  C   UNL     1      -3.390   5.338  13.644  1.00  0.00     0.040 A 
ATOM     71  C   UNL     1      -3.416   7.117  12.021  1.00  0.00     0.040 A 
ATOM     72  F   UNL     1      -1.696   7.286  10.434  1.00  0.00    -0.206 F 
ATOM     73  C   UNL     1      -4.006   6.464  13.101  1.00  0.00     0.006 A 
ENDBRANCH  52  66
BRANCH  53  74
ATOM     74  C   UNL     1       6.756   1.994   7.874  1.00  0.00     0.057 A 
ATOM     75  C   UNL     1       7.787   1.476   8.665  1.00  0.00     0.134 A 
ATOM     76  C   UNL     1       6.954   2.024   6.489  1.00  0.00     0.134 A 
ATOM     77  F   UNL     1       7.662   1.443   9.999  1.00  0.00    -0.206 F 
ATOM     78  C   UNL     1       8.980   1.018   8.102  1.00  0.00     0.040 A 
ATOM     79  C   UNL     1       8.133   1.551   5.911  1.00  0.00     0.040 A 
ATOM     80  F   UNL     1       6.001   2.507   5.678  1.00  0.00    -0.206 F 
ATOM     81  C   UNL     1       9.152   1.051   6.720  1.00  0.00     0.006 A 
ENDBRANCH  53  74
BRANCH  65  82
ATOM     82  C   UNL     1       5.334   7.538  11.824  1.00  0.00     0.057 A 
ATOM     83  C   UNL     1       5.825   8.580  11.029  1.00  0.00     0.134 A 
ATOM     84  C   UNL     1       5.647   7.561  13.189  1.00  0.00     0.134 A 
ATOM     85  F   UNL     1       5.571   8.609   9.712  1.00  0.00    -0.206 F 
ATOM     86  C   UNL     1       6.616   9.597  11.568  1.00  0.00     0.040 A 
ATOM     87  C   UNL     1       6.419   8.584  13.743  1.00  0.00     0.040 A 
ATOM     88  F   UNL     1       5.202   6.596  14.007  1.00  0.00    -0.206 F 
ATOM     89  C   UNL     1       6.910   9.603  12.930  1.00  0.00     0.006 A 
ENDBRANCH  65  82
ENDBRANCH  39  40
ENDBRANCH  31  34
ENDBRANCH  29  30
ENDBRANCH  28  29
ENDBRANCH  27  28
ENDBRANCH  26  27
ENDBRANCH  25  26
ENDBRANCH   1  25
TORSDOF 21
