REMARK SMILES O=C(NCCCCCCNC(=O)c1sccc1S(=O)(=O)Nc1ccc(-c2nc3ccccc3n2C(F)F)cc1)c1ccc(-c2c3nc(c(-c4c(F)cccc4F)c4ccc([nH]4)c(-c4c(F)cccc4F)c4nc(c(-c5c(F)cccc5F)c5ccc2[nH]5)C=C4)C=C3)cc1
REMARK SMILES IDX 8 1 7 2 6 3 5 4 4 5 3 6 1 7 2 8 40 10 41 11 93 12 42 13
REMARK SMILES IDX 92 14 43 15 44 16 45 17 86 18 46 19 91 20 85 21 87 22 47 23
REMARK SMILES IDX 90 24 84 25 83 26 48 28 74 29 57 30 73 31 58 32 61 33 72 34
REMARK SMILES IDX 88 35 59 36 60 37 71 39 89 40 62 41 49 42 50 43 55 44 51 45
REMARK SMILES IDX 52 46 54 47 56 48 53 49 75 50 76 51 81 52 77 53 78 54 80 55
REMARK SMILES IDX 82 56 79 57 63 58 64 59 69 60 65 61 66 62 68 63 70 64 67 65
REMARK SMILES IDX 9 66 10 67 11 68 12 70 13 71 14 72 17 73 15 74 16 75 18 76
REMARK SMILES IDX 19 77 20 78 21 79 22 81 23 82 39 83 24 84 38 85 25 86 26 87
REMARK SMILES IDX 27 88 34 89 28 90 33 91 29 92 32 93 30 94 31 95 35 96 36 97
REMARK SMILES IDX 37 98
REMARK H PARENT 3 9 87 27 61 38 10 69 21 80
REMARK Flexibility Score: inf
ROOT
ATOM      1  C   UNL     1       6.391   3.308   2.102  1.00  0.00     0.021 C 
ENDROOT
BRANCH   1   2
ATOM      2  C   UNL     1       4.902   3.535   1.802  1.00  0.00     0.002 C 
BRANCH   2   3
ATOM      3  C   UNL     1       4.491   3.386   0.332  1.00  0.00     0.002 C 
BRANCH   3   4
ATOM      4  C   UNL     1       4.914   2.081  -0.355  1.00  0.00     0.021 C 
BRANCH   4   5
ATOM      5  C   UNL     1       4.609   0.814   0.442  1.00  0.00     0.116 C 
BRANCH   5   6
ATOM      6  N   UNL     1       3.202   0.638   0.718  1.00  0.00    -0.352 N 
ATOM      7  O   UNL     1       1.098  -0.008   0.707  1.00  0.00    -0.269 OA
ATOM      8  C   UNL     1       2.162   0.028   0.081  1.00  0.00     0.251 C 
ATOM      9  H   UNL     1       2.929   1.059   1.565  1.00  0.00     0.163 HD
BRANCH   8  10
ATOM     10  C   UNL     1       2.198  -0.534  -1.297  1.00  0.00     0.039 A 
ATOM     11  C   UNL     1       3.324  -0.663  -2.111  1.00  0.00     0.014 A 
ATOM     12  C   UNL     1       0.950  -0.936  -1.815  1.00  0.00     0.014 A 
ATOM     13  C   UNL     1       3.196  -1.116  -3.423  1.00  0.00     0.010 A 
ATOM     14  C   UNL     1       0.818  -1.395  -3.119  1.00  0.00     0.010 A 
ATOM     15  C   UNL     1       1.939  -1.452  -3.937  1.00  0.00    -0.014 A 
BRANCH  15  16
ATOM     16  C   UNL     1       1.865  -2.006  -5.287  1.00  0.00     0.031 A 
ATOM     17  C   UNL     1       2.606  -3.291  -5.467  1.00  0.00     0.074 A 
ATOM     18  C   UNL     1       1.088  -1.505  -6.270  1.00  0.00     0.049 A 
ATOM     19  N   UNL     1       3.595  -3.541  -6.262  1.00  0.00    -0.248 NA
ATOM     20  C   UNL     1       2.265  -4.408  -4.571  1.00  0.00     0.031 C 
ATOM     21  C   UNL     1       0.084  -0.442  -6.190  1.00  0.00     0.029 A 
ATOM     22  N   UNL     1       0.987  -1.917  -7.566  1.00  0.00    -0.354 N 
ATOM     23  C   UNL     1       3.899  -4.892  -6.091  1.00  0.00     0.074 A 
ATOM     24  C   UNL     1       3.134  -5.343  -4.958  1.00  0.00     0.031 C 
ATOM     25  C   UNL     1      -0.667  -0.446  -7.317  1.00  0.00     0.029 A 
ATOM     26  C   UNL     1      -0.107  -1.406  -8.254  1.00  0.00     0.049 A 
ATOM     27  H   UNL     1       1.637  -2.529  -7.982  1.00  0.00     0.167 HD
ATOM     28  C   UNL     1       4.621  -5.590  -7.011  1.00  0.00     0.037 A 
ATOM     29  C   UNL     1      -0.539  -1.778  -9.486  1.00  0.00     0.037 A 
ATOM     30  C   UNL     1       5.369  -4.714  -7.870  1.00  0.00     0.049 A 
ATOM     31  C   UNL     1       0.587  -2.458 -10.170  1.00  0.00     0.074 A 
ATOM     32  C   UNL     1       6.379  -3.792  -7.672  1.00  0.00     0.029 A 
ATOM     33  N   UNL     1       4.867  -4.446  -9.119  1.00  0.00    -0.354 N 
ATOM     34  N   UNL     1       1.672  -1.853 -10.561  1.00  0.00    -0.248 NA
ATOM     35  C   UNL     1       0.692  -3.900 -10.014  1.00  0.00     0.031 C 
ATOM     36  C   UNL     1       6.075  -2.722  -8.564  1.00  0.00     0.029 A 
ATOM     37  C   UNL     1       4.945  -3.089  -9.295  1.00  0.00     0.049 A 
ATOM     38  H   UNL     1       4.518  -5.103  -9.764  1.00  0.00     0.167 HD
ATOM     39  C   UNL     1       2.692  -2.748 -10.277  1.00  0.00     0.074 A 
ATOM     40  C   UNL     1       2.022  -4.020 -10.013  1.00  0.00     0.031 C 
ATOM     41  C   UNL     1       3.958  -2.316 -10.009  1.00  0.00     0.037 A 
BRANCH  28  42
ATOM     42  C   UNL     1       4.394  -7.043  -7.344  1.00  0.00     0.057 A 
ATOM     43  C   UNL     1       5.298  -7.716  -8.186  1.00  0.00     0.134 A 
ATOM     44  C   UNL     1       3.178  -7.716  -7.112  1.00  0.00     0.134 A 
ATOM     45  F   UNL     1       6.484  -7.172  -8.500  1.00  0.00    -0.206 F 
ATOM     46  C   UNL     1       4.986  -8.935  -8.803  1.00  0.00     0.040 A 
ATOM     47  C   UNL     1       2.875  -8.954  -7.684  1.00  0.00     0.040 A 
ATOM     48  F   UNL     1       2.182  -7.166  -6.406  1.00  0.00    -0.206 F 
ATOM     49  C   UNL     1       3.767  -9.555  -8.558  1.00  0.00     0.006 A 
ENDBRANCH  28  42
BRANCH  29  50
ATOM     50  C   UNL     1      -1.926  -1.885  -9.996  1.00  0.00     0.057 A 
ATOM     51  C   UNL     1      -2.198  -1.968 -11.370  1.00  0.00     0.134 A 
ATOM     52  C   UNL     1      -2.989  -2.213  -9.137  1.00  0.00     0.134 A 
ATOM     53  F   UNL     1      -1.235  -1.720 -12.270  1.00  0.00    -0.206 F 
ATOM     54  C   UNL     1      -3.446  -2.378 -11.862  1.00  0.00     0.040 A 
ATOM     55  C   UNL     1      -4.240  -2.621  -9.614  1.00  0.00     0.040 A 
ATOM     56  F   UNL     1      -2.818  -2.242  -7.808  1.00  0.00    -0.206 F 
ATOM     57  C   UNL     1      -4.468  -2.718 -10.982  1.00  0.00     0.006 A 
ENDBRANCH  29  50
BRANCH  41  58
ATOM     58  C   UNL     1       4.274  -0.864 -10.248  1.00  0.00     0.057 A 
ATOM     59  C   UNL     1       3.670   0.199  -9.558  1.00  0.00     0.134 A 
ATOM     60  C   UNL     1       5.340  -0.541 -11.094  1.00  0.00     0.134 A 
ATOM     61  F   UNL     1       2.708  -0.017  -8.652  1.00  0.00    -0.206 F 
ATOM     62  C   UNL     1       4.083   1.523  -9.734  1.00  0.00     0.040 A 
ATOM     63  C   UNL     1       5.785   0.773 -11.252  1.00  0.00     0.040 A 
ATOM     64  F   UNL     1       6.003  -1.510 -11.745  1.00  0.00    -0.206 F 
ATOM     65  C   UNL     1       5.150   1.813 -10.578  1.00  0.00     0.006 A 
ENDBRANCH  41  58
ENDBRANCH  15  16
ENDBRANCH   8  10
ENDBRANCH   5   6
ENDBRANCH   4   5
ENDBRANCH   3   4
ENDBRANCH   2   3
ENDBRANCH   1   2
BRANCH   1  66
ATOM     66  C   UNL     1       7.302   4.395   1.550  1.00  0.00     0.116 C 
BRANCH  66  67
ATOM     67  N   UNL     1       7.140   5.619   2.299  1.00  0.00    -0.351 N 
ATOM     68  C   UNL     1       8.039   6.620   2.538  1.00  0.00     0.262 C 
ATOM     69  H   UNL     1       6.249   5.752   2.697  1.00  0.00     0.163 HD
ATOM     70  O   UNL     1       7.733   7.433   3.412  1.00  0.00    -0.268 OA
BRANCH  68  71
ATOM     71  C   UNL     1       9.301   6.639   1.837  1.00  0.00     0.112 A 
ATOM     72  S   UNL     1      10.686   6.815   2.861  1.00  0.00    -0.137 S 
ATOM     73  C   UNL     1       9.674   6.596   0.503  1.00  0.00     0.111 A 
ATOM     74  C   UNL     1      11.769   6.703   1.558  1.00  0.00     0.067 A 
ATOM     75  C   UNL     1      11.108   6.581   0.361  1.00  0.00     0.035 A 
BRANCH  73  76
ATOM     76  S   UNL     1       8.702   6.566  -0.939  1.00  0.00     0.263 S 
ATOM     77  O   UNL     1       9.213   7.689  -1.702  1.00  0.00    -0.201 OA
ATOM     78  O   UNL     1       8.892   5.213  -1.413  1.00  0.00    -0.201 OA
BRANCH  76  79
ATOM     79  N   UNL     1       7.061   6.746  -0.794  1.00  0.00    -0.280 N 
ATOM     80  H   UNL     1       6.500   6.126  -1.314  1.00  0.00     0.180 HD
BRANCH  79  81
ATOM     81  C   UNL     1       6.386   7.698  -0.002  1.00  0.00     0.049 A 
ATOM     82  C   UNL     1       5.110   7.338   0.444  1.00  0.00     0.027 A 
ATOM     83  C   UNL     1       6.971   8.858   0.471  1.00  0.00     0.027 A 
ATOM     84  C   UNL     1       4.503   8.016   1.508  1.00  0.00     0.014 A 
ATOM     85  C   UNL     1       6.355   9.538   1.524  1.00  0.00     0.014 A 
ATOM     86  C   UNL     1       5.150   9.091   2.113  1.00  0.00     0.018 A 
BRANCH  86  87
ATOM     87  C   UNL     1       4.724   9.778   3.349  1.00  0.00     0.145 A 
ATOM     88  N   UNL     1       5.211  10.969   3.661  1.00  0.00    -0.228 NA
ATOM     89  N   UNL     1       3.927   9.329   4.392  1.00  0.00    -0.266 N 
ATOM     90  C   UNL     1       4.858  11.225   4.948  1.00  0.00     0.089 A 
ATOM     91  C   UNL     1       4.068  10.206   5.457  1.00  0.00     0.074 A 
ATOM     92  C   UNL     1       5.200  12.322   5.747  1.00  0.00     0.030 A 
ATOM     93  C   UNL     1       3.597  10.224   6.779  1.00  0.00     0.029 A 
ATOM     94  C   UNL     1       4.735  12.364   7.062  1.00  0.00     0.002 A 
ATOM     95  C   UNL     1       3.950  11.328   7.569  1.00  0.00     0.002 A 
BRANCH  89  96
ATOM     96  C   UNL     1       3.058   8.174   4.414  1.00  0.00     0.451 C 
ATOM     97  F   UNL     1       2.119   8.240   3.432  1.00  0.00    -0.185 F 
ATOM     98  F   UNL     1       3.738   7.010   4.237  1.00  0.00    -0.185 F 
ENDBRANCH  89  96
ENDBRANCH  86  87
ENDBRANCH  79  81
ENDBRANCH  76  79
ENDBRANCH  73  76
ENDBRANCH  68  71
ENDBRANCH  66  67
ENDBRANCH   1  66
TORSDOF 18
