REMARK SMILES CC[C@@](C)(NC(=O)[C@@H](C)NC(=O)c1ccco1)C(=O)NCCCCCCNC(=O)c1ccc(-c2c3nc(c(-c4c(F)cccc4F)c4ccc([nH]4)c(-c4c(F)cccc4F)c4nc(c(-c5c(F)cccc5F)c5ccc2[nH]5)C=C4)C=C3)cc1
REMARK SMILES IDX 22 1 21 2 20 3 18 4 19 5 3 7 4 8 2 9 1 10 5 11 6 12 7 14
REMARK SMILES IDX 8 15 9 16 10 17 11 18 12 20 13 21 14 22 17 23 15 24 16 25
REMARK SMILES IDX 23 26 24 27 25 28 26 29 27 30 28 31 29 33 30 34 31 35 83 36
REMARK SMILES IDX 32 37 82 38 33 39 34 40 35 41 76 42 36 43 81 44 75 45 77 46
REMARK SMILES IDX 37 47 80 48 74 49 73 50 38 52 64 53 47 54 63 55 48 56 51 57
REMARK SMILES IDX 62 58 78 59 49 60 50 61 61 63 79 64 52 65 39 66 40 67 45 68
REMARK SMILES IDX 41 69 42 70 44 71 46 72 43 73 65 74 66 75 71 76 67 77 68 78
REMARK SMILES IDX 70 79 72 80 69 81 53 82 54 83 59 84 55 85 56 86 58 87 60 88
REMARK SMILES IDX 57 89
REMARK H PARENT 20 6 5 13 10 19 27 32 77 51 51 62
REMARK Flexibility Score: inf
ROOT
ATOM      1  C   UNL     1       2.644   3.988  -4.509  1.00  0.00     0.021 C 
ENDROOT
BRANCH   1   2
ATOM      2  C   UNL     1       2.016   2.603  -4.383  1.00  0.00     0.116 C 
BRANCH   2   3
ATOM      3  N   UNL     1       2.663   1.778  -3.373  1.00  0.00    -0.354 N 
ATOM      4  C   UNL     1       2.344   1.492  -2.079  1.00  0.00     0.245 C 
ATOM      5  O   UNL     1       3.217   0.932  -1.409  1.00  0.00    -0.272 OA
ATOM      6  H   UNL     1       3.490   1.345  -3.683  1.00  0.00     0.163 HD
BRANCH   4   7
ATOM      7  C   UNL     1       0.995   1.899  -1.442  1.00  0.00     0.116 C 
ATOM      8  C   UNL     1      -0.158   1.230  -2.235  1.00  0.00     0.045 C 
BRANCH   7   9
ATOM      9  C   UNL     1       0.836   1.445   0.036  1.00  0.00     0.035 C 
ATOM     10  C   UNL     1       0.896  -0.056   0.311  1.00  0.00     0.007 C 
ENDBRANCH   7   9
BRANCH   7  11
ATOM     11  N   UNL     1       0.851   3.373  -1.505  1.00  0.00    -0.340 N 
ATOM     12  C   UNL     1       1.540   4.435  -1.015  1.00  0.00     0.243 C 
ATOM     13  H   UNL     1       0.064   3.649  -2.029  1.00  0.00     0.164 HD
ATOM     14  O   UNL     1       0.863   5.473  -0.937  1.00  0.00    -0.273 OA
BRANCH  12  15
ATOM     15  C   UNL     1       2.998   4.474  -0.455  1.00  0.00     0.168 C 
ATOM     16  C   UNL     1       3.045   4.242   1.051  1.00  0.00     0.041 C 
BRANCH  15  17
ATOM     17  N   UNL     1       4.072   3.709  -1.078  1.00  0.00    -0.338 N 
ATOM     18  C   UNL     1       5.243   4.140  -1.666  1.00  0.00     0.287 C 
ATOM     19  H   UNL     1       3.941   2.733  -1.079  1.00  0.00     0.164 HD
ATOM     20  O   UNL     1       5.987   3.274  -2.127  1.00  0.00    -0.266 OA
BRANCH  18  21
ATOM     21  C   UNL     1       5.553   5.553  -1.751  1.00  0.00     0.191 A 
ATOM     22  C   UNL     1       5.624   6.573  -0.818  1.00  0.00     0.056 A 
ATOM     23  O   UNL     1       5.934   6.050  -2.974  1.00  0.00    -0.459 OA
ATOM     24  C   UNL     1       6.032   7.742  -1.510  1.00  0.00     0.043 A 
ATOM     25  C   UNL     1       6.201   7.370  -2.821  1.00  0.00     0.196 A 
ENDBRANCH  18  21
ENDBRANCH  15  17
ENDBRANCH  12  15
ENDBRANCH   7  11
ENDBRANCH   4   7
ENDBRANCH   2   3
ENDBRANCH   1   2
BRANCH   1  26
ATOM     26  C   UNL     1       4.128   3.974  -4.872  1.00  0.00     0.002 C 
BRANCH  26  27
ATOM     27  C   UNL     1       4.471   3.528  -6.288  1.00  0.00     0.002 C 
BRANCH  27  28
ATOM     28  C   UNL     1       3.876   4.395  -7.392  1.00  0.00     0.021 C 
BRANCH  28  29
ATOM     29  C   UNL     1       4.093   5.894  -7.218  1.00  0.00     0.116 C 
BRANCH  29  30
ATOM     30  N   UNL     1       5.500   6.275  -7.207  1.00  0.00    -0.352 N 
ATOM     31  C   UNL     1       6.184   7.090  -8.084  1.00  0.00     0.251 C 
ATOM     32  H   UNL     1       6.037   5.898  -6.472  1.00  0.00     0.163 HD
ATOM     33  O   UNL     1       7.390   7.239  -8.017  1.00  0.00    -0.269 OA
BRANCH  31  34
ATOM     34  C   UNL     1       5.407   7.761  -9.145  1.00  0.00     0.039 A 
ATOM     35  C   UNL     1       5.719   7.503 -10.480  1.00  0.00     0.014 A 
ATOM     36  C   UNL     1       4.299   8.538  -8.802  1.00  0.00     0.014 A 
ATOM     37  C   UNL     1       4.851   7.946 -11.479  1.00  0.00     0.010 A 
ATOM     38  C   UNL     1       3.394   8.901  -9.791  1.00  0.00     0.010 A 
ATOM     39  C   UNL     1       3.654   8.596 -11.137  1.00  0.00    -0.014 A 
BRANCH  39  40
ATOM     40  C   UNL     1       2.641   8.947 -12.163  1.00  0.00     0.031 A 
ATOM     41  C   UNL     1       2.264  10.385 -12.380  1.00  0.00     0.074 A 
ATOM     42  C   UNL     1       1.988   7.970 -12.822  1.00  0.00     0.049 A 
ATOM     43  N   UNL     1       1.326  10.888 -13.141  1.00  0.00    -0.248 NA
ATOM     44  C   UNL     1       3.015  11.387 -11.608  1.00  0.00     0.031 C 
ATOM     45  C   UNL     1       2.210   6.532 -12.648  1.00  0.00     0.029 A 
ATOM     46  N   UNL     1       0.988   8.038 -13.760  1.00  0.00    -0.354 N 
ATOM     47  C   UNL     1       1.357  12.258 -12.918  1.00  0.00     0.074 A 
ATOM     48  C   UNL     1       2.368  12.501 -11.911  1.00  0.00     0.031 C 
ATOM     49  C   UNL     1       1.385   5.857 -13.465  1.00  0.00     0.029 A 
ATOM     50  C   UNL     1       0.554   6.809 -14.195  1.00  0.00     0.049 A 
ATOM     51  H   UNL     1       0.617   8.888 -14.090  1.00  0.00     0.167 HD
ATOM     52  C   UNL     1       0.628  13.229 -13.515  1.00  0.00     0.037 A 
ATOM     53  C   UNL     1      -0.409   6.486 -15.078  1.00  0.00     0.037 A 
ATOM     54  C   UNL     1      -0.346  12.989 -14.545  1.00  0.00     0.049 A 
ATOM     55  C   UNL     1      -1.181   7.583 -15.756  1.00  0.00     0.074 A 
ATOM     56  C   UNL     1      -1.077  13.911 -15.273  1.00  0.00     0.029 A 
ATOM     57  N   UNL     1      -0.721  11.733 -14.996  1.00  0.00    -0.354 N 
ATOM     58  N   UNL     1      -1.087   8.881 -15.593  1.00  0.00    -0.248 NA
ATOM     59  C   UNL     1      -2.189   7.173 -16.745  1.00  0.00     0.031 C 
ATOM     60  C   UNL     1      -1.920  13.210 -16.142  1.00  0.00     0.029 A 
ATOM     61  C   UNL     1      -1.687  11.854 -15.981  1.00  0.00     0.049 A 
ATOM     62  H   UNL     1      -0.356  10.881 -14.664  1.00  0.00     0.167 HD
ATOM     63  C   UNL     1      -2.006   9.442 -16.469  1.00  0.00     0.074 A 
ATOM     64  C   UNL     1      -2.638   8.345 -17.173  1.00  0.00     0.031 C 
ATOM     65  C   UNL     1      -2.301  10.749 -16.672  1.00  0.00     0.037 A 
BRANCH  52  66
ATOM     66  C   UNL     1       0.873  14.641 -13.070  1.00  0.00     0.057 A 
ATOM     67  C   UNL     1       2.064  15.314 -13.376  1.00  0.00     0.134 A 
ATOM     68  C   UNL     1      -0.092  15.337 -12.332  1.00  0.00     0.134 A 
ATOM     69  F   UNL     1       3.035  14.697 -14.067  1.00  0.00    -0.206 F 
ATOM     70  C   UNL     1       2.301  16.616 -12.934  1.00  0.00     0.040 A 
ATOM     71  C   UNL     1       0.122  16.649 -11.908  1.00  0.00     0.040 A 
ATOM     72  F   UNL     1      -1.256  14.753 -12.010  1.00  0.00    -0.206 F 
ATOM     73  C   UNL     1       1.325  17.289 -12.201  1.00  0.00     0.006 A 
ENDBRANCH  52  66
BRANCH  53  74
ATOM     74  C   UNL     1      -0.681   5.061 -15.392  1.00  0.00     0.057 A 
ATOM     75  C   UNL     1      -0.303   4.511 -16.622  1.00  0.00     0.134 A 
ATOM     76  C   UNL     1      -1.317   4.218 -14.474  1.00  0.00     0.134 A 
ATOM     77  F   UNL     1       0.293   5.275 -17.548  1.00  0.00    -0.206 F 
ATOM     78  C   UNL     1      -0.562   3.175 -16.935  1.00  0.00     0.040 A 
ATOM     79  C   UNL     1      -1.563   2.875 -14.766  1.00  0.00     0.040 A 
ATOM     80  F   UNL     1      -1.696   4.684 -13.275  1.00  0.00    -0.206 F 
ATOM     81  C   UNL     1      -1.190   2.352 -16.003  1.00  0.00     0.006 A 
ENDBRANCH  53  74
BRANCH  65  82
ATOM     82  C   UNL     1      -3.337  11.065 -17.708  1.00  0.00     0.057 A 
ATOM     83  C   UNL     1      -4.701  10.855 -17.471  1.00  0.00     0.134 A 
ATOM     84  C   UNL     1      -2.969  11.630 -18.935  1.00  0.00     0.134 A 
ATOM     85  F   UNL     1      -5.115  10.304 -16.320  1.00  0.00    -0.206 F 
ATOM     86  C   UNL     1      -5.664  11.184 -18.427  1.00  0.00     0.040 A 
ATOM     87  C   UNL     1      -3.924  11.984 -19.889  1.00  0.00     0.040 A 
ATOM     88  F   UNL     1      -1.679  11.863 -19.219  1.00  0.00    -0.206 F 
ATOM     89  C   UNL     1      -5.276  11.757 -19.637  1.00  0.00     0.006 A 
ENDBRANCH  65  82
ENDBRANCH  39  40
ENDBRANCH  31  34
ENDBRANCH  29  30
ENDBRANCH  28  29
ENDBRANCH  27  28
ENDBRANCH  26  27
ENDBRANCH   1  26
TORSDOF 18
