REMARK SMILES C=C[C@@H]1[C@@H](O)C[C@@H]2[C@@]3(CC[C@@]4(C)[C@@H]([C@H](C)CCC=C(C)C)CC[C@@]24C)C[C@@]13CCC(=O)NCCCCCCNC(=O)c1ccc(-c2c3nc(c(-c4c(F)cccc4F)c4ccc([nH]4)c(-c4c(F)cccc4F)c4nc(c(-c5c(F)cccc5F)c5ccc2[nH]5)C=C4)C=C3)cc1
REMARK SMILES IDX 33 1 32 2 30 3 31 4 29 6 28 7 27 8 3 9 4 10 6 11 8 12 26 13
REMARK SMILES IDX 7 14 9 15 24 16 10 17 11 18 23 19 25 20 12 21 13 22 22 23
REMARK SMILES IDX 2 24 1 25 5 26 14 28 15 29 16 30 17 31 18 32 19 33 20 34
REMARK SMILES IDX 21 35 34 36 35 37 36 38 37 39 38 40 39 41 40 42 41 44 42 45
REMARK SMILES IDX 43 46 95 47 44 48 94 49 45 50 46 51 47 52 88 53 48 54 93 55
REMARK SMILES IDX 87 56 89 57 49 58 92 59 86 60 85 61 50 63 76 64 59 65 75 66
REMARK SMILES IDX 60 67 63 68 74 69 90 70 61 71 62 72 73 74 91 75 64 76 51 77
REMARK SMILES IDX 52 78 57 79 53 80 54 81 56 82 58 83 55 84 77 85 78 86 83 87
REMARK SMILES IDX 79 88 80 89 82 90 84 91 81 92 65 93 66 94 71 95 67 96 68 97
REMARK SMILES IDX 70 98 72 99 69 100
REMARK H PARENT 32 5 5 27 39 43 89 62 63 73
REMARK Flexibility Score: inf
ROOT
ATOM      1  C   UNL     1       0.135  -4.242  -0.105  1.00  0.00     0.116 C 
ENDROOT
BRANCH   1   2
ATOM      2  N   UNL     1      -1.397  -4.512   0.089  1.00  0.00    -0.356 N 
ATOM      3  C   UNL     1      -2.451  -5.012  -0.582  1.00  0.00     0.220 C 
ATOM      4  O   UNL     1      -3.477  -5.238   0.068  1.00  0.00    -0.275 OA
ATOM      5  H   UNL     1      -1.677  -4.225   0.989  1.00  0.00     0.163 HD
BRANCH   3   6
ATOM      6  C   UNL     1      -2.372  -5.359  -2.022  1.00  0.00     0.100 C 
BRANCH   6   7
ATOM      7  C   UNL     1      -1.456  -4.494  -2.856  1.00  0.00     0.018 C 
BRANCH   7   8
ATOM      8  C   UNL     1      -0.357  -3.726  -2.103  1.00  0.00    -0.014 C 
ATOM      9  C   UNL     1       1.242  -4.764  -2.031  1.00  0.00     0.047 C 
ATOM     10  C   UNL     1       2.294  -4.712  -0.432  1.00  0.00     0.122 C 
ATOM     11  C   UNL     1       1.824  -3.629   1.099  1.00  0.00     0.037 C 
ATOM     12  C   UNL     1      -0.752  -2.388  -0.754  1.00  0.00    -0.019 C 
ATOM     13  C   UNL     1      -0.410  -2.253  -2.350  1.00  0.00     0.016 C 
ATOM     14  C   UNL     1       0.202  -2.471   0.993  1.00  0.00     0.005 C 
ATOM     15  C   UNL     1      -2.118  -1.805  -0.500  1.00  0.00     0.008 C 
ATOM     16  C   UNL     1       0.138  -1.236   1.995  1.00  0.00    -0.023 C 
ATOM     17  C   UNL     1      -1.936  -0.521   0.250  1.00  0.00     0.008 C 
ATOM     18  C   UNL     1      -1.263  -0.516   1.666  1.00  0.00    -0.024 C 
ATOM     19  C   UNL     1      -0.081  -1.141   3.610  1.00  0.00     0.008 C 
ATOM     20  C   UNL     1       1.671  -1.178   2.245  1.00  0.00     0.012 C 
ATOM     21  C   UNL     1      -1.324   1.038   1.969  1.00  0.00     0.012 C 
ATOM     22  C   UNL     1      -2.238  -1.287   2.752  1.00  0.00    -0.002 C 
ATOM     23  C   UNL     1      -1.522  -0.935   4.020  1.00  0.00     0.005 C 
BRANCH   9  24
ATOM     24  C   UNL     1       1.069  -6.289  -2.362  1.00  0.00    -0.028 C 
ATOM     25  C   UNL     1       0.325  -7.227  -1.744  1.00  0.00     0.004 C 
ENDBRANCH   9  24
BRANCH  10  26
ATOM     26  O   UNL     1       3.649  -4.427  -0.831  1.00  0.00    -0.392 OA
ATOM     27  H   UNL     1       3.696  -3.530  -1.195  1.00  0.00     0.210 HD
ENDBRANCH  10  26
BRANCH  22  28
ATOM     28  C   UNL     1      -2.500  -2.898   2.791  1.00  0.00    -0.010 C 
ATOM     29  C   UNL     1      -3.922  -3.140   3.334  1.00  0.00     0.008 C 
BRANCH  28  30
ATOM     30  C   UNL     1      -1.441  -3.848   3.593  1.00  0.00     0.008 C 
BRANCH  30  31
ATOM     31  C   UNL     1      -1.364  -5.425   3.546  1.00  0.00     0.027 C 
BRANCH  31  32
ATOM     32  C   UNL     1      -0.365  -6.182   2.648  1.00  0.00    -0.028 C 
ATOM     33  C   UNL     1       0.844  -6.759   2.884  1.00  0.00    -0.080 C 
ATOM     34  C   UNL     1       1.598  -7.521   1.804  1.00  0.00     0.039 C 
ATOM     35  C   UNL     1       1.599  -6.748   4.184  1.00  0.00     0.039 C 
ENDBRANCH  31  32
ENDBRANCH  30  31
ENDBRANCH  28  30
ENDBRANCH  22  28
ENDBRANCH   7   8
ENDBRANCH   6   7
ENDBRANCH   3   6
ENDBRANCH   1   2
BRANCH   1  36
ATOM     36  C   UNL     1       1.359  -2.665  -0.749  1.00  0.00     0.021 C 
BRANCH  36  37
ATOM     37  C   UNL     1       1.474  -0.799  -0.764  1.00  0.00     0.002 C 
BRANCH  37  38
ATOM     38  C   UNL     1       1.536   0.598   0.110  1.00  0.00     0.002 C 
BRANCH  38  39
ATOM     39  C   UNL     1       2.291   1.355   1.275  1.00  0.00     0.021 C 
BRANCH  39  40
ATOM     40  C   UNL     1       3.707   1.860   1.109  1.00  0.00     0.116 C 
BRANCH  40  41
ATOM     41  N   UNL     1       3.766   3.296   1.454  1.00  0.00    -0.352 N 
ATOM     42  C   UNL     1       4.853   4.013   1.866  1.00  0.00     0.251 C 
ATOM     43  H   UNL     1       2.921   3.796   1.376  1.00  0.00     0.163 HD
ATOM     44  O   UNL     1       4.741   5.139   2.377  1.00  0.00    -0.269 OA
BRANCH  42  45
ATOM     45  C   UNL     1       6.169   3.406   1.680  1.00  0.00     0.039 A 
ATOM     46  C   UNL     1       7.098   3.368   2.718  1.00  0.00     0.014 A 
ATOM     47  C   UNL     1       6.424   2.793   0.450  1.00  0.00     0.014 A 
ATOM     48  C   UNL     1       8.294   2.689   2.514  1.00  0.00     0.010 A 
ATOM     49  C   UNL     1       7.540   2.002   0.302  1.00  0.00     0.010 A 
ATOM     50  C   UNL     1       8.514   2.006   1.305  1.00  0.00    -0.014 A 
BRANCH  50  51
ATOM     51  C   UNL     1       9.827   1.416   0.989  1.00  0.00     0.031 A 
ATOM     52  C   UNL     1      10.615   2.005  -0.150  1.00  0.00     0.074 A 
ATOM     53  C   UNL     1      10.273   0.362   1.692  1.00  0.00     0.049 A 
ATOM     54  N   UNL     1      11.768   1.633  -0.636  1.00  0.00    -0.248 NA
ATOM     55  C   UNL     1      10.004   3.139  -0.872  1.00  0.00     0.031 C 
ATOM     56  C   UNL     1       9.546  -0.307   2.773  1.00  0.00     0.029 A 
ATOM     57  N   UNL     1      11.451  -0.326   1.603  1.00  0.00    -0.354 N 
ATOM     58  C   UNL     1      12.002   2.470  -1.720  1.00  0.00     0.074 A 
ATOM     59  C   UNL     1      10.838   3.304  -1.884  1.00  0.00     0.031 C 
ATOM     60  C   UNL     1      10.318  -1.284   3.278  1.00  0.00     0.029 A 
ATOM     61  C   UNL     1      11.571  -1.328   2.533  1.00  0.00     0.049 A 
ATOM     62  H   UNL     1      12.146  -0.122   0.936  1.00  0.00     0.167 HD
ATOM     63  C   UNL     1      13.113   2.568  -2.481  1.00  0.00     0.037 A 
ATOM     64  C   UNL     1      12.592  -2.175   2.751  1.00  0.00     0.037 A 
ATOM     65  C   UNL     1      14.281   1.763  -2.266  1.00  0.00     0.049 A 
ATOM     66  C   UNL     1      13.823  -2.041   1.895  1.00  0.00     0.074 A 
ATOM     67  C   UNL     1      15.494   1.808  -2.924  1.00  0.00     0.029 A 
ATOM     68  N   UNL     1      14.375   0.767  -1.304  1.00  0.00    -0.354 N 
ATOM     69  N   UNL     1      14.067  -1.194   0.922  1.00  0.00    -0.248 NA
ATOM     70  C   UNL     1      14.924  -2.972   2.172  1.00  0.00     0.031 C 
ATOM     71  C   UNL     1      16.306   0.800  -2.395  1.00  0.00     0.029 A 
ATOM     72  C   UNL     1      15.619   0.168  -1.369  1.00  0.00     0.049 A 
ATOM     73  H   UNL     1      13.662   0.523  -0.670  1.00  0.00     0.167 HD
ATOM     74  C   UNL     1      15.355  -1.474   0.485  1.00  0.00     0.074 A 
ATOM     75  C   UNL     1      15.847  -2.553   1.319  1.00  0.00     0.031 C 
ATOM     76  C   UNL     1      16.070  -0.901  -0.515  1.00  0.00     0.037 A 
BRANCH  63  77
ATOM     77  C   UNL     1      13.110   3.579  -3.590  1.00  0.00     0.057 A 
ATOM     78  C   UNL     1      13.095   4.959  -3.340  1.00  0.00     0.134 A 
ATOM     79  C   UNL     1      13.126   3.169  -4.929  1.00  0.00     0.134 A 
ATOM     80  F   UNL     1      13.056   5.422  -2.080  1.00  0.00    -0.206 F 
ATOM     81  C   UNL     1      13.067   5.892  -4.378  1.00  0.00     0.040 A 
ATOM     82  C   UNL     1      13.131   4.093  -5.976  1.00  0.00     0.040 A 
ATOM     83  F   UNL     1      13.136   1.865  -5.242  1.00  0.00    -0.206 F 
ATOM     84  C   UNL     1      13.094   5.458  -5.701  1.00  0.00     0.006 A 
ENDBRANCH  63  77
BRANCH  64  85
ATOM     85  C   UNL     1      12.506  -3.193   3.829  1.00  0.00     0.057 A 
ATOM     86  C   UNL     1      13.327  -3.124   4.961  1.00  0.00     0.134 A 
ATOM     87  C   UNL     1      11.609  -4.265   3.751  1.00  0.00     0.134 A 
ATOM     88  F   UNL     1      14.214  -2.127   5.092  1.00  0.00    -0.206 F 
ATOM     89  C   UNL     1      13.280  -4.098   5.961  1.00  0.00     0.040 A 
ATOM     90  C   UNL     1      11.531  -5.231   4.756  1.00  0.00     0.040 A 
ATOM     91  F   UNL     1      10.782  -4.383   2.701  1.00  0.00    -0.206 F 
ATOM     92  C   UNL     1      12.377  -5.154   5.861  1.00  0.00     0.006 A 
ENDBRANCH  64  85
BRANCH  76  93
ATOM     93  C   UNL     1      17.459  -1.417  -0.739  1.00  0.00     0.057 A 
ATOM     94  C   UNL     1      17.695  -2.680  -1.294  1.00  0.00     0.134 A 
ATOM     95  C   UNL     1      18.570  -0.617  -0.446  1.00  0.00     0.134 A 
ATOM     96  F   UNL     1      16.671  -3.497  -1.588  1.00  0.00    -0.206 F 
ATOM     97  C   UNL     1      18.991  -3.142  -1.524  1.00  0.00     0.040 A 
ATOM     98  C   UNL     1      19.869  -1.053  -0.702  1.00  0.00     0.040 A 
ATOM     99  F   UNL     1      18.410   0.610   0.073  1.00  0.00    -0.206 F 
ATOM    100  C   UNL     1      20.081  -2.323  -1.236  1.00  0.00     0.006 A 
ENDBRANCH  76  93
ENDBRANCH  50  51
ENDBRANCH  42  45
ENDBRANCH  40  41
ENDBRANCH  39  40
ENDBRANCH  38  39
ENDBRANCH  37  38
ENDBRANCH  36  37
ENDBRANCH   1  36
TORSDOF 21
