REMARK SMILES C[N@H+]1CCO[C@H](c2noc(-c3ccccc3C(=O)NCCCCCCNC(=O)c3ccc(-c4c5nc(c(-c6c(F)cccc6F)c6ccc([nH]6)c(-c6c(F)cccc6F)c6nc(c(-c7c(F)cccc7F)c7ccc4[nH]7)C=C6)C=C5)cc3)n2)C1
REMARK SMILES IDX 22 1 21 2 20 3 19 4 17 5 18 6 16 8 11 9 12 10 13 11 15 12
REMARK SMILES IDX 14 13 10 14 7 15 8 16 83 17 9 18 6 19 1 20 2 21 3 22 84 23
REMARK SMILES IDX 4 25 5 26 23 27 24 28 25 29 26 30 27 31 28 33 29 34 30 35
REMARK SMILES IDX 82 36 31 37 81 38 32 39 33 40 34 41 75 42 35 43 80 44 74 45
REMARK SMILES IDX 76 46 36 47 79 48 73 49 72 50 37 52 63 53 46 54 62 55 47 56
REMARK SMILES IDX 50 57 61 58 77 59 48 60 49 61 60 63 78 64 51 65 38 66 39 67
REMARK SMILES IDX 44 68 40 69 41 70 43 71 45 72 42 73 64 74 65 75 70 76 66 77
REMARK SMILES IDX 67 78 69 79 71 80 68 81 52 82 53 83 58 84 54 85 55 86 57 87
REMARK SMILES IDX 59 88 56 89
REMARK H PARENT 19 7 2 24 26 32 76 51 50 62
REMARK Flexibility Score: inf
ROOT
ATOM      1  C   UNL     1       0.985   3.435  -3.804  1.00  0.00     0.002 C 
ENDROOT
BRANCH   1   2
ATOM      2  C   UNL     1       2.202   4.077  -4.488  1.00  0.00     0.021 C 
BRANCH   2   3
ATOM      3  C   UNL     1       3.052   3.113  -5.252  1.00  0.00     0.116 C 
BRANCH   3   4
ATOM      4  N   UNL     1       2.815   2.785  -6.600  1.00  0.00    -0.352 N 
ATOM      5  C   UNL     1       3.651   1.956  -7.317  1.00  0.00     0.252 C 
ATOM      6  O   UNL     1       3.156   1.438  -8.323  1.00  0.00    -0.269 OA
ATOM      7  H   UNL     1       2.023   3.162  -7.047  1.00  0.00     0.163 HD
BRANCH   5   8
ATOM      8  C   UNL     1       5.135   1.737  -7.040  1.00  0.00     0.052 A 
ATOM      9  C   UNL     1       5.908   1.596  -5.846  1.00  0.00     0.053 A 
ATOM     10  C   UNL     1       7.309   1.381  -5.979  1.00  0.00     0.015 A 
ATOM     11  C   UNL     1       7.950   1.332  -7.217  1.00  0.00     0.001 A 
ATOM     12  C   UNL     1       5.833   1.685  -8.279  1.00  0.00     0.014 A 
ATOM     13  C   UNL     1       7.210   1.495  -8.372  1.00  0.00     0.001 A 
BRANCH   9  14
ATOM     14  C   UNL     1       5.463   1.756  -4.453  1.00  0.00     0.258 A 
ATOM     15  C   UNL     1       4.295   2.202  -2.741  1.00  0.00     0.206 A 
ATOM     16  N   UNL     1       5.309   3.072  -2.648  1.00  0.00    -0.059 NA
ATOM     17  N   UNL     1       4.468   1.255  -3.750  1.00  0.00    -0.189 NA
ATOM     18  O   UNL     1       6.084   2.786  -3.779  1.00  0.00    -0.334 OA
BRANCH  15  19
ATOM     19  C   UNL     1       3.114   2.205  -1.774  1.00  0.00     0.245 C 
ATOM     20  C   UNL     1       0.590  -0.727  -0.111  1.00  0.00     0.332 C 
ATOM     21  N   UNL     1       0.672   0.115  -1.315  1.00  0.00    -0.333 N 
ATOM     22  C   UNL     1      -0.500   1.418  -1.219  1.00  0.00     0.290 C 
ATOM     23  C   UNL     1       2.355   0.424  -1.686  1.00  0.00     0.303 C 
ATOM     24  H   UNL     1       0.362  -0.337  -2.175  1.00  0.00     0.348 HD
ATOM     25  C   UNL     1       0.025   3.263  -1.400  1.00  0.00     0.222 C 
ATOM     26  O   UNL     1       1.870   3.634  -1.718  1.00  0.00    -0.358 OA
ENDBRANCH  15  19
ENDBRANCH   9  14
ENDBRANCH   5   8
ENDBRANCH   3   4
ENDBRANCH   2   3
ENDBRANCH   1   2
BRANCH   1  27
ATOM     27  C   UNL     1       1.161   2.082  -2.603  1.00  0.00     0.002 C 
BRANCH  27  28
ATOM     28  C   UNL     1       1.482   2.158  -0.499  1.00  0.00     0.021 C 
BRANCH  28  29
ATOM     29  C   UNL     1       2.114   3.470   0.493  1.00  0.00     0.116 C 
BRANCH  29  30
ATOM     30  N   UNL     1       1.185   4.576   0.744  1.00  0.00    -0.352 N 
ATOM     31  C   UNL     1       0.423   4.722   1.877  1.00  0.00     0.251 C 
ATOM     32  H   UNL     1       1.101   5.266   0.047  1.00  0.00     0.163 HD
ATOM     33  O   UNL     1      -0.731   5.117   1.885  1.00  0.00    -0.269 OA
BRANCH  31  34
ATOM     34  C   UNL     1       1.176   4.462   3.103  1.00  0.00     0.039 A 
ATOM     35  C   UNL     1       0.724   3.595   4.093  1.00  0.00     0.014 A 
ATOM     36  C   UNL     1       2.461   5.016   3.117  1.00  0.00     0.014 A 
ATOM     37  C   UNL     1       1.603   3.271   5.120  1.00  0.00     0.010 A 
ATOM     38  C   UNL     1       3.365   4.580   4.047  1.00  0.00     0.010 A 
ATOM     39  C   UNL     1       2.924   3.756   5.088  1.00  0.00    -0.014 A 
BRANCH  39  40
ATOM     40  C   UNL     1       3.885   3.513   6.172  1.00  0.00     0.031 A 
ATOM     41  C   UNL     1       4.435   4.702   6.909  1.00  0.00     0.074 A 
ATOM     42  C   UNL     1       4.341   2.269   6.380  1.00  0.00     0.049 A 
ATOM     43  N   UNL     1       5.400   4.755   7.785  1.00  0.00    -0.248 NA
ATOM     44  C   UNL     1       3.869   6.020   6.558  1.00  0.00     0.031 C 
ATOM     45  C   UNL     1       3.924   1.075   5.641  1.00  0.00     0.029 A 
ATOM     46  N   UNL     1       5.277   1.810   7.263  1.00  0.00    -0.354 N 
ATOM     47  C   UNL     1       5.567   6.105   8.065  1.00  0.00     0.074 A 
ATOM     48  C   UNL     1       4.687   6.842   7.192  1.00  0.00     0.031 C 
ATOM     49  C   UNL     1       4.581   0.011   6.126  1.00  0.00     0.029 A 
ATOM     50  C   UNL     1       5.495   0.459   7.171  1.00  0.00     0.049 A 
ATOM     51  H   UNL     1       5.748   2.391   7.902  1.00  0.00     0.167 HD
ATOM     52  C   UNL     1       6.355   6.674   9.004  1.00  0.00     0.037 A 
ATOM     53  C   UNL     1       6.351  -0.317   7.857  1.00  0.00     0.037 A 
ATOM     54  C   UNL     1       7.200   5.908   9.877  1.00  0.00     0.049 A 
ATOM     55  C   UNL     1       7.207   0.329   8.911  1.00  0.00     0.074 A 
ATOM     56  C   UNL     1       7.994   6.348  10.916  1.00  0.00     0.029 A 
ATOM     57  N   UNL     1       7.359   4.530   9.798  1.00  0.00    -0.354 N 
ATOM     58  N   UNL     1       7.296   1.596   9.241  1.00  0.00    -0.248 NA
ATOM     59  C   UNL     1       8.070  -0.561   9.695  1.00  0.00     0.031 C 
ATOM     60  C   UNL     1       8.684   5.244  11.427  1.00  0.00     0.029 A 
ATOM     61  C   UNL     1       8.263   4.105  10.754  1.00  0.00     0.049 A 
ATOM     62  H   UNL     1       6.896   3.943   9.157  1.00  0.00     0.167 HD
ATOM     63  C   UNL     1       8.205   1.656  10.288  1.00  0.00     0.074 A 
ATOM     64  C   UNL     1       8.623   0.291  10.546  1.00  0.00     0.031 C 
ATOM     65  C   UNL     1       8.657   2.735  10.977  1.00  0.00     0.037 A 
BRANCH  52  66
ATOM     66  C   UNL     1       6.323   8.172   9.117  1.00  0.00     0.057 A 
ATOM     67  C   UNL     1       5.165   8.868   9.498  1.00  0.00     0.134 A 
ATOM     68  C   UNL     1       7.458   8.935   8.820  1.00  0.00     0.134 A 
ATOM     69  F   UNL     1       4.033   8.204   9.781  1.00  0.00    -0.206 F 
ATOM     70  C   UNL     1       5.124  10.263   9.530  1.00  0.00     0.040 A 
ATOM     71  C   UNL     1       7.441  10.329   8.888  1.00  0.00     0.040 A 
ATOM     72  F   UNL     1       8.602   8.340   8.450  1.00  0.00    -0.206 F 
ATOM     73  C   UNL     1       6.268  10.998   9.230  1.00  0.00     0.006 A 
ENDBRANCH  52  66
BRANCH  53  74
ATOM     74  C   UNL     1       6.404  -1.774   7.583  1.00  0.00     0.057 A 
ATOM     75  C   UNL     1       5.930  -2.705   8.513  1.00  0.00     0.134 A 
ATOM     76  C   UNL     1       6.894  -2.269   6.368  1.00  0.00     0.134 A 
ATOM     77  F   UNL     1       5.451  -2.293   9.696  1.00  0.00    -0.206 F 
ATOM     78  C   UNL     1       5.958  -4.077   8.255  1.00  0.00     0.040 A 
ATOM     79  C   UNL     1       6.902  -3.635   6.084  1.00  0.00     0.040 A 
ATOM     80  F   UNL     1       7.342  -1.428   5.424  1.00  0.00    -0.206 F 
ATOM     81  C   UNL     1       6.440  -4.544   7.034  1.00  0.00     0.006 A 
ENDBRANCH  53  74
BRANCH  65  82
ATOM     82  C   UNL     1       9.627   2.473  12.091  1.00  0.00     0.057 A 
ATOM     83  C   UNL     1      10.941   2.056  11.848  1.00  0.00     0.134 A 
ATOM     84  C   UNL     1       9.250   2.691  13.422  1.00  0.00     0.134 A 
ATOM     85  F   UNL     1      11.361   1.821  10.595  1.00  0.00    -0.206 F 
ATOM     86  C   UNL     1      11.838   1.836  12.893  1.00  0.00     0.040 A 
ATOM     87  C   UNL     1      10.149   2.510  14.473  1.00  0.00     0.040 A 
ATOM     88  F   UNL     1       8.009   3.106  13.722  1.00  0.00    -0.206 F 
ATOM     89  C   UNL     1      11.444   2.072  14.210  1.00  0.00     0.006 A 
ENDBRANCH  65  82
ENDBRANCH  39  40
ENDBRANCH  31  34
ENDBRANCH  29  30
ENDBRANCH  28  29
ENDBRANCH  27  28
ENDBRANCH   1  27
TORSDOF 15
