REMARK SMILES C[C@H]1C[C@H]1CN(C)c1cccc(F)c1C(=O)NCCCCCCNC(=O)c1ccc(-c2c3nc(c(-c4c(F)cccc4F)c4ccc([nH]4)c(-c4c(F)cccc4F)c4nc(c(-c5c(F)cccc5F)c5ccc2[nH]5)C=C4)C=C3)cc1
REMARK SMILES IDX 20 1 19 2 18 3 17 4 15 5 16 6 14 8 8 9 9 10 10 11 12 12
REMARK SMILES IDX 11 13 13 14 6 15 7 16 5 17 4 18 1 19 2 20 3 21 21 22 22 23
REMARK SMILES IDX 23 24 24 25 25 26 26 28 27 29 28 30 80 31 29 32 79 33 30 34
REMARK SMILES IDX 31 35 32 36 73 37 33 38 78 39 72 40 74 41 34 42 77 43 71 44
REMARK SMILES IDX 70 45 35 47 61 48 44 49 60 50 45 51 48 52 59 53 75 54 46 55
REMARK SMILES IDX 47 56 58 58 76 59 49 60 36 61 37 62 42 63 38 64 39 65 41 66
REMARK SMILES IDX 43 67 40 68 62 69 63 70 68 71 64 72 65 73 67 74 69 75 66 76
REMARK SMILES IDX 50 77 51 78 56 79 52 80 53 81 55 82 57 83 54 84
REMARK H PARENT 17 7 24 27 74 46 48 57
REMARK Flexibility Score: inf
ROOT
ATOM      1  C   UNL     1      -6.602   5.602   4.077  1.00  0.00     0.002 C 
ENDROOT
BRANCH   1   2
ATOM      2  C   UNL     1      -5.349   5.527   3.205  1.00  0.00     0.021 C 
BRANCH   2   3
ATOM      3  C   UNL     1      -4.192   4.673   3.716  1.00  0.00     0.116 C 
BRANCH   3   4
ATOM      4  N   UNL     1      -4.482   3.259   3.903  1.00  0.00    -0.352 N 
ATOM      5  C   UNL     1      -3.655   2.156   3.721  1.00  0.00     0.256 C 
ATOM      6  O   UNL     1      -4.033   1.067   4.148  1.00  0.00    -0.269 OA
ATOM      7  H   UNL     1      -5.397   3.053   4.201  1.00  0.00     0.163 HD
BRANCH   5   8
ATOM      8  C   UNL     1      -2.374   2.286   2.973  1.00  0.00     0.098 A 
ATOM      9  C   UNL     1      -2.028   1.443   1.893  1.00  0.00     0.052 A 
ATOM     10  C   UNL     1      -0.946   1.840   1.081  1.00  0.00     0.027 A 
ATOM     11  C   UNL     1      -0.139   2.932   1.395  1.00  0.00     0.005 A 
ATOM     12  C   UNL     1      -1.476   3.293   3.350  1.00  0.00     0.138 A 
ATOM     13  C   UNL     1      -0.376   3.629   2.567  1.00  0.00     0.040 A 
ATOM     14  F   UNL     1      -1.657   3.987   4.485  1.00  0.00    -0.206 F 
BRANCH   9  15
ATOM     15  N   UNL     1      -2.573   0.194   1.628  1.00  0.00    -0.374 N 
ATOM     16  C   UNL     1      -3.914   0.050   1.099  1.00  0.00     0.143 C 
BRANCH  15  17
ATOM     17  C   UNL     1      -1.850  -0.978   2.135  1.00  0.00     0.120 C 
BRANCH  17  18
ATOM     18  C   UNL     1      -0.802  -1.421   1.144  1.00  0.00     0.011 C 
ATOM     19  C   UNL     1       1.330  -0.326   2.340  1.00  0.00     0.008 C 
ATOM     20  C   UNL     1       0.686  -1.096   1.236  1.00  0.00    -0.009 C 
ATOM     21  C   UNL     1       0.197  -2.491   1.518  1.00  0.00     0.009 C 
ENDBRANCH  17  18
ENDBRANCH  15  17
ENDBRANCH   9  15
ENDBRANCH   5   8
ENDBRANCH   3   4
ENDBRANCH   2   3
ENDBRANCH   1   2
BRANCH   1  22
ATOM     22  C   UNL     1      -6.400   5.972   5.548  1.00  0.00     0.002 C 
BRANCH  22  23
ATOM     23  C   UNL     1      -5.609   7.251   5.833  1.00  0.00     0.021 C 
BRANCH  23  24
ATOM     24  C   UNL     1      -6.114   8.517   5.149  1.00  0.00     0.116 C 
BRANCH  24  25
ATOM     25  N   UNL     1      -7.468   8.871   5.537  1.00  0.00    -0.352 N 
ATOM     26  C   UNL     1      -7.961  10.057   6.029  1.00  0.00     0.251 C 
ATOM     27  H   UNL     1      -8.134   8.153   5.433  1.00  0.00     0.163 HD
ATOM     28  O   UNL     1      -9.113  10.119   6.442  1.00  0.00    -0.269 OA
BRANCH  26  29
ATOM     29  C   UNL     1      -7.096  11.257   6.085  1.00  0.00     0.039 A 
ATOM     30  C   UNL     1      -7.112  12.043   7.241  1.00  0.00     0.014 A 
ATOM     31  C   UNL     1      -6.286  11.620   5.006  1.00  0.00     0.014 A 
ATOM     32  C   UNL     1      -6.268  13.153   7.338  1.00  0.00     0.010 A 
ATOM     33  C   UNL     1      -5.393  12.682   5.133  1.00  0.00     0.010 A 
ATOM     34  C   UNL     1      -5.374  13.460   6.300  1.00  0.00    -0.014 A 
BRANCH  34  35
ATOM     35  C   UNL     1      -4.411  14.587   6.421  1.00  0.00     0.031 A 
ATOM     36  C   UNL     1      -4.499  15.763   5.487  1.00  0.00     0.074 A 
ATOM     37  C   UNL     1      -3.432  14.533   7.346  1.00  0.00     0.049 A 
ATOM     38  N   UNL     1      -3.711  16.805   5.396  1.00  0.00    -0.248 NA
ATOM     39  C   UNL     1      -5.605  15.764   4.515  1.00  0.00     0.031 C 
ATOM     40  C   UNL     1      -3.225  13.436   8.295  1.00  0.00     0.029 A 
ATOM     41  N   UNL     1      -2.425  15.418   7.642  1.00  0.00    -0.354 N 
ATOM     42  C   UNL     1      -4.225  17.580   4.364  1.00  0.00     0.074 A 
ATOM     43  C   UNL     1      -5.356  16.864   3.818  1.00  0.00     0.031 C 
ATOM     44  C   UNL     1      -2.182  13.730   9.087  1.00  0.00     0.029 A 
ATOM     45  C   UNL     1      -1.614  15.010   8.675  1.00  0.00     0.049 A 
ATOM     46  H   UNL     1      -2.295  16.267   7.159  1.00  0.00     0.167 HD
ATOM     47  C   UNL     1      -3.808  18.792   3.930  1.00  0.00     0.037 A 
ATOM     48  C   UNL     1      -0.532  15.596   9.223  1.00  0.00     0.037 A 
ATOM     49  C   UNL     1      -2.697  19.515   4.490  1.00  0.00     0.049 A 
ATOM     50  C   UNL     1      -0.065  16.923   8.688  1.00  0.00     0.074 A 
ATOM     51  C   UNL     1      -2.220  20.765   4.134  1.00  0.00     0.029 A 
ATOM     52  N   UNL     1      -1.895  19.060   5.525  1.00  0.00    -0.354 N 
ATOM     53  N   UNL     1      -0.585  17.660   7.737  1.00  0.00    -0.248 NA
ATOM     54  C   UNL     1       1.141  17.501   9.300  1.00  0.00     0.031 C 
ATOM     55  C   UNL     1      -1.102  21.046   4.921  1.00  0.00     0.029 A 
ATOM     56  C   UNL     1      -0.916  19.997   5.807  1.00  0.00     0.049 A 
ATOM     57  H   UNL     1      -2.005  18.199   5.990  1.00  0.00     0.167 HD
ATOM     58  C   UNL     1       0.204  18.800   7.663  1.00  0.00     0.074 A 
ATOM     59  C   UNL     1       1.233  18.665   8.672  1.00  0.00     0.031 C 
ATOM     60  C   UNL     1       0.087  19.863   6.831  1.00  0.00     0.037 A 
BRANCH  47  61
ATOM     61  C   UNL     1      -4.568  19.445   2.813  1.00  0.00     0.057 A 
ATOM     62  C   UNL     1      -3.979  19.634   1.557  1.00  0.00     0.134 A 
ATOM     63  C   UNL     1      -5.843  19.989   3.019  1.00  0.00     0.134 A 
ATOM     64  F   UNL     1      -2.757  19.145   1.297  1.00  0.00    -0.206 F 
ATOM     65  C   UNL     1      -4.619  20.363   0.553  1.00  0.00     0.040 A 
ATOM     66  C   UNL     1      -6.504  20.698   2.014  1.00  0.00     0.040 A 
ATOM     67  F   UNL     1      -6.466  19.834   4.196  1.00  0.00    -0.206 F 
ATOM     68  C   UNL     1      -5.885  20.899   0.782  1.00  0.00     0.006 A 
ENDBRANCH  47  61
BRANCH  48  69
ATOM     69  C   UNL     1       0.175  14.950  10.360  1.00  0.00     0.057 A 
ATOM     70  C   UNL     1       0.888  13.755  10.200  1.00  0.00     0.134 A 
ATOM     71  C   UNL     1       0.166  15.526  11.636  1.00  0.00     0.134 A 
ATOM     72  F   UNL     1       0.934  13.147   9.006  1.00  0.00    -0.206 F 
ATOM     73  C   UNL     1       1.558  13.153  11.268  1.00  0.00     0.040 A 
ATOM     74  C   UNL     1       0.856  14.952  12.705  1.00  0.00     0.040 A 
ATOM     75  F   UNL     1      -0.482  16.681  11.850  1.00  0.00    -0.206 F 
ATOM     76  C   UNL     1       1.550  13.758  12.523  1.00  0.00     0.006 A 
ENDBRANCH  48  69
BRANCH  60  77
ATOM     77  C   UNL     1       1.063  20.991   6.993  1.00  0.00     0.057 A 
ATOM     78  C   UNL     1       0.635  22.239   7.467  1.00  0.00     0.134 A 
ATOM     79  C   UNL     1       2.401  20.874   6.597  1.00  0.00     0.134 A 
ATOM     80  F   UNL     1      -0.638  22.422   7.851  1.00  0.00    -0.206 F 
ATOM     81  C   UNL     1       1.498  23.334   7.523  1.00  0.00     0.040 A 
ATOM     82  C   UNL     1       3.281  21.955   6.676  1.00  0.00     0.040 A 
ATOM     83  F   UNL     1       2.876  19.704   6.143  1.00  0.00    -0.206 F 
ATOM     84  C   UNL     1       2.826  23.192   7.129  1.00  0.00     0.006 A 
ENDBRANCH  60  77
ENDBRANCH  34  35
ENDBRANCH  26  29
ENDBRANCH  24  25
ENDBRANCH  23  24
ENDBRANCH  22  23
ENDBRANCH   1  22
TORSDOF 16
