REMARK SMILES Cc1cc(Br)cc(C(=O)NCCCCCCNC(=O)c2ccc(-c3c4nc(c(-c5c(F)cccc5F)c5ccc([nH]5)c(-c5c(F)cccc5F)c5nc(c(-c6c(F)cccc6F)c6ccc3[nH]6)C=C5)C=C4)cc2)c1Br
REMARK SMILES IDX 14 1 13 2 12 3 11 4 10 5 8 6 9 7 7 9 1 10 2 11 3 12 74 13
REMARK SMILES IDX 4 14 75 15 5 16 6 17 15 18 16 19 17 20 18 21 19 23 20 24
REMARK SMILES IDX 21 25 73 26 22 27 72 28 23 29 24 30 25 31 66 32 26 33 71 34
REMARK SMILES IDX 65 35 67 36 27 37 70 38 64 39 63 40 28 42 54 43 37 44 53 45
REMARK SMILES IDX 38 46 41 47 52 48 68 49 39 50 40 51 51 53 69 54 42 55 29 56
REMARK SMILES IDX 30 57 35 58 31 59 32 60 34 61 36 62 33 63 55 64 56 65 61 66
REMARK SMILES IDX 57 67 58 68 60 69 62 70 59 71 43 72 44 73 49 74 45 75 46 76
REMARK SMILES IDX 48 77 50 78 47 79
REMARK H PARENT 10 8 17 22 67 41 41 52
REMARK Flexibility Score: inf
ROOT
ATOM      1  C   UNL     1      -3.910   1.299  -5.429  1.00  0.00     0.002 C 
ENDROOT
BRANCH   1   2
ATOM      2  C   UNL     1      -2.685   0.632  -6.062  1.00  0.00     0.002 C 
BRANCH   2   3
ATOM      3  C   UNL     1      -1.428   0.468  -5.199  1.00  0.00     0.021 C 
BRANCH   3   4
ATOM      4  C   UNL     1      -1.611  -0.108  -3.799  1.00  0.00     0.116 C 
BRANCH   4   5
ATOM      5  N   UNL     1      -2.195  -1.434  -3.744  1.00  0.00    -0.352 N 
ATOM      6  C   UNL     1      -2.011  -2.446  -2.828  1.00  0.00     0.252 C 
ATOM      7  O   UNL     1      -2.696  -3.464  -2.925  1.00  0.00    -0.269 OA
ATOM      8  H   UNL     1      -2.819  -1.644  -4.476  1.00  0.00     0.163 HD
BRANCH   6   9
ATOM      9  C   UNL     1      -0.925  -2.412  -1.814  1.00  0.00     0.055 A 
ATOM     10  C   UNL     1       0.955  -0.178   0.664  1.00  0.00     0.045 C 
ATOM     11  C   UNL     1       0.514  -1.367  -0.147  1.00  0.00    -0.035 A 
ATOM     12  C   UNL     1       1.316  -2.519  -0.134  1.00  0.00     0.020 A 
ATOM     13  C   UNL     1      -0.677  -1.369  -0.907  1.00  0.00     0.033 A 
ATOM     14  C   UNL     1       0.974  -3.622  -0.909  1.00  0.00     0.019 A 
ATOM     15  Br  UNL     1      -2.017  -0.070  -0.497  1.00  0.00    -0.050 Br
ATOM     16  Br  UNL     1       2.000  -5.204  -0.792  1.00  0.00    -0.051 Br
ATOM     17  C   UNL     1      -0.113  -3.560  -1.775  1.00  0.00     0.030 A 
ENDBRANCH   6   9
ENDBRANCH   4   5
ENDBRANCH   3   4
ENDBRANCH   2   3
ENDBRANCH   1   2
BRANCH   1  18
ATOM     18  C   UNL     1      -3.704   2.651  -4.745  1.00  0.00     0.021 C 
BRANCH  18  19
ATOM     19  C   UNL     1      -3.019   3.737  -5.564  1.00  0.00     0.116 C 
BRANCH  19  20
ATOM     20  N   UNL     1      -3.765   4.162  -6.737  1.00  0.00    -0.352 N 
ATOM     21  C   UNL     1      -3.970   5.434  -7.226  1.00  0.00     0.251 C 
ATOM     22  H   UNL     1      -4.183   3.438  -7.257  1.00  0.00     0.163 HD
ATOM     23  O   UNL     1      -4.693   5.609  -8.204  1.00  0.00    -0.269 OA
BRANCH  21  24
ATOM     24  C   UNL     1      -3.365   6.604  -6.544  1.00  0.00     0.039 A 
ATOM     25  C   UNL     1      -2.045   6.575  -6.093  1.00  0.00     0.014 A 
ATOM     26  C   UNL     1      -4.149   7.741  -6.318  1.00  0.00     0.014 A 
ATOM     27  C   UNL     1      -1.581   7.581  -5.250  1.00  0.00     0.010 A 
ATOM     28  C   UNL     1      -3.647   8.796  -5.546  1.00  0.00     0.010 A 
ATOM     29  C   UNL     1      -2.384   8.694  -4.945  1.00  0.00    -0.014 A 
BRANCH  29  30
ATOM     30  C   UNL     1      -1.886   9.697  -3.963  1.00  0.00     0.031 A 
ATOM     31  C   UNL     1      -2.579   9.891  -2.637  1.00  0.00     0.074 A 
ATOM     32  C   UNL     1      -0.748  10.371  -4.223  1.00  0.00     0.049 A 
ATOM     33  N   UNL     1      -2.222  10.636  -1.618  1.00  0.00    -0.248 NA
ATOM     34  C   UNL     1      -3.838   9.161  -2.428  1.00  0.00     0.031 C 
ATOM     35  C   UNL     1       0.019  10.283  -5.466  1.00  0.00     0.029 A 
ATOM     36  N   UNL     1      -0.018  11.232  -3.442  1.00  0.00    -0.354 N 
ATOM     37  C   UNL     1      -3.215  10.473  -0.658  1.00  0.00     0.074 A 
ATOM     38  C   UNL     1      -4.209   9.591  -1.230  1.00  0.00     0.031 C 
ATOM     39  C   UNL     1       1.143  11.004  -5.340  1.00  0.00     0.029 A 
ATOM     40  C   UNL     1       1.154  11.642  -4.028  1.00  0.00     0.049 A 
ATOM     41  H   UNL     1      -0.307  11.526  -2.548  1.00  0.00     0.167 HD
ATOM     42  C   UNL     1      -3.288  10.992   0.592  1.00  0.00     0.037 A 
ATOM     43  C   UNL     1       2.133  12.438  -3.561  1.00  0.00     0.037 A 
ATOM     44  C   UNL     1      -2.296  11.860   1.175  1.00  0.00     0.049 A 
ATOM     45  C   UNL     1       2.020  13.014  -2.178  1.00  0.00     0.074 A 
ATOM     46  C   UNL     1      -2.277  12.428   2.438  1.00  0.00     0.029 A 
ATOM     47  N   UNL     1      -1.145  12.286   0.530  1.00  0.00    -0.354 N 
ATOM     48  N   UNL     1       1.088  12.826  -1.276  1.00  0.00    -0.248 NA
ATOM     49  C   UNL     1       3.102  13.911  -1.750  1.00  0.00     0.031 C 
ATOM     50  C   UNL     1      -1.130  13.224   2.546  1.00  0.00     0.029 A 
ATOM     51  C   UNL     1      -0.414  13.117   1.365  1.00  0.00     0.049 A 
ATOM     52  H   UNL     1      -0.884  12.035  -0.385  1.00  0.00     0.167 HD
ATOM     53  C   UNL     1       1.480  13.566  -0.168  1.00  0.00     0.074 A 
ATOM     54  C   UNL     1       2.747  14.183  -0.503  1.00  0.00     0.031 C 
ATOM     55  C   UNL     1       0.846  13.725   1.020  1.00  0.00     0.037 A 
BRANCH  42  56
ATOM     56  C   UNL     1      -4.497  10.640   1.412  1.00  0.00     0.057 A 
ATOM     57  C   UNL     1      -5.480  11.600   1.686  1.00  0.00     0.134 A 
ATOM     58  C   UNL     1      -4.684   9.356   1.941  1.00  0.00     0.134 A 
ATOM     59  F   UNL     1      -5.361  12.851   1.217  1.00  0.00    -0.206 F 
ATOM     60  C   UNL     1      -6.607  11.293   2.452  1.00  0.00     0.040 A 
ATOM     61  C   UNL     1      -5.819   9.031   2.687  1.00  0.00     0.040 A 
ATOM     62  F   UNL     1      -3.787   8.387   1.704  1.00  0.00    -0.206 F 
ATOM     63  C   UNL     1      -6.783  10.003   2.947  1.00  0.00     0.006 A 
ENDBRANCH  42  56
BRANCH  43  64
ATOM     64  C   UNL     1       3.321  12.730  -4.402  1.00  0.00     0.057 A 
ATOM     65  C   UNL     1       3.225  13.534  -5.544  1.00  0.00     0.134 A 
ATOM     66  C   UNL     1       4.585  12.230  -4.068  1.00  0.00     0.134 A 
ATOM     67  F   UNL     1       2.041  14.038  -5.919  1.00  0.00    -0.206 F 
ATOM     68  C   UNL     1       4.342  13.826  -6.326  1.00  0.00     0.040 A 
ATOM     69  C   UNL     1       5.716  12.537  -4.826  1.00  0.00     0.040 A 
ATOM     70  F   UNL     1       4.743  11.470  -2.974  1.00  0.00    -0.206 F 
ATOM     71  C   UNL     1       5.594  13.335  -5.962  1.00  0.00     0.006 A 
ENDBRANCH  43  64
BRANCH  55  72
ATOM     72  C   UNL     1       1.538  14.572   2.046  1.00  0.00     0.057 A 
ATOM     73  C   UNL     1       2.122  13.988   3.177  1.00  0.00     0.134 A 
ATOM     74  C   UNL     1       1.640  15.963   1.911  1.00  0.00     0.134 A 
ATOM     75  F   UNL     1       2.054  12.662   3.371  1.00  0.00    -0.206 F 
ATOM     76  C   UNL     1       2.794  14.755   4.130  1.00  0.00     0.040 A 
ATOM     77  C   UNL     1       2.333  16.738   2.843  1.00  0.00     0.040 A 
ATOM     78  F   UNL     1       1.116  16.583   0.842  1.00  0.00    -0.206 F 
ATOM     79  C   UNL     1       2.911  16.133   3.958  1.00  0.00     0.006 A 
ENDBRANCH  55  72
ENDBRANCH  29  30
ENDBRANCH  21  24
ENDBRANCH  19  20
ENDBRANCH  18  19
ENDBRANCH   1  18
TORSDOF 13
