REMARK SMILES [NH3+][C@H](C(=O)NCCCCCCNC(=O)c1ccc(-c2c3nc(c(-c4c(F)cccc4F)c4ccc([nH]4)c(-c4c(F)cccc4F)c4nc(c(-c5c(F)cccc5F)c5ccc2[nH]5)C=C4)C=C3)cc1)c1cccc(OCc2ccc(F)cc2)c1
REMARK SMILES IDX 7 1 6 2 5 3 3 4 4 5 2 7 1 8 69 12 70 13 83 14 71 15 73 16
REMARK SMILES IDX 72 17 74 18 75 19 76 20 77 21 82 22 78 23 81 24 79 25 80 26
REMARK SMILES IDX 8 27 9 28 10 29 11 30 12 31 13 32 14 34 15 35 16 36 68 37
REMARK SMILES IDX 17 38 67 39 18 40 19 41 20 42 61 43 21 44 66 45 60 46 62 47
REMARK SMILES IDX 22 48 65 49 59 50 58 51 23 53 49 54 32 55 48 56 33 57 36 58
REMARK SMILES IDX 47 59 63 60 34 61 35 62 46 64 64 65 37 66 24 67 25 68 30 69
REMARK SMILES IDX 26 70 27 71 29 72 31 73 28 74 50 75 51 76 56 77 52 78 53 79
REMARK SMILES IDX 55 80 57 81 54 82 38 83 39 84 44 85 40 86 41 87 43 88 45 89
REMARK SMILES IDX 42 90
REMARK H PARENT 5 6 1 9 1 10 1 11 12 33 62 52 36 63
REMARK Flexibility Score: inf
ROOT
ATOM      1  C   UNL     1      -0.955   2.180   1.800  1.00  0.00     0.021 C 
ENDROOT
BRANCH   1   2
ATOM      2  C   UNL     1       0.326   2.327   0.979  1.00  0.00     0.116 C 
BRANCH   2   3
ATOM      3  N   UNL     1       1.079   1.089   0.951  1.00  0.00    -0.351 N 
ATOM      4  C   UNL     1       1.110   0.145  -0.039  1.00  0.00     0.283 C 
ATOM      5  O   UNL     1       1.735  -0.900   0.165  1.00  0.00    -0.268 OA
ATOM      6  H   UNL     1       1.635   0.904   1.742  1.00  0.00     0.163 HD
BRANCH   4   7
ATOM      7  C   UNL     1       0.417   0.443  -1.396  1.00  0.00     0.302 C 
BRANCH   7   8
ATOM      8  N   UNL     1       0.932  -0.477  -2.437  1.00  0.00    -0.343 N 
ATOM      9  H   UNL     1       0.472  -0.276  -3.325  1.00  0.00     0.345 HD
ATOM     10  H   UNL     1       0.739  -1.440  -2.165  1.00  0.00     0.345 HD
ATOM     11  H   UNL     1       1.938  -0.347  -2.538  1.00  0.00     0.345 HD
ENDBRANCH   7   8
BRANCH   7  12
ATOM     12  C   UNL     1      -1.097   0.364  -1.307  1.00  0.00     0.023 A 
ATOM     13  C   UNL     1      -1.885   1.487  -1.612  1.00  0.00     0.011 A 
ATOM     14  C   UNL     1      -1.739  -0.839  -0.972  1.00  0.00     0.057 A 
ATOM     15  C   UNL     1      -3.276   1.421  -1.548  1.00  0.00     0.004 A 
ATOM     16  C   UNL     1      -3.129  -0.939  -1.049  1.00  0.00     0.120 A 
ATOM     17  C   UNL     1      -3.895   0.206  -1.272  1.00  0.00     0.046 A 
BRANCH  16  18
ATOM     18  O   UNL     1      -3.839  -2.108  -1.071  1.00  0.00    -0.489 OA
BRANCH  18  19
ATOM     19  C   UNL     1      -3.137  -3.337  -1.306  1.00  0.00     0.265 C 
BRANCH  19  20
ATOM     20  C   UNL     1      -2.431  -3.543  -2.644  1.00  0.00    -0.011 A 
ATOM     21  C   UNL     1      -1.841  -4.797  -2.890  1.00  0.00     0.010 A 
ATOM     22  C   UNL     1      -2.269  -2.540  -3.615  1.00  0.00     0.010 A 
ATOM     23  C   UNL     1      -1.075  -5.018  -4.037  1.00  0.00     0.039 A 
ATOM     24  C   UNL     1      -1.470  -2.747  -4.741  1.00  0.00     0.039 A 
ATOM     25  C   UNL     1      -0.877  -3.983  -4.941  1.00  0.00     0.123 A 
ATOM     26  F   UNL     1      -0.104  -4.181  -6.016  1.00  0.00    -0.207 F 
ENDBRANCH  19  20
ENDBRANCH  18  19
ENDBRANCH  16  18
ENDBRANCH   7  12
ENDBRANCH   4   7
ENDBRANCH   2   3
ENDBRANCH   1   2
BRANCH   1  27
ATOM     27  C   UNL     1      -0.712   2.103   3.311  1.00  0.00     0.002 C 
BRANCH  27  28
ATOM     28  C   UNL     1       0.056   3.290   3.901  1.00  0.00     0.002 C 
BRANCH  28  29
ATOM     29  C   UNL     1      -0.532   4.667   3.579  1.00  0.00     0.021 C 
BRANCH  29  30
ATOM     30  C   UNL     1      -1.954   4.881   4.087  1.00  0.00     0.116 C 
BRANCH  30  31
ATOM     31  N   UNL     1      -2.021   4.828   5.538  1.00  0.00    -0.352 N 
ATOM     32  C   UNL     1      -2.566   5.724   6.415  1.00  0.00     0.251 C 
ATOM     33  H   UNL     1      -1.614   4.031   5.949  1.00  0.00     0.163 HD
ATOM     34  O   UNL     1      -2.338   5.615   7.623  1.00  0.00    -0.269 OA
BRANCH  32  35
ATOM     35  C   UNL     1      -3.425   6.824   5.931  1.00  0.00     0.039 A 
ATOM     36  C   UNL     1      -3.300   8.085   6.520  1.00  0.00     0.014 A 
ATOM     37  C   UNL     1      -4.389   6.605   4.942  1.00  0.00     0.014 A 
ATOM     38  C   UNL     1      -4.127   9.130   6.105  1.00  0.00     0.010 A 
ATOM     39  C   UNL     1      -5.165   7.665   4.480  1.00  0.00     0.010 A 
ATOM     40  C   UNL     1      -5.060   8.931   5.076  1.00  0.00    -0.014 A 
BRANCH  40  41
ATOM     41  C   UNL     1      -5.974  10.020   4.654  1.00  0.00     0.031 A 
ATOM     42  C   UNL     1      -7.455   9.891   4.894  1.00  0.00     0.074 A 
ATOM     43  C   UNL     1      -5.483  11.104   4.025  1.00  0.00     0.049 A 
ATOM     44  N   UNL     1      -8.420  10.715   4.573  1.00  0.00    -0.248 NA
ATOM     45  C   UNL     1      -7.913   8.660   5.556  1.00  0.00     0.031 C 
ATOM     46  C   UNL     1      -4.074  11.326   3.696  1.00  0.00     0.029 A 
ATOM     47  N   UNL     1      -6.117  12.223   3.549  1.00  0.00    -0.354 N 
ATOM     48  C   UNL     1      -9.596  10.092   4.973  1.00  0.00     0.074 A 
ATOM     49  C   UNL     1      -9.229   8.801   5.512  1.00  0.00     0.031 C 
ATOM     50  C   UNL     1      -3.947  12.522   3.098  1.00  0.00     0.029 A 
ATOM     51  C   UNL     1      -5.266  13.136   2.977  1.00  0.00     0.049 A 
ATOM     52  H   UNL     1      -7.090  12.358   3.611  1.00  0.00     0.167 HD
ATOM     53  C   UNL     1     -10.865  10.562   4.918  1.00  0.00     0.037 A 
ATOM     54  C   UNL     1      -5.522  14.336   2.424  1.00  0.00     0.037 A 
ATOM     55  C   UNL     1     -11.223  11.863   4.420  1.00  0.00     0.049 A 
ATOM     56  C   UNL     1      -6.936  14.848   2.399  1.00  0.00     0.074 A 
ATOM     57  C   UNL     1     -12.471  12.460   4.382  1.00  0.00     0.029 A 
ATOM     58  N   UNL     1     -10.328  12.772   3.876  1.00  0.00    -0.354 N 
ATOM     59  N   UNL     1      -8.030  14.277   2.842  1.00  0.00    -0.248 NA
ATOM     60  C   UNL     1      -7.148  16.177   1.809  1.00  0.00     0.031 C 
ATOM     61  C   UNL     1     -12.336  13.717   3.784  1.00  0.00     0.029 A 
ATOM     62  C   UNL     1     -10.997  13.920   3.489  1.00  0.00     0.049 A 
ATOM     63  H   UNL     1      -9.359  12.622   3.780  1.00  0.00     0.167 HD
ATOM     64  C   UNL     1      -9.053  15.190   2.619  1.00  0.00     0.074 A 
ATOM     65  C   UNL     1      -8.446  16.355   2.008  1.00  0.00     0.031 C 
ATOM     66  C   UNL     1     -10.374  15.077   2.898  1.00  0.00     0.037 A 
BRANCH  53  67
ATOM     67  C   UNL     1     -11.958   9.660   5.414  1.00  0.00     0.057 A 
ATOM     68  C   UNL     1     -12.113   9.364   6.775  1.00  0.00     0.134 A 
ATOM     69  C   UNL     1     -12.879   9.096   4.522  1.00  0.00     0.134 A 
ATOM     70  F   UNL     1     -11.256   9.860   7.681  1.00  0.00    -0.206 F 
ATOM     71  C   UNL     1     -13.126   8.516   7.228  1.00  0.00     0.040 A 
ATOM     72  C   UNL     1     -13.913   8.269   4.966  1.00  0.00     0.040 A 
ATOM     73  F   UNL     1     -12.792   9.342   3.207  1.00  0.00    -0.206 F 
ATOM     74  C   UNL     1     -14.033   7.971   6.322  1.00  0.00     0.006 A 
ENDBRANCH  53  67
BRANCH  54  75
ATOM     75  C   UNL     1      -4.410  15.163   1.892  1.00  0.00     0.057 A 
ATOM     76  C   UNL     1      -4.002  16.327   2.553  1.00  0.00     0.134 A 
ATOM     77  C   UNL     1      -3.739  14.819   0.714  1.00  0.00     0.134 A 
ATOM     78  F   UNL     1      -4.620  16.717   3.678  1.00  0.00    -0.206 F 
ATOM     79  C   UNL     1      -2.979  17.133   2.050  1.00  0.00     0.040 A 
ATOM     80  C   UNL     1      -2.698  15.603   0.212  1.00  0.00     0.040 A 
ATOM     81  F   UNL     1      -4.077  13.711   0.039  1.00  0.00    -0.206 F 
ATOM     82  C   UNL     1      -2.321  16.768   0.877  1.00  0.00     0.006 A 
ENDBRANCH  54  75
BRANCH  66  83
ATOM     83  C   UNL     1     -11.243  16.261   2.594  1.00  0.00     0.057 A 
ATOM     84  C   UNL     1     -11.582  16.615   1.282  1.00  0.00     0.134 A 
ATOM     85  C   UNL     1     -11.771  17.039   3.632  1.00  0.00     0.134 A 
ATOM     86  F   UNL     1     -11.098  15.917   0.243  1.00  0.00    -0.206 F 
ATOM     87  C   UNL     1     -12.395  17.716   1.013  1.00  0.00     0.040 A 
ATOM     88  C   UNL     1     -12.605  18.127   3.377  1.00  0.00     0.040 A 
ATOM     89  F   UNL     1     -11.491  16.748   4.912  1.00  0.00    -0.206 F 
ATOM     90  C   UNL     1     -12.914  18.472   2.063  1.00  0.00     0.006 A 
ENDBRANCH  66  83
ENDBRANCH  40  41
ENDBRANCH  32  35
ENDBRANCH  30  31
ENDBRANCH  29  30
ENDBRANCH  28  29
ENDBRANCH  27  28
ENDBRANCH   1  27
TORSDOF 18
