REMARK SMILES C[C@H]1[C@H](C(=O)NCCCCCCNC(=O)c2ccc(-c3c4nc(c(-c5c(F)cccc5F)c5ccc([nH]5)c(-c5c(F)cccc5F)c5nc(c(-c6c(F)cccc6F)c6ccc3[nH]6)C=C5)C=C4)cc2)CCN1c1ccc(C(N)=O)c(Cl)c1
REMARK SMILES IDX 9 1 8 2 7 3 6 4 4 5 5 6 3 8 1 9 2 10 72 11 70 12 71 13 73 14
REMARK SMILES IDX 74 15 82 16 75 17 80 18 76 19 81 20 77 21 78 22 79 23 10 26
REMARK SMILES IDX 11 27 12 28 13 29 14 30 15 32 16 33 17 34 69 35 18 36 68 37
REMARK SMILES IDX 19 38 20 39 21 40 62 41 22 42 67 43 61 44 63 45 23 46 66 47
REMARK SMILES IDX 60 48 59 49 24 51 50 52 33 53 49 54 34 55 37 56 48 57 64 58
REMARK SMILES IDX 35 59 36 60 47 62 65 63 38 64 25 65 26 66 31 67 27 68 28 69
REMARK SMILES IDX 30 70 32 71 29 72 51 73 52 74 57 75 53 76 54 77 56 78 58 79
REMARK SMILES IDX 55 80 39 81 40 82 45 83 41 84 42 85 44 86 46 87 43 88
REMARK H PARENT 6 7 78 24 78 25 13 31 63 50 37 61
REMARK Flexibility Score: inf
ROOT
ATOM      1  C   UNL     1      -0.178   1.110   5.339  1.00  0.00     0.002 C 
ENDROOT
BRANCH   1   2
ATOM      2  C   UNL     1      -0.025   0.268   4.069  1.00  0.00     0.021 C 
BRANCH   2   3
ATOM      3  C   UNL     1      -0.952   0.688   2.930  1.00  0.00     0.116 C 
BRANCH   3   4
ATOM      4  N   UNL     1      -0.517   1.939   2.335  1.00  0.00    -0.356 N 
ATOM      5  C   UNL     1      -0.061   2.220   1.085  1.00  0.00     0.225 C 
ATOM      6  O   UNL     1       0.308   3.377   0.862  1.00  0.00    -0.275 OA
ATOM      7  H   UNL     1      -0.559   2.715   2.939  1.00  0.00     0.163 HD
BRANCH   5   8
ATOM      8  C   UNL     1      -0.019   1.182  -0.023  1.00  0.00     0.102 C 
ATOM      9  C   UNL     1       2.118  -0.061  -0.562  1.00  0.00     0.032 C 
ATOM     10  C   UNL     1       0.868  -0.028   0.318  1.00  0.00     0.091 C 
ATOM     11  N   UNL     1       0.022  -1.192   0.028  1.00  0.00    -0.368 N 
ATOM     12  C   UNL     1      -1.400   0.634  -0.384  1.00  0.00     0.037 C 
ATOM     13  C   UNL     1      -1.174  -0.833  -0.721  1.00  0.00     0.118 C 
BRANCH  11  14
ATOM     14  C   UNL     1       0.248  -2.472   0.462  1.00  0.00     0.038 A 
ATOM     15  C   UNL     1      -0.027  -3.573  -0.350  1.00  0.00     0.027 A 
ATOM     16  C   UNL     1       0.720  -2.745   1.749  1.00  0.00     0.047 A 
ATOM     17  C   UNL     1       0.152  -4.889   0.103  1.00  0.00     0.017 A 
ATOM     18  C   UNL     1       0.866  -4.057   2.237  1.00  0.00     0.055 A 
ATOM     19  C   UNL     1       0.592  -5.156   1.410  1.00  0.00     0.058 A 
ATOM     20  Cl  UNL     1       1.365  -4.168   3.893  1.00  0.00    -0.083 Cl
BRANCH  19  21
ATOM     21  C   UNL     1       0.730  -6.571   1.885  1.00  0.00     0.250 C 
ATOM     22  N   UNL     1       0.649  -7.585   0.969  1.00  0.00    -0.366 N 
ATOM     23  O   UNL     1       0.909  -6.876   3.059  1.00  0.00    -0.269 OA
ATOM     24  H   UNL     1       0.506  -7.378   0.017  1.00  0.00     0.159 HD
ATOM     25  H   UNL     1       0.734  -8.521   1.261  1.00  0.00     0.159 HD
ENDBRANCH  19  21
ENDBRANCH  11  14
ENDBRANCH   5   8
ENDBRANCH   3   4
ENDBRANCH   2   3
ENDBRANCH   1   2
BRANCH   1  26
ATOM     26  C   UNL     1      -1.586   1.107   5.943  1.00  0.00     0.002 C 
BRANCH  26  27
ATOM     27  C   UNL     1      -2.177  -0.282   6.200  1.00  0.00     0.021 C 
BRANCH  27  28
ATOM     28  C   UNL     1      -1.331  -1.171   7.106  1.00  0.00     0.116 C 
BRANCH  28  29
ATOM     29  N   UNL     1      -1.173  -0.597   8.432  1.00  0.00    -0.352 N 
ATOM     30  C   UNL     1      -1.497  -1.128   9.655  1.00  0.00     0.251 C 
ATOM     31  H   UNL     1      -0.776   0.303   8.457  1.00  0.00     0.163 HD
ATOM     32  O   UNL     1      -1.496  -0.418  10.656  1.00  0.00    -0.269 OA
BRANCH  30  33
ATOM     33  C   UNL     1      -1.867  -2.555   9.762  1.00  0.00     0.039 A 
ATOM     34  C   UNL     1      -2.963  -2.909  10.551  1.00  0.00     0.014 A 
ATOM     35  C   UNL     1      -1.131  -3.538   9.095  1.00  0.00     0.014 A 
ATOM     36  C   UNL     1      -3.356  -4.247  10.625  1.00  0.00     0.010 A 
ATOM     37  C   UNL     1      -1.570  -4.859   9.107  1.00  0.00     0.010 A 
ATOM     38  C   UNL     1      -2.683  -5.227   9.877  1.00  0.00    -0.014 A 
BRANCH  38  39
ATOM     39  C   UNL     1      -3.135  -6.641   9.888  1.00  0.00     0.031 A 
ATOM     40  C   UNL     1      -2.241  -7.718  10.438  1.00  0.00     0.074 A 
ATOM     41  C   UNL     1      -4.328  -6.962   9.352  1.00  0.00     0.049 A 
ATOM     42  N   UNL     1      -2.443  -9.011  10.494  1.00  0.00    -0.248 NA
ATOM     43  C   UNL     1      -0.941  -7.290  10.977  1.00  0.00     0.031 C 
ATOM     44  C   UNL     1      -5.266  -6.014   8.748  1.00  0.00     0.029 A 
ATOM     45  N   UNL     1      -4.954  -8.176   9.223  1.00  0.00    -0.354 N 
ATOM     46  C   UNL     1      -1.294  -9.548  11.062  1.00  0.00     0.074 A 
ATOM     47  C   UNL     1      -0.379  -8.449  11.282  1.00  0.00     0.031 C 
ATOM     48  C   UNL     1      -6.358  -6.678   8.336  1.00  0.00     0.029 A 
ATOM     49  C   UNL     1      -6.180  -8.101   8.607  1.00  0.00     0.049 A 
ATOM     50  H   UNL     1      -4.562  -9.021   9.541  1.00  0.00     0.167 HD
ATOM     51  C   UNL     1      -1.035 -10.836  11.391  1.00  0.00     0.037 A 
ATOM     52  C   UNL     1      -7.057  -9.071   8.287  1.00  0.00     0.037 A 
ATOM     53  C   UNL     1      -1.952 -11.925  11.177  1.00  0.00     0.049 A 
ATOM     54  C   UNL     1      -6.733 -10.497   8.637  1.00  0.00     0.074 A 
ATOM     55  C   UNL     1      -1.805 -13.256  11.524  1.00  0.00     0.029 A 
ATOM     56  N   UNL     1      -3.183 -11.809  10.548  1.00  0.00    -0.354 N 
ATOM     57  N   UNL     1      -5.676 -10.981   9.243  1.00  0.00    -0.248 NA
ATOM     58  C   UNL     1      -7.728 -11.512   8.263  1.00  0.00     0.031 C 
ATOM     59  C   UNL     1      -2.923 -13.955  11.057  1.00  0.00     0.029 A 
ATOM     60  C   UNL     1      -3.793 -13.050  10.472  1.00  0.00     0.049 A 
ATOM     61  H   UNL     1      -3.566 -10.969  10.206  1.00  0.00     0.167 HD
ATOM     62  C   UNL     1      -5.889 -12.350   9.347  1.00  0.00     0.074 A 
ATOM     63  C   UNL     1      -7.185 -12.616   8.757  1.00  0.00     0.031 C 
ATOM     64  C   UNL     1      -5.085 -13.300   9.883  1.00  0.00     0.037 A 
BRANCH  51  65
ATOM     65  C   UNL     1       0.299 -11.135  12.015  1.00  0.00     0.057 A 
ATOM     66  C   UNL     1       0.625 -10.700  13.307  1.00  0.00     0.134 A 
ATOM     67  C   UNL     1       1.257 -11.893  11.330  1.00  0.00     0.134 A 
ATOM     68  F   UNL     1      -0.242  -9.962  14.016  1.00  0.00    -0.206 F 
ATOM     69  C   UNL     1       1.867 -10.980  13.881  1.00  0.00     0.040 A 
ATOM     70  C   UNL     1       2.490 -12.206  11.905  1.00  0.00     0.040 A 
ATOM     71  F   UNL     1       1.008 -12.351  10.094  1.00  0.00    -0.206 F 
ATOM     72  C   UNL     1       2.801 -11.742  13.182  1.00  0.00     0.006 A 
ENDBRANCH  51  65
BRANCH  52  73
ATOM     73  C   UNL     1      -8.335  -8.726   7.613  1.00  0.00     0.057 A 
ATOM     74  C   UNL     1      -9.560  -8.859   8.277  1.00  0.00     0.134 A 
ATOM     75  C   UNL     1      -8.365  -8.265   6.292  1.00  0.00     0.134 A 
ATOM     76  F   UNL     1      -9.598  -9.313   9.538  1.00  0.00    -0.206 F 
ATOM     77  C   UNL     1     -10.770  -8.568   7.646  1.00  0.00     0.040 A 
ATOM     78  C   UNL     1      -9.566  -7.943   5.657  1.00  0.00     0.040 A 
ATOM     79  F   UNL     1      -7.226  -8.108   5.602  1.00  0.00    -0.206 F 
ATOM     80  C   UNL     1     -10.774  -8.103   6.332  1.00  0.00     0.006 A 
ENDBRANCH  52  73
BRANCH  64  81
ATOM     81  C   UNL     1      -5.597 -14.712   9.886  1.00  0.00     0.057 A 
ATOM     82  C   UNL     1      -5.703 -15.466   8.710  1.00  0.00     0.134 A 
ATOM     83  C   UNL     1      -5.953 -15.338  11.089  1.00  0.00     0.134 A 
ATOM     84  F   UNL     1      -5.392 -14.922   7.524  1.00  0.00    -0.206 F 
ATOM     85  C   UNL     1      -6.168 -16.782   8.727  1.00  0.00     0.040 A 
ATOM     86  C   UNL     1      -6.390 -16.662  11.121  1.00  0.00     0.040 A 
ATOM     87  F   UNL     1      -5.867 -14.677  12.253  1.00  0.00    -0.206 F 
ATOM     88  C   UNL     1      -6.505 -17.386   9.937  1.00  0.00     0.006 A 
ENDBRANCH  64  81
ENDBRANCH  38  39
ENDBRANCH  30  33
ENDBRANCH  28  29
ENDBRANCH  27  28
ENDBRANCH  26  27
ENDBRANCH   1  26
TORSDOF 15
