REMARK SMILES NC(=O)C[NH+]1CCC([NH2+]Cc2cc(C(=O)NCCCCCCNC(=O)c3ccc(-c4c5nc(c(-c6c(F)cccc6F)c6ccc([nH]6)c(-c6c(F)cccc6F)c6nc(c(-c7c(F)cccc7F)c7ccc4[nH]7)C=C6)C=C5)cc3)cs2)CC1
REMARK SMILES IDX 18 1 17 2 16 3 14 4 15 5 13 7 11 8 12 9 81 10 80 11 10 12
REMARK SMILES IDX 9 13 8 16 5 17 6 18 83 19 7 21 82 22 4 23 2 24 1 25 3 28
REMARK SMILES IDX 19 29 20 30 21 31 22 32 23 33 24 34 25 36 26 37 27 38 79 39
REMARK SMILES IDX 28 40 78 41 29 42 30 43 31 44 72 45 32 46 77 47 71 48 73 49
REMARK SMILES IDX 33 50 76 51 70 52 69 53 34 55 60 56 43 57 59 58 44 59 47 60
REMARK SMILES IDX 58 61 74 62 45 63 46 64 57 66 75 67 48 68 35 69 36 70 41 71
REMARK SMILES IDX 37 72 38 73 40 74 42 75 39 76 61 77 62 78 67 79 63 80 64 81
REMARK SMILES IDX 66 82 68 83 65 84 49 85 50 86 55 87 51 88 52 89 54 90 56 91
REMARK SMILES IDX 53 92
REMARK H PARENT 16 6 9 14 9 15 5 20 1 26 1 27 23 35 73 54 47 65
REMARK Flexibility Score: inf
ROOT
ATOM      1  C   UNL     1       1.083   4.997  -7.580  1.00  0.00     0.021 C 
ENDROOT
BRANCH   1   2
ATOM      2  C   UNL     1       2.459   4.828  -6.943  1.00  0.00     0.116 C 
BRANCH   2   3
ATOM      3  N   UNL     1       2.391   5.155  -5.532  1.00  0.00    -0.352 N 
ATOM      4  C   UNL     1       2.706   4.401  -4.432  1.00  0.00     0.252 C 
ATOM      5  O   UNL     1       2.638   4.918  -3.322  1.00  0.00    -0.269 OA
ATOM      6  H   UNL     1       2.068   6.063  -5.333  1.00  0.00     0.163 HD
BRANCH   4   7
ATOM      7  C   UNL     1       3.198   3.044  -4.632  1.00  0.00     0.051 A 
ATOM      8  C   UNL     1       3.476   0.890  -5.535  1.00  0.00     0.059 A 
ATOM      9  C   UNL     1       2.695   2.029  -5.510  1.00  0.00     0.035 A 
ATOM     10  S   UNL     1       4.827   1.054  -4.490  1.00  0.00    -0.142 S 
ATOM     11  C   UNL     1       4.261   2.552  -3.897  1.00  0.00     0.079 A 
BRANCH   8  12
ATOM     12  C   UNL     1       3.231  -0.370  -6.320  1.00  0.00     0.308 C 
BRANCH  12  13
ATOM     13  N   UNL     1       3.312  -1.595  -5.524  1.00  0.00    -0.339 N 
ATOM     14  H   UNL     1       3.409  -2.378  -6.171  1.00  0.00     0.346 HD
ATOM     15  H   UNL     1       4.107  -1.457  -4.900  1.00  0.00     0.346 HD
BRANCH  13  16
ATOM     16  C   UNL     1       2.169  -1.887  -4.637  1.00  0.00     0.194 C 
ATOM     17  N   UNL     1       1.404  -2.298  -1.819  1.00  0.00    -0.327 N 
ATOM     18  C   UNL     1       1.544  -3.466  -2.713  1.00  0.00     0.268 C 
ATOM     19  C   UNL     1       0.825  -1.195  -2.589  1.00  0.00     0.268 C 
ATOM     20  H   UNL     1       2.309  -1.988  -1.465  1.00  0.00     0.348 HD
ATOM     21  C   UNL     1       2.501  -3.183  -3.875  1.00  0.00     0.126 C 
ATOM     22  C   UNL     1       1.827  -0.771  -3.649  1.00  0.00     0.126 C 
BRANCH  17  23
ATOM     23  C   UNL     1       0.597  -2.673  -0.632  1.00  0.00     0.363 C 
BRANCH  23  24
ATOM     24  C   UNL     1       0.003  -1.471   0.108  1.00  0.00     0.272 C 
ATOM     25  N   UNL     1       0.896  -0.559   0.592  1.00  0.00    -0.365 N 
ATOM     26  H   UNL     1       0.574   0.235   1.077  1.00  0.00     0.159 HD
ATOM     27  H   UNL     1       1.861  -0.695   0.456  1.00  0.00     0.159 HD
ATOM     28  O   UNL     1      -1.205  -1.310   0.261  1.00  0.00    -0.269 OA
ENDBRANCH  23  24
ENDBRANCH  17  23
ENDBRANCH  13  16
ENDBRANCH  12  13
ENDBRANCH   8  12
ENDBRANCH   4   7
ENDBRANCH   2   3
ENDBRANCH   1   2
BRANCH   1  29
ATOM     29  C   UNL     1       0.764   6.460  -7.901  1.00  0.00     0.002 C 
BRANCH  29  30
ATOM     30  C   UNL     1       1.729   7.109  -8.901  1.00  0.00     0.002 C 
BRANCH  30  31
ATOM     31  C   UNL     1       1.876   6.352 -10.223  1.00  0.00     0.021 C 
BRANCH  31  32
ATOM     32  C   UNL     1       0.568   6.201 -10.990  1.00  0.00     0.116 C 
BRANCH  32  33
ATOM     33  N   UNL     1       0.026   7.496 -11.371  1.00  0.00    -0.352 N 
ATOM     34  C   UNL     1      -0.289   7.965 -12.620  1.00  0.00     0.251 C 
ATOM     35  H   UNL     1      -0.137   8.122 -10.629  1.00  0.00     0.163 HD
ATOM     36  O   UNL     1      -0.491   9.161 -12.804  1.00  0.00    -0.269 OA
BRANCH  34  37
ATOM     37  C   UNL     1      -0.376   7.015 -13.745  1.00  0.00     0.039 A 
ATOM     38  C   UNL     1       0.211   7.351 -14.966  1.00  0.00     0.014 A 
ATOM     39  C   UNL     1      -1.038   5.794 -13.587  1.00  0.00     0.014 A 
ATOM     40  C   UNL     1       0.178   6.436 -16.018  1.00  0.00     0.010 A 
ATOM     41  C   UNL     1      -1.000   4.853 -14.608  1.00  0.00     0.010 A 
ATOM     42  C   UNL     1      -0.400   5.168 -15.837  1.00  0.00    -0.014 A 
BRANCH  42  43
ATOM     43  C   UNL     1      -0.395   4.156 -16.921  1.00  0.00     0.031 A 
ATOM     44  C   UNL     1      -1.694   3.671 -17.502  1.00  0.00     0.074 A 
ATOM     45  C   UNL     1       0.773   3.627 -17.332  1.00  0.00     0.049 A 
ATOM     46  N   UNL     1      -1.903   2.736 -18.392  1.00  0.00    -0.248 NA
ATOM     47  C   UNL     1      -2.923   4.301 -16.992  1.00  0.00     0.031 C 
ATOM     48  C   UNL     1       2.095   3.988 -16.816  1.00  0.00     0.029 A 
ATOM     49  N   UNL     1       1.036   2.663 -18.272  1.00  0.00    -0.354 N 
ATOM     50  C   UNL     1      -3.282   2.657 -18.540  1.00  0.00     0.074 A 
ATOM     51  C   UNL     1      -3.862   3.597 -17.605  1.00  0.00     0.031 C 
ATOM     52  C   UNL     1       3.029   3.271 -17.460  1.00  0.00     0.029 A 
ATOM     53  C   UNL     1       2.372   2.369 -18.401  1.00  0.00     0.049 A 
ATOM     54  H   UNL     1       0.334   2.223 -18.804  1.00  0.00     0.167 HD
ATOM     55  C   UNL     1      -3.998   1.889 -19.394  1.00  0.00     0.037 A 
ATOM     56  C   UNL     1       2.995   1.465 -19.180  1.00  0.00     0.037 A 
ATOM     57  C   UNL     1      -3.413   0.968 -20.332  1.00  0.00     0.049 A 
ATOM     58  C   UNL     1       2.174   0.606 -20.103  1.00  0.00     0.074 A 
ATOM     59  C   UNL     1      -4.048   0.180 -21.276  1.00  0.00     0.029 A 
ATOM     60  N   UNL     1      -2.055   0.707 -20.441  1.00  0.00    -0.354 N 
ATOM     61  N   UNL     1       0.875   0.587 -20.279  1.00  0.00    -0.248 NA
ATOM     62  C   UNL     1       2.907  -0.354 -20.940  1.00  0.00     0.031 C 
ATOM     63  C   UNL     1      -3.080  -0.599 -21.918  1.00  0.00     0.029 A 
ATOM     64  C   UNL     1      -1.835  -0.249 -21.419  1.00  0.00     0.049 A 
ATOM     65  H   UNL     1      -1.352   1.137 -19.903  1.00  0.00     0.167 HD
ATOM     66  C   UNL     1       0.638  -0.358 -21.270  1.00  0.00     0.074 A 
ATOM     67  C   UNL     1       1.930  -0.882 -21.662  1.00  0.00     0.031 C 
ATOM     68  C   UNL     1      -0.541  -0.752 -21.808  1.00  0.00     0.037 A 
BRANCH  55  69
ATOM     69  C   UNL     1      -5.495   2.010 -19.349  1.00  0.00     0.057 A 
ATOM     70  C   UNL     1      -6.158   3.168 -19.774  1.00  0.00     0.134 A 
ATOM     71  C   UNL     1      -6.285   0.941 -18.906  1.00  0.00     0.134 A 
ATOM     72  F   UNL     1      -5.462   4.234 -20.200  1.00  0.00    -0.206 F 
ATOM     73  C   UNL     1      -7.550   3.271 -19.735  1.00  0.00     0.040 A 
ATOM     74  C   UNL     1      -7.679   1.020 -18.891  1.00  0.00     0.040 A 
ATOM     75  F   UNL     1      -5.718  -0.201 -18.490  1.00  0.00    -0.206 F 
ATOM     76  C   UNL     1      -8.315   2.191 -19.299  1.00  0.00     0.006 A 
ENDBRANCH  55  69
BRANCH  56  77
ATOM     77  C   UNL     1       4.474   1.337 -19.136  1.00  0.00     0.057 A 
ATOM     78  C   UNL     1       5.265   1.715 -20.227  1.00  0.00     0.134 A 
ATOM     79  C   UNL     1       5.131   0.825 -18.011  1.00  0.00     0.134 A 
ATOM     80  F   UNL     1       4.694   2.197 -21.340  1.00  0.00    -0.206 F 
ATOM     81  C   UNL     1       6.653   1.566 -20.211  1.00  0.00     0.040 A 
ATOM     82  C   UNL     1       6.520   0.697 -17.970  1.00  0.00     0.040 A 
ATOM     83  F   UNL     1       4.432   0.454 -16.928  1.00  0.00    -0.206 F 
ATOM     84  C   UNL     1       7.285   1.060 -19.077  1.00  0.00     0.006 A 
ENDBRANCH  56  77
BRANCH  68  85
ATOM     85  C   UNL     1      -0.491  -1.764 -22.916  1.00  0.00     0.057 A 
ATOM     86  C   UNL     1      -0.157  -3.104 -22.687  1.00  0.00     0.134 A 
ATOM     87  C   UNL     1      -0.829  -1.397 -24.226  1.00  0.00     0.134 A 
ATOM     88  F   UNL     1       0.189  -3.519 -21.459  1.00  0.00    -0.206 F 
ATOM     89  C   UNL     1      -0.138  -4.038 -23.725  1.00  0.00     0.040 A 
ATOM     90  C   UNL     1      -0.843  -2.327 -25.265  1.00  0.00     0.040 A 
ATOM     91  F   UNL     1      -1.168  -0.131 -24.513  1.00  0.00    -0.206 F 
ATOM     92  C   UNL     1      -0.490  -3.652 -25.017  1.00  0.00     0.006 A 
ENDBRANCH  68  85
ENDBRANCH  42  43
ENDBRANCH  34  37
ENDBRANCH  32  33
ENDBRANCH  31  32
ENDBRANCH  30  31
ENDBRANCH  29  30
ENDBRANCH   1  29
TORSDOF 18
