REMARK SMILES Cc1ccc(Cl)c(Nc2ccccc2C(=O)NCC(=O)NCCCCCCNC(=O)c2ccc(-c3c4nc(c(-c5c(F)cccc5F)c5ccc([nH]5)c(-c5c(F)cccc5F)c5nc(c(-c6c(F)cccc6F)c6ccc3[nH]6)C=C5)C=C4)cc2)c1Cl
REMARK SMILES IDX 23 1 22 2 21 3 19 4 20 5 18 7 17 8 15 9 16 10 14 12 9 13
REMARK SMILES IDX 10 14 11 15 13 16 12 17 8 18 7 20 1 21 2 22 3 23 85 24 4 25
REMARK SMILES IDX 86 26 5 27 6 28 24 29 25 30 26 31 27 32 28 33 29 34 30 36
REMARK SMILES IDX 31 37 32 38 84 39 33 40 83 41 34 42 35 43 36 44 77 45 37 46
REMARK SMILES IDX 82 47 76 48 78 49 38 50 81 51 75 52 74 53 39 55 65 56 48 57
REMARK SMILES IDX 64 58 49 59 52 60 63 61 79 62 50 63 51 64 62 66 80 67 53 68
REMARK SMILES IDX 40 69 41 70 46 71 42 72 43 73 45 74 47 75 44 76 66 77 67 78
REMARK SMILES IDX 72 79 68 80 69 81 71 82 73 83 70 84 54 85 55 86 60 87 56 88
REMARK SMILES IDX 57 89 59 90 61 91 58 92
REMARK H PARENT 21 6 17 11 8 19 28 35 78 54 52 65
REMARK Flexibility Score: inf
ROOT
ATOM      1  C   UNL     1      -1.498  -3.676   3.977  1.00  0.00     0.021 C 
ENDROOT
BRANCH   1   2
ATOM      2  C   UNL     1      -1.709  -3.490   2.480  1.00  0.00     0.116 C 
BRANCH   2   3
ATOM      3  N   UNL     1      -2.576  -2.361   2.264  1.00  0.00    -0.355 N 
ATOM      4  C   UNL     1      -2.208  -1.051   2.257  1.00  0.00     0.239 C 
ATOM      5  O   UNL     1      -3.095  -0.196   2.305  1.00  0.00    -0.273 OA
ATOM      6  H   UNL     1      -3.528  -2.556   2.107  1.00  0.00     0.163 HD
BRANCH   4   7
ATOM      7  C   UNL     1      -0.774  -0.680   1.890  1.00  0.00     0.216 C 
BRANCH   7   8
ATOM      8  N   UNL     1       0.431  -1.242   2.459  1.00  0.00    -0.343 N 
ATOM      9  C   UNL     1       1.517  -1.855   1.871  1.00  0.00     0.253 C 
ATOM     10  O   UNL     1       2.584  -1.692   2.477  1.00  0.00    -0.269 OA
ATOM     11  H   UNL     1       0.486  -1.175   3.440  1.00  0.00     0.164 HD
BRANCH   9  12
ATOM     12  C   UNL     1       1.492  -2.867   0.747  1.00  0.00     0.063 A 
ATOM     13  C   UNL     1       0.785  -2.909  -0.478  1.00  0.00     0.051 A 
ATOM     14  C   UNL     1       0.901  -4.081  -1.277  1.00  0.00     0.027 A 
ATOM     15  C   UNL     1       1.735  -5.146  -0.944  1.00  0.00     0.002 A 
ATOM     16  C   UNL     1       2.345  -3.967   1.049  1.00  0.00     0.016 A 
ATOM     17  C   UNL     1       2.480  -5.079   0.216  1.00  0.00     0.001 A 
BRANCH  13  18
ATOM     18  N   UNL     1       0.068  -1.879  -1.124  1.00  0.00    -0.352 N 
ATOM     19  H   UNL     1      -0.704  -2.209  -1.638  1.00  0.00     0.167 HD
BRANCH  18  20
ATOM     20  C   UNL     1       0.221  -0.470  -1.193  1.00  0.00     0.077 A 
ATOM     21  C   UNL     1       2.690   2.261  -0.154  1.00  0.00     0.046 C 
ATOM     22  C   UNL     1       1.430   1.569  -0.595  1.00  0.00    -0.030 A 
ATOM     23  C   UNL     1       0.224   2.286  -0.615  1.00  0.00     0.006 A 
ATOM     24  C   UNL     1       1.430   0.202  -0.932  1.00  0.00     0.069 A 
ATOM     25  C   UNL     1      -0.960   1.670  -1.007  1.00  0.00     0.023 A 
ATOM     26  Cl  UNL     1       2.953  -0.617  -1.116  1.00  0.00    -0.082 Cl
ATOM     27  C   UNL     1      -0.958   0.310  -1.306  1.00  0.00     0.066 A 
ATOM     28  Cl  UNL     1      -2.482  -0.440  -1.671  1.00  0.00    -0.082 Cl
ENDBRANCH  18  20
ENDBRANCH  13  18
ENDBRANCH   9  12
ENDBRANCH   7   8
ENDBRANCH   4   7
ENDBRANCH   2   3
ENDBRANCH   1   2
BRANCH   1  29
ATOM     29  C   UNL     1      -2.799  -4.072   4.687  1.00  0.00     0.002 C 
BRANCH  29  30
ATOM     30  C   UNL     1      -3.414  -5.373   4.161  1.00  0.00     0.002 C 
BRANCH  30  31
ATOM     31  C   UNL     1      -2.459  -6.567   4.199  1.00  0.00     0.021 C 
BRANCH  31  32
ATOM     32  C   UNL     1      -1.883  -6.838   5.583  1.00  0.00     0.116 C 
BRANCH  32  33
ATOM     33  N   UNL     1      -2.934  -7.116   6.548  1.00  0.00    -0.352 N 
ATOM     34  C   UNL     1      -3.054  -8.182   7.400  1.00  0.00     0.251 C 
ATOM     35  H   UNL     1      -3.656  -6.449   6.597  1.00  0.00     0.163 HD
ATOM     36  O   UNL     1      -4.106  -8.405   7.983  1.00  0.00    -0.269 OA
BRANCH  34  37
ATOM     37  C   UNL     1      -1.891  -9.068   7.593  1.00  0.00     0.039 A 
ATOM     38  C   UNL     1      -2.076 -10.449   7.537  1.00  0.00     0.014 A 
ATOM     39  C   UNL     1      -0.621  -8.524   7.811  1.00  0.00     0.014 A 
ATOM     40  C   UNL     1      -0.971 -11.291   7.658  1.00  0.00     0.010 A 
ATOM     41  C   UNL     1       0.486  -9.360   7.853  1.00  0.00     0.010 A 
ATOM     42  C   UNL     1       0.319 -10.751   7.790  1.00  0.00    -0.014 A 
BRANCH  42  43
ATOM     43  C   UNL     1       1.509 -11.629   7.873  1.00  0.00     0.031 A 
ATOM     44  C   UNL     1       2.342 -11.650   9.122  1.00  0.00     0.074 A 
ATOM     45  C   UNL     1       1.873 -12.356   6.800  1.00  0.00     0.049 A 
ATOM     46  N   UNL     1       3.445 -12.309   9.370  1.00  0.00    -0.248 NA
ATOM     47  C   UNL     1       1.893 -10.792  10.230  1.00  0.00     0.031 C 
ATOM     48  C   UNL     1       1.173 -12.373   5.514  1.00  0.00     0.029 A 
ATOM     49  N   UNL     1       2.928 -13.212   6.619  1.00  0.00    -0.354 N 
ATOM     50  C   UNL     1       3.826 -11.937  10.652  1.00  0.00     0.074 A 
ATOM     51  C   UNL     1       2.873 -10.948  11.106  1.00  0.00     0.031 C 
ATOM     52  C   UNL     1       1.806 -13.217   4.684  1.00  0.00     0.029 A 
ATOM     53  C   UNL     1       2.972 -13.769   5.365  1.00  0.00     0.049 A 
ATOM     54  H   UNL     1       3.590 -13.409   7.320  1.00  0.00     0.167 HD
ATOM     55  C   UNL     1       4.862 -12.397  11.393  1.00  0.00     0.037 A 
ATOM     56  C   UNL     1       3.859 -14.626   4.824  1.00  0.00     0.037 A 
ATOM     57  C   UNL     1       5.797 -13.391  10.938  1.00  0.00     0.049 A 
ATOM     58  C   UNL     1       5.003 -15.121   5.662  1.00  0.00     0.074 A 
ATOM     59  C   UNL     1       6.845 -13.971  11.630  1.00  0.00     0.029 A 
ATOM     60  N   UNL     1       5.801 -13.947   9.666  1.00  0.00    -0.354 N 
ATOM     61  N   UNL     1       5.310 -14.821   6.901  1.00  0.00    -0.248 NA
ATOM     62  C   UNL     1       5.918 -16.081   5.031  1.00  0.00     0.031 C 
ATOM     63  C   UNL     1       7.514 -14.841  10.762  1.00  0.00     0.029 A 
ATOM     64  C   UNL     1       6.850 -14.844   9.545  1.00  0.00     0.049 A 
ATOM     65  H   UNL     1       5.154 -13.735   8.955  1.00  0.00     0.167 HD
ATOM     66  C   UNL     1       6.439 -15.569   7.206  1.00  0.00     0.074 A 
ATOM     67  C   UNL     1       6.752 -16.349   6.026  1.00  0.00     0.031 C 
ATOM     68  C   UNL     1       7.150 -15.609   8.360  1.00  0.00     0.037 A 
BRANCH  55  69
ATOM     69  C   UNL     1       5.032 -11.818  12.768  1.00  0.00     0.057 A 
ATOM     70  C   UNL     1       4.113 -12.070  13.798  1.00  0.00     0.134 A 
ATOM     71  C   UNL     1       6.128 -11.000  13.070  1.00  0.00     0.134 A 
ATOM     72  F   UNL     1       3.033 -12.834  13.573  1.00  0.00    -0.206 F 
ATOM     73  C   UNL     1       4.258 -11.498  15.063  1.00  0.00     0.040 A 
ATOM     74  C   UNL     1       6.300 -10.449  14.342  1.00  0.00     0.040 A 
ATOM     75  F   UNL     1       7.049 -10.722  12.136  1.00  0.00    -0.206 F 
ATOM     76  C   UNL     1       5.357 -10.689  15.339  1.00  0.00     0.006 A 
ENDBRANCH  55  69
BRANCH  56  77
ATOM     77  C   UNL     1       3.675 -15.085   3.425  1.00  0.00     0.057 A 
ATOM     78  C   UNL     1       3.273 -16.395   3.143  1.00  0.00     0.134 A 
ATOM     79  C   UNL     1       3.869 -14.221   2.341  1.00  0.00     0.134 A 
ATOM     80  F   UNL     1       3.085 -17.273   4.139  1.00  0.00    -0.206 F 
ATOM     81  C   UNL     1       3.081 -16.834   1.832  1.00  0.00     0.040 A 
ATOM     82  C   UNL     1       3.658 -14.639   1.026  1.00  0.00     0.040 A 
ATOM     83  F   UNL     1       4.243 -12.949   2.547  1.00  0.00    -0.206 F 
ATOM     84  C   UNL     1       3.267 -15.952   0.769  1.00  0.00     0.006 A 
ENDBRANCH  56  77
BRANCH  68  85
ATOM     85  C   UNL     1       8.323 -16.545   8.410  1.00  0.00     0.057 A 
ATOM     86  C   UNL     1       9.506 -16.288   7.706  1.00  0.00     0.134 A 
ATOM     87  C   UNL     1       8.281 -17.697   9.207  1.00  0.00     0.134 A 
ATOM     88  F   UNL     1       9.606 -15.209   6.915  1.00  0.00    -0.206 F 
ATOM     89  C   UNL     1      10.598 -17.155   7.774  1.00  0.00     0.040 A 
ATOM     90  C   UNL     1       9.376 -18.556   9.305  1.00  0.00     0.040 A 
ATOM     91  F   UNL     1       7.181 -17.997   9.914  1.00  0.00    -0.206 F 
ATOM     92  C   UNL     1      10.536 -18.289   8.582  1.00  0.00     0.006 A 
ENDBRANCH  68  85
ENDBRANCH  42  43
ENDBRANCH  34  37
ENDBRANCH  32  33
ENDBRANCH  31  32
ENDBRANCH  30  31
ENDBRANCH  29  30
ENDBRANCH   1  29
TORSDOF 17
