REMARK SMILES O=C(C[C@H]1COCC[NH2+]1)Nc1cncc(C(=O)NCCCCCCNC(=O)c2ccc(-c3c4nc(c(-c5c(F)cccc5F)c5ccc([nH]5)c(-c5c(F)cccc5F)c5nc(c(-c6c(F)cccc6F)c6ccc3[nH]6)C=C5)C=C4)cc2)c1
REMARK SMILES IDX 21 1 20 2 19 3 18 4 16 5 17 6 15 8 11 9 12 10 82 11 13 12
REMARK SMILES IDX 14 13 10 14 1 15 2 16 3 18 4 19 5 20 9 21 6 22 8 23 7 26
REMARK SMILES IDX 22 27 23 28 24 29 25 30 26 31 27 33 28 34 29 35 81 36 30 37
REMARK SMILES IDX 80 38 31 39 32 40 33 41 74 42 34 43 79 44 73 45 75 46 35 47
REMARK SMILES IDX 78 48 72 49 71 50 36 52 62 53 45 54 61 55 46 56 49 57 60 58
REMARK SMILES IDX 76 59 47 60 48 61 59 63 77 64 50 65 37 66 38 67 43 68 39 69
REMARK SMILES IDX 40 70 42 71 44 72 41 73 63 74 64 75 69 76 65 77 66 78 68 79
REMARK SMILES IDX 70 80 67 81 51 82 52 83 57 84 53 85 54 86 56 87 58 88 55 89
REMARK H PARENT 18 7 10 17 9 24 9 25 25 32 75 51 49 62
REMARK Flexibility Score: inf
ROOT
ATOM      1  C   UNL     1      11.904  -0.957   4.837  1.00  0.00     0.002 C 
ENDROOT
BRANCH   1   2
ATOM      2  C   UNL     1      10.841  -1.045   3.732  1.00  0.00     0.021 C 
BRANCH   2   3
ATOM      3  C   UNL     1      10.731   0.243   2.910  1.00  0.00     0.116 C 
BRANCH   3   4
ATOM      4  N   UNL     1      11.717   0.250   1.844  1.00  0.00    -0.352 N 
ATOM      5  C   UNL     1      11.667  -0.086   0.515  1.00  0.00     0.252 C 
ATOM      6  O   UNL     1      12.707   0.040  -0.134  1.00  0.00    -0.269 OA
ATOM      7  H   UNL     1      12.605   0.560   2.135  1.00  0.00     0.163 HD
BRANCH   5   8
ATOM      8  C   UNL     1      10.447  -0.558  -0.186  1.00  0.00     0.060 A 
ATOM      9  C   UNL     1       8.177  -1.371  -0.345  1.00  0.00     0.060 A 
ATOM     10  C   UNL     1       8.305  -1.357  -1.728  1.00  0.00     0.137 A 
ATOM     11  C   UNL     1       9.291  -1.037   0.420  1.00  0.00     0.043 A 
ATOM     12  N   UNL     1       9.422  -0.948  -2.367  1.00  0.00    -0.262 NA
ATOM     13  C   UNL     1      10.455  -0.538  -1.581  1.00  0.00     0.125 A 
BRANCH   9  14
ATOM     14  N   UNL     1       6.946  -1.700   0.252  1.00  0.00    -0.325 N 
ATOM     15  O   UNL     1       7.029  -0.184   2.000  1.00  0.00    -0.274 OA
ATOM     16  C   UNL     1       6.457  -1.091   1.394  1.00  0.00     0.230 C 
ATOM     17  H   UNL     1       6.401  -2.405  -0.167  1.00  0.00     0.169 HD
BRANCH  16  18
ATOM     18  C   UNL     1       5.163  -1.667   1.936  1.00  0.00     0.167 C 
BRANCH  18  19
ATOM     19  C   UNL     1       3.891  -1.655   1.060  1.00  0.00     0.218 C 
ATOM     20  C   UNL     1       4.068  -1.528  -0.464  1.00  0.00     0.225 C 
ATOM     21  N   UNL     1       3.083  -2.870   1.365  1.00  0.00    -0.340 N 
ATOM     22  O   UNL     1       4.775  -2.667  -0.982  1.00  0.00    -0.369 OA
ATOM     23  C   UNL     1       3.695  -4.061   0.737  1.00  0.00     0.289 C 
ATOM     24  H   UNL     1       2.138  -2.745   1.002  1.00  0.00     0.346 HD
ATOM     25  H   UNL     1       3.053  -3.004   2.376  1.00  0.00     0.346 HD
ATOM     26  C   UNL     1       4.015  -3.867  -0.753  1.00  0.00     0.221 C 
ENDBRANCH  18  19
ENDBRANCH  16  18
ENDBRANCH   9  14
ENDBRANCH   5   8
ENDBRANCH   3   4
ENDBRANCH   2   3
ENDBRANCH   1   2
BRANCH   1  27
ATOM     27  C   UNL     1      11.591   0.059   5.944  1.00  0.00     0.002 C 
BRANCH  27  28
ATOM     28  C   UNL     1      10.269  -0.173   6.682  1.00  0.00     0.021 C 
BRANCH  28  29
ATOM     29  C   UNL     1      10.192  -1.497   7.436  1.00  0.00     0.116 C 
BRANCH  29  30
ATOM     30  N   UNL     1      11.176  -1.562   8.505  1.00  0.00    -0.352 N 
ATOM     31  C   UNL     1      10.996  -1.773   9.848  1.00  0.00     0.251 C 
ATOM     32  H   UNL     1      12.111  -1.436   8.223  1.00  0.00     0.163 HD
ATOM     33  O   UNL     1      11.913  -1.558  10.633  1.00  0.00    -0.269 OA
BRANCH  31  34
ATOM     34  C   UNL     1       9.694  -2.258  10.354  1.00  0.00     0.039 A 
ATOM     35  C   UNL     1       9.175  -1.698  11.524  1.00  0.00     0.014 A 
ATOM     36  C   UNL     1       9.011  -3.291   9.705  1.00  0.00     0.014 A 
ATOM     37  C   UNL     1       7.949  -2.143  12.020  1.00  0.00     0.010 A 
ATOM     38  C   UNL     1       7.758  -3.690  10.164  1.00  0.00     0.010 A 
ATOM     39  C   UNL     1       7.221  -3.128  11.331  1.00  0.00    -0.014 A 
BRANCH  39  40
ATOM     40  C   UNL     1       5.900  -3.587  11.828  1.00  0.00     0.031 A 
ATOM     41  C   UNL     1       5.722  -4.999  12.312  1.00  0.00     0.074 A 
ATOM     42  C   UNL     1       4.849  -2.745  11.794  1.00  0.00     0.049 A 
ATOM     43  N   UNL     1       4.638  -5.596  12.739  1.00  0.00    -0.248 NA
ATOM     44  C   UNL     1       6.914  -5.862  12.289  1.00  0.00     0.031 C 
ATOM     45  C   UNL     1       4.885  -1.367  11.302  1.00  0.00     0.029 A 
ATOM     46  N   UNL     1       3.545  -2.930  12.175  1.00  0.00    -0.354 N 
ATOM     47  C   UNL     1       5.014  -6.903  13.023  1.00  0.00     0.074 A 
ATOM     48  C   UNL     1       6.412  -7.027  12.671  1.00  0.00     0.031 C 
ATOM     49  C   UNL     1       3.665  -0.823  11.433  1.00  0.00     0.029 A 
ATOM     50  C   UNL     1       2.756  -1.821  11.988  1.00  0.00     0.049 A 
ATOM     51  H   UNL     1       3.206  -3.776  12.547  1.00  0.00     0.167 HD
ATOM     52  C   UNL     1       4.267  -7.902  13.550  1.00  0.00     0.037 A 
ATOM     53  C   UNL     1       1.447  -1.632  12.237  1.00  0.00     0.037 A 
ATOM     54  C   UNL     1       2.883  -7.769  13.922  1.00  0.00     0.049 A 
ATOM     55  C   UNL     1       0.642  -2.755  12.829  1.00  0.00     0.074 A 
ATOM     56  C   UNL     1       2.055  -8.705  14.517  1.00  0.00     0.029 A 
ATOM     57  N   UNL     1       2.124  -6.623  13.737  1.00  0.00    -0.354 N 
ATOM     58  N   UNL     1       1.025  -3.966  13.151  1.00  0.00    -0.248 NA
ATOM     59  C   UNL     1      -0.776  -2.480  13.101  1.00  0.00     0.031 C 
ATOM     60  C   UNL     1       0.784  -8.138  14.657  1.00  0.00     0.029 A 
ATOM     61  C   UNL     1       0.832  -6.835  14.189  1.00  0.00     0.049 A 
ATOM     62  H   UNL     1       2.454  -5.784  13.342  1.00  0.00     0.167 HD
ATOM     63  C   UNL     1      -0.094  -4.589  13.686  1.00  0.00     0.074 A 
ATOM     64  C   UNL     1      -1.167  -3.617  13.658  1.00  0.00     0.031 C 
ATOM     65  C   UNL     1      -0.223  -5.854  14.158  1.00  0.00     0.037 A 
BRANCH  52  66
ATOM     66  C   UNL     1       4.938  -9.228  13.760  1.00  0.00     0.057 A 
ATOM     67  C   UNL     1       5.904  -9.416  14.758  1.00  0.00     0.134 A 
ATOM     68  C   UNL     1       4.595 -10.338  12.978  1.00  0.00     0.134 A 
ATOM     69  F   UNL     1       6.288  -8.391  15.533  1.00  0.00    -0.206 F 
ATOM     70  C   UNL     1       6.524 -10.652  14.952  1.00  0.00     0.040 A 
ATOM     71  C   UNL     1       5.188 -11.585  13.180  1.00  0.00     0.040 A 
ATOM     72  F   UNL     1       3.673 -10.230  12.009  1.00  0.00    -0.206 F 
ATOM     73  C   UNL     1       6.160 -11.743  14.165  1.00  0.00     0.006 A 
ENDBRANCH  52  66
BRANCH  53  74
ATOM     74  C   UNL     1       0.822  -0.316  11.956  1.00  0.00     0.057 A 
ATOM     75  C   UNL     1       0.432   0.532  12.999  1.00  0.00     0.134 A 
ATOM     76  C   UNL     1       0.598   0.124  10.646  1.00  0.00     0.134 A 
ATOM     77  F   UNL     1       0.605   0.157  14.274  1.00  0.00    -0.206 F 
ATOM     78  C   UNL     1      -0.176   1.764  12.750  1.00  0.00     0.040 A 
ATOM     79  C   UNL     1       0.013   1.363  10.383  1.00  0.00     0.040 A 
ATOM     80  F   UNL     1       0.956  -0.640   9.604  1.00  0.00    -0.206 F 
ATOM     81  C   UNL     1      -0.382   2.184  11.438  1.00  0.00     0.006 A 
ENDBRANCH  53  74
BRANCH  65  82
ATOM     82  C   UNL     1      -1.562  -6.244  14.708  1.00  0.00     0.057 A 
ATOM     83  C   UNL     1      -2.664  -6.473  13.876  1.00  0.00     0.134 A 
ATOM     84  C   UNL     1      -1.742  -6.418  16.086  1.00  0.00     0.134 A 
ATOM     85  F   UNL     1      -2.560  -6.310  12.548  1.00  0.00    -0.206 F 
ATOM     86  C   UNL     1      -3.906  -6.840  14.397  1.00  0.00     0.040 A 
ATOM     87  C   UNL     1      -2.972  -6.809  16.616  1.00  0.00     0.040 A 
ATOM     88  F   UNL     1      -0.724  -6.221  16.937  1.00  0.00    -0.206 F 
ATOM     89  C   UNL     1      -4.061  -7.014  15.771  1.00  0.00     0.006 A 
ENDBRANCH  65  82
ENDBRANCH  39  40
ENDBRANCH  31  34
ENDBRANCH  29  30
ENDBRANCH  28  29
ENDBRANCH  27  28
ENDBRANCH   1  27
TORSDOF 16
