REMARK SMILES O=C(Cn1c(-c2nc(-c3ccc(C(F)(F)F)cc3)no2)cc2ccccc21)NCCCCCCNC(=O)c1ccc(-c2c3nc(c(-c4c(F)cccc4F)c4ccc([nH]4)c(-c4c(F)cccc4F)c4nc(c(-c5c(F)cccc5F)c5ccc2[nH]5)C=C4)C=C3)cc1
REMARK SMILES IDX 30 1 29 2 28 3 1 4 2 5 3 7 4 8 5 9 27 10 21 11 22 12 26 13
REMARK SMILES IDX 23 14 25 15 24 16 6 17 7 18 20 19 8 20 19 21 9 22 10 23
REMARK SMILES IDX 18 24 11 25 17 26 12 27 13 28 14 29 15 30 16 31 31 32 32 33
REMARK SMILES IDX 33 34 34 35 35 36 36 37 37 39 38 40 39 41 91 42 40 43 90 44
REMARK SMILES IDX 41 45 42 46 43 47 84 48 44 49 89 50 83 51 85 52 45 53 88 54
REMARK SMILES IDX 82 55 81 56 46 58 72 59 55 60 71 61 56 62 59 63 70 64 86 65
REMARK SMILES IDX 57 66 58 67 69 69 87 70 60 71 47 72 48 73 53 74 49 75 50 76
REMARK SMILES IDX 52 77 54 78 51 79 73 80 74 81 79 82 75 83 76 84 78 85 80 86
REMARK SMILES IDX 77 87 61 88 62 89 67 90 63 91 64 92 66 93 68 94 65 95
REMARK H PARENT 28 6 35 38 85 57 59 68
REMARK Flexibility Score: inf
ROOT
ATOM      1  C   UNL     1       2.774   1.186   3.573  1.00  0.00     0.021 C 
ENDROOT
BRANCH   1   2
ATOM      2  C   UNL     1       2.111   1.392   2.217  1.00  0.00     0.116 C 
BRANCH   2   3
ATOM      3  N   UNL     1       2.749   0.640   1.156  1.00  0.00    -0.355 N 
ATOM      4  O   UNL     1       0.793  -0.142   0.242  1.00  0.00    -0.273 OA
ATOM      5  C   UNL     1       2.004  -0.011   0.186  1.00  0.00     0.239 C 
ATOM      6  H   UNL     1       3.732   0.590   1.123  1.00  0.00     0.163 HD
BRANCH   5   7
ATOM      7  C   UNL     1       2.822  -0.634  -0.919  1.00  0.00     0.222 C 
BRANCH   7   8
ATOM      8  N   UNL     1       3.485   0.253  -1.880  1.00  0.00    -0.327 N 
ATOM      9  C   UNL     1       3.382   1.617  -2.069  1.00  0.00     0.109 A 
ATOM     10  C   UNL     1       4.461  -0.257  -2.748  1.00  0.00     0.049 A 
ATOM     11  C   UNL     1       4.253   1.961  -3.089  1.00  0.00     0.042 A 
ATOM     12  C   UNL     1       4.955   0.809  -3.499  1.00  0.00     0.000 A 
ATOM     13  C   UNL     1       4.967  -1.560  -2.920  1.00  0.00     0.027 A 
ATOM     14  C   UNL     1       5.991   0.590  -4.428  1.00  0.00     0.010 A 
ATOM     15  C   UNL     1       5.999  -1.756  -3.847  1.00  0.00     0.002 A 
ATOM     16  C   UNL     1       6.508  -0.697  -4.589  1.00  0.00     0.001 A 
BRANCH   9  17
ATOM     17  C   UNL     1       2.693   2.592  -1.279  1.00  0.00     0.274 A 
ATOM     18  N   UNL     1       1.395   2.735  -1.100  1.00  0.00    -0.185 NA
ATOM     19  O   UNL     1       3.414   3.578  -0.659  1.00  0.00    -0.332 OA
ATOM     20  C   UNL     1       1.318   3.881  -0.321  1.00  0.00     0.202 A 
ATOM     21  N   UNL     1       2.518   4.410  -0.031  1.00  0.00    -0.057 NA
BRANCH  20  22
ATOM     22  C   UNL     1       0.088   4.479   0.204  1.00  0.00     0.023 A 
ATOM     23  C   UNL     1       0.181   5.608   1.041  1.00  0.00     0.013 A 
ATOM     24  C   UNL     1      -1.185   3.973  -0.083  1.00  0.00     0.013 A 
ATOM     25  C   UNL     1      -0.954   6.214   1.579  1.00  0.00     0.014 A 
ATOM     26  C   UNL     1      -2.332   4.586   0.456  1.00  0.00     0.014 A 
ATOM     27  C   UNL     1      -2.227   5.711   1.293  1.00  0.00     0.056 A 
BRANCH  27  28
ATOM     28  C   UNL     1      -3.434   6.384   1.903  1.00  0.00     0.416 C 
ATOM     29  F   UNL     1      -3.441   6.296   3.263  1.00  0.00    -0.166 F 
ATOM     30  F   UNL     1      -3.486   7.716   1.619  1.00  0.00    -0.166 F 
ATOM     31  F   UNL     1      -4.623   5.867   1.489  1.00  0.00    -0.166 F 
ENDBRANCH  27  28
ENDBRANCH  20  22
ENDBRANCH   9  17
ENDBRANCH   7   8
ENDBRANCH   5   7
ENDBRANCH   2   3
ENDBRANCH   1   2
BRANCH   1  32
ATOM     32  C   UNL     1       4.242   1.617   3.648  1.00  0.00     0.002 C 
BRANCH  32  33
ATOM     33  C   UNL     1       4.529   3.093   3.347  1.00  0.00     0.002 C 
BRANCH  33  34
ATOM     34  C   UNL     1       3.797   4.120   4.223  1.00  0.00     0.021 C 
BRANCH  34  35
ATOM     35  C   UNL     1       3.894   3.874   5.729  1.00  0.00     0.116 C 
BRANCH  35  36
ATOM     36  N   UNL     1       5.253   3.740   6.211  1.00  0.00    -0.352 N 
ATOM     37  C   UNL     1       6.187   4.574   6.750  1.00  0.00     0.251 C 
ATOM     38  H   UNL     1       5.585   2.817   6.128  1.00  0.00     0.163 HD
ATOM     39  O   UNL     1       7.210   4.027   7.174  1.00  0.00    -0.269 OA
BRANCH  37  40
ATOM     40  C   UNL     1       6.101   6.057   6.807  1.00  0.00     0.039 A 
ATOM     41  C   UNL     1       5.021   6.835   6.391  1.00  0.00     0.014 A 
ATOM     42  C   UNL     1       7.263   6.711   7.266  1.00  0.00     0.014 A 
ATOM     43  C   UNL     1       5.136   8.223   6.341  1.00  0.00     0.010 A 
ATOM     44  C   UNL     1       7.380   8.093   7.226  1.00  0.00     0.010 A 
ATOM     45  C   UNL     1       6.333   8.845   6.710  1.00  0.00    -0.014 A 
BRANCH  45  46
ATOM     46  C   UNL     1       6.416  10.300   6.623  1.00  0.00     0.031 A 
ATOM     47  C   UNL     1       5.448  11.028   7.491  1.00  0.00     0.074 A 
ATOM     48  C   UNL     1       7.358  10.946   5.904  1.00  0.00     0.049 A 
ATOM     49  N   UNL     1       4.485  11.811   7.130  1.00  0.00    -0.248 NA
ATOM     50  C   UNL     1       5.482  10.753   8.936  1.00  0.00     0.031 C 
ATOM     51  C   UNL     1       8.525  10.377   5.224  1.00  0.00     0.029 A 
ATOM     52  N   UNL     1       7.515  12.286   5.700  1.00  0.00    -0.354 N 
ATOM     53  C   UNL     1       3.903  12.279   8.308  1.00  0.00     0.074 A 
ATOM     54  C   UNL     1       4.456  11.485   9.373  1.00  0.00     0.031 C 
ATOM     55  C   UNL     1       9.376  11.371   4.883  1.00  0.00     0.029 A 
ATOM     56  C   UNL     1       8.757  12.649   5.191  1.00  0.00     0.049 A 
ATOM     57  H   UNL     1       6.808  12.942   5.898  1.00  0.00     0.167 HD
ATOM     58  C   UNL     1       3.184  13.436   8.329  1.00  0.00     0.037 A 
ATOM     59  C   UNL     1       9.256  13.905   5.073  1.00  0.00     0.037 A 
ATOM     60  C   UNL     1       2.756  13.804   7.003  1.00  0.00     0.049 A 
ATOM     61  C   UNL     1       8.117  14.851   5.133  1.00  0.00     0.074 A 
ATOM     62  C   UNL     1       1.945  13.242   6.038  1.00  0.00     0.029 A 
ATOM     63  N   UNL     1       3.459  14.795   6.365  1.00  0.00    -0.354 N 
ATOM     64  N   UNL     1       7.223  14.969   4.193  1.00  0.00    -0.248 NA
ATOM     65  C   UNL     1       7.721  15.352   6.439  1.00  0.00     0.031 C 
ATOM     66  C   UNL     1       2.549  13.596   4.795  1.00  0.00     0.029 A 
ATOM     67  C   UNL     1       3.659  14.393   5.074  1.00  0.00     0.049 A 
ATOM     68  H   UNL     1       3.763  15.642   6.764  1.00  0.00     0.167 HD
ATOM     69  C   UNL     1       6.024  15.133   4.870  1.00  0.00     0.074 A 
ATOM     70  C   UNL     1       6.404  15.459   6.243  1.00  0.00     0.031 C 
ATOM     71  C   UNL     1       4.848  14.710   4.321  1.00  0.00     0.037 A 
BRANCH  58  72
ATOM     72  C   UNL     1       3.240  14.459   9.448  1.00  0.00     0.057 A 
ATOM     73  C   UNL     1       4.252  14.514  10.428  1.00  0.00     0.134 A 
ATOM     74  C   UNL     1       2.469  15.633   9.326  1.00  0.00     0.134 A 
ATOM     75  F   UNL     1       5.076  13.493  10.677  1.00  0.00    -0.206 F 
ATOM     76  C   UNL     1       4.541  15.675  11.151  1.00  0.00     0.040 A 
ATOM     77  C   UNL     1       2.780  16.813  10.012  1.00  0.00     0.040 A 
ATOM     78  F   UNL     1       1.451  15.702   8.455  1.00  0.00    -0.206 F 
ATOM     79  C   UNL     1       3.837  16.843  10.910  1.00  0.00     0.006 A 
ENDBRANCH  58  72
BRANCH  59  80
ATOM     80  C   UNL     1      10.659  14.364   5.195  1.00  0.00     0.057 A 
ATOM     81  C   UNL     1      11.571  13.696   6.031  1.00  0.00     0.134 A 
ATOM     82  C   UNL     1      11.067  15.619   4.720  1.00  0.00     0.134 A 
ATOM     83  F   UNL     1      11.252  12.529   6.608  1.00  0.00    -0.206 F 
ATOM     84  C   UNL     1      12.809  14.246   6.383  1.00  0.00     0.040 A 
ATOM     85  C   UNL     1      12.303  16.184   5.069  1.00  0.00     0.040 A 
ATOM     86  F   UNL     1      10.250  16.356   3.955  1.00  0.00    -0.206 F 
ATOM     87  C   UNL     1      13.174  15.500   5.912  1.00  0.00     0.006 A 
ENDBRANCH  59  80
BRANCH  71  88
ATOM     88  C   UNL     1       4.860  14.317   2.872  1.00  0.00     0.057 A 
ATOM     89  C   UNL     1       4.002  14.981   1.990  1.00  0.00     0.134 A 
ATOM     90  C   UNL     1       5.586  13.232   2.357  1.00  0.00     0.134 A 
ATOM     91  F   UNL     1       3.232  15.990   2.427  1.00  0.00    -0.206 F 
ATOM     92  C   UNL     1       3.880  14.598   0.653  1.00  0.00     0.040 A 
ATOM     93  C   UNL     1       5.500  12.860   1.012  1.00  0.00     0.040 A 
ATOM     94  F   UNL     1       6.355  12.474   3.148  1.00  0.00    -0.206 F 
ATOM     95  C   UNL     1       4.640  13.542   0.156  1.00  0.00     0.006 A 
ENDBRANCH  71  88
ENDBRANCH  45  46
ENDBRANCH  37  40
ENDBRANCH  35  36
ENDBRANCH  34  35
ENDBRANCH  33  34
ENDBRANCH  32  33
ENDBRANCH   1  32
TORSDOF 17
