REMARK SMILES Cc1ccccc1NC(=O)NC[C@@H]1CC[C@@H](C(=O)NCCCCCCNC(=O)c2ccc(-c3c4nc(c(-c5c(F)cccc5F)c5ccc([nH]5)c(-c5c(F)cccc5F)c5nc(c(-c6c(F)cccc6F)c6ccc3[nH]6)C=C5)C=C4)cc2)O1
REMARK SMILES IDX 22 1 21 2 20 3 19 4 17 5 18 6 16 8 13 9 14 10 83 11 15 12
REMARK SMILES IDX 12 13 11 14 8 15 9 16 10 18 7 20 1 21 2 22 3 23 4 24 6 25
REMARK SMILES IDX 5 26 23 27 24 28 25 29 26 30 27 31 28 33 29 34 30 35 82 36
REMARK SMILES IDX 31 37 81 38 32 39 33 40 34 41 75 42 35 43 80 44 74 45 76 46
REMARK SMILES IDX 36 47 79 48 73 49 72 50 37 52 63 53 46 54 62 55 47 56 50 57
REMARK SMILES IDX 61 58 77 59 48 60 49 61 60 63 78 64 51 65 38 66 39 67 44 68
REMARK SMILES IDX 40 69 41 70 43 71 45 72 42 73 64 74 65 75 70 76 66 77 67 78
REMARK SMILES IDX 69 79 71 80 68 81 52 82 53 83 58 84 54 85 55 86 57 87 59 88
REMARK SMILES IDX 56 89
REMARK H PARENT 19 7 8 17 11 19 26 32 76 51 50 62
REMARK Flexibility Score: inf
ROOT
ATOM      1  C   UNL     1      -7.508   1.896   6.063  1.00  0.00     0.002 C 
ENDROOT
BRANCH   1   2
ATOM      2  C   UNL     1      -6.962   1.437   4.701  1.00  0.00     0.021 C 
BRANCH   2   3
ATOM      3  C   UNL     1      -7.401   2.297   3.512  1.00  0.00     0.116 C 
BRANCH   3   4
ATOM      4  N   UNL     1      -6.754   3.590   3.535  1.00  0.00    -0.354 N 
ATOM      5  C   UNL     1      -5.737   4.093   2.777  1.00  0.00     0.249 C 
ATOM      6  O   UNL     1      -5.345   5.227   3.064  1.00  0.00    -0.272 OA
ATOM      7  H   UNL     1      -7.106   4.212   4.212  1.00  0.00     0.163 HD
BRANCH   5   8
ATOM      8  C   UNL     1      -5.178   3.306   1.571  1.00  0.00     0.207 C 
ATOM      9  C   UNL     1      -2.936   3.094   0.858  1.00  0.00     0.138 C 
ATOM     10  C   UNL     1      -3.560   1.717   0.886  1.00  0.00     0.037 C 
ATOM     11  O   UNL     1      -4.059   3.995   0.975  1.00  0.00    -0.363 OA
ATOM     12  C   UNL     1      -4.687   1.899   1.868  1.00  0.00     0.045 C 
BRANCH   9  13
ATOM     13  C   UNL     1      -2.160   3.435  -0.424  1.00  0.00     0.149 C 
BRANCH  13  14
ATOM     14  N   UNL     1      -0.782   3.826  -0.183  1.00  0.00    -0.335 N 
ATOM     15  N   UNL     1       0.869   2.065  -0.129  1.00  0.00    -0.308 N 
ATOM     16  C   UNL     1       0.435   3.321  -0.106  1.00  0.00     0.319 C 
ATOM     17  H   UNL     1       1.851   2.082  -0.058  1.00  0.00     0.171 HD
ATOM     18  O   UNL     1       1.331   4.168   0.047  1.00  0.00    -0.249 OA
ATOM     19  H   UNL     1      -0.743   4.797  -0.025  1.00  0.00     0.165 HD
BRANCH  15  20
ATOM     20  C   UNL     1       0.464   0.723  -0.216  1.00  0.00     0.045 A 
ATOM     21  C   UNL     1       2.903  -0.082   0.214  1.00  0.00     0.046 C 
ATOM     22  C   UNL     1       1.423  -0.300   0.005  1.00  0.00    -0.027 A 
ATOM     23  C   UNL     1       1.020  -1.655   0.009  1.00  0.00     0.005 A 
ATOM     24  C   UNL     1      -0.300  -2.016  -0.222  1.00  0.00     0.000 A 
ATOM     25  C   UNL     1      -0.831   0.319  -0.508  1.00  0.00     0.026 A 
ATOM     26  C   UNL     1      -1.224  -1.026  -0.500  1.00  0.00     0.002 A 
ENDBRANCH  15  20
ENDBRANCH  13  14
ENDBRANCH   9  13
ENDBRANCH   5   8
ENDBRANCH   3   4
ENDBRANCH   2   3
ENDBRANCH   1   2
BRANCH   1  27
ATOM     27  C   UNL     1      -9.028   2.110   6.152  1.00  0.00     0.002 C 
BRANCH  27  28
ATOM     28  C   UNL     1      -9.894   0.968   5.610  1.00  0.00     0.021 C 
BRANCH  28  29
ATOM     29  C   UNL     1      -9.891  -0.279   6.485  1.00  0.00     0.116 C 
BRANCH  29  30
ATOM     30  N   UNL     1     -11.033  -0.368   7.389  1.00  0.00    -0.352 N 
ATOM     31  C   UNL     1     -11.262  -1.279   8.404  1.00  0.00     0.251 C 
ATOM     32  H   UNL     1     -11.734   0.311   7.259  1.00  0.00     0.163 HD
ATOM     33  O   UNL     1     -12.280  -1.216   9.086  1.00  0.00    -0.269 OA
BRANCH  31  34
ATOM     34  C   UNL     1     -10.198  -2.251   8.742  1.00  0.00     0.039 A 
ATOM     35  C   UNL     1      -9.734  -2.272  10.061  1.00  0.00     0.014 A 
ATOM     36  C   UNL     1      -9.508  -2.922   7.736  1.00  0.00     0.014 A 
ATOM     37  C   UNL     1      -8.450  -2.743  10.318  1.00  0.00     0.010 A 
ATOM     38  C   UNL     1      -8.198  -3.300   7.972  1.00  0.00     0.010 A 
ATOM     39  C   UNL     1      -7.644  -3.133   9.246  1.00  0.00    -0.014 A 
BRANCH  39  40
ATOM     40  C   UNL     1      -6.186  -3.175   9.347  1.00  0.00     0.031 A 
ATOM     41  C   UNL     1      -5.436  -4.448   9.261  1.00  0.00     0.074 A 
ATOM     42  C   UNL     1      -5.502  -2.014   9.472  1.00  0.00     0.049 A 
ATOM     43  N   UNL     1      -4.263  -4.634   9.770  1.00  0.00    -0.248 NA
ATOM     44  C   UNL     1      -5.978  -5.640   8.624  1.00  0.00     0.031 C 
ATOM     45  C   UNL     1      -4.064  -1.815   9.316  1.00  0.00     0.029 A 
ATOM     46  N   UNL     1      -5.970  -0.795   9.984  1.00  0.00    -0.354 N 
ATOM     47  C   UNL     1      -3.787  -5.842   9.314  1.00  0.00     0.074 A 
ATOM     48  C   UNL     1      -4.918  -6.454   8.653  1.00  0.00     0.031 C 
ATOM     49  C   UNL     1      -3.710  -0.693   9.961  1.00  0.00     0.029 A 
ATOM     50  C   UNL     1      -4.884  -0.207  10.664  1.00  0.00     0.049 A 
ATOM     51  H   UNL     1      -6.877  -0.424   9.888  1.00  0.00     0.167 HD
ATOM     52  C   UNL     1      -2.457  -6.132   9.434  1.00  0.00     0.037 A 
ATOM     53  C   UNL     1      -4.933   0.074  11.997  1.00  0.00     0.037 A 
ATOM     54  C   UNL     1      -1.742  -5.077  10.152  1.00  0.00     0.049 A 
ATOM     55  C   UNL     1      -3.866  -0.608  12.817  1.00  0.00     0.074 A 
ATOM     56  C   UNL     1      -0.970  -4.010   9.723  1.00  0.00     0.029 A 
ATOM     57  N   UNL     1      -1.996  -4.860  11.502  1.00  0.00    -0.354 N 
ATOM     58  N   UNL     1      -3.168  -1.627  12.400  1.00  0.00    -0.248 NA
ATOM     59  C   UNL     1      -3.537  -0.231  14.190  1.00  0.00     0.031 C 
ATOM     60  C   UNL     1      -0.785  -3.129  10.814  1.00  0.00     0.029 A 
ATOM     61  C   UNL     1      -1.441  -3.662  11.909  1.00  0.00     0.049 A 
ATOM     62  H   UNL     1      -2.499  -5.473  12.085  1.00  0.00     0.167 HD
ATOM     63  C   UNL     1      -2.365  -2.076  13.416  1.00  0.00     0.074 A 
ATOM     64  C   UNL     1      -2.606  -1.148  14.504  1.00  0.00     0.031 C 
ATOM     65  C   UNL     1      -1.591  -3.192  13.278  1.00  0.00     0.037 A 
BRANCH  52  66
ATOM     66  C   UNL     1      -1.751  -7.215   8.641  1.00  0.00     0.057 A 
ATOM     67  C   UNL     1      -0.398  -7.078   8.266  1.00  0.00     0.134 A 
ATOM     68  C   UNL     1      -2.358  -8.388   8.161  1.00  0.00     0.134 A 
ATOM     69  F   UNL     1       0.374  -6.094   8.744  1.00  0.00    -0.206 F 
ATOM     70  C   UNL     1       0.245  -7.949   7.375  1.00  0.00     0.040 A 
ATOM     71  C   UNL     1      -1.746  -9.240   7.228  1.00  0.00     0.040 A 
ATOM     72  F   UNL     1      -3.546  -8.799   8.620  1.00  0.00    -0.206 F 
ATOM     73  C   UNL     1      -0.444  -9.011   6.815  1.00  0.00     0.006 A 
ENDBRANCH  52  66
BRANCH  53  74
ATOM     74  C   UNL     1      -6.287   0.411  12.497  1.00  0.00     0.057 A 
ATOM     75  C   UNL     1      -6.882   1.614  12.084  1.00  0.00     0.134 A 
ATOM     76  C   UNL     1      -7.120  -0.549  13.078  1.00  0.00     0.134 A 
ATOM     77  F   UNL     1      -6.136   2.575  11.516  1.00  0.00    -0.206 F 
ATOM     78  C   UNL     1      -8.262   1.818  12.159  1.00  0.00     0.040 A 
ATOM     79  C   UNL     1      -8.504  -0.355  13.161  1.00  0.00     0.040 A 
ATOM     80  F   UNL     1      -6.627  -1.732  13.470  1.00  0.00    -0.206 F 
ATOM     81  C   UNL     1      -9.081   0.816  12.672  1.00  0.00     0.006 A 
ENDBRANCH  53  74
BRANCH  65  82
ATOM     82  C   UNL     1      -0.843  -3.893  14.384  1.00  0.00     0.057 A 
ATOM     83  C   UNL     1      -1.259  -3.919  15.723  1.00  0.00     0.134 A 
ATOM     84  C   UNL     1       0.276  -4.702  14.088  1.00  0.00     0.134 A 
ATOM     85  F   UNL     1      -2.371  -3.288  16.125  1.00  0.00    -0.206 F 
ATOM     86  C   UNL     1      -0.579  -4.649  16.708  1.00  0.00     0.040 A 
ATOM     87  C   UNL     1       0.932  -5.474  15.052  1.00  0.00     0.040 A 
ATOM     88  F   UNL     1       0.767  -4.796  12.843  1.00  0.00    -0.206 F 
ATOM     89  C   UNL     1       0.514  -5.438  16.373  1.00  0.00     0.006 A 
ENDBRANCH  65  82
ENDBRANCH  39  40
ENDBRANCH  31  34
ENDBRANCH  29  30
ENDBRANCH  28  29
ENDBRANCH  27  28
ENDBRANCH   1  27
TORSDOF 16
