REMARK SMILES O=C(CCCCc1nc(-c2ccccc2)no1)NCCCCCCNC(=O)c1ccc(-c2c3nc(c(-c4c(F)cccc4F)c4ccc([nH]4)c(-c4c(F)cccc4F)c4nc(c(-c5c(F)cccc5F)c5ccc2[nH]5)C=C4)C=C3)cc1
REMARK SMILES IDX 20 1 19 2 18 3 1 4 2 5 3 7 4 8 5 9 6 10 7 11 8 12 17 13 9 14
REMARK SMILES IDX 16 15 10 16 11 17 15 18 12 19 14 20 13 21 21 22 22 23 23 24
REMARK SMILES IDX 24 25 25 26 26 27 27 29 28 30 29 31 81 32 30 33 80 34 31 35
REMARK SMILES IDX 32 36 33 37 74 38 34 39 79 40 73 41 75 42 35 43 78 44 72 45
REMARK SMILES IDX 71 46 36 48 62 49 45 50 61 51 46 52 49 53 60 54 76 55 47 56
REMARK SMILES IDX 48 57 59 59 77 60 50 61 37 62 38 63 43 64 39 65 40 66 42 67
REMARK SMILES IDX 44 68 41 69 63 70 64 71 69 72 65 73 66 74 68 75 70 76 67 77
REMARK SMILES IDX 51 78 52 79 57 80 53 81 54 82 56 83 58 84 55 85
REMARK H PARENT 18 6 25 28 75 47 49 58
REMARK Flexibility Score: inf
ROOT
ATOM      1  C   UNL     1       2.562   1.858   2.916  1.00  0.00     0.021 C 
ENDROOT
BRANCH   1   2
ATOM      2  C   UNL     1       1.997   1.783   1.497  1.00  0.00     0.116 C 
BRANCH   2   3
ATOM      3  N   UNL     1       2.629   0.728   0.736  1.00  0.00    -0.356 N 
ATOM      4  O   UNL     1       0.813   0.186  -0.558  1.00  0.00    -0.275 OA
ATOM      5  C   UNL     1       1.986   0.015  -0.246  1.00  0.00     0.219 C 
ATOM      6  H   UNL     1       3.568   0.509   0.933  1.00  0.00     0.163 HD
BRANCH   5   7
ATOM      7  C   UNL     1       2.872  -1.012  -0.922  1.00  0.00     0.100 C 
BRANCH   7   8
ATOM      8  C   UNL     1       3.768  -0.403  -2.001  1.00  0.00     0.010 C 
BRANCH   8   9
ATOM      9  C   UNL     1       4.964   0.435  -1.516  1.00  0.00     0.010 C 
BRANCH   9  10
ATOM     10  C   UNL     1       5.920  -0.247  -0.535  1.00  0.00     0.100 C 
BRANCH  10  11
ATOM     11  C   UNL     1       6.549  -1.463  -1.095  1.00  0.00     0.226 A 
ATOM     12  N   UNL     1       6.060  -2.675  -1.200  1.00  0.00    -0.191 NA
ATOM     13  O   UNL     1       7.828  -1.349  -1.547  1.00  0.00    -0.339 OA
ATOM     14  C   UNL     1       7.119  -3.372  -1.742  1.00  0.00     0.202 A 
ATOM     15  N   UNL     1       8.209  -2.621  -1.968  1.00  0.00    -0.057 NA
BRANCH  14  16
ATOM     16  C   UNL     1       7.041  -4.797  -2.026  1.00  0.00     0.023 A 
ATOM     17  C   UNL     1       8.189  -5.600  -1.978  1.00  0.00     0.012 A 
ATOM     18  C   UNL     1       5.810  -5.386  -2.346  1.00  0.00     0.012 A 
ATOM     19  C   UNL     1       8.105  -6.969  -2.242  1.00  0.00     0.001 A 
ATOM     20  C   UNL     1       5.730  -6.753  -2.623  1.00  0.00     0.001 A 
ATOM     21  C   UNL     1       6.878  -7.543  -2.568  1.00  0.00     0.000 A 
ENDBRANCH  14  16
ENDBRANCH  10  11
ENDBRANCH   9  10
ENDBRANCH   8   9
ENDBRANCH   7   8
ENDBRANCH   5   7
ENDBRANCH   2   3
ENDBRANCH   1   2
BRANCH   1  22
ATOM     22  C   UNL     1       4.071   2.132   3.003  1.00  0.00     0.002 C 
BRANCH  22  23
ATOM     23  C   UNL     1       4.540   3.444   2.368  1.00  0.00     0.002 C 
BRANCH  23  24
ATOM     24  C   UNL     1       3.900   4.711   2.940  1.00  0.00     0.021 C 
BRANCH  24  25
ATOM     25  C   UNL     1       4.033   4.884   4.451  1.00  0.00     0.116 C 
BRANCH  25  26
ATOM     26  N   UNL     1       5.416   4.984   4.890  1.00  0.00    -0.352 N 
ATOM     27  C   UNL     1       5.991   5.864   5.771  1.00  0.00     0.251 C 
ATOM     28  H   UNL     1       6.030   4.322   4.497  1.00  0.00     0.163 HD
ATOM     29  O   UNL     1       7.214   5.875   5.913  1.00  0.00    -0.269 OA
BRANCH  27  30
ATOM     30  C   UNL     1       5.157   6.824   6.527  1.00  0.00     0.039 A 
ATOM     31  C   UNL     1       5.593   8.148   6.634  1.00  0.00     0.014 A 
ATOM     32  C   UNL     1       3.961   6.431   7.135  1.00  0.00     0.014 A 
ATOM     33  C   UNL     1       4.797   9.090   7.290  1.00  0.00     0.010 A 
ATOM     34  C   UNL     1       3.137   7.386   7.730  1.00  0.00     0.010 A 
ATOM     35  C   UNL     1       3.545   8.725   7.811  1.00  0.00    -0.014 A 
BRANCH  35  36
ATOM     36  C   UNL     1       2.646   9.747   8.407  1.00  0.00     0.031 A 
ATOM     37  C   UNL     1       2.289   9.704   9.866  1.00  0.00     0.074 A 
ATOM     38  C   UNL     1       2.109  10.694   7.614  1.00  0.00     0.049 A 
ATOM     39  N   UNL     1       1.527  10.518  10.554  1.00  0.00    -0.248 NA
ATOM     40  C   UNL     1       2.838   8.588  10.651  1.00  0.00     0.031 C 
ATOM     41  C   UNL     1       2.327  10.810   6.170  1.00  0.00     0.029 A 
ATOM     42  N   UNL     1       1.271  11.740   7.908  1.00  0.00    -0.354 N 
ATOM     43  C   UNL     1       1.497  10.008  11.845  1.00  0.00     0.074 A 
ATOM     44  C   UNL     1       2.276   8.788  11.834  1.00  0.00     0.031 C 
ATOM     45  C   UNL     1       1.672  11.889   5.713  1.00  0.00     0.029 A 
ATOM     46  C   UNL     1       0.965  12.522   6.821  1.00  0.00     0.049 A 
ATOM     47  H   UNL     1       0.923  11.913   8.812  1.00  0.00     0.167 HD
ATOM     48  C   UNL     1       0.894  10.521  12.945  1.00  0.00     0.037 A 
ATOM     49  C   UNL     1       0.206  13.630   6.729  1.00  0.00     0.037 A 
ATOM     50  C   UNL     1       0.137  11.746  12.961  1.00  0.00     0.049 A 
ATOM     51  C   UNL     1      -0.448  14.181   7.963  1.00  0.00     0.074 A 
ATOM     52  C   UNL     1      -0.441  12.390  14.041  1.00  0.00     0.029 A 
ATOM     53  N   UNL     1      -0.154  12.509  11.840  1.00  0.00    -0.354 N 
ATOM     54  N   UNL     1      -0.394  13.739   9.196  1.00  0.00    -0.248 NA
ATOM     55  C   UNL     1      -1.265  15.391   7.793  1.00  0.00     0.031 C 
ATOM     56  C   UNL     1      -1.123  13.517  13.567  1.00  0.00     0.029 A 
ATOM     57  C   UNL     1      -0.930  13.601  12.197  1.00  0.00     0.049 A 
ATOM     58  H   UNL     1       0.146  12.306  10.924  1.00  0.00     0.167 HD
ATOM     59  C   UNL     1      -1.150  14.625   9.951  1.00  0.00     0.074 A 
ATOM     60  C   UNL     1      -1.635  15.642   9.040  1.00  0.00     0.031 C 
ATOM     61  C   UNL     1      -1.418  14.600  11.280  1.00  0.00     0.037 A 
BRANCH  48  62
ATOM     62  C   UNL     1       1.028   9.750  14.227  1.00  0.00     0.057 A 
ATOM     63  C   UNL     1       2.247   9.663  14.915  1.00  0.00     0.134 A 
ATOM     64  C   UNL     1      -0.079   9.107  14.795  1.00  0.00     0.134 A 
ATOM     65  F   UNL     1       3.349  10.247  14.421  1.00  0.00    -0.206 F 
ATOM     66  C   UNL     1       2.366   8.938  16.102  1.00  0.00     0.040 A 
ATOM     67  C   UNL     1       0.022   8.403  15.996  1.00  0.00     0.040 A 
ATOM     68  F   UNL     1      -1.277   9.156  14.194  1.00  0.00    -0.206 F 
ATOM     69  C   UNL     1       1.249   8.310  16.649  1.00  0.00     0.006 A 
ENDBRANCH  48  62
BRANCH  49  70
ATOM     70  C   UNL     1       0.058  14.317   5.422  1.00  0.00     0.057 A 
ATOM     71  C   UNL     1       0.677  15.550   5.186  1.00  0.00     0.134 A 
ATOM     72  C   UNL     1      -0.695  13.762   4.381  1.00  0.00     0.134 A 
ATOM     73  F   UNL     1       1.396  16.139   6.153  1.00  0.00    -0.206 F 
ATOM     74  C   UNL     1       0.542  16.214   3.967  1.00  0.00     0.040 A 
ATOM     75  C   UNL     1      -0.820  14.404   3.148  1.00  0.00     0.040 A 
ATOM     76  F   UNL     1      -1.306  12.579   4.543  1.00  0.00    -0.206 F 
ATOM     77  C   UNL     1      -0.205  15.638   2.941  1.00  0.00     0.006 A 
ENDBRANCH  49  70
BRANCH  61  78
ATOM     78  C   UNL     1      -2.263  15.713  11.825  1.00  0.00     0.057 A 
ATOM     79  C   UNL     1      -3.635  15.799  11.552  1.00  0.00     0.134 A 
ATOM     80  C   UNL     1      -1.702  16.706  12.639  1.00  0.00     0.134 A 
ATOM     81  F   UNL     1      -4.230  14.889  10.766  1.00  0.00    -0.206 F 
ATOM     82  C   UNL     1      -4.412  16.849  12.046  1.00  0.00     0.040 A 
ATOM     83  C   UNL     1      -2.475  17.744  13.160  1.00  0.00     0.040 A 
ATOM     84  F   UNL     1      -0.397  16.679  12.945  1.00  0.00    -0.206 F 
ATOM     85  C   UNL     1      -3.833  17.823  12.857  1.00  0.00     0.006 A 
ENDBRANCH  61  78
ENDBRANCH  35  36
ENDBRANCH  27  30
ENDBRANCH  25  26
ENDBRANCH  24  25
ENDBRANCH  23  24
ENDBRANCH  22  23
ENDBRANCH   1  22
TORSDOF 18
