REMARK SMILES O=C(CCc1nc(-c2ccccc2)c(-c2ccccc2)o1)NCCCCCCNC(=O)c1ccc(-c2c3nc(c(-c4c(F)cccc4F)c4ccc([nH]4)c(-c4c(F)cccc4F)c4nc(c(-c5c(F)cccc5F)c5ccc2[nH]5)C=C4)C=C3)cc1
REMARK SMILES IDX 25 1 24 2 23 3 22 4 1 5 2 6 3 8 4 9 5 10 6 11 21 12 7 13
REMARK SMILES IDX 14 14 8 15 9 16 13 17 10 18 12 19 11 20 15 21 16 22 20 23
REMARK SMILES IDX 17 24 19 25 18 26 26 27 27 28 28 29 29 30 30 31 31 33 32 34
REMARK SMILES IDX 33 35 85 36 34 37 84 38 35 39 36 40 37 41 78 42 38 43 83 44
REMARK SMILES IDX 77 45 79 46 39 47 82 48 76 49 75 50 40 52 66 53 49 54 65 55
REMARK SMILES IDX 50 56 53 57 64 58 80 59 51 60 52 61 63 63 81 64 54 65 41 66
REMARK SMILES IDX 42 67 47 68 43 69 44 70 46 71 48 72 45 73 67 74 68 75 73 76
REMARK SMILES IDX 69 77 70 78 72 79 74 80 71 81 55 82 56 83 61 84 57 85 58 86
REMARK SMILES IDX 60 87 62 88 59 89
REMARK H PARENT 22 7 29 32 79 51 53 62
REMARK Flexibility Score: inf
ROOT
ATOM      1  C   UNL     1       3.141   3.783  -1.113  1.00  0.00     0.002 C 
ENDROOT
BRANCH   1   2
ATOM      2  C   UNL     1       1.704   3.298  -0.902  1.00  0.00     0.021 C 
BRANCH   2   3
ATOM      3  C   UNL     1       1.460   1.840  -1.301  1.00  0.00     0.116 C 
BRANCH   3   4
ATOM      4  N   UNL     1       2.390   0.945  -0.643  1.00  0.00    -0.356 N 
ATOM      5  O   UNL     1       0.836  -0.538   0.158  1.00  0.00    -0.275 OA
ATOM      6  C   UNL     1       2.001  -0.166   0.058  1.00  0.00     0.220 C 
ATOM      7  H   UNL     1       3.352   1.145  -0.703  1.00  0.00     0.163 HD
BRANCH   6   8
ATOM      8  C   UNL     1       3.138  -0.906   0.731  1.00  0.00     0.110 C 
BRANCH   8   9
ATOM      9  C   UNL     1       3.942  -1.742  -0.255  1.00  0.00     0.107 C 
BRANCH   9  10
ATOM     10  C   UNL     1       5.088  -1.050  -0.919  1.00  0.00     0.196 A 
ATOM     11  N   UNL     1       6.025  -1.611  -1.663  1.00  0.00    -0.213 NA
ATOM     12  O   UNL     1       5.203   0.318  -0.794  1.00  0.00    -0.440 OA
ATOM     13  C   UNL     1       6.823  -0.562  -2.035  1.00  0.00     0.117 A 
ATOM     14  C   UNL     1       6.311   0.622  -1.541  1.00  0.00     0.162 A 
BRANCH  13  15
ATOM     15  C   UNL     1       7.970  -0.629  -2.918  1.00  0.00     0.004 A 
ATOM     16  C   UNL     1       9.160   0.036  -2.579  1.00  0.00     0.010 A 
ATOM     17  C   UNL     1       7.827  -1.173  -4.197  1.00  0.00     0.010 A 
ATOM     18  C   UNL     1      10.157   0.230  -3.534  1.00  0.00     0.001 A 
ATOM     19  C   UNL     1       8.832  -0.985  -5.149  1.00  0.00     0.001 A 
ATOM     20  C   UNL     1       9.984  -0.268  -4.823  1.00  0.00     0.000 A 
ENDBRANCH  13  15
BRANCH  14  21
ATOM     21  C   UNL     1       6.682   2.016  -1.722  1.00  0.00     0.020 A 
ATOM     22  C   UNL     1       6.878   2.871  -0.634  1.00  0.00     0.012 A 
ATOM     23  C   UNL     1       6.968   2.488  -3.018  1.00  0.00     0.012 A 
ATOM     24  C   UNL     1       7.386   4.158  -0.838  1.00  0.00     0.001 A 
ATOM     25  C   UNL     1       7.480   3.768  -3.219  1.00  0.00     0.001 A 
ATOM     26  C   UNL     1       7.703   4.597  -2.125  1.00  0.00     0.000 A 
ENDBRANCH  14  21
ENDBRANCH   9  10
ENDBRANCH   8   9
ENDBRANCH   6   8
ENDBRANCH   3   4
ENDBRANCH   2   3
ENDBRANCH   1   2
BRANCH   1  27
ATOM     27  C   UNL     1       3.652   3.652  -2.546  1.00  0.00     0.002 C 
BRANCH  27  28
ATOM     28  C   UNL     1       3.067   4.637  -3.549  1.00  0.00     0.021 C 
BRANCH  28  29
ATOM     29  C   UNL     1       3.391   6.099  -3.253  1.00  0.00     0.116 C 
BRANCH  29  30
ATOM     30  N   UNL     1       4.824   6.373  -3.182  1.00  0.00    -0.352 N 
ATOM     31  C   UNL     1       5.560   7.371  -3.778  1.00  0.00     0.251 C 
ATOM     32  H   UNL     1       5.341   5.750  -2.623  1.00  0.00     0.163 HD
ATOM     33  O   UNL     1       6.781   7.388  -3.710  1.00  0.00    -0.269 OA
BRANCH  31  34
ATOM     34  C   UNL     1       4.853   8.414  -4.541  1.00  0.00     0.039 A 
ATOM     35  C   UNL     1       5.283   8.719  -5.835  1.00  0.00     0.014 A 
ATOM     36  C   UNL     1       3.724   9.029  -3.998  1.00  0.00     0.014 A 
ATOM     37  C   UNL     1       4.510   9.565  -6.629  1.00  0.00     0.010 A 
ATOM     38  C   UNL     1       2.911   9.797  -4.817  1.00  0.00     0.010 A 
ATOM     39  C   UNL     1       3.288  10.057  -6.144  1.00  0.00    -0.014 A 
BRANCH  39  40
ATOM     40  C   UNL     1       2.350  10.810  -7.007  1.00  0.00     0.031 A 
ATOM     41  C   UNL     1       1.968  12.214  -6.643  1.00  0.00     0.074 A 
ATOM     42  C   UNL     1       1.745  10.178  -8.030  1.00  0.00     0.049 A 
ATOM     43  N   UNL     1       1.039  12.978  -7.156  1.00  0.00    -0.248 NA
ATOM     44  C   UNL     1       2.700  12.822  -5.521  1.00  0.00     0.031 C 
ATOM     45  C   UNL     1       1.986   8.789  -8.431  1.00  0.00     0.029 A 
ATOM     46  N   UNL     1       0.777  10.610  -8.900  1.00  0.00    -0.354 N 
ATOM     47  C   UNL     1       1.058  14.144  -6.404  1.00  0.00     0.074 A 
ATOM     48  C   UNL     1       2.050  13.965  -5.366  1.00  0.00     0.031 C 
ATOM     49  C   UNL     1       1.192   8.487  -9.470  1.00  0.00     0.029 A 
ATOM     50  C   UNL     1       0.359   9.643  -9.781  1.00  0.00     0.049 A 
ATOM     51  H   UNL     1       0.416  11.526  -8.893  1.00  0.00     0.167 HD
ATOM     52  C   UNL     1       0.326  15.270  -6.577  1.00  0.00     0.037 A 
ATOM     53  C   UNL     1      -0.603   9.679 -10.721  1.00  0.00     0.037 A 
ATOM     54  C   UNL     1      -0.641  15.444  -7.628  1.00  0.00     0.049 A 
ATOM     55  C   UNL     1      -1.387  10.944 -10.912  1.00  0.00     0.074 A 
ATOM     56  C   UNL     1      -1.384  16.568  -7.941  1.00  0.00     0.029 A 
ATOM     57  N   UNL     1      -0.999  14.460  -8.538  1.00  0.00    -0.354 N 
ATOM     58  N   UNL     1      -1.313  12.068 -10.239  1.00  0.00    -0.248 NA
ATOM     59  C   UNL     1      -2.383  10.951 -11.991  1.00  0.00     0.031 C 
ATOM     60  C   UNL     1      -2.218  16.251  -9.020  1.00  0.00     0.029 A 
ATOM     61  C   UNL     1      -1.966  14.943  -9.402  1.00  0.00     0.049 A 
ATOM     62  H   UNL     1      -0.620  13.551  -8.565  1.00  0.00     0.167 HD
ATOM     63  C   UNL     1      -2.244  12.919 -10.818  1.00  0.00     0.074 A 
ATOM     64  C   UNL     1      -2.856  12.188 -11.910  1.00  0.00     0.031 C 
ATOM     65  C   UNL     1      -2.566  14.191 -10.476  1.00  0.00     0.037 A 
BRANCH  52  66
ATOM     66  C   UNL     1       0.557  16.391  -5.606  1.00  0.00     0.057 A 
ATOM     67  C   UNL     1       1.757  17.117  -5.588  1.00  0.00     0.134 A 
ATOM     68  C   UNL     1      -0.424  16.746  -4.673  1.00  0.00     0.134 A 
ATOM     69  F   UNL     1       2.745  16.818  -6.446  1.00  0.00    -0.206 F 
ATOM     70  C   UNL     1       1.986  18.128  -4.653  1.00  0.00     0.040 A 
ATOM     71  C   UNL     1      -0.217  17.775  -3.751  1.00  0.00     0.040 A 
ATOM     72  F   UNL     1      -1.597  16.096  -4.636  1.00  0.00    -0.206 F 
ATOM     73  C   UNL     1       0.995  18.461  -3.733  1.00  0.00     0.006 A 
ENDBRANCH  52  66
BRANCH  53  74
ATOM     74  C   UNL     1      -0.858   8.480 -11.557  1.00  0.00     0.057 A 
ATOM     75  C   UNL     1      -0.459   8.438 -12.897  1.00  0.00     0.134 A 
ATOM     76  C   UNL     1      -1.470   7.336 -11.029  1.00  0.00     0.134 A 
ATOM     77  F   UNL     1       0.120   9.508 -13.461  1.00  0.00    -0.206 F 
ATOM     78  C   UNL     1      -0.665   7.306 -13.686  1.00  0.00     0.040 A 
ATOM     79  C   UNL     1      -1.664   6.189 -11.800  1.00  0.00     0.040 A 
ATOM     80  F   UNL     1      -1.865   7.310  -9.747  1.00  0.00    -0.206 F 
ATOM     81  C   UNL     1      -1.264   6.174 -13.135  1.00  0.00     0.006 A 
ENDBRANCH  53  74
BRANCH  65  82
ATOM     82  C   UNL     1      -3.622  14.868 -11.296  1.00  0.00     0.057 A 
ATOM     83  C   UNL     1      -4.976  14.541 -11.163  1.00  0.00     0.134 A 
ATOM     84  C   UNL     1      -3.283  15.886 -12.197  1.00  0.00     0.134 A 
ATOM     85  F   UNL     1      -5.362  13.565 -10.328  1.00  0.00    -0.206 F 
ATOM     86  C   UNL     1      -5.958  15.193 -11.911  1.00  0.00     0.040 A 
ATOM     87  C   UNL     1      -4.258  16.560 -12.932  1.00  0.00     0.040 A 
ATOM     88  F   UNL     1      -2.002  16.249 -12.364  1.00  0.00    -0.206 F 
ATOM     89  C   UNL     1      -5.600  16.211 -12.793  1.00  0.00     0.006 A 
ENDBRANCH  65  82
ENDBRANCH  39  40
ENDBRANCH  31  34
ENDBRANCH  29  30
ENDBRANCH  28  29
ENDBRANCH  27  28
ENDBRANCH   1  27
TORSDOF 17
