REMARK SMILES CC(C)(CC(=O)NCCCCCCNC(=O)c1ccc(-c2c3nc(c(-c4c(F)cccc4F)c4ccc([nH]4)c(-c4c(F)cccc4F)c4nc(c(-c5c(F)cccc5F)c5ccc2[nH]5)C=C4)C=C3)cc1)Cc1nc([C@@]2(C)CCCO2)no1
REMARK SMILES IDX 9 1 8 2 7 3 5 4 6 5 4 7 2 8 1 9 3 10 71 11 72 12 73 13 82 14
REMARK SMILES IDX 74 15 81 16 75 17 76 18 77 19 80 20 78 21 79 22 10 23 11 24
REMARK SMILES IDX 12 25 13 26 14 27 15 28 16 30 17 31 18 32 70 33 19 34 69 35
REMARK SMILES IDX 20 36 21 37 22 38 63 39 23 40 68 41 62 42 64 43 24 44 67 45
REMARK SMILES IDX 61 46 60 47 25 49 51 50 34 51 50 52 35 53 38 54 49 55 65 56
REMARK SMILES IDX 36 57 37 58 48 60 66 61 39 62 26 63 27 64 32 65 28 66 29 67
REMARK SMILES IDX 31 68 33 69 30 70 52 71 53 72 58 73 54 74 55 75 57 76 59 77
REMARK SMILES IDX 56 78 40 79 41 80 46 81 42 82 43 83 45 84 47 85 44 86
REMARK H PARENT 7 6 14 29 64 48 38 59
REMARK Flexibility Score: inf
ROOT
ATOM      1  C   UNL     1       0.490   0.922   2.253  1.00  0.00     0.021 C 
ENDROOT
BRANCH   1   2
ATOM      2  C   UNL     1      -0.725   0.126   1.780  1.00  0.00     0.116 C 
BRANCH   2   3
ATOM      3  N   UNL     1      -1.606   0.913   0.947  1.00  0.00    -0.356 N 
ATOM      4  C   UNL     1      -1.730   0.950  -0.405  1.00  0.00     0.220 C 
ATOM      5  O   UNL     1      -2.551   1.720  -0.907  1.00  0.00    -0.275 OA
ATOM      6  H   UNL     1      -2.210   1.517   1.436  1.00  0.00     0.163 HD
BRANCH   4   7
ATOM      7  C   UNL     1      -0.932   0.009  -1.280  1.00  0.00     0.107 C 
BRANCH   7   8
ATOM      8  C   UNL     1       0.516   0.364  -1.714  1.00  0.00    -0.018 C 
ATOM      9  C   UNL     1       1.604  -0.096  -0.725  1.00  0.00     0.012 C 
ATOM     10  C   UNL     1       0.768  -0.536  -2.973  1.00  0.00     0.012 C 
BRANCH   8  11
ATOM     11  C   UNL     1       0.747   1.829  -2.174  1.00  0.00     0.107 C 
BRANCH  11  12
ATOM     12  C   UNL     1       0.462   3.033  -1.322  1.00  0.00     0.227 A 
ATOM     13  N   UNL     1      -0.052   3.245  -0.124  1.00  0.00    -0.193 NA
ATOM     14  O   UNL     1       0.756   4.206  -1.968  1.00  0.00    -0.339 OA
ATOM     15  C   UNL     1      -0.202   4.629  -0.092  1.00  0.00     0.203 A 
ATOM     16  N   UNL     1       0.342   5.244  -1.154  1.00  0.00    -0.059 NA
BRANCH  15  17
ATOM     17  C   UNL     1      -0.855   5.448   1.016  1.00  0.00     0.128 C 
ATOM     18  C   UNL     1      -1.920   4.698   1.837  1.00  0.00     0.051 C 
ATOM     19  C   UNL     1       0.207   6.089   1.920  1.00  0.00     0.046 C 
ATOM     20  O   UNL     1      -1.572   6.603   0.479  1.00  0.00    -0.367 OA
ATOM     21  C   UNL     1      -0.505   7.286   2.503  1.00  0.00     0.032 C 
ATOM     22  C   UNL     1      -1.440   7.705   1.388  1.00  0.00     0.161 C 
ENDBRANCH  15  17
ENDBRANCH  11  12
ENDBRANCH   8  11
ENDBRANCH   7   8
ENDBRANCH   4   7
ENDBRANCH   2   3
ENDBRANCH   1   2
BRANCH   1  23
ATOM     23  C   UNL     1       0.185   2.061   3.213  1.00  0.00     0.002 C 
BRANCH  23  24
ATOM     24  C   UNL     1      -0.520   1.663   4.500  1.00  0.00     0.002 C 
BRANCH  24  25
ATOM     25  C   UNL     1       0.237   0.609   5.303  1.00  0.00     0.021 C 
BRANCH  25  26
ATOM     26  C   UNL     1       1.672   1.003   5.635  1.00  0.00     0.116 C 
BRANCH  26  27
ATOM     27  N   UNL     1       1.723   2.206   6.452  1.00  0.00    -0.352 N 
ATOM     28  C   UNL     1       2.278   2.370   7.693  1.00  0.00     0.251 C 
ATOM     29  H   UNL     1       1.304   3.007   6.061  1.00  0.00     0.163 HD
ATOM     30  O   UNL     1       2.031   3.368   8.366  1.00  0.00    -0.269 OA
BRANCH  28  31
ATOM     31  C   UNL     1       3.168   1.319   8.218  1.00  0.00     0.039 A 
ATOM     32  C   UNL     1       2.966   0.843   9.513  1.00  0.00     0.014 A 
ATOM     33  C   UNL     1       4.178   0.786   7.410  1.00  0.00     0.014 A 
ATOM     34  C   UNL     1       3.748  -0.212   9.981  1.00  0.00     0.010 A 
ATOM     35  C   UNL     1       4.900  -0.318   7.849  1.00  0.00     0.010 A 
ATOM     36  C   UNL     1       4.696  -0.823   9.141  1.00  0.00    -0.014 A 
BRANCH  36  37
ATOM     37  C   UNL     1       5.468  -2.002   9.603  1.00  0.00     0.031 A 
ATOM     38  C   UNL     1       6.961  -1.924   9.749  1.00  0.00     0.074 A 
ATOM     39  C   UNL     1       4.821  -3.157   9.852  1.00  0.00     0.049 A 
ATOM     40  N   UNL     1       7.801  -2.849  10.138  1.00  0.00    -0.248 NA
ATOM     41  C   UNL     1       7.599  -0.648   9.387  1.00  0.00     0.031 C 
ATOM     42  C   UNL     1       3.381  -3.371   9.690  1.00  0.00     0.029 A 
ATOM     43  N   UNL     1       5.288  -4.367  10.296  1.00  0.00    -0.354 N 
ATOM     44  C   UNL     1       9.062  -2.269  10.066  1.00  0.00     0.074 A 
ATOM     45  C   UNL     1       8.884  -0.936   9.535  1.00  0.00     0.031 C 
ATOM     46  C   UNL     1       3.078  -4.624  10.065  1.00  0.00     0.029 A 
ATOM     47  C   UNL     1       4.304  -5.312  10.456  1.00  0.00     0.049 A 
ATOM     48  H   UNL     1       6.239  -4.542  10.483  1.00  0.00     0.167 HD
ATOM     49  C   UNL     1      10.255  -2.792  10.434  1.00  0.00     0.037 A 
ATOM     50  C   UNL     1       4.382  -6.590  10.871  1.00  0.00     0.037 A 
ATOM     51  C   UNL     1      10.424  -4.117  10.972  1.00  0.00     0.049 A 
ATOM     52  C   UNL     1       5.721  -7.150  11.261  1.00  0.00     0.074 A 
ATOM     53  C   UNL     1      11.582  -4.722  11.428  1.00  0.00     0.029 A 
ATOM     54  N   UNL     1       9.405  -5.047  11.117  1.00  0.00    -0.354 N 
ATOM     55  N   UNL     1       6.894  -6.564  11.264  1.00  0.00    -0.248 NA
ATOM     56  C   UNL     1       5.745  -8.547  11.713  1.00  0.00     0.031 C 
ATOM     57  C   UNL     1      11.274  -6.036  11.796  1.00  0.00     0.029 A 
ATOM     58  C   UNL     1       9.913  -6.231  11.627  1.00  0.00     0.049 A 
ATOM     59  H   UNL     1       8.459  -4.889  10.891  1.00  0.00     0.167 HD
ATOM     60  C   UNL     1       7.791  -7.512  11.740  1.00  0.00     0.074 A 
ATOM     61  C   UNL     1       7.020  -8.701  12.039  1.00  0.00     0.031 C 
ATOM     62  C   UNL     1       9.133  -7.409  11.912  1.00  0.00     0.037 A 
BRANCH  49  63
ATOM     63  C   UNL     1      11.472  -1.926  10.268  1.00  0.00     0.057 A 
ATOM     64  C   UNL     1      11.683  -0.787  11.057  1.00  0.00     0.134 A 
ATOM     65  C   UNL     1      12.461  -2.253   9.332  1.00  0.00     0.134 A 
ATOM     66  F   UNL     1      10.770  -0.409  11.965  1.00  0.00    -0.206 F 
ATOM     67  C   UNL     1      12.819   0.010  10.902  1.00  0.00     0.040 A 
ATOM     68  C   UNL     1      13.616  -1.481   9.189  1.00  0.00     0.040 A 
ATOM     69  F   UNL     1      12.327  -3.333   8.547  1.00  0.00    -0.206 F 
ATOM     70  C   UNL     1      13.793  -0.342   9.971  1.00  0.00     0.006 A 
ENDBRANCH  49  63
BRANCH  50  71
ATOM     71  C   UNL     1       3.154  -7.421  10.960  1.00  0.00     0.057 A 
ATOM     72  C   UNL     1       2.649  -7.835  12.198  1.00  0.00     0.134 A 
ATOM     73  C   UNL     1       2.462  -7.829   9.813  1.00  0.00     0.134 A 
ATOM     74  F   UNL     1       3.276  -7.491  13.332  1.00  0.00    -0.206 F 
ATOM     75  C   UNL     1       1.516  -8.646  12.292  1.00  0.00     0.040 A 
ATOM     76  C   UNL     1       1.312  -8.615   9.893  1.00  0.00     0.040 A 
ATOM     77  F   UNL     1       2.888  -7.457   8.597  1.00  0.00    -0.206 F 
ATOM     78  C   UNL     1       0.841  -9.034  11.136  1.00  0.00     0.006 A 
ENDBRANCH  50  71
BRANCH  62  79
ATOM     79  C   UNL     1       9.842  -8.611  12.468  1.00  0.00     0.057 A 
ATOM     80  C   UNL     1       9.997  -9.790  11.726  1.00  0.00     0.134 A 
ATOM     81  C   UNL     1      10.388  -8.584  13.758  1.00  0.00     0.134 A 
ATOM     82  F   UNL     1       9.486  -9.887  10.489  1.00  0.00    -0.206 F 
ATOM     83  C   UNL     1      10.638 -10.909  12.260  1.00  0.00     0.040 A 
ATOM     84  C   UNL     1      11.060  -9.685  14.290  1.00  0.00     0.040 A 
ATOM     85  F   UNL     1      10.286  -7.484  14.519  1.00  0.00    -0.206 F 
ATOM     86  C   UNL     1      11.176 -10.856  13.544  1.00  0.00     0.006 A 
ENDBRANCH  62  79
ENDBRANCH  36  37
ENDBRANCH  28  31
ENDBRANCH  26  27
ENDBRANCH  25  26
ENDBRANCH  24  25
ENDBRANCH  23  24
ENDBRANCH   1  23
TORSDOF 17
