REMARK SMILES CC[C@H](C)C[C@@H](C)[NH2+]Cc1cc(C(=O)NCCCCCCNC(=O)c2ccc(-c3c4nc(c(-c5c(F)cccc5F)c5ccc([nH]5)c(-c5c(F)cccc5F)c5nc(c(-c6c(F)cccc6F)c6ccc3[nH]6)C=C5)C=C4)cc2)cs1
REMARK SMILES IDX 16 1 15 2 13 3 14 4 12 6 10 7 11 8 80 9 79 10 9 11 8 12 6 15
REMARK SMILES IDX 7 16 5 17 3 18 4 19 2 20 1 21 17 22 18 23 19 24 20 25 21 26
REMARK SMILES IDX 22 27 23 28 24 30 25 31 26 32 78 33 27 34 77 35 28 36 29 37
REMARK SMILES IDX 30 38 71 39 31 40 76 41 70 42 72 43 32 44 75 45 69 46 68 47
REMARK SMILES IDX 33 49 59 50 42 51 58 52 43 53 46 54 57 55 73 56 44 57 45 58
REMARK SMILES IDX 56 60 74 61 47 62 34 63 35 64 40 65 36 66 37 67 39 68 41 69
REMARK SMILES IDX 38 70 60 71 61 72 66 73 62 74 63 75 65 76 67 77 64 78 48 79
REMARK SMILES IDX 49 80 54 81 50 82 51 83 53 84 55 85 52 86
REMARK H PARENT 15 5 8 13 8 14 22 29 72 48 46 59
REMARK Flexibility Score: inf
ROOT
ATOM      1  C   UNL     1       4.232   7.610   4.979  1.00  0.00     0.116 C 
ENDROOT
BRANCH   1   2
ATOM      2  N   UNL     1       5.396   6.768   5.128  1.00  0.00    -0.352 N 
ATOM      3  C   UNL     1       5.574   5.478   5.552  1.00  0.00     0.252 C 
ATOM      4  O   UNL     1       6.745   5.102   5.644  1.00  0.00    -0.269 OA
ATOM      5  H   UNL     1       6.236   7.214   4.870  1.00  0.00     0.163 HD
BRANCH   3   6
ATOM      6  C   UNL     1       4.464   4.558   5.836  1.00  0.00     0.051 A 
ATOM      7  C   UNL     1       2.352   3.521   5.798  1.00  0.00     0.059 A 
ATOM      8  C   UNL     1       3.041   4.722   5.771  1.00  0.00     0.035 A 
ATOM      9  S   UNL     1       3.355   2.262   6.366  1.00  0.00    -0.142 S 
ATOM     10  C   UNL     1       4.742   3.247   6.207  1.00  0.00     0.079 A 
BRANCH   7  11
ATOM     11  C   UNL     1       0.937   3.261   5.371  1.00  0.00     0.308 C 
BRANCH  11  12
ATOM     12  N   UNL     1       0.673   3.697   3.988  1.00  0.00    -0.340 N 
ATOM     13  H   UNL     1      -0.337   3.749   3.863  1.00  0.00     0.346 HD
ATOM     14  H   UNL     1       1.149   4.593   3.882  1.00  0.00     0.346 HD
BRANCH  12  15
ATOM     15  C   UNL     1       1.218   2.823   2.931  1.00  0.00     0.179 C 
ATOM     16  C   UNL     1       2.723   3.034   2.707  1.00  0.00     0.075 C 
BRANCH  15  17
ATOM     17  C   UNL     1       0.450   3.142   1.619  1.00  0.00     0.068 C 
BRANCH  17  18
ATOM     18  C   UNL     1       0.750   2.162   0.455  1.00  0.00    -0.009 C 
ATOM     19  C   UNL     1       0.147   0.781   0.734  1.00  0.00     0.008 C 
BRANCH  18  20
ATOM     20  C   UNL     1       0.244   2.722  -0.889  1.00  0.00    -0.000 C 
ATOM     21  C   UNL     1       1.019   2.139  -2.068  1.00  0.00     0.004 C 
ENDBRANCH  18  20
ENDBRANCH  17  18
ENDBRANCH  15  17
ENDBRANCH  12  15
ENDBRANCH  11  12
ENDBRANCH   7  11
ENDBRANCH   3   6
ENDBRANCH   1   2
BRANCH   1  22
ATOM     22  C   UNL     1       3.929   8.357   6.279  1.00  0.00     0.021 C 
BRANCH  22  23
ATOM     23  C   UNL     1       4.773   9.628   6.448  1.00  0.00     0.002 C 
BRANCH  23  24
ATOM     24  C   UNL     1       4.569  10.691   5.359  1.00  0.00     0.002 C 
BRANCH  24  25
ATOM     25  C   UNL     1       3.115  11.114   5.130  1.00  0.00     0.021 C 
BRANCH  25  26
ATOM     26  C   UNL     1       2.449  11.752   6.345  1.00  0.00     0.116 C 
BRANCH  26  27
ATOM     27  N   UNL     1       3.089  13.005   6.711  1.00  0.00    -0.352 N 
ATOM     28  C   UNL     1       2.544  14.258   6.837  1.00  0.00     0.251 C 
ATOM     29  H   UNL     1       4.054  12.946   6.896  1.00  0.00     0.163 HD
ATOM     30  O   UNL     1       3.273  15.241   6.928  1.00  0.00    -0.269 OA
BRANCH  28  31
ATOM     31  C   UNL     1       1.076  14.425   6.853  1.00  0.00     0.039 A 
ATOM     32  C   UNL     1       0.506  15.468   6.118  1.00  0.00     0.014 A 
ATOM     33  C   UNL     1       0.267  13.575   7.612  1.00  0.00     0.014 A 
ATOM     34  C   UNL     1      -0.880  15.627   6.104  1.00  0.00     0.010 A 
ATOM     35  C   UNL     1      -1.118  13.693   7.544  1.00  0.00     0.010 A 
ATOM     36  C   UNL     1      -1.704  14.724   6.795  1.00  0.00    -0.014 A 
BRANCH  36  37
ATOM     37  C   UNL     1      -3.183  14.845   6.751  1.00  0.00     0.031 A 
ATOM     38  C   UNL     1      -3.953  15.156   8.004  1.00  0.00     0.074 A 
ATOM     39  C   UNL     1      -3.835  14.610   5.596  1.00  0.00     0.049 A 
ATOM     40  N   UNL     1      -5.247  15.233   8.181  1.00  0.00    -0.248 NA
ATOM     41  C   UNL     1      -3.164  15.387   9.225  1.00  0.00     0.031 C 
ATOM     42  C   UNL     1      -3.203  14.255   4.324  1.00  0.00     0.029 A 
ATOM     43  N   UNL     1      -5.176  14.624   5.308  1.00  0.00    -0.354 N 
ATOM     44  C   UNL     1      -5.428  15.504   9.531  1.00  0.00     0.074 A 
ATOM     45  C   UNL     1      -4.114  15.529  10.137  1.00  0.00     0.031 C 
ATOM     46  C   UNL     1      -4.154  14.105   3.388  1.00  0.00     0.029 A 
ATOM     47  C   UNL     1      -5.461  14.317   4.000  1.00  0.00     0.049 A 
ATOM     48  H   UNL     1      -5.868  14.835   5.976  1.00  0.00     0.167 HD
ATOM     49  C   UNL     1      -6.582  15.734  10.201  1.00  0.00     0.037 A 
ATOM     50  C   UNL     1      -6.645  14.210   3.368  1.00  0.00     0.037 A 
ATOM     51  C   UNL     1      -7.885  15.733   9.590  1.00  0.00     0.049 A 
ATOM     52  C   UNL     1      -7.913  14.467   4.135  1.00  0.00     0.074 A 
ATOM     53  C   UNL     1      -9.110  16.013  10.170  1.00  0.00     0.029 A 
ATOM     54  N   UNL     1      -8.132  15.435   8.258  1.00  0.00    -0.354 N 
ATOM     55  N   UNL     1      -8.065  14.787   5.397  1.00  0.00    -0.248 NA
ATOM     56  C   UNL     1      -9.173  14.353   3.388  1.00  0.00     0.031 C 
ATOM     57  C   UNL     1     -10.103  15.845   9.199  1.00  0.00     0.029 A 
ATOM     58  C   UNL     1      -9.492  15.505   8.003  1.00  0.00     0.049 A 
ATOM     59  H   UNL     1      -7.443  15.208   7.593  1.00  0.00     0.167 HD
ATOM     60  C   UNL     1      -9.432  14.941   5.588  1.00  0.00     0.074 A 
ATOM     61  C   UNL     1     -10.063  14.690   4.309  1.00  0.00     0.031 C 
ATOM     62  C   UNL     1     -10.103  15.260   6.721  1.00  0.00     0.037 A 
BRANCH  49  63
ATOM     63  C   UNL     1      -6.485  16.009  11.674  1.00  0.00     0.057 A 
ATOM     64  C   UNL     1      -5.946  17.205  12.168  1.00  0.00     0.134 A 
ATOM     65  C   UNL     1      -6.966  15.084  12.609  1.00  0.00     0.134 A 
ATOM     66  F   UNL     1      -5.457  18.128  11.326  1.00  0.00    -0.206 F 
ATOM     67  C   UNL     1      -5.864  17.458  13.538  1.00  0.00     0.040 A 
ATOM     68  C   UNL     1      -6.914  15.337  13.980  1.00  0.00     0.040 A 
ATOM     69  F   UNL     1      -7.500  13.921  12.204  1.00  0.00    -0.206 F 
ATOM     70  C   UNL     1      -6.356  16.525  14.449  1.00  0.00     0.006 A 
ENDBRANCH  49  63
BRANCH  50  71
ATOM     71  C   UNL     1      -6.688  13.867   1.925  1.00  0.00     0.057 A 
ATOM     72  C   UNL     1      -7.067  14.817   0.970  1.00  0.00     0.134 A 
ATOM     73  C   UNL     1      -6.358  12.586   1.466  1.00  0.00     0.134 A 
ATOM     74  F   UNL     1      -7.412  16.056   1.350  1.00  0.00    -0.206 F 
ATOM     75  C   UNL     1      -7.135  14.502  -0.388  1.00  0.00     0.040 A 
ATOM     76  C   UNL     1      -6.398  12.264   0.109  1.00  0.00     0.040 A 
ATOM     77  F   UNL     1      -5.978  11.634   2.331  1.00  0.00    -0.206 F 
ATOM     78  C   UNL     1      -6.795  13.222  -0.822  1.00  0.00     0.006 A 
ENDBRANCH  50  71
BRANCH  62  79
ATOM     79  C   UNL     1     -11.594  15.392   6.620  1.00  0.00     0.057 A 
ATOM     80  C   UNL     1     -12.427  14.275   6.476  1.00  0.00     0.134 A 
ATOM     81  C   UNL     1     -12.205  16.649   6.708  1.00  0.00     0.134 A 
ATOM     82  F   UNL     1     -11.903  13.045   6.372  1.00  0.00    -0.206 F 
ATOM     83  C   UNL     1     -13.815  14.407   6.399  1.00  0.00     0.040 A 
ATOM     84  C   UNL     1     -13.592  16.791   6.659  1.00  0.00     0.040 A 
ATOM     85  F   UNL     1     -11.464  17.758   6.856  1.00  0.00    -0.206 F 
ATOM     86  C   UNL     1     -14.401  15.668   6.498  1.00  0.00     0.006 A 
ENDBRANCH  62  79
ENDBRANCH  36  37
ENDBRANCH  28  31
ENDBRANCH  26  27
ENDBRANCH  25  26
ENDBRANCH  24  25
ENDBRANCH  23  24
ENDBRANCH  22  23
ENDBRANCH   1  22
TORSDOF 19
