REMARK SMILES CCCCN1C(=O)[C@@H]2[C@H](CCC(=O)NCCCCCCNC(=O)c3ccc(-c4c5nc(c(-c6c(F)cccc6F)c6ccc([nH]6)c(-c6c(F)cccc6F)c6nc(c(-c7c(F)cccc7F)c7ccc4[nH]7)C=C6)C=C5)cc3)[NH2+][C@]3(C(=O)Nc4c(CC)cccc43)[C@@H]2C1=O
REMARK SMILES IDX 16 1 15 2 14 3 12 4 13 5 11 7 10 8 9 9 5 10 6 11 92 12 7 13
REMARK SMILES IDX 8 14 91 15 93 16 79 17 78 18 80 19 90 20 81 23 82 24 83 25
REMARK SMILES IDX 89 26 84 28 88 29 87 30 4 31 3 32 2 33 1 34 85 35 86 36
REMARK SMILES IDX 17 37 18 38 19 39 20 40 21 41 22 42 23 44 24 45 25 46 77 47
REMARK SMILES IDX 26 48 76 49 27 50 28 51 29 52 70 53 30 54 75 55 69 56 71 57
REMARK SMILES IDX 31 58 74 59 68 60 67 61 32 63 58 64 41 65 57 66 42 67 45 68
REMARK SMILES IDX 56 69 72 70 43 71 44 72 55 74 73 75 46 76 33 77 34 78 39 79
REMARK SMILES IDX 35 80 36 81 38 82 40 83 37 84 59 85 60 86 65 87 61 88 62 89
REMARK SMILES IDX 64 90 66 91 63 92 47 93 48 94 53 95 49 96 50 97 52 98 54 99
REMARK SMILES IDX 51 100
REMARK H PARENT 14 6 78 21 78 22 82 27 21 43 71 62 45 73
REMARK Flexibility Score: inf
ROOT
ATOM      1  C   UNL     1      -5.674  -2.535  -2.607  1.00  0.00     0.021 C 
ENDROOT
BRANCH   1   2
ATOM      2  C   UNL     1      -4.247  -3.057  -2.457  1.00  0.00     0.116 C 
BRANCH   2   3
ATOM      3  N   UNL     1      -3.749  -3.491  -3.742  1.00  0.00    -0.356 N 
ATOM      4  C   UNL     1      -2.937  -2.840  -4.617  1.00  0.00     0.220 C 
ATOM      5  O   UNL     1      -2.757  -3.333  -5.730  1.00  0.00    -0.275 OA
ATOM      6  H   UNL     1      -4.041  -4.388  -4.025  1.00  0.00     0.163 HD
BRANCH   4   7
ATOM      7  C   UNL     1      -2.215  -1.578  -4.193  1.00  0.00     0.106 C 
BRANCH   7   8
ATOM      8  C   UNL     1      -2.972  -0.251  -4.327  1.00  0.00     0.076 C 
BRANCH   8   9
ATOM      9  C   UNL     1      -3.813   0.299  -3.151  1.00  0.00     0.197 C 
ATOM     10  N   UNL     1      -0.996   0.875  -2.005  1.00  0.00    -0.282 N 
ATOM     11  C   UNL     1      -1.843  -0.062  -1.502  1.00  0.00     0.239 C 
ATOM     12  C   UNL     1      -1.623   2.094  -2.117  1.00  0.00     0.240 C 
ATOM     13  O   UNL     1      -1.576  -1.127  -0.982  1.00  0.00    -0.274 OA
ATOM     14  C   UNL     1      -3.224   0.445  -1.726  1.00  0.00     0.157 C 
ATOM     15  C   UNL     1      -3.036   1.947  -1.550  1.00  0.00     0.174 C 
ATOM     16  O   UNL     1      -1.087   3.126  -2.484  1.00  0.00    -0.274 OA
ATOM     17  C   UNL     1      -4.205   2.521  -2.327  1.00  0.00     0.216 C 
ATOM     18  N   UNL     1      -4.257   1.663  -3.528  1.00  0.00    -0.326 N 
ATOM     19  C   UNL     1      -4.063   4.038  -2.680  1.00  0.00     0.291 C 
ATOM     20  C   UNL     1      -5.549   2.525  -1.587  1.00  0.00     0.047 A 
ATOM     21  H   UNL     1      -5.213   1.627  -3.884  1.00  0.00     0.347 HD
ATOM     22  H   UNL     1      -3.649   2.041  -4.254  1.00  0.00     0.347 HD
ATOM     23  O   UNL     1      -3.230   4.596  -3.373  1.00  0.00    -0.267 OA
ATOM     24  N   UNL     1      -5.133   4.704  -2.093  1.00  0.00    -0.320 N 
ATOM     25  C   UNL     1      -6.027   3.837  -1.486  1.00  0.00     0.054 A 
ATOM     26  C   UNL     1      -6.337   1.482  -1.117  1.00  0.00     0.013 A 
ATOM     27  H   UNL     1      -5.243   5.682  -2.107  1.00  0.00     0.170 HD
ATOM     28  C   UNL     1      -7.256   4.161  -0.918  1.00  0.00    -0.024 A 
ATOM     29  C   UNL     1      -7.584   1.771  -0.554  1.00  0.00     0.001 A 
ATOM     30  C   UNL     1      -8.037   3.093  -0.453  1.00  0.00     0.006 A 
BRANCH  10  31
ATOM     31  C   UNL     1       0.378   0.575  -2.366  1.00  0.00     0.128 C 
BRANCH  31  32
ATOM     32  C   UNL     1       1.423   1.432  -1.659  1.00  0.00     0.022 C 
BRANCH  32  33
ATOM     33  C   UNL     1       1.252   1.515  -0.143  1.00  0.00    -0.002 C 
ATOM     34  C   UNL     1       1.489   0.193   0.568  1.00  0.00     0.004 C 
ENDBRANCH  32  33
ENDBRANCH  31  32
ENDBRANCH  10  31
BRANCH  28  35
ATOM     35  C   UNL     1      -7.786   5.567  -0.825  1.00  0.00     0.034 C 
ATOM     36  C   UNL     1      -8.896   5.835  -1.833  1.00  0.00     0.009 C 
ENDBRANCH  28  35
ENDBRANCH   8   9
ENDBRANCH   7   8
ENDBRANCH   4   7
ENDBRANCH   2   3
ENDBRANCH   1   2
BRANCH   1  37
ATOM     37  C   UNL     1      -6.745  -3.609  -2.459  1.00  0.00     0.002 C 
BRANCH  37  38
ATOM     38  C   UNL     1      -6.906  -4.124  -1.027  1.00  0.00     0.002 C 
BRANCH  38  39
ATOM     39  C   UNL     1      -7.237  -3.054   0.018  1.00  0.00     0.021 C 
BRANCH  39  40
ATOM     40  C   UNL     1      -8.439  -2.178  -0.321  1.00  0.00     0.116 C 
BRANCH  40  41
ATOM     41  N   UNL     1      -9.639  -2.961  -0.569  1.00  0.00    -0.352 N 
ATOM     42  C   UNL     1     -10.814  -3.028   0.137  1.00  0.00     0.251 C 
ATOM     43  H   UNL     1      -9.604  -3.532  -1.370  1.00  0.00     0.163 HD
ATOM     44  O   UNL     1     -11.622  -3.921  -0.097  1.00  0.00    -0.269 OA
BRANCH  42  45
ATOM     45  C   UNL     1     -11.098  -2.033   1.191  1.00  0.00     0.039 A 
ATOM     46  C   UNL     1     -10.819  -0.682   0.983  1.00  0.00     0.014 A 
ATOM     47  C   UNL     1     -11.657  -2.457   2.399  1.00  0.00     0.014 A 
ATOM     48  C   UNL     1     -10.929   0.214   2.039  1.00  0.00     0.010 A 
ATOM     49  C   UNL     1     -11.867  -1.533   3.426  1.00  0.00     0.010 A 
ATOM     50  C   UNL     1     -11.457  -0.199   3.274  1.00  0.00    -0.014 A 
BRANCH  50  51
ATOM     51  C   UNL     1     -11.561   0.782   4.386  1.00  0.00     0.031 A 
ATOM     52  C   UNL     1     -10.789   0.586   5.663  1.00  0.00     0.074 A 
ATOM     53  C   UNL     1     -12.310   1.889   4.219  1.00  0.00     0.049 A 
ATOM     54  N   UNL     1     -10.722   1.363   6.717  1.00  0.00    -0.248 NA
ATOM     55  C   UNL     1      -9.994  -0.646   5.778  1.00  0.00     0.031 C 
ATOM     56  C   UNL     1     -13.101   2.201   3.026  1.00  0.00     0.029 A 
ATOM     57  N   UNL     1     -12.507   2.970   5.039  1.00  0.00    -0.354 N 
ATOM     58  C   UNL     1      -9.889   0.711   7.619  1.00  0.00     0.074 A 
ATOM     59  C   UNL     1      -9.519  -0.549   7.010  1.00  0.00     0.031 C 
ATOM     60  C   UNL     1     -13.642   3.421   3.163  1.00  0.00     0.029 A 
ATOM     61  C   UNL     1     -13.296   3.946   4.479  1.00  0.00     0.049 A 
ATOM     62  H   UNL     1     -12.120   3.041   5.941  1.00  0.00     0.167 HD
ATOM     63  C   UNL     1      -9.457   1.127   8.835  1.00  0.00     0.037 A 
ATOM     64  C   UNL     1     -13.705   5.128   4.975  1.00  0.00     0.037 A 
ATOM     65  C   UNL     1      -9.835   2.377   9.445  1.00  0.00     0.049 A 
ATOM     66  C   UNL     1     -13.282   5.525   6.360  1.00  0.00     0.074 A 
ATOM     67  C   UNL     1      -9.447   2.895  10.669  1.00  0.00     0.029 A 
ATOM     68  N   UNL     1     -10.700   3.302   8.879  1.00  0.00    -0.354 N 
ATOM     69  N   UNL     1     -12.474   4.911   7.189  1.00  0.00    -0.248 NA
ATOM     70  C   UNL     1     -13.839   6.781   6.879  1.00  0.00     0.031 C 
ATOM     71  C   UNL     1     -10.120   4.106  10.866  1.00  0.00     0.029 A 
ATOM     72  C   UNL     1     -10.880   4.374   9.739  1.00  0.00     0.049 A 
ATOM     73  H   UNL     1     -11.124   3.211   7.995  1.00  0.00     0.167 HD
ATOM     74  C   UNL     1     -12.403   5.719   8.317  1.00  0.00     0.074 A 
ATOM     75  C   UNL     1     -13.234   6.876   8.054  1.00  0.00     0.031 C 
ATOM     76  C   UNL     1     -11.711   5.521   9.467  1.00  0.00     0.037 A 
BRANCH  63  77
ATOM     77  C   UNL     1      -8.546   0.199   9.591  1.00  0.00     0.057 A 
ATOM     78  C   UNL     1      -8.981  -0.436  10.762  1.00  0.00     0.134 A 
ATOM     79  C   UNL     1      -7.242  -0.080   9.156  1.00  0.00     0.134 A 
ATOM     80  F   UNL     1     -10.212  -0.209  11.244  1.00  0.00    -0.206 F 
ATOM     81  C   UNL     1      -8.160  -1.323  11.462  1.00  0.00     0.040 A 
ATOM     82  C   UNL     1      -6.424  -0.990   9.830  1.00  0.00     0.040 A 
ATOM     83  F   UNL     1      -6.763   0.484   8.037  1.00  0.00    -0.206 F 
ATOM     84  C   UNL     1      -6.883  -1.613  10.988  1.00  0.00     0.006 A 
ENDBRANCH  63  77
BRANCH  64  85
ATOM     85  C   UNL     1     -14.559   6.026   4.157  1.00  0.00     0.057 A 
ATOM     86  C   UNL     1     -15.876   5.688   3.827  1.00  0.00     0.134 A 
ATOM     87  C   UNL     1     -14.077   7.260   3.705  1.00  0.00     0.134 A 
ATOM     88  F   UNL     1     -16.395   4.516   4.224  1.00  0.00    -0.206 F 
ATOM     89  C   UNL     1     -16.682   6.539   3.071  1.00  0.00     0.040 A 
ATOM     90  C   UNL     1     -14.882   8.135   2.974  1.00  0.00     0.040 A 
ATOM     91  F   UNL     1     -12.828   7.647   4.003  1.00  0.00    -0.206 F 
ATOM     92  C   UNL     1     -16.188   7.773   2.652  1.00  0.00     0.006 A 
ENDBRANCH  64  85
BRANCH  76  93
ATOM     93  C   UNL     1     -11.795   6.603  10.505  1.00  0.00     0.057 A 
ATOM     94  C   UNL     1     -10.681   7.405  10.788  1.00  0.00     0.134 A 
ATOM     95  C   UNL     1     -12.970   6.853  11.227  1.00  0.00     0.134 A 
ATOM     96  F   UNL     1      -9.523   7.215  10.139  1.00  0.00    -0.206 F 
ATOM     97  C   UNL     1     -10.734   8.417  11.747  1.00  0.00     0.040 A 
ATOM     98  C   UNL     1     -13.044   7.884  12.166  1.00  0.00     0.040 A 
ATOM     99  F   UNL     1     -14.078   6.134  10.994  1.00  0.00    -0.206 F 
ATOM    100  C   UNL     1     -11.921   8.666  12.432  1.00  0.00     0.006 A 
ENDBRANCH  76  93
ENDBRANCH  50  51
ENDBRANCH  42  45
ENDBRANCH  40  41
ENDBRANCH  39  40
ENDBRANCH  38  39
ENDBRANCH  37  38
ENDBRANCH   1  37
TORSDOF 19
