REMARK SMILES CC1(C)CSC[C@H]([NH2+][C@H](C(=O)NCCCCCCNC(=O)c2ccc(-c3c4nc(c(-c5c(F)cccc5F)c5ccc([nH]5)c(-c5c(F)cccc5F)c5nc(c(-c6c(F)cccc6F)c6ccc3[nH]6)C=C5)C=C4)cc2)c2ccccc2)C1
REMARK SMILES IDX 15 1 14 2 13 3 12 4 10 5 11 6 9 8 8 9 7 12 1 13 2 14 3 15
REMARK SMILES IDX 4 16 82 17 5 18 6 19 76 20 77 21 81 22 78 23 80 24 79 25
REMARK SMILES IDX 16 26 17 27 18 28 19 29 20 30 21 32 22 33 23 34 75 35 24 36
REMARK SMILES IDX 74 37 25 38 26 39 27 40 68 41 28 42 73 43 67 44 69 45 29 46
REMARK SMILES IDX 72 47 66 48 65 49 30 51 56 52 39 53 55 54 40 55 43 56 54 57
REMARK SMILES IDX 70 58 41 59 42 60 53 62 71 63 44 64 31 65 32 66 37 67 33 68
REMARK SMILES IDX 34 69 36 70 38 71 35 72 57 73 58 74 63 75 59 76 60 77 62 78
REMARK SMILES IDX 64 79 61 80 45 81 46 82 51 83 47 84 48 85 50 86 52 87 49 88
REMARK H PARENT 12 7 8 10 8 11 19 31 69 50 43 61
REMARK Flexibility Score: inf
ROOT
ATOM      1  C   UNL     1       5.697  -1.270   1.161  1.00  0.00     0.002 C 
ENDROOT
BRANCH   1   2
ATOM      2  C   UNL     1       4.184  -1.322   0.908  1.00  0.00     0.021 C 
BRANCH   2   3
ATOM      3  C   UNL     1       3.361  -0.395   1.808  1.00  0.00     0.116 C 
BRANCH   3   4
ATOM      4  N   UNL     1       3.769   0.982   1.628  1.00  0.00    -0.351 N 
ATOM      5  C   UNL     1       3.186   1.950   0.857  1.00  0.00     0.283 C 
ATOM      6  O   UNL     1       3.906   2.899   0.540  1.00  0.00    -0.268 OA
ATOM      7  H   UNL     1       4.571   1.259   2.127  1.00  0.00     0.163 HD
BRANCH   5   8
ATOM      8  C   UNL     1       1.675   1.819   0.480  1.00  0.00     0.304 C 
BRANCH   8   9
ATOM      9  N   UNL     1       1.026   3.099   0.107  1.00  0.00    -0.329 N 
ATOM     10  H   UNL     1       1.293   3.312  -0.854  1.00  0.00     0.347 HD
ATOM     11  H   UNL     1       0.028   2.944   0.249  1.00  0.00     0.347 HD
BRANCH   9  12
ATOM     12  C   UNL     1       1.357   4.273   0.932  1.00  0.00     0.193 C 
ATOM     13  C   UNL     1       1.169   5.772   3.702  1.00  0.00     0.012 C 
ATOM     14  C   UNL     1       0.319   6.112   2.459  1.00  0.00    -0.021 C 
ATOM     15  C   UNL     1      -1.051   6.617   2.959  1.00  0.00     0.012 C 
ATOM     16  C   UNL     1       0.964   7.248   1.637  1.00  0.00     0.076 C 
ATOM     17  C   UNL     1       0.083   4.848   1.587  1.00  0.00     0.073 C 
ATOM     18  S   UNL     1       2.544   6.812   0.862  1.00  0.00    -0.155 SA
ATOM     19  C   UNL     1       2.008   5.308  -0.005  1.00  0.00     0.134 C 
ENDBRANCH   9  12
ENDBRANCH   8   9
BRANCH   8  20
ATOM     20  C   UNL     1       1.451   0.824  -0.658  1.00  0.00     0.019 A 
ATOM     21  C   UNL     1       2.402   0.640  -1.676  1.00  0.00     0.010 A 
ATOM     22  C   UNL     1       0.250   0.097  -0.729  1.00  0.00     0.010 A 
ATOM     23  C   UNL     1       2.190  -0.291  -2.694  1.00  0.00     0.001 A 
ATOM     24  C   UNL     1       0.030  -0.817  -1.763  1.00  0.00     0.001 A 
ATOM     25  C   UNL     1       1.005  -1.020  -2.737  1.00  0.00     0.000 A 
ENDBRANCH   8  20
ENDBRANCH   5   8
ENDBRANCH   3   4
ENDBRANCH   2   3
ENDBRANCH   1   2
BRANCH   1  26
ATOM     26  C   UNL     1       6.123  -1.577   2.599  1.00  0.00     0.002 C 
BRANCH  26  27
ATOM     27  C   UNL     1       5.606  -2.906   3.148  1.00  0.00     0.021 C 
BRANCH  27  28
ATOM     28  C   UNL     1       5.991  -4.125   2.318  1.00  0.00     0.116 C 
BRANCH  28  29
ATOM     29  N   UNL     1       7.428  -4.342   2.299  1.00  0.00    -0.352 N 
ATOM     30  C   UNL     1       8.132  -5.475   2.618  1.00  0.00     0.251 C 
ATOM     31  H   UNL     1       7.971  -3.570   2.018  1.00  0.00     0.163 HD
ATOM     32  O   UNL     1       9.355  -5.436   2.738  1.00  0.00    -0.269 OA
BRANCH  30  33
ATOM     33  C   UNL     1       7.410  -6.744   2.840  1.00  0.00     0.039 A 
ATOM     34  C   UNL     1       7.736  -7.522   3.952  1.00  0.00     0.014 A 
ATOM     35  C   UNL     1       6.410  -7.160   1.956  1.00  0.00     0.014 A 
ATOM     36  C   UNL     1       7.018  -8.691   4.211  1.00  0.00     0.010 A 
ATOM     37  C   UNL     1       5.646  -8.284   2.256  1.00  0.00     0.010 A 
ATOM     38  C   UNL     1       5.946  -9.064   3.383  1.00  0.00    -0.014 A 
BRANCH  38  39
ATOM     39  C   UNL     1       5.128 -10.267   3.682  1.00  0.00     0.031 A 
ATOM     40  C   UNL     1       5.106 -11.423   2.721  1.00  0.00     0.074 A 
ATOM     41  C   UNL     1       4.358 -10.291   4.787  1.00  0.00     0.049 A 
ATOM     42  N   UNL     1       4.408 -12.530   2.776  1.00  0.00    -0.248 NA
ATOM     43  C   UNL     1       5.958 -11.310   1.527  1.00  0.00     0.031 C 
ATOM     44  C   UNL     1       4.254  -9.211   5.771  1.00  0.00     0.029 A 
ATOM     45  N   UNL     1       3.506 -11.256   5.263  1.00  0.00    -0.354 N 
ATOM     46  C   UNL     1       4.726 -13.234   1.622  1.00  0.00     0.074 A 
ATOM     47  C   UNL     1       5.638 -12.409   0.860  1.00  0.00     0.031 C 
ATOM     48  C   UNL     1       3.405  -9.582   6.742  1.00  0.00     0.029 A 
ATOM     49  C   UNL     1       2.874 -10.905   6.432  1.00  0.00     0.049 A 
ATOM     50  H   UNL     1       3.361 -12.118   4.810  1.00  0.00     0.167 HD
ATOM     51  C   UNL     1       4.314 -14.467   1.243  1.00  0.00     0.037 A 
ATOM     52  C   UNL     1       1.962 -11.571   7.165  1.00  0.00     0.037 A 
ATOM     53  C   UNL     1       3.427 -15.296   2.016  1.00  0.00     0.049 A 
ATOM     54  C   UNL     1       1.518 -12.937   6.720  1.00  0.00     0.074 A 
ATOM     55  C   UNL     1       3.004 -16.587   1.750  1.00  0.00     0.029 A 
ATOM     56  N   UNL     1       2.823 -14.914   3.204  1.00  0.00    -0.354 N 
ATOM     57  N   UNL     1       1.885 -13.623   5.664  1.00  0.00    -0.248 NA
ATOM     58  C   UNL     1       0.537 -13.625   7.571  1.00  0.00     0.031 C 
ATOM     59  C   UNL     1       2.103 -16.966   2.750  1.00  0.00     0.029 A 
ATOM     60  C   UNL     1       2.009 -15.934   3.670  1.00  0.00     0.049 A 
ATOM     61  H   UNL     1       2.954 -14.046   3.651  1.00  0.00     0.167 HD
ATOM     62  C   UNL     1       1.205 -14.832   5.740  1.00  0.00     0.074 A 
ATOM     63  C   UNL     1       0.414 -14.791   6.952  1.00  0.00     0.031 C 
ATOM     64  C   UNL     1       1.233 -15.881   4.882  1.00  0.00     0.037 A 
BRANCH  51  65
ATOM     65  C   UNL     1       4.819 -14.997  -0.069  1.00  0.00     0.057 A 
ATOM     66  C   UNL     1       6.158 -15.367  -0.252  1.00  0.00     0.134 A 
ATOM     67  C   UNL     1       3.946 -15.178  -1.149  1.00  0.00     0.134 A 
ATOM     68  F   UNL     1       7.049 -15.209   0.738  1.00  0.00    -0.206 F 
ATOM     69  C   UNL     1       6.616 -15.874  -1.470  1.00  0.00     0.040 A 
ATOM     70  C   UNL     1       4.386 -15.712  -2.362  1.00  0.00     0.040 A 
ATOM     71  F   UNL     1       2.650 -14.851  -1.041  1.00  0.00    -0.206 F 
ATOM     72  C   UNL     1       5.726 -16.055  -2.526  1.00  0.00     0.006 A 
ENDBRANCH  51  65
BRANCH  52  73
ATOM     73  C   UNL     1       1.416 -10.963   8.406  1.00  0.00     0.057 A 
ATOM     74  C   UNL     1       1.726 -11.488   9.666  1.00  0.00     0.134 A 
ATOM     75  C   UNL     1       0.563  -9.854   8.362  1.00  0.00     0.134 A 
ATOM     76  F   UNL     1       2.524 -12.561   9.772  1.00  0.00    -0.206 F 
ATOM     77  C   UNL     1       1.190 -10.948  10.836  1.00  0.00     0.040 A 
ATOM     78  C   UNL     1       0.041  -9.287   9.526  1.00  0.00     0.040 A 
ATOM     79  F   UNL     1       0.234  -9.298   7.187  1.00  0.00    -0.206 F 
ATOM     80  C   UNL     1       0.348  -9.840  10.767  1.00  0.00     0.006 A 
ENDBRANCH  52  73
BRANCH  64  81
ATOM     81  C   UNL     1       0.413 -17.086   5.242  1.00  0.00     0.057 A 
ATOM     82  C   UNL     1      -0.986 -17.080   5.173  1.00  0.00     0.134 A 
ATOM     83  C   UNL     1       1.036 -18.281   5.625  1.00  0.00     0.134 A 
ATOM     84  F   UNL     1      -1.645 -15.963   4.826  1.00  0.00    -0.206 F 
ATOM     85  C   UNL     1      -1.737 -18.212   5.495  1.00  0.00     0.040 A 
ATOM     86  C   UNL     1       0.298 -19.428   5.921  1.00  0.00     0.040 A 
ATOM     87  F   UNL     1       2.373 -18.359   5.702  1.00  0.00    -0.206 F 
ATOM     88  C   UNL     1      -1.094 -19.392   5.863  1.00  0.00     0.006 A 
ENDBRANCH  64  81
ENDBRANCH  38  39
ENDBRANCH  30  33
ENDBRANCH  28  29
ENDBRANCH  27  28
ENDBRANCH  26  27
ENDBRANCH   1  26
TORSDOF 16
