REMARK SMILES Cc1cc(C)c2c(c1)C=C(C(=O)NCCCCCCNC(=O)c1ccc(-c3c4nc(c(-c5c(F)cccc5F)c5ccc([nH]5)c(-c5c(F)cccc5F)c5nc(c(-c6c(F)cccc6F)c6ccc3[nH]6)C=C5)C=C4)cc1)[C@@H](C(F)(F)F)O2
REMARK SMILES IDX 17 1 16 2 15 3 14 4 13 5 11 6 12 7 10 9 1 10 2 11 3 12 8 13
REMARK SMILES IDX 4 14 7 15 5 16 6 17 9 18 82 19 77 20 78 21 79 22 80 23 81 24
REMARK SMILES IDX 18 25 19 26 20 27 21 28 22 30 23 31 24 32 76 33 25 34 75 35
REMARK SMILES IDX 26 36 27 37 28 38 69 39 29 40 74 41 68 42 70 43 30 44 73 45
REMARK SMILES IDX 67 46 66 47 31 49 57 50 40 51 56 52 41 53 44 54 55 55 71 56
REMARK SMILES IDX 42 57 43 58 54 60 72 61 45 62 32 63 33 64 38 65 34 66 35 67
REMARK SMILES IDX 37 68 39 69 36 70 58 71 59 72 64 73 60 74 61 75 63 76 65 77
REMARK SMILES IDX 62 78 46 79 47 80 52 81 48 82 49 83 51 84 53 85 50 86
REMARK H PARENT 13 8 20 29 70 48 44 59
REMARK Flexibility Score: inf
ROOT
ATOM      1  C   UNL     1       0.733  12.307   0.236  1.00  0.00     0.002 C 
ENDROOT
BRANCH   1   2
ATOM      2  C   UNL     1       1.482  11.426   1.244  1.00  0.00     0.002 C 
BRANCH   2   3
ATOM      3  C   UNL     1       0.825  10.074   1.530  1.00  0.00     0.021 C 
BRANCH   3   4
ATOM      4  C   UNL     1       0.583   9.244   0.275  1.00  0.00     0.116 C 
BRANCH   4   5
ATOM      5  N   UNL     1       1.756   8.477  -0.099  1.00  0.00    -0.352 N 
ATOM      6  C   UNL     1       2.074   7.172  -0.273  1.00  0.00     0.251 C 
ATOM      7  O   UNL     1       3.233   6.955  -0.640  1.00  0.00    -0.270 OA
ATOM      8  H   UNL     1       2.529   9.062  -0.273  1.00  0.00     0.163 HD
BRANCH   6   9
ATOM      9  C   UNL     1       1.141   6.027  -0.051  1.00  0.00     0.067 C 
ATOM     10  C   UNL     1       1.014  -0.163  -0.002  1.00  0.00     0.044 C 
ATOM     11  C   UNL     1       0.504   1.233   0.202  1.00  0.00    -0.050 A 
ATOM     12  C   UNL     1      -0.820   1.436   0.617  1.00  0.00     0.010 A 
ATOM     13  C   UNL     1       1.324   2.340  -0.056  1.00  0.00     0.015 A 
ATOM     14  C   UNL     1      -1.322   2.728   0.797  1.00  0.00    -0.008 A 
ATOM     15  C   UNL     1       0.836   3.637   0.118  1.00  0.00     0.018 A 
ATOM     16  C   UNL     1      -2.735   2.949   1.256  1.00  0.00     0.048 C 
ATOM     17  C   UNL     1      -0.483   3.818   0.539  1.00  0.00     0.130 A 
ATOM     18  C   UNL     1       1.692   4.800  -0.089  1.00  0.00     0.025 C 
ATOM     19  O   UNL     1      -1.013   5.054   0.766  1.00  0.00    -0.475 OA
ATOM     20  C   UNL     1      -0.334   6.184   0.175  1.00  0.00     0.314 C 
BRANCH  20  21
ATOM     21  C   UNL     1      -1.091   6.615  -1.094  1.00  0.00     0.429 C 
ATOM     22  F   UNL     1      -2.313   7.111  -0.769  1.00  0.00    -0.167 F 
ATOM     23  F   UNL     1      -0.457   7.598  -1.776  1.00  0.00    -0.167 F 
ATOM     24  F   UNL     1      -1.284   5.596  -1.960  1.00  0.00    -0.167 F 
ENDBRANCH  20  21
ENDBRANCH   6   9
ENDBRANCH   4   5
ENDBRANCH   3   4
ENDBRANCH   2   3
ENDBRANCH   1   2
BRANCH   1  25
ATOM     25  C   UNL     1      -0.760  12.494   0.520  1.00  0.00     0.021 C 
BRANCH  25  26
ATOM     26  C   UNL     1      -1.064  13.089   1.890  1.00  0.00     0.116 C 
BRANCH  26  27
ATOM     27  N   UNL     1      -0.459  14.401   2.049  1.00  0.00    -0.352 N 
ATOM     28  C   UNL     1      -1.061  15.605   2.302  1.00  0.00     0.251 C 
ATOM     29  H   UNL     1       0.521  14.428   1.964  1.00  0.00     0.163 HD
ATOM     30  O   UNL     1      -0.433  16.654   2.176  1.00  0.00    -0.269 OA
BRANCH  28  31
ATOM     31  C   UNL     1      -2.475  15.635   2.718  1.00  0.00     0.039 A 
ATOM     32  C   UNL     1      -3.338  16.556   2.121  1.00  0.00     0.014 A 
ATOM     33  C   UNL     1      -2.944  14.757   3.701  1.00  0.00     0.014 A 
ATOM     34  C   UNL     1      -4.685  16.565   2.479  1.00  0.00     0.010 A 
ATOM     35  C   UNL     1      -4.300  14.717   4.001  1.00  0.00     0.010 A 
ATOM     36  C   UNL     1      -5.181  15.629   3.402  1.00  0.00    -0.014 A 
BRANCH  36  37
ATOM     37  C   UNL     1      -6.616  15.612   3.774  1.00  0.00     0.031 A 
ATOM     38  C   UNL     1      -7.028  15.950   5.179  1.00  0.00     0.074 A 
ATOM     39  C   UNL     1      -7.540  15.268   2.856  1.00  0.00     0.049 A 
ATOM     40  N   UNL     1      -8.224  15.955   5.709  1.00  0.00    -0.248 NA
ATOM     41  C   UNL     1      -5.954  16.314   6.120  1.00  0.00     0.031 C 
ATOM     42  C   UNL     1      -7.256  14.896   1.468  1.00  0.00     0.029 A 
ATOM     43  N   UNL     1      -8.906  15.178   2.951  1.00  0.00    -0.354 N 
ATOM     44  C   UNL     1      -8.046  16.326   7.036  1.00  0.00     0.074 A 
ATOM     45  C   UNL     1      -6.625  16.473   7.251  1.00  0.00     0.031 C 
ATOM     46  C   UNL     1      -8.414  14.654   0.833  1.00  0.00     0.029 A 
ATOM     47  C   UNL     1      -9.517  14.812   1.776  1.00  0.00     0.049 A 
ATOM     48  H   UNL     1      -9.401  15.359   3.782  1.00  0.00     0.167 HD
ATOM     49  C   UNL     1      -8.988  16.556   7.979  1.00  0.00     0.037 A 
ATOM     50  C   UNL     1     -10.821  14.624   1.494  1.00  0.00     0.037 A 
ATOM     51  C   UNL     1     -10.403  16.430   7.755  1.00  0.00     0.049 A 
ATOM     52  C   UNL     1     -11.842  14.839   2.579  1.00  0.00     0.074 A 
ATOM     53  C   UNL     1     -11.438  16.669   8.641  1.00  0.00     0.029 A 
ATOM     54  N   UNL     1     -10.981  16.036   6.558  1.00  0.00    -0.354 N 
ATOM     55  N   UNL     1     -11.662  15.233   3.816  1.00  0.00    -0.248 NA
ATOM     56  C   UNL     1     -13.246  14.583   2.229  1.00  0.00     0.031 C 
ATOM     57  C   UNL     1     -12.640  16.375   7.995  1.00  0.00     0.029 A 
ATOM     58  C   UNL     1     -12.358  16.005   6.690  1.00  0.00     0.049 A 
ATOM     59  H   UNL     1     -10.486  15.811   5.737  1.00  0.00     0.167 HD
ATOM     60  C   UNL     1     -12.929  15.302   4.382  1.00  0.00     0.074 A 
ATOM     61  C   UNL     1     -13.870  14.925   3.348  1.00  0.00     0.031 C 
ATOM     62  C   UNL     1     -13.281  15.642   5.645  1.00  0.00     0.037 A 
BRANCH  49  63
ATOM     63  C   UNL     1      -8.529  16.999   9.337  1.00  0.00     0.057 A 
ATOM     64  C   UNL     1      -8.016  18.285   9.551  1.00  0.00     0.134 A 
ATOM     65  C   UNL     1      -8.682  16.169  10.455  1.00  0.00     0.134 A 
ATOM     66  F   UNL     1      -7.832  19.124   8.520  1.00  0.00    -0.206 F 
ATOM     67  C   UNL     1      -7.668  18.729  10.828  1.00  0.00     0.040 A 
ATOM     68  C   UNL     1      -8.363  16.611  11.739  1.00  0.00     0.040 A 
ATOM     69  F   UNL     1      -9.171  14.928  10.319  1.00  0.00    -0.206 F 
ATOM     70  C   UNL     1      -7.854  17.895  11.928  1.00  0.00     0.006 A 
ENDBRANCH  49  63
BRANCH  50  71
ATOM     71  C   UNL     1     -11.242  14.236   0.123  1.00  0.00     0.057 A 
ATOM     72  C   UNL     1     -11.978  15.117  -0.680  1.00  0.00     0.134 A 
ATOM     73  C   UNL     1     -10.936  12.980  -0.414  1.00  0.00     0.134 A 
ATOM     74  F   UNL     1     -12.319  16.328  -0.216  1.00  0.00    -0.206 F 
ATOM     75  C   UNL     1     -12.412  14.756  -1.957  1.00  0.00     0.040 A 
ATOM     76  C   UNL     1     -11.339  12.616  -1.701  1.00  0.00     0.040 A 
ATOM     77  F   UNL     1     -10.229  12.092   0.299  1.00  0.00    -0.206 F 
ATOM     78  C   UNL     1     -12.087  13.503  -2.473  1.00  0.00     0.006 A 
ENDBRANCH  50  71
BRANCH  62  79
ATOM     79  C   UNL     1     -14.743  15.651   5.983  1.00  0.00     0.057 A 
ATOM     80  C   UNL     1     -15.473  14.465   6.127  1.00  0.00     0.134 A 
ATOM     81  C   UNL     1     -15.407  16.857   6.247  1.00  0.00     0.134 A 
ATOM     82  F   UNL     1     -14.898  13.279   5.880  1.00  0.00    -0.206 F 
ATOM     83  C   UNL     1     -16.814  14.478   6.511  1.00  0.00     0.040 A 
ATOM     84  C   UNL     1     -16.739  16.881   6.660  1.00  0.00     0.040 A 
ATOM     85  F   UNL     1     -14.761  18.028   6.140  1.00  0.00    -0.206 F 
ATOM     86  C   UNL     1     -17.447  15.688   6.790  1.00  0.00     0.006 A 
ENDBRANCH  62  79
ENDBRANCH  36  37
ENDBRANCH  28  31
ENDBRANCH  26  27
ENDBRANCH  25  26
ENDBRANCH   1  25
TORSDOF 14
