REMARK SMILES C[C@@H]1CN(C(=O)NC[C@@H]2CC[C@H](C(=O)NCCCCCCNC(=O)c3ccc(-c4c5nc(c(-c6c(F)cccc6F)c6ccc([nH]6)c(-c6c(F)cccc6F)c6nc(c(-c7c(F)cccc7F)c7ccc4[nH]7)C=C6)C=C5)cc3)O2)CC(C)(C)O1
REMARK SMILES IDX 18 1 17 2 16 3 15 4 13 5 14 6 12 8 9 9 10 10 79 11 11 12
REMARK SMILES IDX 8 13 7 14 5 15 6 16 4 18 1 19 2 20 3 21 84 22 81 23 80 24
REMARK SMILES IDX 82 25 83 26 19 27 20 28 21 29 22 30 23 31 24 33 25 34 26 35
REMARK SMILES IDX 78 36 27 37 77 38 28 39 29 40 30 41 71 42 31 43 76 44 70 45
REMARK SMILES IDX 72 46 32 47 75 48 69 49 68 50 33 52 59 53 42 54 58 55 43 56
REMARK SMILES IDX 46 57 57 58 73 59 44 60 45 61 56 63 74 64 47 65 34 66 35 67
REMARK SMILES IDX 40 68 36 69 37 70 39 71 41 72 38 73 60 74 61 75 66 76 62 77
REMARK SMILES IDX 63 78 65 79 67 80 64 81 48 82 49 83 54 84 50 85 51 86 53 87
REMARK SMILES IDX 55 88 52 89
REMARK H PARENT 15 7 7 17 22 32 72 51 46 62
REMARK Flexibility Score: inf
ROOT
ATOM      1  C   UNL     1       4.705   6.234   4.009  1.00  0.00     0.002 C 
ENDROOT
BRANCH   1   2
ATOM      2  C   UNL     1       4.609   6.392   2.489  1.00  0.00     0.021 C 
BRANCH   2   3
ATOM      3  C   UNL     1       3.210   6.137   1.932  1.00  0.00     0.116 C 
BRANCH   3   4
ATOM      4  N   UNL     1       2.479   7.357   1.678  1.00  0.00    -0.354 N 
ATOM      5  C   UNL     1       1.973   7.815   0.496  1.00  0.00     0.249 C 
ATOM      6  O   UNL     1       1.278   8.836   0.525  1.00  0.00    -0.272 OA
ATOM      7  H   UNL     1       2.326   7.935   2.461  1.00  0.00     0.163 HD
BRANCH   5   8
ATOM      8  C   UNL     1       2.327   7.141  -0.851  1.00  0.00     0.207 C 
ATOM      9  C   UNL     1       3.147   5.174  -1.760  1.00  0.00     0.138 C 
ATOM     10  C   UNL     1       4.371   6.020  -1.452  1.00  0.00     0.037 C 
ATOM     11  O   UNL     1       2.087   5.732  -0.971  1.00  0.00    -0.363 OA
ATOM     12  C   UNL     1       3.780   7.398  -1.252  1.00  0.00     0.045 C 
BRANCH   9  13
ATOM     13  C   UNL     1       3.344   3.664  -1.540  1.00  0.00     0.149 C 
BRANCH  13  14
ATOM     14  N   UNL     1       3.402   3.231  -0.151  1.00  0.00    -0.335 N 
ATOM     15  C   UNL     1       2.533   2.960   0.834  1.00  0.00     0.317 C 
ATOM     16  O   UNL     1       3.053   2.853   1.951  1.00  0.00    -0.249 OA
ATOM     17  H   UNL     1       4.332   3.102   0.146  1.00  0.00     0.165 HD
BRANCH  15  18
ATOM     18  N   UNL     1       1.195   2.807   0.677  1.00  0.00    -0.319 N 
ATOM     19  C   UNL     1       1.118  -0.001  -0.782  1.00  0.00     0.040 C 
ATOM     20  C   UNL     1      -0.005   0.978  -0.448  1.00  0.00     0.135 C 
ATOM     21  C   UNL     1       0.436   2.455  -0.516  1.00  0.00     0.153 C 
ATOM     22  O   UNL     1      -0.660   0.640   0.787  1.00  0.00    -0.369 OA
ATOM     23  C   UNL     1      -0.051   1.117   2.008  1.00  0.00     0.081 C 
ATOM     24  C   UNL     1       0.383   2.599   1.883  1.00  0.00     0.156 C 
ATOM     25  C   UNL     1       1.106   0.208   2.442  1.00  0.00     0.044 C 
ATOM     26  C   UNL     1      -1.153   1.002   3.073  1.00  0.00     0.044 C 
ENDBRANCH  15  18
ENDBRANCH  13  14
ENDBRANCH   9  13
ENDBRANCH   5   8
ENDBRANCH   3   4
ENDBRANCH   2   3
ENDBRANCH   1   2
BRANCH   1  27
ATOM     27  C   UNL     1       4.365   4.835   4.543  1.00  0.00     0.002 C 
BRANCH  27  28
ATOM     28  C   UNL     1       5.221   3.693   3.990  1.00  0.00     0.021 C 
BRANCH  28  29
ATOM     29  C   UNL     1       6.705   3.770   4.322  1.00  0.00     0.116 C 
BRANCH  29  30
ATOM     30  N   UNL     1       6.951   3.746   5.754  1.00  0.00    -0.352 N 
ATOM     31  C   UNL     1       7.686   2.868   6.509  1.00  0.00     0.251 C 
ATOM     32  H   UNL     1       6.524   4.474   6.261  1.00  0.00     0.163 HD
ATOM     33  O   UNL     1       7.607   2.896   7.733  1.00  0.00    -0.269 OA
BRANCH  31  34
ATOM     34  C   UNL     1       8.567   1.875   5.856  1.00  0.00     0.039 A 
ATOM     35  C   UNL     1       8.592   0.569   6.353  1.00  0.00     0.014 A 
ATOM     36  C   UNL     1       9.387   2.231   4.781  1.00  0.00     0.014 A 
ATOM     37  C   UNL     1       9.390  -0.395   5.733  1.00  0.00     0.010 A 
ATOM     38  C   UNL     1      10.130   1.254   4.122  1.00  0.00     0.010 A 
ATOM     39  C   UNL     1      10.136  -0.068   4.590  1.00  0.00    -0.014 A 
BRANCH  39  40
ATOM     40  C   UNL     1      10.907  -1.101   3.855  1.00  0.00     0.031 A 
ATOM     41  C   UNL     1      12.406  -1.023   3.779  1.00  0.00     0.074 A 
ATOM     42  C   UNL     1      10.246  -2.069   3.192  1.00  0.00     0.049 A 
ATOM     43  N   UNL     1      13.240  -1.785   3.119  1.00  0.00    -0.248 NA
ATOM     44  C   UNL     1      13.050   0.071   4.523  1.00  0.00     0.031 C 
ATOM     45  C   UNL     1       8.790  -2.222   3.150  1.00  0.00     0.029 A 
ATOM     46  N   UNL     1      10.711  -3.098   2.412  1.00  0.00    -0.354 N 
ATOM     47  C   UNL     1      14.503  -1.258   3.356  1.00  0.00     0.074 A 
ATOM     48  C   UNL     1      14.322  -0.084   4.183  1.00  0.00     0.031 C 
ATOM     49  C   UNL     1       8.482  -3.291   2.399  1.00  0.00     0.029 A 
ATOM     50  C   UNL     1       9.713  -3.874   1.874  1.00  0.00     0.049 A 
ATOM     51  H   UNL     1      11.668  -3.264   2.253  1.00  0.00     0.167 HD
ATOM     52  C   UNL     1      15.704  -1.722   2.938  1.00  0.00     0.037 A 
ATOM     53  C   UNL     1       9.780  -4.928   1.039  1.00  0.00     0.037 A 
ATOM     54  C   UNL     1      15.881  -2.904   2.135  1.00  0.00     0.049 A 
ATOM     55  C   UNL     1      11.125  -5.413   0.576  1.00  0.00     0.074 A 
ATOM     56  C   UNL     1      17.061  -3.502   1.728  1.00  0.00     0.029 A 
ATOM     57  N   UNL     1      14.846  -3.665   1.611  1.00  0.00    -0.354 N 
ATOM     58  N   UNL     1      12.315  -4.950   0.869  1.00  0.00    -0.248 NA
ATOM     59  C   UNL     1      11.135  -6.565  -0.336  1.00  0.00     0.031 C 
ATOM     60  C   UNL     1      16.740  -4.596   0.917  1.00  0.00     0.029 A 
ATOM     61  C   UNL     1      15.360  -4.706   0.855  1.00  0.00     0.049 A 
ATOM     62  H   UNL     1      13.888  -3.491   1.756  1.00  0.00     0.167 HD
ATOM     63  C   UNL     1      13.216  -5.759   0.191  1.00  0.00     0.074 A 
ATOM     64  C   UNL     1      12.435  -6.756  -0.513  1.00  0.00     0.031 C 
ATOM     65  C   UNL     1      14.569  -5.682   0.152  1.00  0.00     0.037 A 
BRANCH  52  66
ATOM     66  C   UNL     1      16.926  -0.950   3.342  1.00  0.00     0.057 A 
ATOM     67  C   UNL     1      17.391  -0.941   4.663  1.00  0.00     0.134 A 
ATOM     68  C   UNL     1      17.670  -0.239   2.391  1.00  0.00     0.134 A 
ATOM     69  F   UNL     1      16.720  -1.594   5.625  1.00  0.00    -0.206 F 
ATOM     70  C   UNL     1      18.538  -0.234   5.030  1.00  0.00     0.040 A 
ATOM     71  C   UNL     1      18.832   0.451   2.740  1.00  0.00     0.040 A 
ATOM     72  F   UNL     1      17.284  -0.211   1.107  1.00  0.00    -0.206 F 
ATOM     73  C   UNL     1      19.266   0.459   4.065  1.00  0.00     0.006 A 
ENDBRANCH  52  66
BRANCH  53  74
ATOM     74  C   UNL     1       8.534  -5.599   0.593  1.00  0.00     0.057 A 
ATOM     75  C   UNL     1       8.202  -6.879   1.050  1.00  0.00     0.134 A 
ATOM     76  C   UNL     1       7.646  -4.978  -0.293  1.00  0.00     0.134 A 
ATOM     77  F   UNL     1       9.023  -7.532   1.884  1.00  0.00    -0.206 F 
ATOM     78  C   UNL     1       7.037  -7.524   0.632  1.00  0.00     0.040 A 
ATOM     79  C   UNL     1       6.466  -5.601  -0.701  1.00  0.00     0.040 A 
ATOM     80  F   UNL     1       7.905  -3.748  -0.762  1.00  0.00    -0.206 F 
ATOM     81  C   UNL     1       6.162  -6.881  -0.242  1.00  0.00     0.006 A 
ENDBRANCH  53  74
BRANCH  65  82
ATOM     82  C   UNL     1      15.288  -6.704  -0.677  1.00  0.00     0.057 A 
ATOM     83  C   UNL     1      15.279  -6.650  -2.077  1.00  0.00     0.134 A 
ATOM     84  C   UNL     1      16.029  -7.726  -0.072  1.00  0.00     0.134 A 
ATOM     85  F   UNL     1      14.575  -5.704  -2.717  1.00  0.00    -0.206 F 
ATOM     86  C   UNL     1      15.969  -7.589  -2.846  1.00  0.00     0.040 A 
ATOM     87  C   UNL     1      16.743  -8.655  -0.830  1.00  0.00     0.040 A 
ATOM     88  F   UNL     1      16.084  -7.829   1.264  1.00  0.00    -0.206 F 
ATOM     89  C   UNL     1      16.710  -8.590  -2.221  1.00  0.00     0.006 A 
ENDBRANCH  65  82
ENDBRANCH  39  40
ENDBRANCH  31  34
ENDBRANCH  29  30
ENDBRANCH  28  29
ENDBRANCH  27  28
ENDBRANCH   1  27
TORSDOF 16
