REMARK SMILES Cn1c(=O)c(=O)n(C)c2cc(S(=O)(=O)N3CCC[C@H]3C(=O)NCCCCCCNC(=O)c3ccc(-c4c5nc(c(-c6c(F)cccc6F)c6ccc([nH]6)c(-c6c(F)cccc6F)c6nc(c(-c7c(F)cccc7F)c7ccc4[nH]7)C=C6)C=C5)cc3)ccc21
REMARK SMILES IDX 25 1 24 2 23 3 22 4 20 5 21 6 19 8 15 9 16 10 17 11 18 12
REMARK SMILES IDX 12 13 13 14 14 15 11 16 1 17 2 18 3 19 88 20 4 21 5 22 9 23
REMARK SMILES IDX 87 24 6 25 7 26 10 27 86 28 8 29 26 30 27 31 28 32 29 33
REMARK SMILES IDX 30 34 31 36 32 37 33 38 85 39 34 40 84 41 35 42 36 43 37 44
REMARK SMILES IDX 78 45 38 46 83 47 77 48 79 49 39 50 82 51 76 52 75 53 40 55
REMARK SMILES IDX 66 56 49 57 65 58 50 59 53 60 64 61 80 62 51 63 52 64 63 66
REMARK SMILES IDX 81 67 54 68 41 69 42 70 47 71 43 72 44 73 46 74 48 75 45 76
REMARK SMILES IDX 67 77 68 78 73 79 69 80 70 81 72 82 74 83 71 84 55 85 56 86
REMARK SMILES IDX 61 87 57 88 58 89 60 90 62 91 59 92
REMARK H PARENT 22 7 29 35 79 54 53 65
REMARK Flexibility Score: inf
ROOT
ATOM      1  C   UNL     1      -8.066  -0.775  -5.062  1.00  0.00     0.002 C 
ENDROOT
BRANCH   1   2
ATOM      2  C   UNL     1      -6.674  -0.899  -4.440  1.00  0.00     0.021 C 
BRANCH   2   3
ATOM      3  C   UNL     1      -5.537  -0.192  -5.166  1.00  0.00     0.116 C 
BRANCH   3   4
ATOM      4  N   UNL     1      -5.736   1.228  -5.338  1.00  0.00    -0.355 N 
ATOM      5  C   UNL     1      -4.792   2.216  -5.327  1.00  0.00     0.238 C 
ATOM      6  O   UNL     1      -5.123   3.321  -5.764  1.00  0.00    -0.273 OA
ATOM      7  H   UNL     1      -6.665   1.521  -5.481  1.00  0.00     0.163 HD
BRANCH   5   8
ATOM      8  C   UNL     1      -3.388   1.948  -4.754  1.00  0.00     0.162 C 
ATOM      9  N   UNL     1      -2.432   1.527  -5.798  1.00  0.00    -0.185 NA
ATOM     10  C   UNL     1      -1.777   2.709  -6.369  1.00  0.00     0.103 C 
ATOM     11  C   UNL     1      -1.728   3.713  -5.234  1.00  0.00     0.019 C 
ATOM     12  C   UNL     1      -2.788   3.272  -4.229  1.00  0.00     0.032 C 
BRANCH   9  13
ATOM     13  S   UNL     1      -1.743   0.008  -5.910  1.00  0.00     0.243 S 
ATOM     14  O   UNL     1      -0.713   0.035  -6.919  1.00  0.00    -0.207 OA
ATOM     15  O   UNL     1      -2.823  -0.957  -5.981  1.00  0.00    -0.207 OA
BRANCH  13  16
ATOM     16  C   UNL     1      -0.917  -0.331  -4.365  1.00  0.00     0.084 A 
ATOM     17  C   UNL     1       1.155  -0.303   0.353  1.00  0.00     0.154 C 
ATOM     18  N   UNL     1       0.809  -1.326  -0.621  1.00  0.00    -0.305 N 
ATOM     19  C   UNL     1       1.091  -2.644  -0.262  1.00  0.00     0.316 A 
ATOM     20  C   UNL     1       0.258  -0.999  -1.889  1.00  0.00     0.068 A 
ATOM     21  O   UNL     1       1.625  -2.952   0.801  1.00  0.00    -0.263 OA
ATOM     22  C   UNL     1       0.722  -3.753  -1.250  1.00  0.00     0.316 A 
ATOM     23  C   UNL     1      -0.133  -2.021  -2.776  1.00  0.00     0.069 A 
ATOM     24  C   UNL     1       0.099   0.340  -2.290  1.00  0.00     0.030 A 
ATOM     25  O   UNL     1       0.975  -4.916  -0.944  1.00  0.00    -0.263 OA
ATOM     26  N   UNL     1       0.108  -3.384  -2.445  1.00  0.00    -0.305 N 
ATOM     27  C   UNL     1      -0.747  -1.672  -3.994  1.00  0.00     0.050 A 
ATOM     28  C   UNL     1      -0.465   0.672  -3.526  1.00  0.00     0.024 A 
ATOM     29  C   UNL     1      -0.234  -4.444  -3.383  1.00  0.00     0.154 C 
ENDBRANCH  13  16
ENDBRANCH   9  13
ENDBRANCH   5   8
ENDBRANCH   3   4
ENDBRANCH   2   3
ENDBRANCH   1   2
BRANCH   1  30
ATOM     30  C   UNL     1      -8.196  -1.144  -6.542  1.00  0.00     0.002 C 
BRANCH  30  31
ATOM     31  C   UNL     1      -7.657  -2.513  -6.954  1.00  0.00     0.021 C 
BRANCH  31  32
ATOM     32  C   UNL     1      -8.149  -3.703  -6.138  1.00  0.00     0.116 C 
BRANCH  32  33
ATOM     33  N   UNL     1      -9.587  -3.904  -6.202  1.00  0.00    -0.352 N 
ATOM     34  C   UNL     1     -10.293  -5.067  -6.412  1.00  0.00     0.251 C 
ATOM     35  H   UNL     1     -10.133  -3.095  -6.077  1.00  0.00     0.163 HD
ATOM     36  O   UNL     1     -11.515  -5.043  -6.514  1.00  0.00    -0.269 OA
BRANCH  34  37
ATOM     37  C   UNL     1      -9.564  -6.346  -6.571  1.00  0.00     0.039 A 
ATOM     38  C   UNL     1      -8.560  -6.718  -5.673  1.00  0.00     0.014 A 
ATOM     39  C   UNL     1      -9.859  -7.156  -7.670  1.00  0.00     0.014 A 
ATOM     40  C   UNL     1      -7.736  -7.800  -5.972  1.00  0.00     0.010 A 
ATOM     41  C   UNL     1      -9.075  -8.284  -7.929  1.00  0.00     0.010 A 
ATOM     42  C   UNL     1      -7.969  -8.579  -7.116  1.00  0.00    -0.014 A 
BRANCH  42  43
ATOM     43  C   UNL     1      -7.018  -9.661  -7.485  1.00  0.00     0.031 A 
ATOM     44  C   UNL     1      -6.197  -9.551  -8.745  1.00  0.00     0.074 A 
ATOM     45  C   UNL     1      -6.862 -10.725  -6.675  1.00  0.00     0.049 A 
ATOM     46  N   UNL     1      -5.351 -10.409  -9.260  1.00  0.00    -0.248 NA
ATOM     47  C   UNL     1      -6.348  -8.317  -9.534  1.00  0.00     0.031 C 
ATOM     48  C   UNL     1      -7.577 -10.943  -5.417  1.00  0.00     0.029 A 
ATOM     49  N   UNL     1      -6.043 -11.821  -6.786  1.00  0.00    -0.354 N 
ATOM     50  C   UNL     1      -4.896  -9.835 -10.441  1.00  0.00     0.074 A 
ATOM     51  C   UNL     1      -5.569  -8.562 -10.579  1.00  0.00     0.031 C 
ATOM     52  C   UNL     1      -7.148 -12.087  -4.860  1.00  0.00     0.029 A 
ATOM     53  C   UNL     1      -6.171 -12.710  -5.747  1.00  0.00     0.049 A 
ATOM     54  H   UNL     1      -5.423 -11.957  -7.539  1.00  0.00     0.167 HD
ATOM     55  C   UNL     1      -3.993 -10.320 -11.326  1.00  0.00     0.037 A 
ATOM     56  C   UNL     1      -5.587 -13.906  -5.545  1.00  0.00     0.037 A 
ATOM     57  C   UNL     1      -3.289 -11.566 -11.172  1.00  0.00     0.049 A 
ATOM     58  C   UNL     1      -4.619 -14.436  -6.566  1.00  0.00     0.074 A 
ATOM     59  C   UNL     1      -2.323 -12.119 -11.996  1.00  0.00     0.029 A 
ATOM     60  N   UNL     1      -3.472 -12.450 -10.120  1.00  0.00    -0.354 N 
ATOM     61  N   UNL     1      -4.188 -13.873  -7.668  1.00  0.00    -0.248 NA
ATOM     62  C   UNL     1      -4.065 -15.775  -6.318  1.00  0.00     0.031 C 
ATOM     63  C   UNL     1      -1.947 -13.356 -11.461  1.00  0.00     0.029 A 
ATOM     64  C   UNL     1      -2.652 -13.554 -10.286  1.00  0.00     0.049 A 
ATOM     65  H   UNL     1      -4.092 -12.313  -9.368  1.00  0.00     0.167 HD
ATOM     66  C   UNL     1      -3.296 -14.776  -8.230  1.00  0.00     0.074 A 
ATOM     67  C   UNL     1      -3.236 -15.917  -7.341  1.00  0.00     0.031 C 
ATOM     68  C   UNL     1      -2.592 -14.673  -9.383  1.00  0.00     0.037 A 
BRANCH  55  69
ATOM     69  C   UNL     1      -3.715  -9.510 -12.558  1.00  0.00     0.057 A 
ATOM     70  C   UNL     1      -4.180  -9.936 -13.809  1.00  0.00     0.134 A 
ATOM     71  C   UNL     1      -2.935  -8.348 -12.519  1.00  0.00     0.134 A 
ATOM     72  F   UNL     1      -4.927 -11.046 -13.915  1.00  0.00    -0.206 F 
ATOM     73  C   UNL     1      -3.872  -9.240 -14.978  1.00  0.00     0.040 A 
ATOM     74  C   UNL     1      -2.637  -7.631 -13.680  1.00  0.00     0.040 A 
ATOM     75  F   UNL     1      -2.468  -7.881 -11.351  1.00  0.00    -0.206 F 
ATOM     76  C   UNL     1      -3.099  -8.083 -14.916  1.00  0.00     0.006 A 
ENDBRANCH  55  69
BRANCH  56  77
ATOM     77  C   UNL     1      -5.918 -14.708  -4.341  1.00  0.00     0.057 A 
ATOM     78  C   UNL     1      -7.177 -15.302  -4.186  1.00  0.00     0.134 A 
ATOM     79  C   UNL     1      -4.968 -14.937  -3.340  1.00  0.00     0.134 A 
ATOM     80  F   UNL     1      -8.131 -15.118  -5.111  1.00  0.00    -0.206 F 
ATOM     81  C   UNL     1      -7.479 -16.094  -3.079  1.00  0.00     0.040 A 
ATOM     82  C   UNL     1      -5.248 -15.749  -2.240  1.00  0.00     0.040 A 
ATOM     83  F   UNL     1      -3.738 -14.414  -3.445  1.00  0.00    -0.206 F 
ATOM     84  C   UNL     1      -6.509 -16.328  -2.107  1.00  0.00     0.006 A 
ENDBRANCH  56  77
BRANCH  68  85
ATOM     85  C   UNL     1      -1.669 -15.803  -9.723  1.00  0.00     0.057 A 
ATOM     86  C   UNL     1      -0.282 -15.651  -9.605  1.00  0.00     0.134 A 
ATOM     87  C   UNL     1      -2.151 -17.032 -10.192  1.00  0.00     0.134 A 
ATOM     88  F   UNL     1       0.241 -14.496  -9.168  1.00  0.00    -0.206 F 
ATOM     89  C   UNL     1       0.595 -16.681  -9.943  1.00  0.00     0.040 A 
ATOM     90  C   UNL     1      -1.284 -18.078 -10.512  1.00  0.00     0.040 A 
ATOM     91  F   UNL     1      -3.470 -17.244 -10.312  1.00  0.00    -0.206 F 
ATOM     92  C   UNL     1       0.093 -17.902 -10.393  1.00  0.00     0.006 A 
ENDBRANCH  68  85
ENDBRANCH  42  43
ENDBRANCH  34  37
ENDBRANCH  32  33
ENDBRANCH  31  32
ENDBRANCH  30  31
ENDBRANCH   1  30
TORSDOF 15
