REMARK SMILES Cc1cc(/C=C2/C(=O)NC(=S)[NH+]=C2NCCCCCCNC(=O)c2ccc(-c3c4nc(c(-c5c(F)cccc5F)c5ccc([nH]5)c(-c5c(F)cccc5F)c5nc(c(-c6c(F)cccc6F)c6ccc3[nH]6)C=C5)C=C4)cc2)c(C)n1-c1cccc(C(=O)[O-])c1
REMARK SMILES IDX 17 1 16 2 15 3 14 4 5 5 6 6 7 7 13 8 8 9 9 10 12 11 10 12
REMARK SMILES IDX 11 16 4 17 1 18 2 19 3 20 80 21 78 22 79 23 81 24 82 25
REMARK SMILES IDX 89 26 83 27 85 28 84 29 86 30 87 31 88 32 18 33 19 34 20 35
REMARK SMILES IDX 21 36 22 37 23 39 24 40 25 41 77 42 26 43 76 44 27 45 28 46
REMARK SMILES IDX 29 47 70 48 30 49 75 50 69 51 71 52 31 53 74 54 68 55 67 56
REMARK SMILES IDX 32 58 58 59 41 60 57 61 42 62 45 63 56 64 72 65 43 66 44 67
REMARK SMILES IDX 55 69 73 70 46 71 33 72 34 73 39 74 35 75 36 76 38 77 40 78
REMARK SMILES IDX 37 79 59 80 60 81 65 82 61 83 62 84 64 85 66 86 63 87 47 88
REMARK SMILES IDX 48 89 53 90 49 91 50 92 52 93 54 94 51 95
REMARK H PARENT 9 13 12 14 14 15 21 38 71 57 45 68
REMARK Flexibility Score: inf
ROOT
ATOM      1  C   UNL     1      -2.328   1.837   3.107  1.00  0.00     0.003 C 
ENDROOT
BRANCH   1   2
ATOM      2  C   UNL     1      -2.712   0.332   2.954  1.00  0.00     0.037 C 
BRANCH   2   3
ATOM      3  C   UNL     1      -2.314  -0.837   3.865  1.00  0.00     0.194 C 
BRANCH   3   4
ATOM      4  N   UNL     1      -1.722  -0.554   5.151  1.00  0.00    -0.305 N 
ATOM      5  C   UNL     1       0.542  -2.741   4.391  1.00  0.00     0.032 C 
ATOM      6  C   UNL     1      -0.289  -2.680   5.452  1.00  0.00     0.128 C 
ATOM      7  C   UNL     1      -0.302  -3.907   6.289  1.00  0.00     0.319 C 
ATOM      8  C   UNL     1      -1.175  -1.561   5.933  1.00  0.00     0.234 C 
ATOM      9  O   UNL     1       0.048  -5.015   5.896  1.00  0.00    -0.250 OA
ATOM     10  N   UNL     1      -0.730  -3.701   7.564  1.00  0.00    -0.229 N 
ATOM     11  N   UNL     1      -1.540  -1.513   7.189  1.00  0.00    -0.236 N 
ATOM     12  C   UNL     1      -1.230  -2.527   8.056  1.00  0.00     0.295 C 
ATOM     13  H   UNL     1      -0.674  -4.462   8.185  1.00  0.00     0.268 HD
ATOM     14  H   UNL     1      -2.047  -0.735   7.516  1.00  0.00     0.268 HD
ATOM     15  H   UNL     1      -1.705   0.373   5.480  1.00  0.00     0.256 HD
ATOM     16  S   UNL     1      -1.527  -2.457   9.706  1.00  0.00    -0.005 S 
BRANCH   5  17
ATOM     17  C   UNL     1       0.777  -1.802   3.345  1.00  0.00    -0.003 A 
ATOM     18  C   UNL     1       1.235  -0.905  -0.203  1.00  0.00     0.065 C 
ATOM     19  C   UNL     1       0.941  -1.026   1.242  1.00  0.00     0.020 A 
ATOM     20  C   UNL     1       0.918  -2.178   1.993  1.00  0.00     0.031 A 
ATOM     21  N   UNL     1       0.722   0.031   2.102  1.00  0.00    -0.318 N 
ATOM     22  C   UNL     1       0.928  -0.425   3.410  1.00  0.00     0.027 A 
ATOM     23  C   UNL     1       1.092   0.450   4.612  1.00  0.00     0.065 C 
BRANCH  21  24
ATOM     24  C   UNL     1       0.281   1.323   1.737  1.00  0.00     0.046 A 
ATOM     25  C   UNL     1       1.196   2.724   2.395  1.00  0.00     0.026 A 
ATOM     26  C   UNL     1      -1.309   1.594   0.881  1.00  0.00     0.036 A 
ATOM     27  C   UNL     1       0.529   4.363   2.220  1.00  0.00     0.003 A 
ATOM     28  C   UNL     1      -1.959   3.292   0.724  1.00  0.00    -0.001 A 
ATOM     29  C   UNL     1      -1.030   4.668   1.395  1.00  0.00     0.010 A 
BRANCH  28  30
ATOM     30  C   UNL     1      -3.190   3.673   0.033  1.00  0.00     0.072 C 
ATOM     31  O   UNL     1      -3.655   4.797   0.019  1.00  0.00    -0.545 OA
ATOM     32  O   UNL     1      -3.709   2.661  -0.667  1.00  0.00    -0.545 OA
ENDBRANCH  28  30
ENDBRANCH  21  24
ENDBRANCH   5  17
ENDBRANCH   3   4
ENDBRANCH   2   3
ENDBRANCH   1   2
BRANCH   1  33
ATOM     33  C   UNL     1      -0.954   2.801   2.465  1.00  0.00     0.002 C 
BRANCH  33  34
ATOM     34  C   UNL     1       0.070   3.033   0.561  1.00  0.00     0.021 C 
BRANCH  34  35
ATOM     35  C   UNL     1      -0.124   2.256  -1.094  1.00  0.00     0.116 C 
BRANCH  35  36
ATOM     36  N   UNL     1      -0.924   2.831  -2.167  1.00  0.00    -0.352 N 
ATOM     37  C   UNL     1      -1.453   2.225  -3.331  1.00  0.00     0.251 C 
ATOM     38  H   UNL     1      -1.128   3.789  -2.067  1.00  0.00     0.163 HD
ATOM     39  O   UNL     1      -1.946   2.998  -4.160  1.00  0.00    -0.269 OA
BRANCH  37  40
ATOM     40  C   UNL     1      -1.445   0.714  -3.697  1.00  0.00     0.039 A 
ATOM     41  C   UNL     1      -0.363   0.138  -4.354  1.00  0.00     0.014 A 
ATOM     42  C   UNL     1      -2.619  -0.078  -3.798  1.00  0.00     0.014 A 
ATOM     43  C   UNL     1      -0.437  -1.190  -4.974  1.00  0.00     0.010 A 
ATOM     44  C   UNL     1      -2.709  -1.407  -4.494  1.00  0.00     0.010 A 
ATOM     45  C   UNL     1      -1.610  -2.042  -5.119  1.00  0.00    -0.014 A 
BRANCH  45  46
ATOM     46  C   UNL     1      -1.602  -3.165  -6.413  1.00  0.00     0.031 A 
ATOM     47  C   UNL     1      -1.060  -2.271  -7.472  1.00  0.00     0.074 A 
ATOM     48  C   UNL     1      -1.996  -4.431  -6.941  1.00  0.00     0.049 A 
ATOM     49  N   UNL     1      -1.706  -1.163  -7.709  1.00  0.00    -0.248 NA
ATOM     50  C   UNL     1       0.322  -2.286  -7.946  1.00  0.00     0.031 C 
ATOM     51  C   UNL     1      -2.851  -5.473  -6.325  1.00  0.00     0.029 A 
ATOM     52  N   UNL     1      -1.734  -5.128  -8.208  1.00  0.00    -0.354 N 
ATOM     53  C   UNL     1      -0.966  -0.474  -8.628  1.00  0.00     0.074 A 
ATOM     54  C   UNL     1       0.359  -1.080  -8.530  1.00  0.00     0.031 C 
ATOM     55  C   UNL     1      -2.898  -6.636  -7.055  1.00  0.00     0.029 A 
ATOM     56  C   UNL     1      -2.137  -6.542  -8.306  1.00  0.00     0.049 A 
ATOM     57  H   UNL     1      -1.304  -4.666  -8.964  1.00  0.00     0.167 HD
ATOM     58  C   UNL     1      -1.673  -0.132  -9.744  1.00  0.00     0.037 A 
ATOM     59  C   UNL     1      -1.981  -7.525  -9.318  1.00  0.00     0.037 A 
ATOM     60  C   UNL     1      -1.438  -1.060 -10.816  1.00  0.00     0.049 A 
ATOM     61  C   UNL     1      -1.944  -6.774 -10.573  1.00  0.00     0.074 A 
ATOM     62  C   UNL     1      -0.300  -1.698 -11.270  1.00  0.00     0.029 A 
ATOM     63  N   UNL     1      -2.508  -1.813 -11.240  1.00  0.00    -0.354 N 
ATOM     64  N   UNL     1      -3.033  -6.327 -11.116  1.00  0.00    -0.248 NA
ATOM     65  C   UNL     1      -0.729  -6.610 -11.361  1.00  0.00     0.031 C 
ATOM     66  C   UNL     1      -0.697  -3.040 -11.425  1.00  0.00     0.029 A 
ATOM     67  C   UNL     1      -2.079  -3.083 -11.542  1.00  0.00     0.049 A 
ATOM     68  H   UNL     1      -3.436  -1.493 -11.315  1.00  0.00     0.167 HD
ATOM     69  C   UNL     1      -2.568  -5.367 -11.949  1.00  0.00     0.074 A 
ATOM     70  C   UNL     1      -1.208  -5.766 -12.277  1.00  0.00     0.031 C 
ATOM     71  C   UNL     1      -3.055  -4.128 -11.700  1.00  0.00     0.037 A 
BRANCH  58  72
ATOM     72  C   UNL     1      -3.019   0.467  -9.410  1.00  0.00     0.057 A 
ATOM     73  C   UNL     1      -3.191   1.847  -9.510  1.00  0.00     0.134 A 
ATOM     74  C   UNL     1      -4.076  -0.265  -8.824  1.00  0.00     0.134 A 
ATOM     75  F   UNL     1      -2.253   2.604 -10.098  1.00  0.00    -0.206 F 
ATOM     76  C   UNL     1      -4.327   2.480  -8.993  1.00  0.00     0.040 A 
ATOM     77  C   UNL     1      -5.182   0.360  -8.250  1.00  0.00     0.040 A 
ATOM     78  F   UNL     1      -4.045  -1.607  -8.776  1.00  0.00    -0.206 F 
ATOM     79  C   UNL     1      -5.306   1.742  -8.327  1.00  0.00     0.006 A 
ENDBRANCH  58  72
BRANCH  59  80
ATOM     80  C   UNL     1      -2.059  -9.068  -9.749  1.00  0.00     0.057 A 
ATOM     81  C   UNL     1      -2.362  -9.476 -11.109  1.00  0.00     0.134 A 
ATOM     82  C   UNL     1      -1.441 -10.102  -9.035  1.00  0.00     0.134 A 
ATOM     83  F   UNL     1      -3.006  -8.671 -11.966  1.00  0.00    -0.206 F 
ATOM     84  C   UNL     1      -1.978 -10.700 -11.710  1.00  0.00     0.040 A 
ATOM     85  C   UNL     1      -1.081 -11.360  -9.624  1.00  0.00     0.040 A 
ATOM     86  F   UNL     1      -1.087  -9.917  -7.758  1.00  0.00    -0.206 F 
ATOM     87  C   UNL     1      -1.308 -11.648 -10.970  1.00  0.00     0.006 A 
ENDBRANCH  59  80
BRANCH  71  88
ATOM     88  C   UNL     1      -4.547  -4.000 -11.444  1.00  0.00     0.057 A 
ATOM     89  C   UNL     1      -5.340  -4.752 -10.546  1.00  0.00     0.134 A 
ATOM     90  C   UNL     1      -5.247  -3.072 -12.226  1.00  0.00     0.134 A 
ATOM     91  F   UNL     1      -4.818  -5.606  -9.655  1.00  0.00    -0.206 F 
ATOM     92  C   UNL     1      -6.737  -4.634 -10.502  1.00  0.00     0.040 A 
ATOM     93  C   UNL     1      -6.632  -2.904 -12.147  1.00  0.00     0.040 A 
ATOM     94  F   UNL     1      -4.584  -2.284 -13.087  1.00  0.00    -0.206 F 
ATOM     95  C   UNL     1      -7.387  -3.705 -11.301  1.00  0.00     0.006 A 
ENDBRANCH  71  88
ENDBRANCH  45  46
ENDBRANCH  37  40
ENDBRANCH  35  36
ENDBRANCH  34  35
ENDBRANCH  33  34
ENDBRANCH   1  33
TORSDOF 15
