REMARK SMILES O=C(NCCCCCCNC(=O)[C@@H](CO)NC(=O)[C@H]1CCCc2ccccc21)c1ccc(-c2c3nc(c(-c4c(F)cccc4F)c4ccc([nH]4)c(-c4c(F)cccc4F)c4nc(c(-c5c(F)cccc5F)c5ccc2[nH]5)C=C4)C=C3)cc1
REMARK SMILES IDX 6 1 5 2 4 3 3 4 1 5 2 6 29 8 30 9 82 10 31 11 81 12 32 13
REMARK SMILES IDX 33 14 34 15 75 16 35 17 80 18 74 19 76 20 36 21 79 22 73 23
REMARK SMILES IDX 72 24 37 26 63 27 46 28 62 29 47 30 50 31 61 32 77 33 48 34
REMARK SMILES IDX 49 35 60 37 78 38 51 39 38 40 39 41 44 42 40 43 41 44 43 45
REMARK SMILES IDX 45 46 42 47 64 48 65 49 70 50 66 51 67 52 69 53 71 54 68 55
REMARK SMILES IDX 52 56 53 57 58 58 54 59 55 60 57 61 59 62 56 63 7 64 8 65
REMARK SMILES IDX 9 66 10 67 11 68 12 70 13 71 14 72 15 73 16 75 17 76 18 78
REMARK SMILES IDX 19 79 20 80 28 81 21 82 23 83 27 84 22 85 24 86 26 87 25 88
REMARK H PARENT 3 7 76 25 50 36 10 69 15 74 16 77
REMARK Flexibility Score: inf
ROOT
ATOM      1  C   UNL     1      14.712   1.597   0.850  1.00  0.00     0.002 C 
ENDROOT
BRANCH   1   2
ATOM      2  C   UNL     1      16.068   2.192   1.231  1.00  0.00     0.021 C 
BRANCH   2   3
ATOM      3  C   UNL     1      16.386   2.126   2.718  1.00  0.00     0.116 C 
BRANCH   3   4
ATOM      4  N   UNL     1      16.492   0.757   3.193  1.00  0.00    -0.352 N 
ATOM      5  O   UNL     1      17.562  -1.075   3.971  1.00  0.00    -0.269 OA
ATOM      6  C   UNL     1      17.553   0.141   3.808  1.00  0.00     0.251 C 
ATOM      7  H   UNL     1      15.695   0.195   3.056  1.00  0.00     0.163 HD
BRANCH   6   8
ATOM      8  C   UNL     1      18.695   0.960   4.261  1.00  0.00     0.039 A 
ATOM      9  C   UNL     1      18.473   2.142   4.973  1.00  0.00     0.014 A 
ATOM     10  C   UNL     1      19.995   0.538   3.975  1.00  0.00     0.014 A 
ATOM     11  C   UNL     1      19.546   2.963   5.294  1.00  0.00     0.010 A 
ATOM     12  C   UNL     1      21.078   1.324   4.375  1.00  0.00     0.010 A 
ATOM     13  C   UNL     1      20.860   2.550   5.021  1.00  0.00    -0.014 A 
BRANCH  13  14
ATOM     14  C   UNL     1      21.992   3.377   5.504  1.00  0.00     0.031 A 
ATOM     15  C   UNL     1      22.936   4.044   4.547  1.00  0.00     0.074 A 
ATOM     16  C   UNL     1      22.149   3.528   6.834  1.00  0.00     0.049 A 
ATOM     17  N   UNL     1      23.978   4.793   4.809  1.00  0.00    -0.248 NA
ATOM     18  C   UNL     1      22.688   3.842   3.112  1.00  0.00     0.031 C 
ATOM     19  C   UNL     1      21.297   2.913   7.856  1.00  0.00     0.029 A 
ATOM     20  N   UNL     1      23.064   4.248   7.555  1.00  0.00    -0.354 N 
ATOM     21  C   UNL     1      24.519   5.138   3.578  1.00  0.00     0.074 A 
ATOM     22  C   UNL     1      23.705   4.497   2.566  1.00  0.00     0.031 C 
ATOM     23  C   UNL     1      21.703   3.314   9.068  1.00  0.00     0.029 A 
ATOM     24  C   UNL     1      22.881   4.159   8.913  1.00  0.00     0.049 A 
ATOM     25  H   UNL     1      23.782   4.778   7.140  1.00  0.00     0.167 HD
ATOM     26  C   UNL     1      25.594   5.921   3.320  1.00  0.00     0.037 A 
ATOM     27  C   UNL     1      23.595   4.681   9.926  1.00  0.00     0.037 A 
ATOM     28  C   UNL     1      26.391   6.564   4.335  1.00  0.00     0.049 A 
ATOM     29  C   UNL     1      24.795   5.523   9.609  1.00  0.00     0.074 A 
ATOM     30  C   UNL     1      27.479   7.404   4.174  1.00  0.00     0.029 A 
ATOM     31  N   UNL     1      26.188   6.432   5.701  1.00  0.00    -0.354 N 
ATOM     32  N   UNL     1      25.275   5.867   8.439  1.00  0.00    -0.248 NA
ATOM     33  C   UNL     1      25.555   6.046  10.751  1.00  0.00     0.031 C 
ATOM     34  C   UNL     1      27.961   7.746   5.441  1.00  0.00     0.029 A 
ATOM     35  C   UNL     1      27.144   7.158   6.394  1.00  0.00     0.049 A 
ATOM     36  H   UNL     1      25.471   5.901   6.117  1.00  0.00     0.167 HD
ATOM     37  C   UNL     1      26.381   6.661   8.702  1.00  0.00     0.074 A 
ATOM     38  C   UNL     1      26.489   6.763  10.143  1.00  0.00     0.031 C 
ATOM     39  C   UNL     1      27.234   7.251   7.829  1.00  0.00     0.037 A 
BRANCH  26  40
ATOM     40  C   UNL     1      25.986   6.119   1.884  1.00  0.00     0.057 A 
ATOM     41  C   UNL     1      25.235   6.919   1.014  1.00  0.00     0.134 A 
ATOM     42  C   UNL     1      27.164   5.550   1.382  1.00  0.00     0.134 A 
ATOM     43  F   UNL     1      24.092   7.487   1.429  1.00  0.00    -0.206 F 
ATOM     44  C   UNL     1      25.631   7.133  -0.308  1.00  0.00     0.040 A 
ATOM     45  C   UNL     1      27.582   5.774   0.069  1.00  0.00     0.040 A 
ATOM     46  F   UNL     1      27.935   4.778   2.163  1.00  0.00    -0.206 F 
ATOM     47  C   UNL     1      26.813   6.565  -0.781  1.00  0.00     0.006 A 
ENDBRANCH  26  40
BRANCH  27  48
ATOM     48  C   UNL     1      23.195   4.410  11.328  1.00  0.00     0.057 A 
ATOM     49  C   UNL     1      22.683   5.424  12.145  1.00  0.00     0.134 A 
ATOM     50  C   UNL     1      23.305   3.128  11.882  1.00  0.00     0.134 A 
ATOM     51  F   UNL     1      22.567   6.675  11.675  1.00  0.00    -0.206 F 
ATOM     52  C   UNL     1      22.309   5.177  13.466  1.00  0.00     0.040 A 
ATOM     53  C   UNL     1      22.909   2.861  13.192  1.00  0.00     0.040 A 
ATOM     54  F   UNL     1      23.779   2.111  11.146  1.00  0.00    -0.206 F 
ATOM     55  C   UNL     1      22.416   3.890  13.991  1.00  0.00     0.006 A 
ENDBRANCH  27  48
BRANCH  39  56
ATOM     56  C   UNL     1      28.335   8.083   8.414  1.00  0.00     0.057 A 
ATOM     57  C   UNL     1      29.434   7.505   9.061  1.00  0.00     0.134 A 
ATOM     58  C   UNL     1      28.305   9.479   8.307  1.00  0.00     0.134 A 
ATOM     59  F   UNL     1      29.513   6.174   9.210  1.00  0.00    -0.206 F 
ATOM     60  C   UNL     1      30.453   8.289   9.604  1.00  0.00     0.040 A 
ATOM     61  C   UNL     1      29.331  10.271   8.822  1.00  0.00     0.040 A 
ATOM     62  F   UNL     1      27.283  10.094   7.693  1.00  0.00    -0.206 F 
ATOM     63  C   UNL     1      30.406   9.676   9.479  1.00  0.00     0.006 A 
ENDBRANCH  39  56
ENDBRANCH  13  14
ENDBRANCH   6   8
ENDBRANCH   3   4
ENDBRANCH   2   3
ENDBRANCH   1   2
BRANCH   1  64
ATOM     64  C   UNL     1      13.515   2.187   1.601  1.00  0.00     0.002 C 
BRANCH  64  65
ATOM     65  C   UNL     1      13.425   3.716   1.574  1.00  0.00     0.021 C 
BRANCH  65  66
ATOM     66  C   UNL     1      13.373   4.312   0.167  1.00  0.00     0.116 C 
BRANCH  66  67
ATOM     67  N   UNL     1      12.108   4.004  -0.475  1.00  0.00    -0.354 N 
ATOM     68  C   UNL     1      11.029   4.790  -0.737  1.00  0.00     0.244 C 
ATOM     69  H   UNL     1      12.016   3.069  -0.769  1.00  0.00     0.163 HD
ATOM     70  O   UNL     1       9.958   4.215  -0.963  1.00  0.00    -0.273 OA
BRANCH  68  71
ATOM     71  C   UNL     1      11.074   6.326  -0.670  1.00  0.00     0.197 C 
BRANCH  71  72
ATOM     72  C   UNL     1      10.951   6.844   0.776  1.00  0.00     0.191 C 
BRANCH  72  73
ATOM     73  O   UNL     1      12.062   6.529   1.606  1.00  0.00    -0.394 OA
ATOM     74  H   UNL     1      12.142   5.566   1.687  1.00  0.00     0.210 HD
ENDBRANCH  72  73
ENDBRANCH  71  72
BRANCH  71  75
ATOM     75  N   UNL     1      12.198   6.886  -1.426  1.00  0.00    -0.342 N 
ATOM     76  C   UNL     1      12.214   7.785  -2.455  1.00  0.00     0.228 C 
ATOM     77  H   UNL     1      13.085   6.561  -1.148  1.00  0.00     0.164 HD
ATOM     78  O   UNL     1      13.299   7.958  -3.015  1.00  0.00    -0.274 OA
BRANCH  76  79
ATOM     79  C   UNL     1      10.927   8.541  -2.843  1.00  0.00     0.109 C 
ATOM     80  C   UNL     1      10.524   9.437  -1.654  1.00  0.00     0.018 C 
ATOM     81  C   UNL     1      11.044   9.299  -4.168  1.00  0.00    -0.032 A 
ATOM     82  C   UNL     1       9.674  10.633  -2.040  1.00  0.00     0.006 C 
ATOM     83  C   UNL     1      10.787  10.682  -4.260  1.00  0.00    -0.044 A 
ATOM     84  C   UNL     1      11.352   8.596  -5.346  1.00  0.00     0.005 A 
ATOM     85  C   UNL     1      10.420  11.491  -3.046  1.00  0.00     0.036 C 
ATOM     86  C   UNL     1      10.897  11.336  -5.497  1.00  0.00     0.004 A 
ATOM     87  C   UNL     1      11.440   9.253  -6.575  1.00  0.00     0.000 A 
ATOM     88  C   UNL     1      11.218  10.624  -6.649  1.00  0.00     0.000 A 
ENDBRANCH  76  79
ENDBRANCH  71  75
ENDBRANCH  68  71
ENDBRANCH  66  67
ENDBRANCH  65  66
ENDBRANCH  64  65
ENDBRANCH   1  64
TORSDOF 17
