REMARK SMILES Cc1c(NC(=O)c2cccc(-c3cc4ccccc4oc3=O)c2)cccc1C(=O)NCCCCCCNC(=O)c1ccc(-c2c3nc(c(-c4c(F)cccc4F)c4ccc([nH]4)c(-c4c(F)cccc4F)c4nc(c(-c5c(F)cccc5F)c5ccc2[nH]5)C=C4)C=C3)cc1
REMARK SMILES IDX 33 1 32 2 31 3 30 4 28 5 29 6 27 8 1 9 2 10 3 11 24 12 26 13
REMARK SMILES IDX 25 14 4 15 5 16 6 18 7 19 8 20 23 21 9 22 11 23 10 24 12 25
REMARK SMILES IDX 13 26 21 27 14 28 20 29 22 30 15 31 19 32 16 33 18 34 17 35
REMARK SMILES IDX 34 36 35 37 36 38 37 39 38 40 39 42 40 43 41 44 93 45 42 46
REMARK SMILES IDX 92 47 43 48 44 49 45 50 86 51 46 52 91 53 85 54 87 55 47 56
REMARK SMILES IDX 90 57 84 58 83 59 48 61 74 62 57 63 73 64 58 65 61 66 72 67
REMARK SMILES IDX 88 68 59 69 60 70 71 72 89 73 62 74 49 75 50 76 55 77 51 78
REMARK SMILES IDX 52 79 54 80 56 81 53 82 75 83 76 84 81 85 77 86 78 87 80 88
REMARK SMILES IDX 82 89 79 90 63 91 64 92 69 93 65 94 66 95 68 96 70 97 67 98
REMARK H PARENT 30 7 4 17 37 41 87 60 61 71
REMARK Flexibility Score: inf
ROOT
ATOM      1  C   UNL     1       5.351   2.870  -0.705  1.00  0.00     0.002 C 
ENDROOT
BRANCH   1   2
ATOM      2  C   UNL     1       4.246   1.837  -0.445  1.00  0.00     0.021 C 
BRANCH   2   3
ATOM      3  C   UNL     1       3.374   2.082   0.800  1.00  0.00     0.116 C 
BRANCH   3   4
ATOM      4  N   UNL     1       2.107   2.670   0.417  1.00  0.00    -0.352 N 
ATOM      5  C   UNL     1       0.805   2.268   0.319  1.00  0.00     0.251 C 
ATOM      6  O   UNL     1       0.048   3.151  -0.108  1.00  0.00    -0.269 OA
ATOM      7  H   UNL     1       2.213   3.613   0.157  1.00  0.00     0.163 HD
BRANCH   5   8
ATOM      8  C   UNL     1       0.183   0.942   0.674  1.00  0.00     0.044 A 
ATOM      9  C   UNL     1       2.072  -0.681   0.042  1.00  0.00     0.047 C 
ATOM     10  C   UNL     1       0.697  -0.372   0.558  1.00  0.00    -0.015 A 
ATOM     11  C   UNL     1      -0.162  -1.483   0.823  1.00  0.00     0.045 A 
ATOM     12  C   UNL     1      -1.508  -1.294   1.145  1.00  0.00     0.026 A 
ATOM     13  C   UNL     1      -1.188   1.079   1.012  1.00  0.00     0.014 A 
ATOM     14  C   UNL     1      -2.025  -0.014   1.228  1.00  0.00     0.003 A 
BRANCH  11  15
ATOM     15  N   UNL     1       0.366  -2.790   0.778  1.00  0.00    -0.322 N 
ATOM     16  C   UNL     1      -0.209  -3.991   0.423  1.00  0.00     0.255 C 
ATOM     17  H   UNL     1       1.311  -2.856   1.046  1.00  0.00     0.170 HD
ATOM     18  O   UNL     1       0.321  -5.037   0.800  1.00  0.00    -0.269 OA
BRANCH  16  19
ATOM     19  C   UNL     1      -1.354  -4.070  -0.532  1.00  0.00     0.040 A 
ATOM     20  C   UNL     1      -2.138  -5.229  -0.544  1.00  0.00     0.014 A 
ATOM     21  C   UNL     1      -1.563  -3.097  -1.518  1.00  0.00     0.022 A 
ATOM     22  C   UNL     1      -3.140  -5.390  -1.503  1.00  0.00     0.001 A 
ATOM     23  C   UNL     1      -2.571  -3.240  -2.485  1.00  0.00    -0.010 A 
ATOM     24  C   UNL     1      -3.358  -4.399  -2.463  1.00  0.00     0.009 A 
BRANCH  23  25
ATOM     25  C   UNL     1      -2.750  -2.286  -3.612  1.00  0.00     0.068 A 
ATOM     26  C   UNL     1      -2.624  -0.948  -3.462  1.00  0.00     0.028 A 
ATOM     27  C   UNL     1      -2.121  -2.738  -4.895  1.00  0.00     0.344 A 
ATOM     28  C   UNL     1      -1.218  -0.490  -3.541  1.00  0.00     0.018 A 
ATOM     29  O   UNL     1      -0.778  -2.376  -5.016  1.00  0.00    -0.422 OA
ATOM     30  O   UNL     1      -2.707  -3.445  -5.704  1.00  0.00    -0.246 OA
ATOM     31  C   UNL     1      -0.767   0.660  -2.902  1.00  0.00     0.012 A 
ATOM     32  C   UNL     1      -0.310  -1.285  -4.252  1.00  0.00     0.138 A 
ATOM     33  C   UNL     1       0.595   0.971  -2.941  1.00  0.00     0.001 A 
ATOM     34  C   UNL     1       1.051  -1.010  -4.255  1.00  0.00     0.048 A 
ATOM     35  C   UNL     1       1.505   0.123  -3.583  1.00  0.00     0.004 A 
ENDBRANCH  23  25
ENDBRANCH  16  19
ENDBRANCH  11  15
ENDBRANCH   5   8
ENDBRANCH   3   4
ENDBRANCH   2   3
ENDBRANCH   1   2
BRANCH   1  36
ATOM     36  C   UNL     1       6.375   3.081   0.422  1.00  0.00     0.002 C 
BRANCH  36  37
ATOM     37  C   UNL     1       6.932   1.809   1.065  1.00  0.00     0.021 C 
BRANCH  37  38
ATOM     38  C   UNL     1       7.927   1.058   0.186  1.00  0.00     0.116 C 
BRANCH  38  39
ATOM     39  N   UNL     1       9.319   1.376   0.484  1.00  0.00    -0.352 N 
ATOM     40  C   UNL     1      10.465   1.051  -0.211  1.00  0.00     0.251 C 
ATOM     41  H   UNL     1       9.462   1.901   1.305  1.00  0.00     0.163 HD
ATOM     42  O   UNL     1      11.564   1.401   0.219  1.00  0.00    -0.269 OA
BRANCH  40  43
ATOM     43  C   UNL     1      10.367   0.395  -1.535  1.00  0.00     0.039 A 
ATOM     44  C   UNL     1      11.146   0.904  -2.581  1.00  0.00     0.014 A 
ATOM     45  C   UNL     1       9.408  -0.583  -1.790  1.00  0.00     0.014 A 
ATOM     46  C   UNL     1      10.800   0.612  -3.898  1.00  0.00     0.010 A 
ATOM     47  C   UNL     1       9.011  -0.810  -3.095  1.00  0.00     0.010 A 
ATOM     48  C   UNL     1       9.662  -0.157  -4.145  1.00  0.00    -0.014 A 
BRANCH  48  49
ATOM     49  C   UNL     1       9.016  -0.224  -5.451  1.00  0.00     0.031 A 
ATOM     50  C   UNL     1       9.169  -1.411  -6.316  1.00  0.00     0.074 A 
ATOM     51  C   UNL     1       8.231   0.802  -5.848  1.00  0.00     0.049 A 
ATOM     52  N   UNL     1       8.989  -1.404  -7.595  1.00  0.00    -0.248 NA
ATOM     53  C   UNL     1       9.576  -2.710  -5.796  1.00  0.00     0.031 C 
ATOM     54  C   UNL     1       7.329   0.843  -6.996  1.00  0.00     0.029 A 
ATOM     55  N   UNL     1       8.288   2.130  -5.403  1.00  0.00    -0.354 N 
ATOM     56  C   UNL     1       9.031  -2.706  -8.035  1.00  0.00     0.074 A 
ATOM     57  C   UNL     1       9.430  -3.479  -6.880  1.00  0.00     0.031 C 
ATOM     58  C   UNL     1       7.163   2.123  -7.363  1.00  0.00     0.029 A 
ATOM     59  C   UNL     1       8.058   2.926  -6.547  1.00  0.00     0.049 A 
ATOM     60  H   UNL     1       8.454   2.442  -4.484  1.00  0.00     0.167 HD
ATOM     61  C   UNL     1       8.631  -3.004  -9.305  1.00  0.00     0.037 A 
ATOM     62  C   UNL     1       9.029   3.758  -7.022  1.00  0.00     0.037 A 
ATOM     63  C   UNL     1       8.290  -1.806 -10.063  1.00  0.00     0.049 A 
ATOM     64  C   UNL     1       9.498   3.449  -8.428  1.00  0.00     0.074 A 
ATOM     65  C   UNL     1       7.106  -1.137 -10.329  1.00  0.00     0.029 A 
ATOM     66  N   UNL     1       9.307  -0.948 -10.436  1.00  0.00    -0.354 N 
ATOM     67  N   UNL     1       9.115   2.413  -9.122  1.00  0.00    -0.248 NA
ATOM     68  C   UNL     1      10.518   4.238  -9.123  1.00  0.00     0.031 C 
ATOM     69  C   UNL     1       7.431   0.158 -10.822  1.00  0.00     0.029 A 
ATOM     70  C   UNL     1       8.808   0.268 -10.861  1.00  0.00     0.049 A 
ATOM     71  H   UNL     1      10.265  -1.174 -10.402  1.00  0.00     0.167 HD
ATOM     72  C   UNL     1       9.842   2.355 -10.279  1.00  0.00     0.074 A 
ATOM     73  C   UNL     1      10.701   3.522 -10.245  1.00  0.00     0.031 C 
ATOM     74  C   UNL     1       9.735   1.336 -11.174  1.00  0.00     0.037 A 
BRANCH  61  75
ATOM     75  C   UNL     1       8.344  -4.404  -9.779  1.00  0.00     0.057 A 
ATOM     76  C   UNL     1       7.310  -4.655 -10.702  1.00  0.00     0.134 A 
ATOM     77  C   UNL     1       9.022  -5.551  -9.334  1.00  0.00     0.134 A 
ATOM     78  F   UNL     1       6.634  -3.660 -11.289  1.00  0.00    -0.206 F 
ATOM     79  C   UNL     1       6.909  -5.948 -11.060  1.00  0.00     0.040 A 
ATOM     80  C   UNL     1       8.595  -6.852  -9.637  1.00  0.00     0.040 A 
ATOM     81  F   UNL     1      10.155  -5.459  -8.623  1.00  0.00    -0.206 F 
ATOM     82  C   UNL     1       7.523  -7.054 -10.494  1.00  0.00     0.006 A 
ENDBRANCH  61  75
BRANCH  62  83
ATOM     83  C   UNL     1       9.894   4.319  -5.951  1.00  0.00     0.057 A 
ATOM     84  C   UNL     1       9.304   5.108  -4.946  1.00  0.00     0.134 A 
ATOM     85  C   UNL     1      11.178   3.830  -5.704  1.00  0.00     0.134 A 
ATOM     86  F   UNL     1       8.070   5.610  -5.117  1.00  0.00    -0.206 F 
ATOM     87  C   UNL     1       9.917   5.303  -3.707  1.00  0.00     0.040 A 
ATOM     88  C   UNL     1      11.810   4.035  -4.473  1.00  0.00     0.040 A 
ATOM     89  F   UNL     1      11.799   3.053  -6.603  1.00  0.00    -0.206 F 
ATOM     90  C   UNL     1      11.164   4.738  -3.458  1.00  0.00     0.006 A 
ENDBRANCH  62  83
BRANCH  74  91
ATOM     91  C   UNL     1      10.522   1.298 -12.440  1.00  0.00     0.057 A 
ATOM     92  C   UNL     1      10.487   2.352 -13.361  1.00  0.00     0.134 A 
ATOM     93  C   UNL     1      11.234   0.150 -12.825  1.00  0.00     0.134 A 
ATOM     94  F   UNL     1       9.810   3.478 -13.088  1.00  0.00    -0.206 F 
ATOM     95  C   UNL     1      11.134   2.273 -14.597  1.00  0.00     0.040 A 
ATOM     96  C   UNL     1      11.855   0.045 -14.071  1.00  0.00     0.040 A 
ATOM     97  F   UNL     1      11.361  -0.899 -11.998  1.00  0.00    -0.206 F 
ATOM     98  C   UNL     1      11.808   1.111 -14.962  1.00  0.00     0.006 A 
ENDBRANCH  74  91
ENDBRANCH  48  49
ENDBRANCH  40  43
ENDBRANCH  38  39
ENDBRANCH  37  38
ENDBRANCH  36  37
ENDBRANCH   1  36
TORSDOF 16
