REMARK SMILES [N-]=[N+]=NC[C@H](NC=O)C(=O)NCCCCCCNC(=O)c1ccc(-c2c3nc(c(-c4c(F)cccc4F)c4ccc([nH]4)c(-c4c(F)cccc4F)c4nc(c(-c5c(F)cccc5F)c5ccc2[nH]5)C=C4)C=C3)cc1
REMARK SMILES IDX 14 1 13 2 12 3 11 4 9 5 10 6 5 8 4 9 3 10 1 11 2 12 6 13
REMARK SMILES IDX 7 14 8 16 15 17 16 18 17 19 18 20 19 21 20 23 21 24 22 25
REMARK SMILES IDX 74 26 23 27 73 28 24 29 25 30 26 31 67 32 27 33 72 34 66 35
REMARK SMILES IDX 68 36 28 37 71 38 65 39 64 40 29 42 55 43 38 44 54 45 39 46
REMARK SMILES IDX 42 47 53 48 69 49 40 50 41 51 52 53 70 54 43 55 30 56 31 57
REMARK SMILES IDX 36 58 32 59 33 60 35 61 37 62 34 63 56 64 57 65 62 66 58 67
REMARK SMILES IDX 59 68 61 69 63 70 60 71 44 72 45 73 50 74 46 75 47 76 49 77
REMARK SMILES IDX 51 78 48 79
REMARK H PARENT 11 7 6 15 18 22 68 41 42 52
REMARK Flexibility Score: inf
ROOT
ATOM      1  C   UNL     1       5.045   4.538  -4.034  1.00  0.00     0.002 C 
ENDROOT
BRANCH   1   2
ATOM      2  C   UNL     1       4.496   3.760  -2.832  1.00  0.00     0.021 C 
BRANCH   2   3
ATOM      3  C   UNL     1       3.590   2.592  -3.207  1.00  0.00     0.116 C 
BRANCH   3   4
ATOM      4  N   UNL     1       4.322   1.552  -3.906  1.00  0.00    -0.354 N 
ATOM      5  C   UNL     1       4.503   0.238  -3.598  1.00  0.00     0.242 C 
ATOM      6  O   UNL     1       5.114  -0.462  -4.410  1.00  0.00    -0.273 OA
ATOM      7  H   UNL     1       4.759   1.844  -4.738  1.00  0.00     0.163 HD
BRANCH   5   8
ATOM      8  C   UNL     1       3.842  -0.402  -2.366  1.00  0.00     0.176 C 
BRANCH   8   9
ATOM      9  C   UNL     1       2.335  -0.552  -2.638  1.00  0.00     0.125 C 
BRANCH   9  10
ATOM     10  N   UNL     1       1.636  -1.119  -1.471  1.00  0.00    -0.091 NA
ATOM     11  N   UNL     1       1.848  -3.478  -1.206  1.00  0.00    -0.003 NA
ATOM     12  N   UNL     1       1.739  -2.349  -1.327  1.00  0.00     0.001 N 
ENDBRANCH   9  10
ENDBRANCH   8   9
BRANCH   8  13
ATOM     13  N   UNL     1       4.122   0.325  -1.134  1.00  0.00    -0.347 N 
ATOM     14  C   UNL     1       5.320   0.274  -0.488  1.00  0.00     0.337 C 
ATOM     15  H   UNL     1       3.407   0.882  -0.748  1.00  0.00     0.164 HD
ATOM     16  O   UNL     1       5.528   0.869   0.560  1.00  0.00    -0.279 OA
ENDBRANCH   8  13
ENDBRANCH   5   8
ENDBRANCH   3   4
ENDBRANCH   2   3
ENDBRANCH   1   2
BRANCH   1  17
ATOM     17  C   UNL     1       3.982   5.087  -4.992  1.00  0.00     0.002 C 
BRANCH  17  18
ATOM     18  C   UNL     1       2.908   5.960  -4.339  1.00  0.00     0.021 C 
BRANCH  18  19
ATOM     19  C   UNL     1       3.446   7.166  -3.576  1.00  0.00     0.116 C 
BRANCH  19  20
ATOM     20  N   UNL     1       4.179   8.076  -4.439  1.00  0.00    -0.352 N 
ATOM     21  C   UNL     1       4.018   9.424  -4.630  1.00  0.00     0.251 C 
ATOM     22  H   UNL     1       4.900   7.663  -4.967  1.00  0.00     0.163 HD
ATOM     23  O   UNL     1       4.599   9.985  -5.554  1.00  0.00    -0.269 OA
BRANCH  21  24
ATOM     24  C   UNL     1       3.128  10.202  -3.741  1.00  0.00     0.039 A 
ATOM     25  C   UNL     1       2.303  11.176  -4.308  1.00  0.00     0.014 A 
ATOM     26  C   UNL     1       3.115   9.992  -2.358  1.00  0.00     0.014 A 
ATOM     27  C   UNL     1       1.430  11.901  -3.496  1.00  0.00     0.010 A 
ATOM     28  C   UNL     1       2.184  10.656  -1.562  1.00  0.00     0.010 A 
ATOM     29  C   UNL     1       1.336  11.622  -2.122  1.00  0.00    -0.014 A 
BRANCH  29  30
ATOM     30  C   UNL     1       0.335  12.325  -1.278  1.00  0.00     0.031 A 
ATOM     31  C   UNL     1       0.768  13.215  -0.147  1.00  0.00     0.074 A 
ATOM     32  C   UNL     1      -0.977  12.130  -1.517  1.00  0.00     0.049 A 
ATOM     33  N   UNL     1       0.032  13.922   0.675  1.00  0.00    -0.248 NA
ATOM     34  C   UNL     1       2.212  13.306   0.114  1.00  0.00     0.031 C 
ATOM     35  C   UNL     1      -1.525  11.242  -2.544  1.00  0.00     0.029 A 
ATOM     36  N   UNL     1      -2.087  12.668  -0.917  1.00  0.00    -0.354 N 
ATOM     37  C   UNL     1       0.921  14.534   1.549  1.00  0.00     0.074 A 
ATOM     38  C   UNL     1       2.245  14.068   1.197  1.00  0.00     0.031 C 
ATOM     39  C   UNL     1      -2.864  11.325  -2.528  1.00  0.00     0.029 A 
ATOM     40  C   UNL     1      -3.271  12.239  -1.466  1.00  0.00     0.049 A 
ATOM     41  H   UNL     1      -2.040  13.301  -0.164  1.00  0.00     0.167 HD
ATOM     42  C   UNL     1       0.661  15.422   2.539  1.00  0.00     0.037 A 
ATOM     43  C   UNL     1      -4.543  12.545  -1.150  1.00  0.00     0.037 A 
ATOM     44  C   UNL     1      -0.659  15.887   2.881  1.00  0.00     0.049 A 
ATOM     45  C   UNL     1      -4.806  13.529  -0.044  1.00  0.00     0.074 A 
ATOM     46  C   UNL     1      -1.022  16.834   3.823  1.00  0.00     0.029 A 
ATOM     47  N   UNL     1      -1.835  15.429   2.304  1.00  0.00    -0.354 N 
ATOM     48  N   UNL     1      -3.951  14.170   0.714  1.00  0.00    -0.248 NA
ATOM     49  C   UNL     1      -6.213  13.838   0.241  1.00  0.00     0.031 C 
ATOM     50  C   UNL     1      -2.419  16.901   3.862  1.00  0.00     0.029 A 
ATOM     51  C   UNL     1      -2.926  16.047   2.896  1.00  0.00     0.049 A 
ATOM     52  H   UNL     1      -1.887  14.764   1.581  1.00  0.00     0.167 HD
ATOM     53  C   UNL     1      -4.713  14.974   1.552  1.00  0.00     0.074 A 
ATOM     54  C   UNL     1      -6.098  14.758   1.188  1.00  0.00     0.031 C 
ATOM     55  C   UNL     1      -4.303  15.814   2.535  1.00  0.00     0.037 A 
BRANCH  42  56
ATOM     56  C   UNL     1       1.829  15.939   3.332  1.00  0.00     0.057 A 
ATOM     57  C   UNL     1       2.800  16.777   2.766  1.00  0.00     0.134 A 
ATOM     58  C   UNL     1       1.971  15.618   4.688  1.00  0.00     0.134 A 
ATOM     59  F   UNL     1       2.733  17.119   1.470  1.00  0.00    -0.206 F 
ATOM     60  C   UNL     1       3.885  17.248   3.509  1.00  0.00     0.040 A 
ATOM     61  C   UNL     1       3.033  16.109   5.450  1.00  0.00     0.040 A 
ATOM     62  F   UNL     1       1.076  14.828   5.299  1.00  0.00    -0.206 F 
ATOM     63  C   UNL     1       4.000  16.919   4.858  1.00  0.00     0.006 A 
ENDBRANCH  42  56
BRANCH  43  64
ATOM     64  C   UNL     1      -5.662  11.926  -1.905  1.00  0.00     0.057 A 
ATOM     65  C   UNL     1      -6.471  12.686  -2.757  1.00  0.00     0.134 A 
ATOM     66  C   UNL     1      -5.946  10.559  -1.797  1.00  0.00     0.134 A 
ATOM     67  F   UNL     1      -6.261  14.004  -2.891  1.00  0.00    -0.206 F 
ATOM     68  C   UNL     1      -7.534  12.115  -3.459  1.00  0.00     0.040 A 
ATOM     69  C   UNL     1      -6.986   9.969  -2.516  1.00  0.00     0.040 A 
ATOM     70  F   UNL     1      -5.201   9.773  -1.006  1.00  0.00    -0.206 F 
ATOM     71  C   UNL     1      -7.789  10.750  -3.344  1.00  0.00     0.006 A 
ENDBRANCH  43  64
BRANCH  55  72
ATOM     72  C   UNL     1      -5.370  16.575   3.272  1.00  0.00     0.057 A 
ATOM     73  C   UNL     1      -6.276  15.941   4.132  1.00  0.00     0.134 A 
ATOM     74  C   UNL     1      -5.486  17.964   3.126  1.00  0.00     0.134 A 
ATOM     75  F   UNL     1      -6.230  14.611   4.309  1.00  0.00    -0.206 F 
ATOM     76  C   UNL     1      -7.282  16.653   4.788  1.00  0.00     0.040 A 
ATOM     77  C   UNL     1      -6.465  18.691   3.803  1.00  0.00     0.040 A 
ATOM     78  F   UNL     1      -4.645  18.639   2.327  1.00  0.00    -0.206 F 
ATOM     79  C   UNL     1      -7.375  18.034   4.628  1.00  0.00     0.006 A 
ENDBRANCH  55  72
ENDBRANCH  29  30
ENDBRANCH  21  24
ENDBRANCH  19  20
ENDBRANCH  18  19
ENDBRANCH  17  18
ENDBRANCH   1  17
TORSDOF 16
