REMARK SMILES CC1(C)O[C@@H]2C[C@@H]3[C@H]4CCC5=CC(=O)C=C[C@@]5(C)[C@]4(F)[C@H](O)C[C@]3(C)[C@]2(C(=O)NCCCCCCNC(=O)c2ccc(-c3c4nc(c(-c5c(F)cccc5F)c5ccc([nH]5)c(-c5c(F)cccc5F)c5nc(c(-c6c(F)cccc6F)c6ccc3[nH]6)C=C5)C=C4)cc2)O1
REMARK SMILES IDX 33 1 32 2 31 3 30 4 29 5 27 6 28 7 26 9 1 10 2 11 4 12 93 13
REMARK SMILES IDX 3 14 5 15 6 16 24 17 7 18 23 19 25 20 8 21 21 22 9 23 19 24
REMARK SMILES IDX 10 25 17 26 20 27 11 28 16 29 18 30 12 31 15 32 13 33 14 34
REMARK SMILES IDX 22 35 34 37 35 38 36 39 37 40 38 42 39 43 40 44 92 45 41 46
REMARK SMILES IDX 91 47 42 48 43 49 44 50 85 51 45 52 90 53 84 54 86 55 46 56
REMARK SMILES IDX 89 57 83 58 82 59 47 61 73 62 56 63 72 64 57 65 60 66 71 67
REMARK SMILES IDX 87 68 58 69 59 70 70 72 88 73 61 74 48 75 49 76 54 77 50 78
REMARK SMILES IDX 51 79 53 80 55 81 52 82 74 83 75 84 80 85 76 86 77 87 79 88
REMARK SMILES IDX 81 89 78 90 62 91 63 92 68 93 64 94 65 95 67 96 69 97 66 98
REMARK H PARENT 29 8 22 36 36 41 86 60 60 71
REMARK Flexibility Score: inf
ROOT
ATOM      1  C   UNL     1       3.432  -3.372   5.471  1.00  0.00     0.002 C 
ENDROOT
BRANCH   1   2
ATOM      2  C   UNL     1       2.233  -2.472   5.179  1.00  0.00     0.002 C 
BRANCH   2   3
ATOM      3  C   UNL     1       2.085  -2.083   3.712  1.00  0.00     0.021 C 
BRANCH   3   4
ATOM      4  C   UNL     1       2.107  -3.262   2.737  1.00  0.00     0.116 C 
BRANCH   4   5
ATOM      5  N   UNL     1       0.878  -3.999   2.835  1.00  0.00    -0.353 N 
ATOM      6  C   UNL     1      -0.243  -3.943   2.084  1.00  0.00     0.255 C 
ATOM      7  O   UNL     1      -1.262  -4.297   2.690  1.00  0.00    -0.272 OA
ATOM      8  H   UNL     1       0.848  -4.652   3.570  1.00  0.00     0.163 HD
BRANCH   6   9
ATOM      9  C   UNL     1      -0.304  -3.460   0.606  1.00  0.00     0.181 C 
ATOM     10  C   UNL     1       1.655  -0.603   0.727  1.00  0.00     0.075 C 
ATOM     11  C   UNL     1       0.970  -1.616  -0.192  1.00  0.00     0.164 C 
ATOM     12  O   UNL     1       1.741  -2.807  -0.414  1.00  0.00    -0.344 OA
ATOM     13  O   UNL     1      -0.265  -2.000   0.469  1.00  0.00    -0.331 OA
ATOM     14  C   UNL     1       0.900  -0.902  -1.569  1.00  0.00     0.075 C 
ATOM     15  C   UNL     1       0.823  -3.913  -0.371  1.00  0.00     0.164 C 
ATOM     16  C   UNL     1       0.112  -4.151  -1.803  1.00  0.00     0.040 C 
ATOM     17  C   UNL     1      -1.592  -4.129  -0.104  1.00  0.00     0.014 C 
ATOM     18  C   UNL     1      -1.325  -3.606  -1.539  1.00  0.00     0.008 C 
ATOM     19  C   UNL     1      -3.045  -3.880   0.354  1.00  0.00     0.046 C 
ATOM     20  C   UNL     1      -1.482  -5.699  -0.008  1.00  0.00     0.015 C 
ATOM     21  C   UNL     1      -2.253  -2.465  -2.101  1.00  0.00     0.035 C 
ATOM     22  C   UNL     1      -3.662  -2.548   0.007  1.00  0.00     0.154 C 
ATOM     23  C   UNL     1      -2.178  -2.276  -3.610  1.00  0.00     0.012 C 
ATOM     24  C   UNL     1      -3.678  -2.331  -1.536  1.00  0.00     0.152 C 
ATOM     25  C   UNL     1      -2.594  -0.838  -3.932  1.00  0.00     0.032 C 
ATOM     26  C   UNL     1      -4.330  -0.935  -1.959  1.00  0.00     0.044 C 
ATOM     27  F   UNL     1      -4.413  -3.346  -2.096  1.00  0.00    -0.239 F 
ATOM     28  C   UNL     1      -3.962  -0.496  -3.395  1.00  0.00    -0.053 C 
ATOM     29  C   UNL     1      -5.852  -0.989  -1.816  1.00  0.00    -0.009 C 
ATOM     30  C   UNL     1      -3.884   0.246  -1.046  1.00  0.00     0.024 C 
ATOM     31  C   UNL     1      -4.788   0.284  -4.118  1.00  0.00     0.052 C 
ATOM     32  C   UNL     1      -6.677  -0.214  -2.535  1.00  0.00     0.048 C 
ATOM     33  C   UNL     1      -6.126   0.651  -3.601  1.00  0.00     0.178 C 
ATOM     34  O   UNL     1      -6.761   1.588  -4.066  1.00  0.00    -0.290 OA
BRANCH  22  35
ATOM     35  O   UNL     1      -2.958  -1.552   0.738  1.00  0.00    -0.390 OA
ATOM     36  H   UNL     1      -2.018  -1.578   0.498  1.00  0.00     0.211 HD
ENDBRANCH  22  35
ENDBRANCH   6   9
ENDBRANCH   4   5
ENDBRANCH   3   4
ENDBRANCH   2   3
ENDBRANCH   1   2
BRANCH   1  37
ATOM     37  C   UNL     1       4.761  -2.870   4.901  1.00  0.00     0.021 C 
BRANCH  37  38
ATOM     38  C   UNL     1       5.131  -1.456   5.325  1.00  0.00     0.116 C 
BRANCH  38  39
ATOM     39  N   UNL     1       5.242  -1.344   6.768  1.00  0.00    -0.352 N 
ATOM     40  C   UNL     1       6.299  -0.906   7.512  1.00  0.00     0.251 C 
ATOM     41  H   UNL     1       4.448  -1.621   7.279  1.00  0.00     0.163 HD
ATOM     42  O   UNL     1       6.319  -1.103   8.731  1.00  0.00    -0.269 OA
BRANCH  40  43
ATOM     43  C   UNL     1       7.419  -0.202   6.861  1.00  0.00     0.039 A 
ATOM     44  C   UNL     1       8.722  -0.483   7.275  1.00  0.00     0.014 A 
ATOM     45  C   UNL     1       7.186   0.761   5.873  1.00  0.00     0.014 A 
ATOM     46  C   UNL     1       9.790   0.196   6.692  1.00  0.00     0.010 A 
ATOM     47  C   UNL     1       8.257   1.372   5.231  1.00  0.00     0.010 A 
ATOM     48  C   UNL     1       9.568   1.124   5.661  1.00  0.00    -0.014 A 
BRANCH  48  49
ATOM     49  C   UNL     1      10.695   1.896   5.084  1.00  0.00     0.031 A 
ATOM     50  C   UNL     1      10.748   3.391   5.266  1.00  0.00     0.074 A 
ATOM     51  C   UNL     1      11.666   1.260   4.401  1.00  0.00     0.049 A 
ATOM     52  N   UNL     1      11.641   4.246   4.838  1.00  0.00    -0.248 NA
ATOM     53  C   UNL     1       9.637   4.012   6.009  1.00  0.00     0.031 C 
ATOM     54  C   UNL     1      11.706  -0.177   4.123  1.00  0.00     0.029 A 
ATOM     55  N   UNL     1      12.812   1.742   3.821  1.00  0.00    -0.354 N 
ATOM     56  C   UNL     1      11.203   5.495   5.261  1.00  0.00     0.074 A 
ATOM     57  C   UNL     1       9.926   5.300   5.910  1.00  0.00     0.031 C 
ATOM     58  C   UNL     1      12.835  -0.464   3.455  1.00  0.00     0.029 A 
ATOM     59  C   UNL     1      13.581   0.770   3.229  1.00  0.00     0.049 A 
ATOM     60  H   UNL     1      13.059   2.695   3.828  1.00  0.00     0.167 HD
ATOM     61  C   UNL     1      11.824   6.693   5.156  1.00  0.00     0.037 A 
ATOM     62  C   UNL     1      14.756   0.868   2.580  1.00  0.00     0.037 A 
ATOM     63  C   UNL     1      13.104   6.885   4.529  1.00  0.00     0.049 A 
ATOM     64  C   UNL     1      15.413   2.218   2.462  1.00  0.00     0.074 A 
ATOM     65  C   UNL     1      13.827   8.056   4.382  1.00  0.00     0.029 A 
ATOM     66  N   UNL     1      13.857   5.874   3.952  1.00  0.00    -0.354 N 
ATOM     67  N   UNL     1      15.009   3.381   2.914  1.00  0.00    -0.248 NA
ATOM     68  C   UNL     1      16.701   2.264   1.757  1.00  0.00     0.031 C 
ATOM     69  C   UNL     1      15.004   7.759   3.687  1.00  0.00     0.029 A 
ATOM     70  C   UNL     1      15.036   6.395   3.445  1.00  0.00     0.049 A 
ATOM     71  H   UNL     1      13.593   4.926   3.910  1.00  0.00     0.167 HD
ATOM     72  C   UNL     1      16.011   4.286   2.582  1.00  0.00     0.074 A 
ATOM     73  C   UNL     1      17.050   3.531   1.914  1.00  0.00     0.031 C 
ATOM     74  C   UNL     1      16.067   5.622   2.802  1.00  0.00     0.037 A 
BRANCH  61  75
ATOM     75  C   UNL     1      11.140   7.885   5.761  1.00  0.00     0.057 A 
ATOM     76  C   UNL     1      11.030   8.039   7.150  1.00  0.00     0.134 A 
ATOM     77  C   UNL     1      10.628   8.910   4.956  1.00  0.00     0.134 A 
ATOM     78  F   UNL     1      11.486   7.087   7.978  1.00  0.00    -0.206 F 
ATOM     79  C   UNL     1      10.421   9.161   7.715  1.00  0.00     0.040 A 
ATOM     80  C   UNL     1      10.042  10.049   5.510  1.00  0.00     0.040 A 
ATOM     81  F   UNL     1      10.702   8.827   3.619  1.00  0.00    -0.206 F 
ATOM     82  C   UNL     1       9.934  10.175   6.894  1.00  0.00     0.006 A 
ENDBRANCH  61  75
BRANCH  62  83
ATOM     83  C   UNL     1      15.407  -0.336   2.001  1.00  0.00     0.057 A 
ATOM     84  C   UNL     1      16.630  -0.807   2.495  1.00  0.00     0.134 A 
ATOM     85  C   UNL     1      14.859  -1.003   0.899  1.00  0.00     0.134 A 
ATOM     86  F   UNL     1      17.216  -0.202   3.538  1.00  0.00    -0.206 F 
ATOM     87  C   UNL     1      17.307  -1.865   1.886  1.00  0.00     0.040 A 
ATOM     88  C   UNL     1      15.509  -2.083   0.301  1.00  0.00     0.040 A 
ATOM     89  F   UNL     1      13.684  -0.610   0.384  1.00  0.00    -0.206 F 
ATOM     90  C   UNL     1      16.746  -2.506   0.784  1.00  0.00     0.006 A 
ENDBRANCH  62  83
BRANCH  74  91
ATOM     91  C   UNL     1      17.316   6.334   2.368  1.00  0.00     0.057 A 
ATOM     92  C   UNL     1      17.637   6.515   1.016  1.00  0.00     0.134 A 
ATOM     93  C   UNL     1      18.207   6.848   3.318  1.00  0.00     0.134 A 
ATOM     94  F   UNL     1      16.831   6.037   0.056  1.00  0.00    -0.206 F 
ATOM     95  C   UNL     1      18.821   7.142   0.626  1.00  0.00     0.040 A 
ATOM     96  C   UNL     1      19.377   7.507   2.941  1.00  0.00     0.040 A 
ATOM     97  F   UNL     1      17.954   6.721   4.630  1.00  0.00    -0.206 F 
ATOM     98  C   UNL     1      19.693   7.644   1.591  1.00  0.00     0.006 A 
ENDBRANCH  74  91
ENDBRANCH  48  49
ENDBRANCH  40  43
ENDBRANCH  38  39
ENDBRANCH  37  38
ENDBRANCH   1  37
TORSDOF 14
