REMARK SMILES CC[C@](C)(NC(=O)N1CCC[C@@H]1C)C(=O)NCCCCCCNC(=O)c1ccc(-c2c3nc(c(-c4c(F)cccc4F)c4ccc([nH]4)c(-c4c(F)cccc4F)c4nc(c(-c5c(F)cccc5F)c5ccc2[nH]5)C=C4)C=C3)cc1
REMARK SMILES IDX 19 1 18 2 17 3 16 4 14 5 15 6 3 8 4 9 2 10 1 11 5 12 6 13
REMARK SMILES IDX 7 15 8 16 9 17 12 18 10 19 11 20 13 21 20 22 21 23 22 24
REMARK SMILES IDX 23 25 24 26 25 28 26 29 27 30 79 31 28 32 78 33 29 34 30 35
REMARK SMILES IDX 31 36 72 37 32 38 77 39 71 40 73 41 33 42 76 43 70 44 69 45
REMARK SMILES IDX 34 47 60 48 43 49 59 50 44 51 47 52 58 53 74 54 45 55 46 56
REMARK SMILES IDX 57 58 75 59 48 60 35 61 36 62 41 63 37 64 38 65 40 66 42 67
REMARK SMILES IDX 39 68 61 69 62 70 67 71 63 72 64 73 66 74 68 75 65 76 49 77
REMARK SMILES IDX 50 78 55 79 51 80 52 81 54 82 56 83 53 84
REMARK H PARENT 16 7 5 14 23 27 73 46 47 57
REMARK Flexibility Score: inf
ROOT
ATOM      1  C   UNL     1       3.573   2.656   5.947  1.00  0.00     0.002 C 
ENDROOT
BRANCH   1   2
ATOM      2  C   UNL     1       2.075   2.739   5.657  1.00  0.00     0.021 C 
BRANCH   2   3
ATOM      3  C   UNL     1       1.545   3.347   4.346  1.00  0.00     0.116 C 
BRANCH   3   4
ATOM      4  N   UNL     1       2.157   3.023   3.059  1.00  0.00    -0.354 N 
ATOM      5  C   UNL     1       1.995   2.023   2.128  1.00  0.00     0.245 C 
ATOM      6  O   UNL     1       2.590   2.160   1.053  1.00  0.00    -0.272 OA
ATOM      7  H   UNL     1       2.848   3.674   2.796  1.00  0.00     0.163 HD
BRANCH   5   8
ATOM      8  C   UNL     1       1.007   0.862   2.343  1.00  0.00     0.117 C 
ATOM      9  C   UNL     1       1.122  -0.305   1.350  1.00  0.00     0.045 C 
BRANCH   8  10
ATOM     10  C   UNL     1      -0.425   1.498   2.193  1.00  0.00     0.035 C 
ATOM     11  C   UNL     1      -0.918   1.695   0.757  1.00  0.00     0.007 C 
ENDBRANCH   8  10
BRANCH   8  12
ATOM     12  N   UNL     1       1.192   0.336   3.701  1.00  0.00    -0.324 N 
ATOM     13  C   UNL     1       2.124  -0.332   4.390  1.00  0.00     0.318 C 
ATOM     14  H   UNL     1       0.407   0.529   4.264  1.00  0.00     0.166 HD
ATOM     15  O   UNL     1       1.661  -0.826   5.431  1.00  0.00    -0.249 OA
BRANCH  13  16
ATOM     16  N   UNL     1       3.440  -0.491   4.078  1.00  0.00    -0.322 N 
ATOM     17  C   UNL     1       4.128  -1.488   4.898  1.00  0.00     0.122 C 
ATOM     18  C   UNL     1       4.389  -0.016   3.026  1.00  0.00     0.083 C 
ATOM     19  C   UNL     1       5.177  -2.092   3.991  1.00  0.00     0.024 C 
ATOM     20  C   UNL     1       5.655  -0.888   3.222  1.00  0.00     0.027 C 
ATOM     21  C   UNL     1       4.923   1.416   3.097  1.00  0.00     0.031 C 
ENDBRANCH  13  16
ENDBRANCH   8  12
ENDBRANCH   5   8
ENDBRANCH   3   4
ENDBRANCH   2   3
ENDBRANCH   1   2
BRANCH   1  22
ATOM     22  C   UNL     1       4.396   3.907   5.651  1.00  0.00     0.002 C 
BRANCH  22  23
ATOM     23  C   UNL     1       4.025   5.112   6.509  1.00  0.00     0.021 C 
BRANCH  23  24
ATOM     24  C   UNL     1       4.241   4.913   8.003  1.00  0.00     0.116 C 
BRANCH  24  25
ATOM     25  N   UNL     1       5.645   4.774   8.366  1.00  0.00    -0.352 N 
ATOM     26  C   UNL     1       6.306   5.357   9.421  1.00  0.00     0.251 C 
ATOM     27  H   UNL     1       6.187   4.192   7.785  1.00  0.00     0.163 HD
ATOM     28  O   UNL     1       7.525   5.263   9.538  1.00  0.00    -0.269 OA
BRANCH  26  29
ATOM     29  C   UNL     1       5.524   6.139  10.399  1.00  0.00     0.039 A 
ATOM     30  C   UNL     1       5.918   7.443  10.700  1.00  0.00     0.014 A 
ATOM     31  C   UNL     1       4.354   5.603  10.947  1.00  0.00     0.014 A 
ATOM     32  C   UNL     1       5.095   8.238  11.498  1.00  0.00     0.010 A 
ATOM     33  C   UNL     1       3.493   6.426  11.663  1.00  0.00     0.010 A 
ATOM     34  C   UNL     1       3.857   7.749  11.952  1.00  0.00    -0.014 A 
BRANCH  34  35
ATOM     35  C   UNL     1       2.934   8.616  12.726  1.00  0.00     0.031 A 
ATOM     36  C   UNL     1       2.576   8.264  14.142  1.00  0.00     0.074 A 
ATOM     37  C   UNL     1       2.383   9.693  12.133  1.00  0.00     0.049 A 
ATOM     38  N   UNL     1       1.808   8.908  14.984  1.00  0.00    -0.248 NA
ATOM     39  C   UNL     1       3.124   7.007  14.674  1.00  0.00     0.031 C 
ATOM     40  C   UNL     1       2.593  10.094  10.740  1.00  0.00     0.029 A 
ATOM     41  N   UNL     1       1.538  10.652  12.630  1.00  0.00    -0.354 N 
ATOM     42  C   UNL     1       1.770   8.128  16.133  1.00  0.00     0.074 A 
ATOM     43  C   UNL     1       2.537   6.933  15.858  1.00  0.00     0.031 C 
ATOM     44  C   UNL     1       1.940  11.245  10.511  1.00  0.00     0.029 A 
ATOM     45  C   UNL     1       1.242  11.645  11.728  1.00  0.00     0.049 A 
ATOM     46  H   UNL     1       1.178  10.632  13.546  1.00  0.00     0.167 HD
ATOM     47  C   UNL     1       1.177   8.396  17.320  1.00  0.00     0.037 A 
ATOM     48  C   UNL     1       0.506  12.762  11.874  1.00  0.00     0.037 A 
ATOM     49  C   UNL     1       0.440   9.601  17.596  1.00  0.00     0.049 A 
ATOM     50  C   UNL     1      -0.124  13.050  13.209  1.00  0.00     0.074 A 
ATOM     51  C   UNL     1      -0.130  10.012  18.787  1.00  0.00     0.029 A 
ATOM     52  N   UNL     1       0.166  10.587  16.659  1.00  0.00    -0.354 N 
ATOM     53  N   UNL     1      -0.069  12.354  14.318  1.00  0.00    -0.248 NA
ATOM     54  C   UNL     1      -0.911  14.286  13.312  1.00  0.00     0.031 C 
ATOM     55  C   UNL     1      -0.792  11.224  18.559  1.00  0.00     0.029 A 
ATOM     56  C   UNL     1      -0.591  11.593  17.238  1.00  0.00     0.049 A 
ATOM     57  H   UNL     1       0.465  10.574  15.721  1.00  0.00     0.167 HD
ATOM     58  C   UNL     1      -0.792  13.076  15.258  1.00  0.00     0.074 A 
ATOM     59  C   UNL     1      -1.256  14.277  14.591  1.00  0.00     0.031 C 
ATOM     60  C   UNL     1      -1.052  12.775  16.554  1.00  0.00     0.037 A 
BRANCH  47  61
ATOM     61  C   UNL     1       1.306   7.362  18.403  1.00  0.00     0.057 A 
ATOM     62  C   UNL     1       2.532   7.084  19.022  1.00  0.00     0.134 A 
ATOM     63  C   UNL     1       0.188   6.638  18.835  1.00  0.00     0.134 A 
ATOM     64  F   UNL     1       3.646   7.730  18.647  1.00  0.00    -0.206 F 
ATOM     65  C   UNL     1       2.650   6.098  20.004  1.00  0.00     0.040 A 
ATOM     66  C   UNL     1       0.287   5.671  19.838  1.00  0.00     0.040 A 
ATOM     67  F   UNL     1      -1.018   6.856  18.291  1.00  0.00    -0.206 F 
ATOM     68  C   UNL     1       1.522   5.391  20.418  1.00  0.00     0.006 A 
ENDBRANCH  47  61
BRANCH  48  69
ATOM     69  C   UNL     1       0.373  13.721  10.748  1.00  0.00     0.057 A 
ATOM     70  C   UNL     1       0.999  14.973  10.793  1.00  0.00     0.134 A 
ATOM     71  C   UNL     1      -0.375  13.416   9.605  1.00  0.00     0.134 A 
ATOM     72  F   UNL     1       1.716  15.330  11.869  1.00  0.00    -0.206 F 
ATOM     73  C   UNL     1       0.871  15.894   9.753  1.00  0.00     0.040 A 
ATOM     74  C   UNL     1      -0.492  14.319   8.546  1.00  0.00     0.040 A 
ATOM     75  F   UNL     1      -0.992  12.230   9.495  1.00  0.00    -0.206 F 
ATOM     76  C   UNL     1       0.127  15.565   8.622  1.00  0.00     0.006 A 
ENDBRANCH  48  69
BRANCH  60  77
ATOM     77  C   UNL     1      -1.860  13.772  17.333  1.00  0.00     0.057 A 
ATOM     78  C   UNL     1      -3.224  13.971  17.086  1.00  0.00     0.134 A 
ATOM     79  C   UNL     1      -1.267  14.536  18.346  1.00  0.00     0.134 A 
ATOM     80  F   UNL     1      -3.849  13.281  16.120  1.00  0.00    -0.206 F 
ATOM     81  C   UNL     1      -3.962  14.920  17.796  1.00  0.00     0.040 A 
ATOM     82  C   UNL     1      -2.002  15.466  19.083  1.00  0.00     0.040 A 
ATOM     83  F   UNL     1       0.033  14.387  18.641  1.00  0.00    -0.206 F 
ATOM     84  C   UNL     1      -3.351  15.667  18.801  1.00  0.00     0.006 A 
ENDBRANCH  60  77
ENDBRANCH  34  35
ENDBRANCH  26  29
ENDBRANCH  24  25
ENDBRANCH  23  24
ENDBRANCH  22  23
ENDBRANCH   1  22
TORSDOF 16
