REMARK SMILES CCN(CC(C)C)C(=O)N[C@](C)(CC)C(=O)NCCCCCCNC(=O)c1ccc(-c2c3nc(c(-c4c(F)cccc4F)c4ccc([nH]4)c(-c4c(F)cccc4F)c4nc(c(-c5c(F)cccc5F)c5ccc2[nH]5)C=C4)C=C3)cc1
REMARK SMILES IDX 19 1 18 2 17 3 15 4 16 5 11 7 12 8 10 9 8 10 9 11 3 13 2 14
REMARK SMILES IDX 1 15 4 16 5 17 6 18 7 19 13 20 14 21 20 22 21 23 22 24 23 25
REMARK SMILES IDX 24 26 25 27 26 29 27 30 28 31 80 32 29 33 79 34 30 35 31 36
REMARK SMILES IDX 32 37 73 38 33 39 78 40 72 41 74 42 34 43 77 44 71 45 70 46
REMARK SMILES IDX 35 48 61 49 44 50 60 51 45 52 48 53 59 54 75 55 46 56 47 57
REMARK SMILES IDX 58 59 76 60 49 61 36 62 37 63 42 64 38 65 39 66 41 67 43 68
REMARK SMILES IDX 40 69 62 70 63 71 68 72 64 73 65 74 67 75 69 76 66 77 50 78
REMARK SMILES IDX 51 79 56 80 52 81 53 82 55 83 57 84 54 85
REMARK H PARENT 17 6 10 12 24 28 74 47 48 58
REMARK Flexibility Score: inf
ROOT
ATOM      1  C   UNL     1      -1.223   5.769  -4.651  1.00  0.00     0.021 C 
ENDROOT
BRANCH   1   2
ATOM      2  C   UNL     1      -0.453   6.280  -3.428  1.00  0.00     0.116 C 
BRANCH   2   3
ATOM      3  N   UNL     1      -0.278   5.197  -2.485  1.00  0.00    -0.354 N 
ATOM      4  C   UNL     1       0.588   4.139  -2.539  1.00  0.00     0.245 C 
ATOM      5  O   UNL     1       0.142   3.059  -2.137  1.00  0.00    -0.272 OA
ATOM      6  H   UNL     1      -0.864   5.225  -1.694  1.00  0.00     0.163 HD
BRANCH   4   7
ATOM      7  C   UNL     1       2.059   4.289  -3.065  1.00  0.00     0.117 C 
ATOM      8  C   UNL     1       2.771   2.968  -2.871  1.00  0.00     0.045 C 
BRANCH   7   9
ATOM      9  N   UNL     1       2.615   5.409  -2.253  1.00  0.00    -0.324 N 
ATOM     10  C   UNL     1       3.499   5.758  -1.317  1.00  0.00     0.318 C 
ATOM     11  O   UNL     1       3.454   6.971  -1.057  1.00  0.00    -0.249 OA
ATOM     12  H   UNL     1       2.133   6.226  -2.516  1.00  0.00     0.166 HD
BRANCH  10  13
ATOM     13  N   UNL     1       4.448   4.969  -0.735  1.00  0.00    -0.325 N 
BRANCH  13  14
ATOM     14  C   UNL     1       5.662   5.696  -0.311  1.00  0.00     0.118 C 
ATOM     15  C   UNL     1       6.370   6.403  -1.469  1.00  0.00     0.027 C 
ENDBRANCH  13  14
BRANCH  13  16
ATOM     16  C   UNL     1       4.417   3.544  -0.352  1.00  0.00     0.124 C 
BRANCH  16  17
ATOM     17  C   UNL     1       3.371   3.031   0.679  1.00  0.00     0.002 C 
ATOM     18  C   UNL     1       2.081   3.828   0.827  1.00  0.00     0.009 C 
ATOM     19  C   UNL     1       3.050   1.539   0.450  1.00  0.00     0.009 C 
ENDBRANCH  16  17
ENDBRANCH  13  16
ENDBRANCH  10  13
ENDBRANCH   7   9
BRANCH   7  20
ATOM     20  C   UNL     1       2.158   4.622  -4.578  1.00  0.00     0.035 C 
ATOM     21  C   UNL     1       1.727   3.480  -5.502  1.00  0.00     0.007 C 
ENDBRANCH   7  20
ENDBRANCH   4   7
ENDBRANCH   2   3
ENDBRANCH   1   2
BRANCH   1  22
ATOM     22  C   UNL     1      -2.687   5.414  -4.353  1.00  0.00     0.002 C 
BRANCH  22  23
ATOM     23  C   UNL     1      -3.537   6.575  -3.829  1.00  0.00     0.002 C 
BRANCH  23  24
ATOM     24  C   UNL     1      -3.435   7.857  -4.655  1.00  0.00     0.021 C 
BRANCH  24  25
ATOM     25  C   UNL     1      -3.806   7.678  -6.120  1.00  0.00     0.116 C 
BRANCH  25  26
ATOM     26  N   UNL     1      -5.227   7.424  -6.293  1.00  0.00    -0.352 N 
ATOM     27  C   UNL     1      -6.116   8.115  -7.079  1.00  0.00     0.251 C 
ATOM     28  H   UNL     1      -5.596   6.666  -5.785  1.00  0.00     0.163 HD
ATOM     29  O   UNL     1      -7.325   7.929  -6.985  1.00  0.00    -0.269 OA
BRANCH  27  30
ATOM     30  C   UNL     1      -5.585   9.107  -8.033  1.00  0.00     0.039 A 
ATOM     31  C   UNL     1      -6.084  10.411  -8.019  1.00  0.00     0.014 A 
ATOM     32  C   UNL     1      -4.544   8.750  -8.895  1.00  0.00     0.014 A 
ATOM     33  C   UNL     1      -5.497  11.379  -8.836  1.00  0.00     0.010 A 
ATOM     34  C   UNL     1      -3.913   9.730  -9.648  1.00  0.00     0.010 A 
ATOM     35  C   UNL     1      -4.387  11.053  -9.633  1.00  0.00    -0.014 A 
BRANCH  35  36
ATOM     36  C   UNL     1      -3.713  12.056 -10.496  1.00  0.00     0.031 A 
ATOM     37  C   UNL     1      -3.698  11.845 -11.986  1.00  0.00     0.074 A 
ATOM     38  C   UNL     1      -3.036  13.083  -9.947  1.00  0.00     0.049 A 
ATOM     39  N   UNL     1      -3.019  12.480 -12.905  1.00  0.00    -0.248 NA
ATOM     40  C   UNL     1      -4.530  10.746 -12.506  1.00  0.00     0.031 C 
ATOM     41  C   UNL     1      -2.952  13.379  -8.515  1.00  0.00     0.029 A 
ATOM     42  N   UNL     1      -2.261  14.055 -10.530  1.00  0.00    -0.354 N 
ATOM     43  C   UNL     1      -3.315  11.838 -14.101  1.00  0.00     0.074 A 
ATOM     44  C   UNL     1      -4.203  10.741 -13.790  1.00  0.00     0.031 C 
ATOM     45  C   UNL     1      -2.172  14.458  -8.333  1.00  0.00     0.029 A 
ATOM     46  C   UNL     1      -1.661  14.900  -9.627  1.00  0.00     0.049 A 
ATOM     47  H   UNL     1      -2.147  14.140 -11.505  1.00  0.00     0.167 HD
ATOM     48  C   UNL     1      -2.893  12.147 -15.349  1.00  0.00     0.037 A 
ATOM     49  C   UNL     1      -0.776  15.898  -9.820  1.00  0.00     0.037 A 
ATOM     50  C   UNL     1      -2.051  13.270 -15.658  1.00  0.00     0.049 A 
ATOM     51  C   UNL     1      -0.323  16.216 -11.222  1.00  0.00     0.074 A 
ATOM     52  C   UNL     1      -1.633  13.712 -16.901  1.00  0.00     0.029 A 
ATOM     53  N   UNL     1      -1.505  14.129 -14.719  1.00  0.00    -0.354 N 
ATOM     54  N   UNL     1      -0.661  15.641 -12.351  1.00  0.00    -0.248 NA
ATOM     55  C   UNL     1       0.634  17.322 -11.379  1.00  0.00     0.031 C 
ATOM     56  C   UNL     1      -0.789  14.808 -16.710  1.00  0.00     0.029 A 
ATOM     57  C   UNL     1      -0.733  15.086 -15.354  1.00  0.00     0.049 A 
ATOM     58  H   UNL     1      -1.644  14.068 -13.746  1.00  0.00     0.167 HD
ATOM     59  C   UNL     1       0.001  16.344 -13.350  1.00  0.00     0.074 A 
ATOM     60  C   UNL     1       0.760  17.388 -12.697  1.00  0.00     0.031 C 
ATOM     61  C   UNL     1      -0.020  16.145 -14.690  1.00  0.00     0.037 A 
BRANCH  48  62
ATOM     62  C   UNL     1      -3.333  11.268 -16.481  1.00  0.00     0.057 A 
ATOM     63  C   UNL     1      -4.653  11.267 -16.950  1.00  0.00     0.134 A 
ATOM     64  C   UNL     1      -2.404  10.472 -17.163  1.00  0.00     0.134 A 
ATOM     65  F   UNL     1      -5.594  11.998 -16.334  1.00  0.00    -0.206 F 
ATOM     66  C   UNL     1      -5.035  10.499 -18.051  1.00  0.00     0.040 A 
ATOM     67  C   UNL     1      -2.767   9.721 -18.282  1.00  0.00     0.040 A 
ATOM     68  F   UNL     1      -1.122  10.431 -16.768  1.00  0.00    -0.206 F 
ATOM     69  C   UNL     1      -4.087   9.732 -18.727  1.00  0.00     0.006 A 
ENDBRANCH  48  62
BRANCH  49  70
ATOM     70  C   UNL     1      -0.241  16.672  -8.668  1.00  0.00     0.057 A 
ATOM     71  C   UNL     1      -0.537  18.031  -8.509  1.00  0.00     0.134 A 
ATOM     72  C   UNL     1       0.623  16.090  -7.733  1.00  0.00     0.134 A 
ATOM     73  F   UNL     1      -1.344  18.652  -9.383  1.00  0.00    -0.206 F 
ATOM     74  C   UNL     1       0.036  18.793  -7.489  1.00  0.00     0.040 A 
ATOM     75  C   UNL     1       1.179  16.832  -6.689  1.00  0.00     0.040 A 
ATOM     76  F   UNL     1       0.942  14.790  -7.821  1.00  0.00    -0.206 F 
ATOM     77  C   UNL     1       0.897  18.192  -6.574  1.00  0.00     0.006 A 
ENDBRANCH  49  70
BRANCH  61  78
ATOM     78  C   UNL     1       0.731  17.113 -15.554  1.00  0.00     0.057 A 
ATOM     79  C   UNL     1       2.128  17.110 -15.637  1.00  0.00     0.134 A 
ATOM     80  C   UNL     1       0.034  18.004 -16.382  1.00  0.00     0.134 A 
ATOM     81  F   UNL     1       2.854  16.288 -14.863  1.00  0.00    -0.206 F 
ATOM     82  C   UNL     1       2.806  17.965 -16.507  1.00  0.00     0.040 A 
ATOM     83  C   UNL     1       0.699  18.843 -17.275  1.00  0.00     0.040 A 
ATOM     84  F   UNL     1      -1.307  18.048 -16.358  1.00  0.00    -0.206 F 
ATOM     85  C   UNL     1       2.090  18.826 -17.337  1.00  0.00     0.006 A 
ENDBRANCH  61  78
ENDBRANCH  35  36
ENDBRANCH  27  30
ENDBRANCH  25  26
ENDBRANCH  24  25
ENDBRANCH  23  24
ENDBRANCH  22  23
ENDBRANCH   1  22
TORSDOF 19
