REMARK SMILES CC(C)[N@H+](C)Cc1cc2c(cc1Cl)C=C(C(=O)NCCCCCCNC(=O)c1ccc(-c3c4nc(c(-c5c(F)cccc5F)c5ccc([nH]5)c(-c5c(F)cccc5F)c5nc(c(-c6c(F)cccc6F)c6ccc3[nH]6)C=C5)C=C4)cc1)[C@@H](C(F)(F)F)O2
REMARK SMILES IDX 21 1 20 2 19 3 18 4 16 5 17 6 15 8 7 9 8 10 12 11 9 12 11 13
REMARK SMILES IDX 13 14 10 15 87 16 14 17 82 18 6 19 4 20 5 21 2 23 1 24 3 25
REMARK SMILES IDX 83 26 84 27 85 28 86 29 22 30 23 31 24 32 25 33 26 34 27 36
REMARK SMILES IDX 28 37 29 38 81 39 30 40 80 41 31 42 32 43 33 44 74 45 34 46
REMARK SMILES IDX 79 47 73 48 75 49 35 50 78 51 72 52 71 53 36 55 62 56 45 57
REMARK SMILES IDX 61 58 46 59 49 60 60 61 76 62 47 63 48 64 59 66 77 67 50 68
REMARK SMILES IDX 37 69 38 70 43 71 39 72 40 73 42 74 44 75 41 76 63 77 64 78
REMARK SMILES IDX 69 79 65 80 66 81 68 82 70 83 67 84 51 85 52 86 57 87 53 88
REMARK SMILES IDX 54 89 56 90 58 91 55 92
REMARK H PARENT 18 7 4 22 25 35 75 54 49 65
REMARK Flexibility Score: inf
ROOT
ATOM      1  C   UNL     1       0.470   5.423  11.503  1.00  0.00     0.002 C 
ENDROOT
BRANCH   1   2
ATOM      2  C   UNL     1      -0.032   5.081  10.097  1.00  0.00     0.021 C 
BRANCH   2   3
ATOM      3  C   UNL     1       1.040   4.535   9.162  1.00  0.00     0.116 C 
BRANCH   3   4
ATOM      4  N   UNL     1       1.347   3.148   9.438  1.00  0.00    -0.352 N 
ATOM      5  C   UNL     1       1.223   1.974   8.781  1.00  0.00     0.251 C 
ATOM      6  O   UNL     1       1.625   0.980   9.394  1.00  0.00    -0.270 OA
ATOM      7  H   UNL     1       1.748   3.030  10.329  1.00  0.00     0.163 HD
BRANCH   5   8
ATOM      8  C   UNL     1       0.648   1.816   7.412  1.00  0.00     0.067 C 
ATOM      9  C   UNL     1      -1.142  -0.308   3.190  1.00  0.00     0.029 A 
ATOM     10  C   UNL     1      -0.829   1.008   3.572  1.00  0.00     0.058 A 
ATOM     11  C   UNL     1      -1.085  -1.317   4.169  1.00  0.00     0.050 A 
ATOM     12  C   UNL     1      -0.394   1.287   4.867  1.00  0.00     0.128 A 
ATOM     13  C   UNL     1      -0.624  -1.033   5.457  1.00  0.00     0.033 A 
ATOM     14  Cl  UNL     1      -1.594  -2.942   3.870  1.00  0.00    -0.084 Cl
ATOM     15  C   UNL     1      -0.263   0.269   5.803  1.00  0.00     0.019 A 
ATOM     16  O   UNL     1      -0.135   2.593   5.145  1.00  0.00    -0.475 OA
ATOM     17  C   UNL     1       0.240   0.567   7.132  1.00  0.00     0.025 C 
ATOM     18  C   UNL     1       0.579   2.906   6.374  1.00  0.00     0.314 C 
BRANCH   9  19
ATOM     19  C   UNL     1      -1.528  -0.579   1.753  1.00  0.00     0.300 C 
BRANCH  19  20
ATOM     20  N   UNL     1      -0.720  -1.633   1.131  1.00  0.00    -0.332 N 
ATOM     21  C   UNL     1      -1.491  -2.402   0.162  1.00  0.00     0.333 C 
ATOM     22  H   UNL     1      -0.487  -2.227   1.927  1.00  0.00     0.348 HD
BRANCH  20  23
ATOM     23  C   UNL     1       0.626  -1.287   0.643  1.00  0.00     0.177 C 
ATOM     24  C   UNL     1       0.726  -0.017  -0.207  1.00  0.00     0.075 C 
ATOM     25  C   UNL     1       1.640  -1.232   1.792  1.00  0.00     0.075 C 
ENDBRANCH  20  23
ENDBRANCH  19  20
ENDBRANCH   9  19
BRANCH  18  26
ATOM     26  C   UNL     1       1.951   3.472   5.973  1.00  0.00     0.429 C 
ATOM     27  F   UNL     1       1.798   4.655   5.323  1.00  0.00    -0.167 F 
ATOM     28  F   UNL     1       2.751   3.728   7.032  1.00  0.00    -0.167 F 
ATOM     29  F   UNL     1       2.630   2.643   5.149  1.00  0.00    -0.167 F 
ENDBRANCH  18  26
ENDBRANCH   5   8
ENDBRANCH   3   4
ENDBRANCH   2   3
ENDBRANCH   1   2
BRANCH   1  30
ATOM     30  C   UNL     1       1.686   6.357  11.568  1.00  0.00     0.002 C 
BRANCH  30  31
ATOM     31  C   UNL     1       1.610   7.608  10.690  1.00  0.00     0.021 C 
BRANCH  31  32
ATOM     32  C   UNL     1       0.398   8.492  10.944  1.00  0.00     0.116 C 
BRANCH  32  33
ATOM     33  N   UNL     1       0.422   9.105  12.261  1.00  0.00    -0.352 N 
ATOM     34  C   UNL     1       0.325  10.437  12.588  1.00  0.00     0.251 C 
ATOM     35  H   UNL     1       0.521   8.485  13.020  1.00  0.00     0.163 HD
ATOM     36  O   UNL     1       0.512  10.820  13.737  1.00  0.00    -0.269 OA
BRANCH  34  37
ATOM     37  C   UNL     1       0.028  11.409  11.517  1.00  0.00     0.039 A 
ATOM     38  C   UNL     1      -1.049  11.193  10.653  1.00  0.00     0.014 A 
ATOM     39  C   UNL     1       0.880  12.499  11.333  1.00  0.00     0.014 A 
ATOM     40  C   UNL     1      -1.176  11.974   9.511  1.00  0.00     0.010 A 
ATOM     41  C   UNL     1       0.704  13.329  10.224  1.00  0.00     0.010 A 
ATOM     42  C   UNL     1      -0.294  13.042   9.278  1.00  0.00    -0.014 A 
BRANCH  42  43
ATOM     43  C   UNL     1      -0.411  13.830   8.025  1.00  0.00     0.031 A 
ATOM     44  C   UNL     1       0.686  13.795   6.994  1.00  0.00     0.074 A 
ATOM     45  C   UNL     1      -1.529  14.543   7.796  1.00  0.00     0.049 A 
ATOM     46  N   UNL     1       0.773  14.440   5.858  1.00  0.00    -0.248 NA
ATOM     47  C   UNL     1       1.836  12.922   7.277  1.00  0.00     0.031 C 
ATOM     48  C   UNL     1      -2.672  14.637   8.707  1.00  0.00     0.029 A 
ATOM     49  N   UNL     1      -1.895  15.311   6.721  1.00  0.00    -0.354 N 
ATOM     50  C   UNL     1       1.991  14.069   5.302  1.00  0.00     0.074 A 
ATOM     51  C   UNL     1       2.622  13.161   6.236  1.00  0.00     0.031 C 
ATOM     52  C   UNL     1      -3.627  15.385   8.136  1.00  0.00     0.029 A 
ATOM     53  C   UNL     1      -3.140  15.875   6.851  1.00  0.00     0.049 A 
ATOM     54  H   UNL     1      -1.321  15.445   5.933  1.00  0.00     0.167 HD
ATOM     55  C   UNL     1       2.531  14.445   4.117  1.00  0.00     0.037 A 
ATOM     56  C   UNL     1      -3.805  16.715   6.037  1.00  0.00     0.037 A 
ATOM     57  C   UNL     1       1.894  15.334   3.180  1.00  0.00     0.049 A 
ATOM     58  C   UNL     1      -3.155  17.165   4.762  1.00  0.00     0.074 A 
ATOM     59  C   UNL     1       2.348  15.756   1.942  1.00  0.00     0.029 A 
ATOM     60  N   UNL     1       0.661  15.937   3.379  1.00  0.00    -0.354 N 
ATOM     61  N   UNL     1      -2.001  16.811   4.252  1.00  0.00    -0.248 NA
ATOM     62  C   UNL     1      -3.895  18.148   3.958  1.00  0.00     0.031 C 
ATOM     63  C   UNL     1       1.407  16.645   1.410  1.00  0.00     0.029 A 
ATOM     64  C   UNL     1       0.350  16.747   2.299  1.00  0.00     0.049 A 
ATOM     65  H   UNL     1       0.092  15.809   4.172  1.00  0.00     0.167 HD
ATOM     66  C   UNL     1      -1.877  17.521   3.066  1.00  0.00     0.074 A 
ATOM     67  C   UNL     1      -3.087  18.306   2.920  1.00  0.00     0.031 C 
ATOM     68  C   UNL     1      -0.852  17.530   2.180  1.00  0.00     0.037 A 
BRANCH  55  69
ATOM     69  C   UNL     1       3.890  13.908   3.775  1.00  0.00     0.057 A 
ATOM     70  C   UNL     1       5.014  14.743   3.800  1.00  0.00     0.134 A 
ATOM     71  C   UNL     1       4.085  12.574   3.394  1.00  0.00     0.134 A 
ATOM     72  F   UNL     1       4.897  16.032   4.151  1.00  0.00    -0.206 F 
ATOM     73  C   UNL     1       6.283  14.271   3.458  1.00  0.00     0.040 A 
ATOM     74  C   UNL     1       5.352  12.085   3.071  1.00  0.00     0.040 A 
ATOM     75  F   UNL     1       3.052  11.718   3.364  1.00  0.00    -0.206 F 
ATOM     76  C   UNL     1       6.455  12.936   3.097  1.00  0.00     0.006 A 
ENDBRANCH  55  69
BRANCH  56  77
ATOM     77  C   UNL     1      -5.150  17.208   6.419  1.00  0.00     0.057 A 
ATOM     78  C   UNL     1      -5.323  18.099   7.485  1.00  0.00     0.134 A 
ATOM     79  C   UNL     1      -6.292  16.805   5.720  1.00  0.00     0.134 A 
ATOM     80  F   UNL     1      -4.266  18.520   8.195  1.00  0.00    -0.206 F 
ATOM     81  C   UNL     1      -6.587  18.564   7.850  1.00  0.00     0.040 A 
ATOM     82  C   UNL     1      -7.559  17.281   6.058  1.00  0.00     0.040 A 
ATOM     83  F   UNL     1      -6.185  15.969   4.677  1.00  0.00    -0.206 F 
ATOM     84  C   UNL     1      -7.709  18.159   7.130  1.00  0.00     0.006 A 
ENDBRANCH  56  77
BRANCH  68  85
ATOM     85  C   UNL     1      -1.009  18.413   0.979  1.00  0.00     0.057 A 
ATOM     86  C   UNL     1      -1.275  17.868  -0.282  1.00  0.00     0.134 A 
ATOM     87  C   UNL     1      -0.895  19.806   1.074  1.00  0.00     0.134 A 
ATOM     88  F   UNL     1      -1.392  16.541  -0.440  1.00  0.00    -0.206 F 
ATOM     89  C   UNL     1      -1.426  18.678  -1.408  1.00  0.00     0.040 A 
ATOM     90  C   UNL     1      -1.066  20.628  -0.041  1.00  0.00     0.040 A 
ATOM     91  F   UNL     1      -0.659  20.389   2.259  1.00  0.00    -0.206 F 
ATOM     92  C   UNL     1      -1.329  20.063  -1.287  1.00  0.00     0.006 A 
ENDBRANCH  68  85
ENDBRANCH  42  43
ENDBRANCH  34  37
ENDBRANCH  32  33
ENDBRANCH  31  32
ENDBRANCH  30  31
ENDBRANCH   1  30
TORSDOF 17
