REMARK SMILES CCN(CCC(=O)NCCCCCCNC(=O)c1ccc(-c2c3nc(c(-c4c(F)cccc4F)c4ccc([nH]4)c(-c4c(F)cccc4F)c4nc(c(-c5c(F)cccc5F)c5ccc2[nH]5)C=C4)C=C3)cc1)C(=O)N1C[C@H](C(=O)OC)[C@@H](C)C1
REMARK SMILES IDX 9 1 8 2 6 3 7 4 5 6 4 7 3 8 2 9 1 10 72 11 73 12 74 13 75 14
REMARK SMILES IDX 83 15 76 16 81 17 82 18 77 19 78 20 79 21 80 22 10 23 11 24
REMARK SMILES IDX 12 25 13 26 14 27 15 28 16 29 17 31 18 32 19 33 71 34 20 35
REMARK SMILES IDX 70 36 21 37 22 38 23 39 64 40 24 41 69 42 63 43 65 44 25 45
REMARK SMILES IDX 68 46 62 47 61 48 26 50 52 51 35 52 51 53 36 54 39 55 50 56
REMARK SMILES IDX 66 57 37 58 38 59 49 61 67 62 40 63 27 64 28 65 33 66 29 67
REMARK SMILES IDX 30 68 32 69 34 70 31 71 53 72 54 73 59 74 55 75 56 76 58 77
REMARK SMILES IDX 60 78 57 79 41 80 42 81 47 82 43 83 44 84 46 85 48 86 45 87
REMARK H PARENT 8 5 15 30 65 49 39 60
REMARK Flexibility Score: inf
ROOT
ATOM      1  C   UNL     1       2.762  -0.551   4.097  1.00  0.00     0.116 C 
ENDROOT
BRANCH   1   2
ATOM      2  N   UNL     1       2.424   0.469   5.073  1.00  0.00    -0.356 N 
ATOM      3  C   UNL     1       1.255   1.140   5.276  1.00  0.00     0.221 C 
ATOM      4  O   UNL     1       1.197   1.936   6.217  1.00  0.00    -0.275 OA
ATOM      5  H   UNL     1       3.155   0.715   5.685  1.00  0.00     0.163 HD
BRANCH   3   6
ATOM      6  C   UNL     1       0.055   0.932   4.382  1.00  0.00     0.121 C 
BRANCH   6   7
ATOM      7  C   UNL     1      -0.113   1.943   3.244  1.00  0.00     0.131 C 
BRANCH   7   8
ATOM      8  N   UNL     1       0.778   1.780   2.089  1.00  0.00    -0.324 N 
BRANCH   8   9
ATOM      9  C   UNL     1       0.434   0.582   1.282  1.00  0.00     0.118 C 
ATOM     10  C   UNL     1       0.951   0.391  -0.136  1.00  0.00     0.027 C 
ENDBRANCH   8   9
BRANCH   8  11
ATOM     11  C   UNL     1       1.856   2.583   1.736  1.00  0.00     0.320 C 
ATOM     12  O   UNL     1       2.377   2.472   0.620  1.00  0.00    -0.248 OA
BRANCH  11  13
ATOM     13  N   UNL     1       2.472   3.432   2.633  1.00  0.00    -0.323 N 
ATOM     14  C   UNL     1       2.162   3.904   3.978  1.00  0.00     0.137 C 
ATOM     15  C   UNL     1       3.780   3.983   2.242  1.00  0.00     0.125 C 
ATOM     16  C   UNL     1       2.974   5.176   4.160  1.00  0.00     0.123 C 
ATOM     17  C   UNL     1       4.270   4.844   3.423  1.00  0.00     0.021 C 
ATOM     18  C   UNL     1       5.233   4.069   4.341  1.00  0.00     0.010 C 
BRANCH  16  19
ATOM     19  C   UNL     1       2.139   6.318   3.619  1.00  0.00     0.310 C 
ATOM     20  O   UNL     1       1.436   7.025   4.332  1.00  0.00    -0.252 OA
BRANCH  19  21
ATOM     21  O   UNL     1       2.116   6.331   2.262  1.00  0.00    -0.469 OA
ATOM     22  C   UNL     1       0.912   6.848   1.697  1.00  0.00     0.282 C 
ENDBRANCH  19  21
ENDBRANCH  16  19
ENDBRANCH  11  13
ENDBRANCH   8  11
ENDBRANCH   7   8
ENDBRANCH   6   7
ENDBRANCH   3   6
ENDBRANCH   1   2
BRANCH   1  23
ATOM     23  C   UNL     1       3.604  -0.006   2.950  1.00  0.00     0.021 C 
BRANCH  23  24
ATOM     24  C   UNL     1       5.091   0.191   3.236  1.00  0.00     0.002 C 
BRANCH  24  25
ATOM     25  C   UNL     1       5.890  -1.091   3.445  1.00  0.00     0.002 C 
BRANCH  25  26
ATOM     26  C   UNL     1       5.663  -2.166   2.384  1.00  0.00     0.021 C 
BRANCH  26  27
ATOM     27  C   UNL     1       5.919  -1.694   0.956  1.00  0.00     0.116 C 
BRANCH  27  28
ATOM     28  N   UNL     1       7.330  -1.423   0.723  1.00  0.00    -0.352 N 
ATOM     29  C   UNL     1       8.248  -2.197   0.059  1.00  0.00     0.251 C 
ATOM     30  H   UNL     1       7.669  -0.574   1.088  1.00  0.00     0.163 HD
ATOM     31  O   UNL     1       9.453  -1.973   0.148  1.00  0.00    -0.269 OA
BRANCH  29  32
ATOM     32  C   UNL     1       7.761  -3.324  -0.757  1.00  0.00     0.039 A 
ATOM     33  C   UNL     1       8.280  -4.604  -0.555  1.00  0.00     0.014 A 
ATOM     34  C   UNL     1       6.741  -3.107  -1.686  1.00  0.00     0.014 A 
ATOM     35  C   UNL     1       7.723  -5.686  -1.241  1.00  0.00     0.010 A 
ATOM     36  C   UNL     1       6.131  -4.193  -2.298  1.00  0.00     0.010 A 
ATOM     37  C   UNL     1       6.621  -5.493  -2.090  1.00  0.00    -0.014 A 
BRANCH  37  38
ATOM     38  C   UNL     1       5.973  -6.615  -2.813  1.00  0.00     0.031 A 
ATOM     39  C   UNL     1       5.961  -6.604  -4.319  1.00  0.00     0.074 A 
ATOM     40  C   UNL     1       5.313  -7.575  -2.135  1.00  0.00     0.049 A 
ATOM     41  N   UNL     1       5.305  -7.373  -5.148  1.00  0.00    -0.248 NA
ATOM     42  C   UNL     1       6.769  -5.563  -4.978  1.00  0.00     0.031 C 
ATOM     43  C   UNL     1       5.224  -7.680  -0.677  1.00  0.00     0.029 A 
ATOM     44  N   UNL     1       4.565  -8.634  -2.587  1.00  0.00    -0.354 N 
ATOM     45  C   UNL     1       5.593  -6.887  -6.417  1.00  0.00     0.074 A 
ATOM     46  C   UNL     1       6.446  -5.733  -6.250  1.00  0.00     0.031 C 
ATOM     47  C   UNL     1       4.471  -8.745  -0.357  1.00  0.00     0.029 A 
ATOM     48  C   UNL     1       3.981  -9.369  -1.582  1.00  0.00     0.049 A 
ATOM     49  H   UNL     1       4.456  -8.848  -3.542  1.00  0.00     0.167 HD
ATOM     50  C   UNL     1       5.195  -7.373  -7.615  1.00  0.00     0.037 A 
ATOM     51  C   UNL     1       3.128 -10.411  -1.645  1.00  0.00     0.037 A 
ATOM     52  C   UNL     1       4.385  -8.549  -7.777  1.00  0.00     0.049 A 
ATOM     53  C   UNL     1       2.698 -10.926  -2.994  1.00  0.00     0.074 A 
ATOM     54  C   UNL     1       3.986  -9.162  -8.951  1.00  0.00     0.029 A 
ATOM     55  N   UNL     1       3.854  -9.290  -6.733  1.00  0.00    -0.354 N 
ATOM     56  N   UNL     1       3.028 -10.495  -4.188  1.00  0.00    -0.248 NA
ATOM     57  C   UNL     1       1.778 -12.074  -3.008  1.00  0.00     0.031 C 
ATOM     58  C   UNL     1       3.170 -10.246  -8.619  1.00  0.00     0.029 A 
ATOM     59  C   UNL     1       3.114 -10.344  -7.238  1.00  0.00     0.049 A 
ATOM     60  H   UNL     1       3.984  -9.096  -5.777  1.00  0.00     0.167 HD
ATOM     61  C   UNL     1       2.399 -11.347  -5.088  1.00  0.00     0.074 A 
ATOM     62  C   UNL     1       1.667 -12.319  -4.306  1.00  0.00     0.031 C 
ATOM     63  C   UNL     1       2.429 -11.328  -6.442  1.00  0.00     0.037 A 
BRANCH  50  64
ATOM     64  C   UNL     1       5.630  -6.643  -8.852  1.00  0.00     0.057 A 
ATOM     65  C   UNL     1       6.958  -6.662  -9.294  1.00  0.00     0.134 A 
ATOM     66  C   UNL     1       4.692  -5.975  -9.649  1.00  0.00     0.134 A 
ATOM     67  F   UNL     1       7.908  -7.273  -8.570  1.00  0.00    -0.206 F 
ATOM     68  C   UNL     1       7.341  -6.031 -10.479  1.00  0.00     0.040 A 
ATOM     69  C   UNL     1       5.057  -5.366 -10.850  1.00  0.00     0.040 A 
ATOM     70  F   UNL     1       3.401  -5.924  -9.286  1.00  0.00    -0.206 F 
ATOM     71  C   UNL     1       6.386  -5.391 -11.267  1.00  0.00     0.006 A 
ENDBRANCH  50  64
BRANCH  51  72
ATOM     72  C   UNL     1       2.611 -11.043  -0.402  1.00  0.00     0.057 A 
ATOM     73  C   UNL     1       2.949 -12.361  -0.066  1.00  0.00     0.134 A 
ATOM     74  C   UNL     1       1.726 -10.372   0.450  1.00  0.00     0.134 A 
ATOM     75  F   UNL     1       3.778 -13.065  -0.850  1.00  0.00    -0.206 F 
ATOM     76  C   UNL     1       2.395 -13.000   1.045  1.00  0.00     0.040 A 
ATOM     77  C   UNL     1       1.189 -10.988   1.582  1.00  0.00     0.040 A 
ATOM     78  F   UNL     1       1.367  -9.105   0.193  1.00  0.00    -0.206 F 
ATOM     79  C   UNL     1       1.512 -12.311   1.874  1.00  0.00     0.006 A 
ENDBRANCH  51  72
BRANCH  63  80
ATOM     80  C   UNL     1       1.722 -12.431  -7.174  1.00  0.00     0.057 A 
ATOM     81  C   UNL     1       0.327 -12.493  -7.263  1.00  0.00     0.134 A 
ATOM     82  C   UNL     1       2.461 -13.394  -7.875  1.00  0.00     0.134 A 
ATOM     83  F   UNL     1      -0.437 -11.607  -6.607  1.00  0.00    -0.206 F 
ATOM     84  C   UNL     1      -0.309 -13.481  -8.016  1.00  0.00     0.040 A 
ATOM     85  C   UNL     1       1.837 -14.368  -8.653  1.00  0.00     0.040 A 
ATOM     86  F   UNL     1       3.802 -13.382  -7.839  1.00  0.00    -0.206 F 
ATOM     87  C   UNL     1       0.447 -14.415  -8.723  1.00  0.00     0.006 A 
ENDBRANCH  63  80
ENDBRANCH  37  38
ENDBRANCH  29  32
ENDBRANCH  27  28
ENDBRANCH  26  27
ENDBRANCH  25  26
ENDBRANCH  24  25
ENDBRANCH  23  24
ENDBRANCH   1  23
TORSDOF 20
