REMARK SMILES C=CCOc1ccccc1-c1cc(C(=O)NCCCCCCNC(=O)c2ccc(-c3c4nc(c(-c5c(F)cccc5F)c5ccc([nH]5)c(-c5c(F)cccc5F)c5nc(c(-c6c(F)cccc6F)c6ccc3[nH]6)C=C5)C=C4)cc2)nc(N)n1
REMARK SMILES IDX 18 1 17 2 16 3 14 4 15 5 13 7 11 8 12 9 83 10 81 11 80 12
REMARK SMILES IDX 10 13 5 14 6 15 7 16 9 17 8 18 4 19 3 20 2 21 1 22 82 23
REMARK SMILES IDX 19 26 20 27 21 28 22 29 23 30 24 31 25 33 26 34 27 35 79 36
REMARK SMILES IDX 28 37 78 38 29 39 30 40 31 41 72 42 32 43 77 44 71 45 73 46
REMARK SMILES IDX 33 47 76 48 70 49 69 50 34 52 60 53 43 54 59 55 44 56 47 57
REMARK SMILES IDX 58 58 74 59 45 60 46 61 57 63 75 64 48 65 35 66 36 67 41 68
REMARK SMILES IDX 37 69 38 70 40 71 42 72 39 73 61 74 62 75 67 76 63 77 64 78
REMARK SMILES IDX 66 79 68 80 65 81 49 82 50 83 55 84 51 85 52 86 54 87 56 88
REMARK SMILES IDX 53 89
REMARK H PARENT 16 6 82 24 82 25 23 32 73 51 47 62
REMARK Flexibility Score: inf
ROOT
ATOM      1  C   UNL     1       3.313   1.416  -3.988  1.00  0.00     0.021 C 
ENDROOT
BRANCH   1   2
ATOM      2  C   UNL     1       3.691   1.395  -2.509  1.00  0.00     0.116 C 
BRANCH   2   3
ATOM      3  N   UNL     1       3.312   2.608  -1.811  1.00  0.00    -0.351 N 
ATOM      4  C   UNL     1       2.863   2.782  -0.520  1.00  0.00     0.270 C 
ATOM      5  O   UNL     1       2.603   3.926  -0.146  1.00  0.00    -0.268 OA
ATOM      6  H   UNL     1       3.387   3.435  -2.341  1.00  0.00     0.163 HD
BRANCH   4   7
ATOM      7  C   UNL     1       2.626   1.628   0.402  1.00  0.00     0.134 A 
ATOM      8  C   UNL     1       1.325   0.638   2.053  1.00  0.00     0.080 A 
ATOM      9  C   UNL     1       1.689   1.788   1.394  1.00  0.00     0.063 A 
ATOM     10  N   UNL     1       1.918  -0.552   1.806  1.00  0.00    -0.213 NA
ATOM     11  C   UNL     1       2.853  -0.586   0.859  1.00  0.00     0.221 A 
ATOM     12  N   UNL     1       3.252   0.462   0.147  1.00  0.00    -0.208 NA
BRANCH   8  13
ATOM     13  C   UNL     1       0.188   0.591   2.982  1.00  0.00     0.042 A 
ATOM     14  C   UNL     1      -1.083   1.105   2.652  1.00  0.00     0.129 A 
ATOM     15  C   UNL     1      -2.145   1.047   3.559  1.00  0.00     0.047 A 
ATOM     16  C   UNL     1      -1.963   0.452   4.806  1.00  0.00     0.004 A 
ATOM     17  C   UNL     1       0.341  -0.014   4.243  1.00  0.00     0.014 A 
ATOM     18  C   UNL     1      -0.721  -0.078   5.149  1.00  0.00     0.001 A 
BRANCH  14  19
ATOM     19  O   UNL     1      -1.298   1.759   1.462  1.00  0.00    -0.489 OA
BRANCH  19  20
ATOM     20  C   UNL     1      -1.775   0.879   0.435  1.00  0.00     0.257 C 
BRANCH  20  21
ATOM     21  C   UNL     1      -0.772   0.863  -0.683  1.00  0.00     0.006 C 
ATOM     22  C   UNL     1      -0.170  -0.239  -1.149  1.00  0.00     0.007 C 
ENDBRANCH  20  21
ENDBRANCH  19  20
ENDBRANCH  14  19
ENDBRANCH   8  13
BRANCH  11  23
ATOM     23  N   UNL     1       3.359  -1.806   0.514  1.00  0.00    -0.368 N 
ATOM     24  H   UNL     1       4.052  -1.873  -0.182  1.00  0.00     0.159 HD
ATOM     25  H   UNL     1       3.031  -2.619   0.962  1.00  0.00     0.159 HD
ENDBRANCH  11  23
ENDBRANCH   4   7
ENDBRANCH   2   3
ENDBRANCH   1   2
BRANCH   1  26
ATOM     26  C   UNL     1       3.938   2.537  -4.820  1.00  0.00     0.002 C 
BRANCH  26  27
ATOM     27  C   UNL     1       5.464   2.631  -4.761  1.00  0.00     0.002 C 
BRANCH  27  28
ATOM     28  C   UNL     1       6.218   1.349  -5.118  1.00  0.00     0.021 C 
BRANCH  28  29
ATOM     29  C   UNL     1       5.883   0.759  -6.484  1.00  0.00     0.116 C 
BRANCH  29  30
ATOM     30  N   UNL     1       6.229   1.652  -7.577  1.00  0.00    -0.352 N 
ATOM     31  C   UNL     1       7.000   1.417  -8.689  1.00  0.00     0.251 C 
ATOM     32  H   UNL     1       5.855   2.561  -7.511  1.00  0.00     0.163 HD
ATOM     33  O   UNL     1       7.323   2.344  -9.422  1.00  0.00    -0.269 OA
BRANCH  31  34
ATOM     34  C   UNL     1       7.464   0.044  -8.991  1.00  0.00     0.039 A 
ATOM     35  C   UNL     1       8.793  -0.145  -9.378  1.00  0.00     0.014 A 
ATOM     36  C   UNL     1       6.598  -1.049  -8.899  1.00  0.00     0.014 A 
ATOM     37  C   UNL     1       9.271  -1.438  -9.607  1.00  0.00     0.010 A 
ATOM     38  C   UNL     1       7.095  -2.341  -9.053  1.00  0.00     0.010 A 
ATOM     39  C   UNL     1       8.436  -2.550  -9.407  1.00  0.00    -0.014 A 
BRANCH  39  40
ATOM     40  C   UNL     1       8.957  -3.935  -9.545  1.00  0.00     0.031 A 
ATOM     41  C   UNL     1       8.408  -4.855 -10.600  1.00  0.00     0.074 A 
ATOM     42  C   UNL     1       9.886  -4.384  -8.677  1.00  0.00     0.049 A 
ATOM     43  N   UNL     1       8.697  -6.111 -10.833  1.00  0.00    -0.248 NA
ATOM     44  C   UNL     1       7.383  -4.299 -11.497  1.00  0.00     0.031 C 
ATOM     45  C   UNL     1      10.466  -3.606  -7.581  1.00  0.00     0.029 A 
ATOM     46  N   UNL     1      10.498  -5.609  -8.574  1.00  0.00    -0.354 N 
ATOM     47  C   UNL     1       7.885  -6.495 -11.893  1.00  0.00     0.074 A 
ATOM     48  C   UNL     1       7.054  -5.358 -12.222  1.00  0.00     0.031 C 
ATOM     49  C   UNL     1      11.366  -4.362  -6.933  1.00  0.00     0.029 A 
ATOM     50  C   UNL     1      11.395  -5.690  -7.536  1.00  0.00     0.049 A 
ATOM     51  H   UNL     1      10.312  -6.357  -9.185  1.00  0.00     0.167 HD
ATOM     52  C   UNL     1       7.852  -7.681 -12.547  1.00  0.00     0.037 A 
ATOM     53  C   UNL     1      12.149  -6.722  -7.111  1.00  0.00     0.037 A 
ATOM     54  C   UNL     1       8.691  -8.807 -12.227  1.00  0.00     0.049 A 
ATOM     55  C   UNL     1      12.076  -8.035  -7.841  1.00  0.00     0.074 A 
ATOM     56  C   UNL     1       8.770 -10.032 -12.867  1.00  0.00     0.029 A 
ATOM     57  N   UNL     1       9.592  -8.848 -11.174  1.00  0.00    -0.354 N 
ATOM     58  N   UNL     1      11.354  -8.362  -8.885  1.00  0.00    -0.248 NA
ATOM     59  C   UNL     1      12.927  -9.122  -7.335  1.00  0.00     0.031 C 
ATOM     60  C   UNL     1       9.677 -10.834 -12.167  1.00  0.00     0.029 A 
ATOM     61  C   UNL     1      10.210 -10.088 -11.128  1.00  0.00     0.049 A 
ATOM     62  H   UNL     1       9.767  -8.107 -10.550  1.00  0.00     0.167 HD
ATOM     63  C   UNL     1      11.687  -9.678  -9.181  1.00  0.00     0.074 A 
ATOM     64  C   UNL     1      12.686 -10.084  -8.214  1.00  0.00     0.031 C 
ATOM     65  C   UNL     1      11.208 -10.478 -10.165  1.00  0.00     0.037 A 
BRANCH  52  66
ATOM     66  C   UNL     1       6.873  -7.825 -13.678  1.00  0.00     0.057 A 
ATOM     67  C   UNL     1       7.031  -7.133 -14.886  1.00  0.00     0.134 A 
ATOM     68  C   UNL     1       5.784  -8.700 -13.575  1.00  0.00     0.134 A 
ATOM     69  F   UNL     1       8.046  -6.271 -15.049  1.00  0.00    -0.206 F 
ATOM     70  C   UNL     1       6.128  -7.285 -15.940  1.00  0.00     0.040 A 
ATOM     71  C   UNL     1       4.892  -8.884 -14.633  1.00  0.00     0.040 A 
ATOM     72  F   UNL     1       5.576  -9.401 -12.450  1.00  0.00    -0.206 F 
ATOM     73  C   UNL     1       5.059  -8.170 -15.818  1.00  0.00     0.006 A 
ENDBRANCH  52  66
BRANCH  53  74
ATOM     74  C   UNL     1      13.050  -6.555  -5.941  1.00  0.00     0.057 A 
ATOM     75  C   UNL     1      14.442  -6.578  -6.091  1.00  0.00     0.134 A 
ATOM     76  C   UNL     1      12.545  -6.385  -4.646  1.00  0.00     0.134 A 
ATOM     77  F   UNL     1      14.988  -6.756  -7.303  1.00  0.00    -0.206 F 
ATOM     78  C   UNL     1      15.298  -6.463  -4.995  1.00  0.00     0.040 A 
ATOM     79  C   UNL     1      13.390  -6.240  -3.545  1.00  0.00     0.040 A 
ATOM     80  F   UNL     1      11.221  -6.346  -4.435  1.00  0.00    -0.206 F 
ATOM     81  C   UNL     1      14.771  -6.289  -3.716  1.00  0.00     0.006 A 
ENDBRANCH  53  74
BRANCH  65  82
ATOM     82  C   UNL     1      11.787 -11.859 -10.273  1.00  0.00     0.057 A 
ATOM     83  C   UNL     1      11.513 -12.856  -9.328  1.00  0.00     0.134 A 
ATOM     84  C   UNL     1      12.602 -12.206 -11.359  1.00  0.00     0.134 A 
ATOM     85  F   UNL     1      10.751 -12.588  -8.257  1.00  0.00    -0.206 F 
ATOM     86  C   UNL     1      12.050 -14.140  -9.446  1.00  0.00     0.040 A 
ATOM     87  C   UNL     1      13.118 -13.494 -11.504  1.00  0.00     0.040 A 
ATOM     88  F   UNL     1      12.897 -11.302 -12.306  1.00  0.00    -0.206 F 
ATOM     89  C   UNL     1      12.849 -14.463 -10.541  1.00  0.00     0.006 A 
ENDBRANCH  65  82
ENDBRANCH  39  40
ENDBRANCH  31  34
ENDBRANCH  29  30
ENDBRANCH  28  29
ENDBRANCH  27  28
ENDBRANCH  26  27
ENDBRANCH   1  26
TORSDOF 18
