REMARK SMILES C[C@@H]1CN(S(=O)(=O)N2CCC(C(=O)NCCCCCCNC(=O)c3ccc(-c4c5nc(c(-c6c(F)cccc6F)c6ccc([nH]6)c(-c6c(F)cccc6F)c6nc(c(-c7c(F)cccc7F)c7ccc4[nH]7)C=C6)C=C5)cc3)CC2)C[C@@H](C)O1
REMARK SMILES IDX 17 1 16 2 15 3 14 4 12 5 13 6 11 8 8 9 9 10 79 11 10 12
REMARK SMILES IDX 78 13 5 14 6 15 7 16 4 17 1 18 2 19 3 20 83 21 81 22 80 23
REMARK SMILES IDX 82 24 18 25 19 26 20 27 21 28 22 29 23 31 24 32 25 33 77 34
REMARK SMILES IDX 26 35 76 36 27 37 28 38 29 39 70 40 30 41 75 42 69 43 71 44
REMARK SMILES IDX 31 45 74 46 68 47 67 48 32 50 58 51 41 52 57 53 42 54 45 55
REMARK SMILES IDX 56 56 72 57 43 58 44 59 55 61 73 62 46 63 33 64 34 65 39 66
REMARK SMILES IDX 35 67 36 68 38 69 40 70 37 71 59 72 60 73 65 74 61 75 62 76
REMARK SMILES IDX 64 77 66 78 63 79 47 80 48 81 53 82 49 83 50 84 52 85 54 86
REMARK SMILES IDX 51 87
REMARK H PARENT 14 7 21 30 71 49 45 60
REMARK Flexibility Score: inf
ROOT
ATOM      1  C   UNL     1      -0.923  -2.174  -1.011  1.00  0.00     0.002 C 
ENDROOT
BRANCH   1   2
ATOM      2  C   UNL     1       0.119  -1.704  -2.041  1.00  0.00     0.021 C 
BRANCH   2   3
ATOM      3  C   UNL     1       1.526  -1.273  -1.597  1.00  0.00     0.116 C 
BRANCH   3   4
ATOM      4  N   UNL     1       2.501  -2.257  -1.189  1.00  0.00    -0.356 N 
ATOM      5  C   UNL     1       3.852  -2.114  -0.990  1.00  0.00     0.223 C 
ATOM      6  O   UNL     1       4.410  -3.027  -0.368  1.00  0.00    -0.275 OA
ATOM      7  H   UNL     1       2.146  -3.161  -1.032  1.00  0.00     0.163 HD
BRANCH   5   8
ATOM      8  C   UNL     1       4.698  -0.885  -1.418  1.00  0.00     0.081 C 
ATOM      9  N   UNL     1       4.451   1.884  -2.089  1.00  0.00    -0.189 NA
ATOM     10  C   UNL     1       5.189   1.549  -0.875  1.00  0.00     0.104 C 
ATOM     11  C   UNL     1       4.780   1.034  -3.236  1.00  0.00     0.104 C 
ATOM     12  C   UNL     1       4.604   0.237  -0.373  1.00  0.00     0.030 C 
ATOM     13  C   UNL     1       4.580  -0.460  -2.898  1.00  0.00     0.030 C 
BRANCH   9  14
ATOM     14  S   UNL     1       3.766   3.409  -2.257  1.00  0.00     0.282 S 
ATOM     15  O   UNL     1       3.183   3.527  -3.569  1.00  0.00    -0.195 OA
ATOM     16  O   UNL     1       4.670   4.400  -1.721  1.00  0.00    -0.195 OA
BRANCH  14  17
ATOM     17  N   UNL     1       2.492   3.209  -1.149  1.00  0.00    -0.184 NA
ATOM     18  C   UNL     1       1.177   1.310   0.931  1.00  0.00     0.040 C 
ATOM     19  C   UNL     1       0.629   1.788  -0.417  1.00  0.00     0.130 C 
ATOM     20  C   UNL     1       1.599   2.102  -1.544  1.00  0.00     0.135 C 
ATOM     21  O   UNL     1      -0.220   2.918  -0.221  1.00  0.00    -0.373 OA
ATOM     22  C   UNL     1       0.556   4.058   0.199  1.00  0.00     0.130 C 
ATOM     23  C   UNL     1       1.653   4.425  -0.846  1.00  0.00     0.135 C 
ATOM     24  C   UNL     1      -0.462   5.153   0.458  1.00  0.00     0.040 C 
ENDBRANCH  14  17
ENDBRANCH   9  14
ENDBRANCH   5   8
ENDBRANCH   3   4
ENDBRANCH   2   3
ENDBRANCH   1   2
BRANCH   1  25
ATOM     25  C   UNL     1      -1.567  -1.208   0.008  1.00  0.00     0.002 C 
BRANCH  25  26
ATOM     26  C   UNL     1      -2.404   0.014  -0.421  1.00  0.00     0.021 C 
BRANCH  26  27
ATOM     27  C   UNL     1      -3.398  -0.120  -1.563  1.00  0.00     0.116 C 
BRANCH  27  28
ATOM     28  N   UNL     1      -4.693  -0.576  -1.100  1.00  0.00    -0.352 N 
ATOM     29  C   UNL     1      -5.853   0.126  -0.861  1.00  0.00     0.251 C 
ATOM     30  H   UNL     1      -4.753  -1.544  -0.929  1.00  0.00     0.163 HD
ATOM     31  O   UNL     1      -6.739  -0.410  -0.197  1.00  0.00    -0.269 OA
BRANCH  29  32
ATOM     32  C   UNL     1      -6.069   1.509  -1.368  1.00  0.00     0.039 A 
ATOM     33  C   UNL     1      -6.814   2.399  -0.585  1.00  0.00     0.014 A 
ATOM     34  C   UNL     1      -5.636   1.922  -2.631  1.00  0.00     0.014 A 
ATOM     35  C   UNL     1      -7.076   3.699  -1.037  1.00  0.00     0.010 A 
ATOM     36  C   UNL     1      -5.830   3.243  -3.050  1.00  0.00     0.010 A 
ATOM     37  C   UNL     1      -6.556   4.148  -2.262  1.00  0.00    -0.014 A 
BRANCH  37  38
ATOM     38  C   UNL     1      -6.754   5.554  -2.717  1.00  0.00     0.031 A 
ATOM     39  C   UNL     1      -7.515   5.856  -3.983  1.00  0.00     0.074 A 
ATOM     40  C   UNL     1      -6.202   6.566  -2.017  1.00  0.00     0.049 A 
ATOM     41  N   UNL     1      -7.727   7.011  -4.567  1.00  0.00    -0.248 NA
ATOM     42  C   UNL     1      -8.100   4.711  -4.697  1.00  0.00     0.031 C 
ATOM     43  C   UNL     1      -5.411   6.414  -0.794  1.00  0.00     0.029 A 
ATOM     44  N   UNL     1      -6.209   7.923  -2.237  1.00  0.00    -0.354 N 
ATOM     45  C   UNL     1      -8.454   6.729  -5.719  1.00  0.00     0.074 A 
ATOM     46  C   UNL     1      -8.610   5.292  -5.775  1.00  0.00     0.031 C 
ATOM     47  C   UNL     1      -5.026   7.625  -0.363  1.00  0.00     0.029 A 
ATOM     48  C   UNL     1      -5.496   8.638  -1.303  1.00  0.00     0.049 A 
ATOM     49  H   UNL     1      -6.680   8.344  -2.992  1.00  0.00     0.167 HD
ATOM     50  C   UNL     1      -8.960   7.590  -6.636  1.00  0.00     0.037 A 
ATOM     51  C   UNL     1      -5.230   9.956  -1.221  1.00  0.00     0.037 A 
ATOM     52  C   UNL     1      -8.822   9.022  -6.569  1.00  0.00     0.049 A 
ATOM     53  C   UNL     1      -5.777  10.885  -2.272  1.00  0.00     0.074 A 
ATOM     54  C   UNL     1      -9.355   9.979  -7.417  1.00  0.00     0.029 A 
ATOM     55  N   UNL     1      -8.091   9.705  -5.609  1.00  0.00    -0.354 N 
ATOM     56  N   UNL     1      -6.526  10.608  -3.312  1.00  0.00    -0.248 NA
ATOM     57  C   UNL     1      -5.443  12.310  -2.137  1.00  0.00     0.031 C 
ATOM     58  C   UNL     1      -8.897  11.234  -7.006  1.00  0.00     0.029 A 
ATOM     59  C   UNL     1      -8.128  11.066  -5.866  1.00  0.00     0.049 A 
ATOM     60  H   UNL     1      -7.616   9.284  -4.856  1.00  0.00     0.167 HD
ATOM     61  C   UNL     1      -6.769  11.823  -3.940  1.00  0.00     0.074 A 
ATOM     62  C   UNL     1      -6.111  12.842  -3.150  1.00  0.00     0.031 C 
ATOM     63  C   UNL     1      -7.470  12.072  -5.073  1.00  0.00     0.037 A 
BRANCH  50  64
ATOM     64  C   UNL     1      -9.713   7.013  -7.802  1.00  0.00     0.057 A 
ATOM     65  C   UNL     1     -10.978   6.430  -7.653  1.00  0.00     0.134 A 
ATOM     66  C   UNL     1      -9.197   7.108  -9.102  1.00  0.00     0.134 A 
ATOM     67  F   UNL     1     -11.528   6.301  -6.436  1.00  0.00    -0.206 F 
ATOM     68  C   UNL     1     -11.694   5.946  -8.750  1.00  0.00     0.040 A 
ATOM     69  C   UNL     1      -9.916   6.654 -10.210  1.00  0.00     0.040 A 
ATOM     70  F   UNL     1      -7.996   7.665  -9.320  1.00  0.00    -0.206 F 
ATOM     71  C   UNL     1     -11.167   6.067 -10.034  1.00  0.00     0.006 A 
ENDBRANCH  50  64
BRANCH  51  72
ATOM     72  C   UNL     1      -4.391  10.485  -0.112  1.00  0.00     0.057 A 
ATOM     73  C   UNL     1      -4.926  11.338   0.860  1.00  0.00     0.134 A 
ATOM     74  C   UNL     1      -3.028  10.178  -0.017  1.00  0.00     0.134 A 
ATOM     75  F   UNL     1      -6.220  11.688   0.813  1.00  0.00    -0.206 F 
ATOM     76  C   UNL     1      -4.133  11.889   1.868  1.00  0.00     0.040 A 
ATOM     77  C   UNL     1      -2.230  10.696   1.004  1.00  0.00     0.040 A 
ATOM     78  F   UNL     1      -2.452   9.361  -0.911  1.00  0.00    -0.206 F 
ATOM     79  C   UNL     1      -2.780  11.565   1.944  1.00  0.00     0.006 A 
ENDBRANCH  51  72
BRANCH  63  80
ATOM     80  C   UNL     1      -7.581  13.504  -5.514  1.00  0.00     0.057 A 
ATOM     81  C   UNL     1      -6.483  14.207  -6.027  1.00  0.00     0.134 A 
ATOM     82  C   UNL     1      -8.809  14.176  -5.460  1.00  0.00     0.134 A 
ATOM     83  F   UNL     1      -5.275  13.627  -6.094  1.00  0.00    -0.206 F 
ATOM     84  C   UNL     1      -6.596  15.535  -6.444  1.00  0.00     0.040 A 
ATOM     85  C   UNL     1      -8.942  15.492  -5.904  1.00  0.00     0.040 A 
ATOM     86  F   UNL     1      -9.904  13.559  -4.990  1.00  0.00    -0.206 F 
ATOM     87  C   UNL     1      -7.831  16.178  -6.391  1.00  0.00     0.006 A 
ENDBRANCH  63  80
ENDBRANCH  37  38
ENDBRANCH  29  32
ENDBRANCH  27  28
ENDBRANCH  26  27
ENDBRANCH  25  26
ENDBRANCH   1  25
TORSDOF 15
