REMARK SMILES O=C(/C=C/c1cc(C(=O)NCCn2cccn2)cs1)NCCCCCCNC(=O)c1ccc(-c2c3nc(c(-c4c(F)cccc4F)c4ccc([nH]4)c(-c4c(F)cccc4F)c4nc(c(-c5c(F)cccc5F)c5ccc2[nH]5)C=C4)C=C3)cc1
REMARK SMILES IDX 22 1 21 2 20 3 1 4 2 5 3 7 4 8 5 9 6 10 19 11 7 12 18 13
REMARK SMILES IDX 8 14 9 15 10 16 11 18 12 19 13 20 14 21 17 22 15 23 16 24
REMARK SMILES IDX 23 25 24 26 25 27 26 28 27 29 28 30 29 32 30 33 31 34 83 35
REMARK SMILES IDX 32 36 82 37 33 38 34 39 35 40 76 41 36 42 81 43 75 44 77 45
REMARK SMILES IDX 37 46 80 47 74 48 73 49 38 51 64 52 47 53 63 54 48 55 51 56
REMARK SMILES IDX 62 57 78 58 49 59 50 60 61 62 79 63 52 64 39 65 40 66 45 67
REMARK SMILES IDX 41 68 42 69 44 70 46 71 43 72 65 73 66 74 71 75 67 76 68 77
REMARK SMILES IDX 70 78 72 79 69 80 53 81 54 82 59 83 55 84 56 85 58 86 60 87
REMARK SMILES IDX 57 88
REMARK H PARENT 20 6 10 17 27 31 77 50 51 61
REMARK Flexibility Score: inf
ROOT
ATOM      1  C   UNL     1       2.720   1.063   3.232  1.00  0.00     0.021 C 
ENDROOT
BRANCH   1   2
ATOM      2  C   UNL     1       2.178   1.457   1.859  1.00  0.00     0.116 C 
BRANCH   2   3
ATOM      3  N   UNL     1       2.873   0.758   0.800  1.00  0.00    -0.353 N 
ATOM      4  O   UNL     1       1.089  -0.515   0.105  1.00  0.00    -0.270 OA
ATOM      5  C   UNL     1       2.275  -0.214   0.049  1.00  0.00     0.244 C 
ATOM      6  H   UNL     1       3.811   0.992   0.614  1.00  0.00     0.163 HD
BRANCH   5   7
ATOM      7  C   UNL     1       3.152  -0.872  -0.943  1.00  0.00     0.072 C 
ATOM      8  C   UNL     1       4.468  -1.089  -0.784  1.00  0.00     0.024 C 
BRANCH   8   9
ATOM      9  C   UNL     1       5.175  -1.794  -1.796  1.00  0.00     0.028 A 
ATOM     10  C   UNL     1       5.070  -1.675  -3.173  1.00  0.00     0.033 A 
ATOM     11  S   UNL     1       6.335  -2.981  -1.387  1.00  0.00    -0.144 S 
ATOM     12  C   UNL     1       5.733  -2.712  -3.901  1.00  0.00     0.051 A 
ATOM     13  C   UNL     1       6.509  -3.451  -3.017  1.00  0.00     0.079 A 
BRANCH  12  14
ATOM     14  C   UNL     1       5.726  -3.051  -5.324  1.00  0.00     0.252 C 
ATOM     15  O   UNL     1       6.540  -3.851  -5.789  1.00  0.00    -0.269 OA
ATOM     16  N   UNL     1       4.808  -2.556  -6.211  1.00  0.00    -0.350 N 
ATOM     17  H   UNL     1       4.946  -2.898  -7.125  1.00  0.00     0.163 HD
BRANCH  16  18
ATOM     18  C   UNL     1       3.675  -1.641  -6.122  1.00  0.00     0.140 C 
BRANCH  18  19
ATOM     19  C   UNL     1       3.967  -0.294  -6.789  1.00  0.00     0.165 C 
BRANCH  19  20
ATOM     20  N   UNL     1       3.771  -0.258  -8.231  1.00  0.00    -0.271 N 
ATOM     21  C   UNL     1       3.628  -1.296  -9.109  1.00  0.00     0.108 A 
ATOM     22  N   UNL     1       3.691   0.946  -8.835  1.00  0.00    -0.181 NA
ATOM     23  C   UNL     1       3.437  -0.734 -10.349  1.00  0.00     0.042 A 
ATOM     24  C   UNL     1       3.487   0.650 -10.121  1.00  0.00     0.135 A 
ENDBRANCH  19  20
ENDBRANCH  18  19
ENDBRANCH  16  18
ENDBRANCH  12  14
ENDBRANCH   8   9
ENDBRANCH   5   7
ENDBRANCH   2   3
ENDBRANCH   1   2
BRANCH   1  25
ATOM     25  C   UNL     1       4.223   1.310   3.423  1.00  0.00     0.002 C 
BRANCH  25  26
ATOM     26  C   UNL     1       4.722   2.732   3.125  1.00  0.00     0.002 C 
BRANCH  26  27
ATOM     27  C   UNL     1       4.030   3.876   3.878  1.00  0.00     0.021 C 
BRANCH  27  28
ATOM     28  C   UNL     1       4.174   3.811   5.392  1.00  0.00     0.116 C 
BRANCH  28  29
ATOM     29  N   UNL     1       5.553   3.994   5.844  1.00  0.00    -0.352 N 
ATOM     30  C   UNL     1       6.052   3.923   7.134  1.00  0.00     0.251 C 
ATOM     31  H   UNL     1       6.212   4.193   5.140  1.00  0.00     0.163 HD
ATOM     32  O   UNL     1       7.109   4.451   7.432  1.00  0.00    -0.269 OA
BRANCH  30  33
ATOM     33  C   UNL     1       5.275   3.186   8.149  1.00  0.00     0.039 A 
ATOM     34  C   UNL     1       5.160   3.648   9.464  1.00  0.00     0.014 A 
ATOM     35  C   UNL     1       4.634   2.020   7.748  1.00  0.00     0.014 A 
ATOM     36  C   UNL     1       4.320   2.967  10.344  1.00  0.00     0.010 A 
ATOM     37  C   UNL     1       3.677   1.464   8.552  1.00  0.00     0.010 A 
ATOM     38  C   UNL     1       3.563   1.884   9.872  1.00  0.00    -0.014 A 
BRANCH  38  39
ATOM     39  C   UNL     1       2.557   1.235  10.707  1.00  0.00     0.031 A 
ATOM     40  C   UNL     1       1.536   2.151  11.282  1.00  0.00     0.074 A 
ATOM     41  C   UNL     1       2.414  -0.109  10.748  1.00  0.00     0.049 A 
ATOM     42  N   UNL     1       1.323   2.401  12.531  1.00  0.00    -0.248 NA
ATOM     43  C   UNL     1       0.739   2.983  10.366  1.00  0.00     0.031 C 
ATOM     44  C   UNL     1       3.165  -1.125   9.997  1.00  0.00     0.029 A 
ATOM     45  N   UNL     1       1.470  -0.856  11.383  1.00  0.00    -0.354 N 
ATOM     46  C   UNL     1       0.222   3.253  12.569  1.00  0.00     0.074 A 
ATOM     47  C   UNL     1       0.029   3.721  11.222  1.00  0.00     0.031 C 
ATOM     48  C   UNL     1       2.495  -2.297  10.023  1.00  0.00     0.029 A 
ATOM     49  C   UNL     1       1.368  -2.166  10.926  1.00  0.00     0.049 A 
ATOM     50  H   UNL     1       0.907  -0.498  12.107  1.00  0.00     0.167 HD
ATOM     51  C   UNL     1      -0.594   3.291  13.660  1.00  0.00     0.037 A 
ATOM     52  C   UNL     1       0.411  -3.072  11.247  1.00  0.00     0.037 A 
ATOM     53  C   UNL     1       0.041   2.682  14.804  1.00  0.00     0.049 A 
ATOM     54  C   UNL     1      -0.227  -2.607  12.503  1.00  0.00     0.074 A 
ATOM     55  C   UNL     1       1.220   2.897  15.491  1.00  0.00     0.029 A 
ATOM     56  N   UNL     1      -0.377   1.425  15.171  1.00  0.00    -0.354 N 
ATOM     57  N   UNL     1       0.376  -2.601  13.659  1.00  0.00    -0.248 NA
ATOM     58  C   UNL     1      -1.372  -1.716  12.392  1.00  0.00     0.031 C 
ATOM     59  C   UNL     1       1.697   1.593  15.820  1.00  0.00     0.029 A 
ATOM     60  C   UNL     1       0.746   0.669  15.386  1.00  0.00     0.049 A 
ATOM     61  H   UNL     1      -1.309   1.123  15.262  1.00  0.00     0.167 HD
ATOM     62  C   UNL     1      -0.007  -1.404  14.245  1.00  0.00     0.074 A 
ATOM     63  C   UNL     1      -1.162  -0.953  13.468  1.00  0.00     0.031 C 
ATOM     64  C   UNL     1       0.824  -0.745  15.104  1.00  0.00     0.037 A 
BRANCH  51  65
ATOM     65  C   UNL     1      -2.089   3.499  13.601  1.00  0.00     0.057 A 
ATOM     66  C   UNL     1      -2.805   3.632  14.806  1.00  0.00     0.134 A 
ATOM     67  C   UNL     1      -2.881   3.259  12.460  1.00  0.00     0.134 A 
ATOM     68  F   UNL     1      -2.167   3.857  15.964  1.00  0.00    -0.206 F 
ATOM     69  C   UNL     1      -4.190   3.440  14.882  1.00  0.00     0.040 A 
ATOM     70  C   UNL     1      -4.271   3.119  12.518  1.00  0.00     0.040 A 
ATOM     71  F   UNL     1      -2.356   3.041  11.249  1.00  0.00    -0.206 F 
ATOM     72  C   UNL     1      -4.926   3.171  13.736  1.00  0.00     0.006 A 
ENDBRANCH  51  65
BRANCH  52  73
ATOM     73  C   UNL     1      -0.146  -4.182  10.440  1.00  0.00     0.057 A 
ATOM     74  C   UNL     1      -0.929  -5.186  11.030  1.00  0.00     0.134 A 
ATOM     75  C   UNL     1      -0.155  -4.144   9.034  1.00  0.00     0.134 A 
ATOM     76  F   UNL     1      -1.014  -5.288  12.364  1.00  0.00    -0.206 F 
ATOM     77  C   UNL     1      -1.703  -6.074  10.270  1.00  0.00     0.040 A 
ATOM     78  C   UNL     1      -0.916  -5.030   8.263  1.00  0.00     0.040 A 
ATOM     79  F   UNL     1       0.502  -3.189   8.361  1.00  0.00    -0.206 F 
ATOM     80  C   UNL     1      -1.708  -5.989   8.882  1.00  0.00     0.006 A 
ENDBRANCH  52  73
BRANCH  64  81
ATOM     81  C   UNL     1       2.046  -1.470  15.597  1.00  0.00     0.057 A 
ATOM     82  C   UNL     1       3.089  -1.918  14.771  1.00  0.00     0.134 A 
ATOM     83  C   UNL     1       2.241  -1.594  16.977  1.00  0.00     0.134 A 
ATOM     84  F   UNL     1       3.048  -1.749  13.445  1.00  0.00    -0.206 F 
ATOM     85  C   UNL     1       4.245  -2.507  15.292  1.00  0.00     0.040 A 
ATOM     86  C   UNL     1       3.406  -2.149  17.512  1.00  0.00     0.040 A 
ATOM     87  F   UNL     1       1.315  -1.135  17.834  1.00  0.00    -0.206 F 
ATOM     88  C   UNL     1       4.408  -2.620  16.668  1.00  0.00     0.006 A 
ENDBRANCH  64  81
ENDBRANCH  38  39
ENDBRANCH  30  33
ENDBRANCH  28  29
ENDBRANCH  27  28
ENDBRANCH  26  27
ENDBRANCH  25  26
ENDBRANCH   1  25
TORSDOF 18
