REMARK SMILES Cc1cc(CNS(=O)(=O)c2ccc(C(=O)NCCCCCCNC(=O)c3ccc(-c4c5nc(c(-c6c(F)cccc6F)c6ccc([nH]6)c(-c6c(F)cccc6F)c6nc(c(-c7c(F)cccc7F)c7ccc4[nH]7)C=C6)C=C5)cc3)cc2F)no1
REMARK SMILES IDX 18 1 17 2 16 3 14 4 15 5 13 7 10 8 11 9 81 10 12 11 80 12
REMARK SMILES IDX 82 13 7 14 8 15 9 16 6 17 5 19 4 20 1 21 2 22 3 23 84 24
REMARK SMILES IDX 83 25 19 26 20 27 21 28 22 29 23 30 24 31 25 33 26 34 27 35
REMARK SMILES IDX 79 36 28 37 78 38 29 39 30 40 31 41 72 42 32 43 77 44 71 45
REMARK SMILES IDX 73 46 33 47 76 48 70 49 69 50 34 52 60 53 43 54 59 55 44 56
REMARK SMILES IDX 47 57 58 58 74 59 45 60 46 61 57 63 75 64 48 65 35 66 36 67
REMARK SMILES IDX 41 68 37 69 38 70 40 71 42 72 39 73 61 74 62 75 67 76 63 77
REMARK SMILES IDX 64 78 66 79 68 80 65 81 49 82 50 83 55 84 51 85 52 86 54 87
REMARK SMILES IDX 56 88 53 89
REMARK H PARENT 16 6 6 18 23 32 73 51 47 62
REMARK Flexibility Score: inf
ROOT
ATOM      1  C   UNL     1      -7.122   2.208  -4.190  1.00  0.00     0.021 C 
ENDROOT
BRANCH   1   2
ATOM      2  C   UNL     1      -8.183   1.454  -3.384  1.00  0.00     0.116 C 
BRANCH   2   3
ATOM      3  N   UNL     1      -8.355   0.115  -3.914  1.00  0.00    -0.352 N 
ATOM      4  C   UNL     1      -7.916  -1.119  -3.518  1.00  0.00     0.251 C 
ATOM      5  O   UNL     1      -8.242  -2.081  -4.214  1.00  0.00    -0.269 OA
ATOM      6  H   UNL     1      -8.903   0.088  -4.731  1.00  0.00     0.163 HD
BRANCH   4   7
ATOM      7  C   UNL     1      -7.110  -1.371  -2.289  1.00  0.00     0.042 A 
ATOM      8  C   UNL     1      -5.649  -2.062   0.009  1.00  0.00     0.118 A 
ATOM      9  C   UNL     1      -6.427  -3.029  -0.626  1.00  0.00     0.026 A 
ATOM     10  C   UNL     1      -5.595  -0.773  -0.499  1.00  0.00     0.144 A 
ATOM     11  C   UNL     1      -7.162  -2.676  -1.760  1.00  0.00     0.015 A 
ATOM     12  C   UNL     1      -6.282  -0.436  -1.666  1.00  0.00     0.054 A 
ATOM     13  F   UNL     1      -4.852   0.172   0.091  1.00  0.00    -0.205 F 
BRANCH   8  14
ATOM     14  S   UNL     1      -4.676  -2.497   1.412  1.00  0.00     0.243 S 
ATOM     15  O   UNL     1      -4.367  -3.909   1.292  1.00  0.00    -0.207 OA
ATOM     16  O   UNL     1      -5.342  -1.959   2.572  1.00  0.00    -0.207 OA
BRANCH  14  17
ATOM     17  N   UNL     1      -3.232  -1.675   1.223  1.00  0.00    -0.205 NA
ATOM     18  H   UNL     1      -3.451  -0.680   1.192  1.00  0.00     0.141 HD
BRANCH  17  19
ATOM     19  C   UNL     1      -2.418  -1.978   0.043  1.00  0.00     0.158 C 
BRANCH  19  20
ATOM     20  C   UNL     1      -1.224  -1.083   0.046  1.00  0.00     0.099 A 
ATOM     21  C   UNL     1       2.230   0.141   0.066  1.00  0.00     0.091 C 
ATOM     22  C   UNL     1       0.809  -0.244   0.057  1.00  0.00     0.133 A 
ATOM     23  C   UNL     1       0.141  -1.442   0.081  1.00  0.00     0.073 A 
ATOM     24  O   UNL     1      -0.094   0.772   0.015  1.00  0.00    -0.361 OA
ATOM     25  N   UNL     1      -1.376   0.250   0.002  1.00  0.00    -0.083 NA
ENDBRANCH  19  20
ENDBRANCH  17  19
ENDBRANCH  14  17
ENDBRANCH   8  14
ENDBRANCH   4   7
ENDBRANCH   2   3
ENDBRANCH   1   2
BRANCH   1  26
ATOM     26  C   UNL     1      -7.653   2.770  -5.518  1.00  0.00     0.002 C 
BRANCH  26  27
ATOM     27  C   UNL     1      -8.746   3.838  -5.380  1.00  0.00     0.002 C 
BRANCH  27  28
ATOM     28  C   UNL     1      -8.381   5.034  -4.493  1.00  0.00     0.021 C 
BRANCH  28  29
ATOM     29  C   UNL     1      -7.186   5.845  -4.983  1.00  0.00     0.116 C 
BRANCH  29  30
ATOM     30  N   UNL     1      -7.469   6.515  -6.241  1.00  0.00    -0.352 N 
ATOM     31  C   UNL     1      -7.276   7.825  -6.592  1.00  0.00     0.251 C 
ATOM     32  H   UNL     1      -7.857   5.944  -6.943  1.00  0.00     0.163 HD
ATOM     33  O   UNL     1      -7.769   8.260  -7.629  1.00  0.00    -0.269 OA
BRANCH  31  34
ATOM     34  C   UNL     1      -6.479   8.724  -5.728  1.00  0.00     0.039 A 
ATOM     35  C   UNL     1      -6.921  10.037  -5.538  1.00  0.00     0.014 A 
ATOM     36  C   UNL     1      -5.271   8.303  -5.163  1.00  0.00     0.014 A 
ATOM     37  C   UNL     1      -6.163  10.921  -4.768  1.00  0.00     0.010 A 
ATOM     38  C   UNL     1      -4.544   9.168  -4.348  1.00  0.00     0.010 A 
ATOM     39  C   UNL     1      -4.972  10.491  -4.162  1.00  0.00    -0.014 A 
BRANCH  39  40
ATOM     40  C   UNL     1      -4.133  11.432  -3.380  1.00  0.00     0.031 A 
ATOM     41  C   UNL     1      -2.785  11.844  -3.904  1.00  0.00     0.074 A 
ATOM     42  C   UNL     1      -4.566  11.890  -2.191  1.00  0.00     0.049 A 
ATOM     43  N   UNL     1      -1.882  12.612  -3.349  1.00  0.00    -0.248 NA
ATOM     44  C   UNL     1      -2.390  11.303  -5.215  1.00  0.00     0.031 C 
ATOM     45  C   UNL     1      -5.841  11.541  -1.563  1.00  0.00     0.029 A 
ATOM     46  N   UNL     1      -3.978  12.750  -1.298  1.00  0.00    -0.354 N 
ATOM     47  C   UNL     1      -0.810  12.632  -4.232  1.00  0.00     0.074 A 
ATOM     48  C   UNL     1      -1.155  11.766  -5.338  1.00  0.00     0.031 C 
ATOM     49  C   UNL     1      -5.951  12.201  -0.399  1.00  0.00     0.029 A 
ATOM     50  C   UNL     1      -4.745  12.997  -0.186  1.00  0.00     0.049 A 
ATOM     51  H   UNL     1      -3.090  13.151  -1.440  1.00  0.00     0.167 HD
ATOM     52  C   UNL     1       0.348  13.326  -4.140  1.00  0.00     0.037 A 
ATOM     53  C   UNL     1      -4.504  13.782   0.881  1.00  0.00     0.037 A 
ATOM     54  C   UNL     1       0.674  14.217  -3.059  1.00  0.00     0.049 A 
ATOM     55  C   UNL     1      -3.223  14.564   0.948  1.00  0.00     0.074 A 
ATOM     56  C   UNL     1       1.810  14.990  -2.892  1.00  0.00     0.029 A 
ATOM     57  N   UNL     1      -0.143  14.462  -1.967  1.00  0.00    -0.354 N 
ATOM     58  N   UNL     1      -2.229  14.594   0.093  1.00  0.00    -0.248 NA
ATOM     59  C   UNL     1      -3.032  15.429   2.122  1.00  0.00     0.031 C 
ATOM     60  C   UNL     1       1.688  15.688  -1.686  1.00  0.00     0.029 A 
ATOM     61  C   UNL     1       0.462  15.375  -1.121  1.00  0.00     0.049 A 
ATOM     62  H   UNL     1      -1.024  14.048  -1.815  1.00  0.00     0.167 HD
ATOM     63  C   UNL     1      -1.311  15.498   0.609  1.00  0.00     0.074 A 
ATOM     64  C   UNL     1      -1.866  16.000   1.849  1.00  0.00     0.031 C 
ATOM     65  C   UNL     1      -0.115  15.879   0.098  1.00  0.00     0.037 A 
BRANCH  52  66
ATOM     66  C   UNL     1       1.345  13.162  -5.248  1.00  0.00     0.057 A 
ATOM     67  C   UNL     1       2.545  12.472  -5.037  1.00  0.00     0.134 A 
ATOM     68  C   UNL     1       1.137  13.727  -6.513  1.00  0.00     0.134 A 
ATOM     69  F   UNL     1       2.809  11.911  -3.847  1.00  0.00    -0.206 F 
ATOM     70  C   UNL     1       3.506  12.355  -6.043  1.00  0.00     0.040 A 
ATOM     71  C   UNL     1       2.079  13.596  -7.534  1.00  0.00     0.040 A 
ATOM     72  F   UNL     1       0.002  14.388  -6.783  1.00  0.00    -0.206 F 
ATOM     73  C   UNL     1       3.272  12.915  -7.298  1.00  0.00     0.006 A 
ENDBRANCH  52  66
BRANCH  53  74
ATOM     74  C   UNL     1      -5.528  13.904   1.948  1.00  0.00     0.057 A 
ATOM     75  C   UNL     1      -5.779  12.861   2.846  1.00  0.00     0.134 A 
ATOM     76  C   UNL     1      -6.297  15.066   2.073  1.00  0.00     0.134 A 
ATOM     77  F   UNL     1      -5.080  11.719   2.771  1.00  0.00    -0.206 F 
ATOM     78  C   UNL     1      -6.768  12.966   3.826  1.00  0.00     0.040 A 
ATOM     79  C   UNL     1      -7.276  15.192   3.059  1.00  0.00     0.040 A 
ATOM     80  F   UNL     1      -6.090  16.104   1.249  1.00  0.00    -0.206 F 
ATOM     81  C   UNL     1      -7.517  14.136   3.936  1.00  0.00     0.006 A 
ENDBRANCH  53  74
BRANCH  65  82
ATOM     82  C   UNL     1       0.662  16.915   0.852  1.00  0.00     0.057 A 
ATOM     83  C   UNL     1       0.770  18.220   0.355  1.00  0.00     0.134 A 
ATOM     84  C   UNL     1       1.362  16.604   2.022  1.00  0.00     0.134 A 
ATOM     85  F   UNL     1       0.130  18.577  -0.769  1.00  0.00    -0.206 F 
ATOM     86  C   UNL     1       1.558  19.179   0.993  1.00  0.00     0.040 A 
ATOM     87  C   UNL     1       2.137  17.560   2.681  1.00  0.00     0.040 A 
ATOM     88  F   UNL     1       1.291  15.373   2.551  1.00  0.00    -0.206 F 
ATOM     89  C   UNL     1       2.243  18.849   2.161  1.00  0.00     0.006 A 
ENDBRANCH  65  82
ENDBRANCH  39  40
ENDBRANCH  31  34
ENDBRANCH  29  30
ENDBRANCH  28  29
ENDBRANCH  27  28
ENDBRANCH  26  27
ENDBRANCH   1  26
TORSDOF 17
