REMARK SMILES O=C(NCCCCCCNC(=O)[C@H](CO)NC(=O)[C@H](Cc1c[nH]c2ccccc12)NC(=O)c1ccc(F)cc1)c1ccc(-c2c3nc(c(-c4c(F)cccc4F)c4ccc([nH]4)c(-c4c(F)cccc4F)c4nc(c(-c5c(F)cccc5F)c5ccc2[nH]5)C=C4)C=C3)cc1
REMARK SMILES IDX 7 1 6 2 5 3 4 4 3 5 1 6 2 7 40 9 41 10 93 11 42 12 92 13
REMARK SMILES IDX 43 14 44 15 45 16 86 17 46 18 91 19 85 20 87 21 47 22 90 23
REMARK SMILES IDX 84 24 83 25 48 27 74 28 57 29 73 30 58 31 61 32 72 33 88 34
REMARK SMILES IDX 59 35 60 36 71 38 89 39 62 40 49 41 50 42 55 43 51 44 52 45
REMARK SMILES IDX 54 46 56 47 53 48 75 49 76 50 81 51 77 52 78 53 80 54 82 55
REMARK SMILES IDX 79 56 63 57 64 58 69 59 65 60 66 61 68 62 70 63 67 64 8 65
REMARK SMILES IDX 9 66 10 67 11 68 12 70 13 71 16 72 17 73 18 75 19 76 30 77
REMARK SMILES IDX 31 78 32 80 33 81 34 82 39 83 35 84 38 85 36 86 37 87 20 88
REMARK SMILES IDX 21 89 22 90 29 91 23 92 24 93 28 94 25 96 27 97 26 98 14 99
REMARK SMILES IDX 15 100
REMARK H PARENT 3 8 87 26 61 37 10 69 16 74 30 79 23 95 15 101
REMARK Flexibility Score: inf
ROOT
ATOM      1  C   UNL     1       9.374  -5.578  -0.546  1.00  0.00     0.002 C 
ENDROOT
BRANCH   1   2
ATOM      2  C   UNL     1       8.244  -4.550  -0.390  1.00  0.00     0.002 C 
BRANCH   2   3
ATOM      3  C   UNL     1       8.571  -3.304   0.437  1.00  0.00     0.021 C 
BRANCH   3   4
ATOM      4  C   UNL     1       9.725  -2.451  -0.083  1.00  0.00     0.116 C 
BRANCH   4   5
ATOM      5  N   UNL     1       9.359  -1.711  -1.276  1.00  0.00    -0.352 N 
ATOM      6  O   UNL     1       8.825   0.085  -2.518  1.00  0.00    -0.269 OA
ATOM      7  C   UNL     1       9.370  -0.358  -1.511  1.00  0.00     0.251 C 
ATOM      8  H   UNL     1       9.057  -2.263  -2.033  1.00  0.00     0.163 HD
BRANCH   7   9
ATOM      9  C   UNL     1      10.023   0.581  -0.566  1.00  0.00     0.039 A 
ATOM     10  C   UNL     1      11.281   0.313  -0.016  1.00  0.00     0.014 A 
ATOM     11  C   UNL     1       9.398   1.805  -0.301  1.00  0.00     0.014 A 
ATOM     12  C   UNL     1      11.873   1.231   0.856  1.00  0.00     0.010 A 
ATOM     13  C   UNL     1      10.014   2.745   0.531  1.00  0.00     0.010 A 
ATOM     14  C   UNL     1      11.252   2.462   1.125  1.00  0.00    -0.014 A 
BRANCH  14  15
ATOM     15  C   UNL     1      11.938   3.479   1.965  1.00  0.00     0.031 A 
ATOM     16  C   UNL     1      11.410   3.853   3.321  1.00  0.00     0.074 A 
ATOM     17  C   UNL     1      13.049   4.078   1.494  1.00  0.00     0.049 A 
ATOM     18  N   UNL     1      11.880   4.728   4.175  1.00  0.00    -0.248 NA
ATOM     19  C   UNL     1      10.197   3.160   3.777  1.00  0.00     0.031 C 
ATOM     20  C   UNL     1      13.655   3.819   0.186  1.00  0.00     0.029 A 
ATOM     21  N   UNL     1      13.869   5.021   2.060  1.00  0.00    -0.354 N 
ATOM     22  C   UNL     1      11.018   4.700   5.263  1.00  0.00     0.074 A 
ATOM     23  C   UNL     1       9.983   3.735   4.954  1.00  0.00     0.031 C 
ATOM     24  C   UNL     1      14.769   4.557   0.065  1.00  0.00     0.029 A 
ATOM     25  C   UNL     1      14.932   5.373   1.265  1.00  0.00     0.049 A 
ATOM     26  H   UNL     1      13.711   5.408   2.951  1.00  0.00     0.167 HD
ATOM     27  C   UNL     1      11.087   5.407   6.416  1.00  0.00     0.037 A 
ATOM     28  C   UNL     1      15.925   6.258   1.471  1.00  0.00     0.037 A 
ATOM     29  C   UNL     1      12.121   6.358   6.734  1.00  0.00     0.049 A 
ATOM     30  C   UNL     1      15.968   7.044   2.747  1.00  0.00     0.074 A 
ATOM     31  C   UNL     1      12.286   7.094   7.895  1.00  0.00     0.029 A 
ATOM     32  N   UNL     1      13.164   6.705   5.890  1.00  0.00    -0.354 N 
ATOM     33  N   UNL     1      15.155   6.990   3.773  1.00  0.00    -0.248 NA
ATOM     34  C   UNL     1      17.058   8.020   2.891  1.00  0.00     0.031 C 
ATOM     35  C   UNL     1      13.412   7.910   7.742  1.00  0.00     0.029 A 
ATOM     36  C   UNL     1      13.966   7.656   6.498  1.00  0.00     0.049 A 
ATOM     37  H   UNL     1      13.312   6.330   4.991  1.00  0.00     0.167 HD
ATOM     38  C   UNL     1      15.638   7.916   4.688  1.00  0.00     0.074 A 
ATOM     39  C   UNL     1      16.822   8.509   4.102  1.00  0.00     0.031 C 
ATOM     40  C   UNL     1      15.139   8.243   5.904  1.00  0.00     0.037 A 
BRANCH  27  41
ATOM     41  C   UNL     1      10.008   5.184   7.432  1.00  0.00     0.057 A 
ATOM     42  C   UNL     1       9.019   6.151   7.648  1.00  0.00     0.134 A 
ATOM     43  C   UNL     1       9.989   4.043   8.242  1.00  0.00     0.134 A 
ATOM     44  F   UNL     1       8.987   7.270   6.909  1.00  0.00    -0.206 F 
ATOM     45  C   UNL     1       8.051   5.993   8.641  1.00  0.00     0.040 A 
ATOM     46  C   UNL     1       9.016   3.865   9.227  1.00  0.00     0.040 A 
ATOM     47  F   UNL     1      10.905   3.077   8.076  1.00  0.00    -0.206 F 
ATOM     48  C   UNL     1       8.047   4.846   9.433  1.00  0.00     0.006 A 
ENDBRANCH  27  41
BRANCH  28  49
ATOM     49  C   UNL     1      16.970   6.431   0.435  1.00  0.00     0.057 A 
ATOM     50  C   UNL     1      16.703   7.095  -0.768  1.00  0.00     0.134 A 
ATOM     51  C   UNL     1      18.251   5.897   0.612  1.00  0.00     0.134 A 
ATOM     52  F   UNL     1      15.491   7.622  -0.994  1.00  0.00    -0.206 F 
ATOM     53  C   UNL     1      17.668   7.205  -1.769  1.00  0.00     0.040 A 
ATOM     54  C   UNL     1      19.231   6.015  -0.374  1.00  0.00     0.040 A 
ATOM     55  F   UNL     1      18.567   5.264   1.751  1.00  0.00    -0.206 F 
ATOM     56  C   UNL     1      18.938   6.664  -1.572  1.00  0.00     0.006 A 
ENDBRANCH  28  49
BRANCH  40  57
ATOM     57  C   UNL     1      15.873   9.284   6.691  1.00  0.00     0.057 A 
ATOM     58  C   UNL     1      16.668   8.925   7.786  1.00  0.00     0.134 A 
ATOM     59  C   UNL     1      15.745  10.647   6.399  1.00  0.00     0.134 A 
ATOM     60  F   UNL     1      16.826   7.635   8.119  1.00  0.00    -0.206 F 
ATOM     61  C   UNL     1      17.303   9.888   8.572  1.00  0.00     0.040 A 
ATOM     62  C   UNL     1      16.387  11.619   7.167  1.00  0.00     0.040 A 
ATOM     63  F   UNL     1      15.006  11.052   5.355  1.00  0.00    -0.206 F 
ATOM     64  C   UNL     1      17.163  11.240   8.262  1.00  0.00     0.006 A 
ENDBRANCH  40  57
ENDBRANCH  14  15
ENDBRANCH   7   9
ENDBRANCH   4   5
ENDBRANCH   3   4
ENDBRANCH   2   3
ENDBRANCH   1   2
BRANCH   1  65
ATOM     65  C   UNL     1      10.091  -6.005   0.741  1.00  0.00     0.021 C 
BRANCH  65  66
ATOM     66  C   UNL     1       9.184  -6.579   1.827  1.00  0.00     0.116 C 
BRANCH  66  67
ATOM     67  N   UNL     1       8.692  -7.902   1.504  1.00  0.00    -0.354 N 
ATOM     68  C   UNL     1       9.063  -9.109   2.036  1.00  0.00     0.244 C 
ATOM     69  H   UNL     1       7.997  -7.940   0.807  1.00  0.00     0.163 HD
ATOM     70  O   UNL     1       8.438 -10.113   1.691  1.00  0.00    -0.273 OA
BRANCH  68  71
ATOM     71  C   UNL     1      10.178  -9.154   3.099  1.00  0.00     0.197 C 
BRANCH  71  72
ATOM     72  N   UNL     1       9.598  -8.795   4.410  1.00  0.00    -0.340 N 
ATOM     73  C   UNL     1      10.021  -8.053   5.470  1.00  0.00     0.243 C 
ATOM     74  H   UNL     1       8.703  -9.181   4.548  1.00  0.00     0.164 HD
ATOM     75  O   UNL     1       9.307  -8.102   6.480  1.00  0.00    -0.273 OA
BRANCH  73  76
ATOM     76  C   UNL     1      11.180  -7.018   5.427  1.00  0.00     0.176 C 
BRANCH  76  77
ATOM     77  N   UNL     1      12.159  -7.285   4.381  1.00  0.00    -0.340 N 
ATOM     78  C   UNL     1      13.328  -7.997   4.426  1.00  0.00     0.251 C 
ATOM     79  H   UNL     1      11.947  -6.891   3.504  1.00  0.00     0.164 HD
ATOM     80  O   UNL     1      13.843  -8.371   3.374  1.00  0.00    -0.269 OA
BRANCH  78  81
ATOM     81  C   UNL     1      14.028  -8.236   5.706  1.00  0.00     0.040 A 
ATOM     82  C   UNL     1      13.435  -8.875   6.798  1.00  0.00     0.017 A 
ATOM     83  C   UNL     1      15.341  -7.751   5.802  1.00  0.00     0.017 A 
ATOM     84  C   UNL     1      14.123  -8.940   8.013  1.00  0.00     0.040 A 
ATOM     85  C   UNL     1      16.027  -7.825   7.013  1.00  0.00     0.040 A 
ATOM     86  C   UNL     1      15.404  -8.403   8.113  1.00  0.00     0.123 A 
ATOM     87  F   UNL     1      16.048  -8.444   9.286  1.00  0.00    -0.207 F 
ENDBRANCH  78  81
ENDBRANCH  76  77
BRANCH  76  88
ATOM     88  C   UNL     1      10.541  -5.605   5.397  1.00  0.00     0.072 C 
BRANCH  88  89
ATOM     89  C   UNL     1      11.283  -4.530   4.659  1.00  0.00    -0.020 A 
ATOM     90  C   UNL     1      10.707  -3.639   3.772  1.00  0.00     0.087 A 
ATOM     91  C   UNL     1      12.671  -4.183   4.731  1.00  0.00     0.003 A 
ATOM     92  N   UNL     1      11.694  -2.870   3.224  1.00  0.00    -0.361 N 
ATOM     93  C   UNL     1      12.912  -3.222   3.750  1.00  0.00     0.046 A 
ATOM     94  C   UNL     1      13.759  -4.618   5.514  1.00  0.00     0.010 A 
ATOM     95  H   UNL     1      11.553  -2.166   2.550  1.00  0.00     0.166 HD
ATOM     96  C   UNL     1      14.194  -2.747   3.447  1.00  0.00     0.026 A 
ATOM     97  C   UNL     1      15.047  -4.149   5.232  1.00  0.00     0.001 A 
ATOM     98  C   UNL     1      15.262  -3.244   4.197  1.00  0.00     0.002 A 
ENDBRANCH  88  89
ENDBRANCH  76  88
ENDBRANCH  73  76
ENDBRANCH  71  72
BRANCH  71  99
ATOM     99  C   UNL     1      10.777 -10.573   3.142  1.00  0.00     0.191 C 
BRANCH  99 100
ATOM    100  O   UNL     1      11.923 -10.638   3.992  1.00  0.00    -0.394 OA
ATOM    101  H   UNL     1      12.610 -10.043   3.655  1.00  0.00     0.210 HD
ENDBRANCH  99 100
ENDBRANCH  71  99
ENDBRANCH  68  71
ENDBRANCH  66  67
ENDBRANCH  65  66
ENDBRANCH   1  65
TORSDOF 21
