REMARK SMILES COc1cc([C@@H]2CC(=O)Nc3c(C(=O)NCCCCCCNC(=O)c4ccc(-c5c6nc(c(-c7c(F)cccc7F)c7ccc([nH]7)c(-c7c(F)cccc7F)c7nc(c(-c8c(F)cccc8F)c8ccc5[nH]8)C=C7)C=C6)cc4)cn(-c4ccc(F)cc4)c32)c(OC)c2c1OCO2
REMARK SMILES IDX 18 1 17 2 16 3 15 4 13 5 14 6 12 8 6 9 7 10 88 11 8 12 11 13
REMARK SMILES IDX 80 14 9 15 10 16 79 17 5 19 3 20 4 21 93 22 92 23 94 24
REMARK SMILES IDX 89 25 96 26 95 27 2 28 1 29 90 30 91 31 81 32 82 33 87 34
REMARK SMILES IDX 83 35 86 36 84 37 85 38 19 39 20 40 21 41 22 42 23 43 24 45
REMARK SMILES IDX 25 46 26 47 78 48 27 49 77 50 28 51 29 52 30 53 71 54 31 55
REMARK SMILES IDX 76 56 70 57 72 58 32 59 75 60 69 61 68 62 33 64 59 65 42 66
REMARK SMILES IDX 58 67 43 68 46 69 57 70 73 71 44 72 45 73 56 75 74 76 47 77
REMARK SMILES IDX 34 78 35 79 40 80 36 81 37 82 39 83 41 84 38 85 60 86 61 87
REMARK SMILES IDX 66 88 62 89 63 90 65 91 67 92 64 93 48 94 49 95 54 96 50 97
REMARK SMILES IDX 51 98 53 99 55 100 52 101
REMARK H PARENT 15 7 10 18 22 44 72 63 46 74
REMARK Flexibility Score: inf
ROOT
ATOM      1  C   UNL     1       0.497  -5.045 -11.923  1.00  0.00     0.002 C 
ENDROOT
BRANCH   1   2
ATOM      2  C   UNL     1       0.217  -4.624 -10.480  1.00  0.00     0.021 C 
BRANCH   2   3
ATOM      3  C   UNL     1       0.821  -3.264 -10.106  1.00  0.00     0.116 C 
BRANCH   3   4
ATOM      4  N   UNL     1      -0.137  -2.218 -10.361  1.00  0.00    -0.352 N 
ATOM      5  C   UNL     1      -1.031  -1.560  -9.564  1.00  0.00     0.254 C 
ATOM      6  O   UNL     1      -1.720  -0.712 -10.140  1.00  0.00    -0.269 OA
ATOM      7  H   UNL     1      -0.150  -1.917 -11.299  1.00  0.00     0.163 HD
BRANCH   5   8
ATOM      8  C   UNL     1      -1.146  -1.754  -8.115  1.00  0.00     0.081 A 
ATOM      9  C   UNL     1      -0.798  -3.023  -4.613  1.00  0.00     0.082 C 
ATOM     10  C   UNL     1      -0.726  -4.528  -4.891  1.00  0.00     0.115 C 
ATOM     11  C   UNL     1      -1.054  -2.263  -5.886  1.00  0.00     0.055 A 
ATOM     12  C   UNL     1      -0.112  -4.887  -6.225  1.00  0.00     0.225 C 
ATOM     13  C   UNL     1      -0.823  -2.760  -7.155  1.00  0.00     0.076 A 
ATOM     14  N   UNL     1      -1.702  -1.054  -6.019  1.00  0.00    -0.317 N 
ATOM     15  O   UNL     1       0.457  -5.963  -6.415  1.00  0.00    -0.275 OA
ATOM     16  N   UNL     1      -0.348  -4.044  -7.278  1.00  0.00    -0.324 N 
ATOM     17  C   UNL     1      -1.782  -0.769  -7.358  1.00  0.00     0.107 A 
ATOM     18  H   UNL     1      -0.165  -4.381  -8.184  1.00  0.00     0.170 HD
BRANCH   9  19
ATOM     19  C   UNL     1       0.408  -2.556  -3.795  1.00  0.00     0.012 A 
ATOM     20  C   UNL     1       1.168  -1.771  -1.594  1.00  0.00     0.165 A 
ATOM     21  C   UNL     1       0.175  -2.293  -2.417  1.00  0.00     0.059 A 
ATOM     22  C   UNL     1       2.429  -1.616  -2.128  1.00  0.00     0.211 A 
ATOM     23  C   UNL     1       2.696  -1.918  -3.451  1.00  0.00     0.211 A 
ATOM     24  O   UNL     1       3.533  -1.184  -1.458  1.00  0.00    -0.449 OA
ATOM     25  C   UNL     1       1.710  -2.379  -4.318  1.00  0.00     0.168 A 
ATOM     26  O   UNL     1       4.011  -1.691  -3.748  1.00  0.00    -0.449 OA
ATOM     27  C   UNL     1       4.544  -1.327  -2.465  1.00  0.00     0.468 C 
BRANCH  20  28
ATOM     28  O   UNL     1       0.817  -1.487  -0.307  1.00  0.00    -0.493 OA
ATOM     29  C   UNL     1       1.133  -0.144   0.059  1.00  0.00     0.278 C 
ENDBRANCH  20  28
BRANCH  25  30
ATOM     30  O   UNL     1       1.878  -2.681  -5.637  1.00  0.00    -0.492 OA
ATOM     31  C   UNL     1       3.182  -2.620  -6.195  1.00  0.00     0.278 C 
ENDBRANCH  25  30
ENDBRANCH   9  19
BRANCH  14  32
ATOM     32  C   UNL     1      -2.323  -0.302  -4.999  1.00  0.00     0.046 A 
ATOM     33  C   UNL     1      -1.599   0.068  -3.864  1.00  0.00     0.029 A 
ATOM     34  C   UNL     1      -3.688  -0.008  -5.102  1.00  0.00     0.029 A 
ATOM     35  C   UNL     1      -2.261   0.632  -2.776  1.00  0.00     0.041 A 
ATOM     36  C   UNL     1      -4.344   0.560  -4.010  1.00  0.00     0.041 A 
ATOM     37  C   UNL     1      -3.631   0.853  -2.851  1.00  0.00     0.123 A 
ATOM     38  F   UNL     1      -4.274   1.352  -1.788  1.00  0.00    -0.207 F 
ENDBRANCH  14  32
ENDBRANCH   5   8
ENDBRANCH   3   4
ENDBRANCH   2   3
ENDBRANCH   1   2
BRANCH   1  39
ATOM     39  C   UNL     1       1.987  -5.192 -12.273  1.00  0.00     0.002 C 
BRANCH  39  40
ATOM     40  C   UNL     1       2.831  -6.060 -11.324  1.00  0.00     0.021 C 
BRANCH  40  41
ATOM     41  C   UNL     1       2.498  -7.541 -11.404  1.00  0.00     0.116 C 
BRANCH  41  42
ATOM     42  N   UNL     1       2.796  -8.093 -12.731  1.00  0.00    -0.352 N 
ATOM     43  C   UNL     1       2.506  -9.334 -13.269  1.00  0.00     0.251 C 
ATOM     44  H   UNL     1       3.280  -7.483 -13.334  1.00  0.00     0.163 HD
ATOM     45  O   UNL     1       3.112  -9.755 -14.238  1.00  0.00    -0.269 OA
BRANCH  43  46
ATOM     46  C   UNL     1       1.436 -10.137 -12.654  1.00  0.00     0.039 A 
ATOM     47  C   UNL     1       1.484 -11.533 -12.599  1.00  0.00     0.014 A 
ATOM     48  C   UNL     1       0.366  -9.446 -12.106  1.00  0.00     0.014 A 
ATOM     49  C   UNL     1       0.456 -12.204 -11.942  1.00  0.00     0.010 A 
ATOM     50  C   UNL     1      -0.462 -10.073 -11.229  1.00  0.00     0.010 A 
ATOM     51  C   UNL     1      -0.511 -11.454 -11.257  1.00  0.00    -0.014 A 
BRANCH  51  52
ATOM     52  C   UNL     1      -1.570 -12.070 -10.476  1.00  0.00     0.031 A 
ATOM     53  C   UNL     1      -1.053 -12.925  -9.386  1.00  0.00     0.074 A 
ATOM     54  C   UNL     1      -2.861 -11.679 -10.576  1.00  0.00     0.049 A 
ATOM     55  N   UNL     1      -1.021 -14.213  -9.349  1.00  0.00    -0.248 NA
ATOM     56  C   UNL     1      -0.292 -12.277  -8.303  1.00  0.00     0.031 C 
ATOM     57  C   UNL     1      -3.410 -10.560 -11.361  1.00  0.00     0.029 A 
ATOM     58  N   UNL     1      -3.957 -12.131  -9.906  1.00  0.00    -0.354 N 
ATOM     59  C   UNL     1      -0.489 -14.526  -8.101  1.00  0.00     0.074 A 
ATOM     60  C   UNL     1       0.171 -13.338  -7.638  1.00  0.00     0.031 C 
ATOM     61  C   UNL     1      -4.662 -10.276 -10.944  1.00  0.00     0.029 A 
ATOM     62  C   UNL     1      -5.072 -11.303 -10.007  1.00  0.00     0.049 A 
ATOM     63  H   UNL     1      -3.961 -12.971  -9.393  1.00  0.00     0.167 HD
ATOM     64  C   UNL     1      -0.959 -15.604  -7.414  1.00  0.00     0.037 A 
ATOM     65  C   UNL     1      -6.247 -11.451  -9.350  1.00  0.00     0.037 A 
ATOM     66  C   UNL     1      -1.778 -16.424  -8.275  1.00  0.00     0.049 A 
ATOM     67  C   UNL     1      -6.322 -12.863  -8.910  1.00  0.00     0.074 A 
ATOM     68  C   UNL     1      -1.577 -17.256  -9.353  1.00  0.00     0.029 A 
ATOM     69  N   UNL     1      -3.099 -16.058  -8.275  1.00  0.00    -0.354 N 
ATOM     70  N   UNL     1      -6.398 -13.872  -9.735  1.00  0.00    -0.248 NA
ATOM     71  C   UNL     1      -5.915 -13.199  -7.551  1.00  0.00     0.031 C 
ATOM     72  C   UNL     1      -2.783 -17.205 -10.115  1.00  0.00     0.029 A 
ATOM     73  C   UNL     1      -3.704 -16.390  -9.455  1.00  0.00     0.049 A 
ATOM     74  H   UNL     1      -3.554 -15.614  -7.523  1.00  0.00     0.167 HD
ATOM     75  C   UNL     1      -5.651 -14.868  -9.133  1.00  0.00     0.074 A 
ATOM     76  C   UNL     1      -5.529 -14.464  -7.737  1.00  0.00     0.031 C 
ATOM     77  C   UNL     1      -4.928 -15.748  -9.886  1.00  0.00     0.037 A 
BRANCH  64  78
ATOM     78  C   UNL     1      -1.152 -15.659  -5.910  1.00  0.00     0.057 A 
ATOM     79  C   UNL     1      -1.587 -16.869  -5.335  1.00  0.00     0.134 A 
ATOM     80  C   UNL     1      -1.246 -14.535  -5.063  1.00  0.00     0.134 A 
ATOM     81  F   UNL     1      -1.563 -18.012  -6.037  1.00  0.00    -0.206 F 
ATOM     82  C   UNL     1      -2.143 -16.937  -4.051  1.00  0.00     0.040 A 
ATOM     83  C   UNL     1      -1.754 -14.601  -3.762  1.00  0.00     0.040 A 
ATOM     84  F   UNL     1      -0.958 -13.294  -5.468  1.00  0.00    -0.206 F 
ATOM     85  C   UNL     1      -2.235 -15.799  -3.262  1.00  0.00     0.006 A 
ENDBRANCH  64  78
BRANCH  65  86
ATOM     86  C   UNL     1      -7.159 -10.404  -8.838  1.00  0.00     0.057 A 
ATOM     87  C   UNL     1      -8.494 -10.685  -8.516  1.00  0.00     0.134 A 
ATOM     88  C   UNL     1      -6.662  -9.168  -8.387  1.00  0.00     0.134 A 
ATOM     89  F   UNL     1      -9.046 -11.854  -8.869  1.00  0.00    -0.206 F 
ATOM     90  C   UNL     1      -9.282  -9.800  -7.765  1.00  0.00     0.040 A 
ATOM     91  C   UNL     1      -7.437  -8.276  -7.638  1.00  0.00     0.040 A 
ATOM     92  F   UNL     1      -5.378  -8.830  -8.581  1.00  0.00    -0.206 F 
ATOM     93  C   UNL     1      -8.749  -8.596  -7.312  1.00  0.00     0.006 A 
ENDBRANCH  65  86
BRANCH  77  94
ATOM     94  C   UNL     1      -5.331 -15.941 -11.317  1.00  0.00     0.057 A 
ATOM     95  C   UNL     1      -5.178 -14.985 -12.330  1.00  0.00     0.134 A 
ATOM     96  C   UNL     1      -5.771 -17.213 -11.703  1.00  0.00     0.134 A 
ATOM     97  F   UNL     1      -4.699 -13.764 -12.065  1.00  0.00    -0.206 F 
ATOM     98  C   UNL     1      -5.467 -15.281 -13.666  1.00  0.00     0.040 A 
ATOM     99  C   UNL     1      -6.031 -17.531 -13.036  1.00  0.00     0.040 A 
ATOM    100  F   UNL     1      -5.901 -18.187 -10.788  1.00  0.00    -0.206 F 
ATOM    101  C   UNL     1      -5.884 -16.561 -14.023  1.00  0.00     0.006 A 
ENDBRANCH  77  94
ENDBRANCH  51  52
ENDBRANCH  43  46
ENDBRANCH  41  42
ENDBRANCH  40  41
ENDBRANCH  39  40
ENDBRANCH   1  39
TORSDOF 17
