REMARK SMILES O=C(NCCCCCCNC(=O)[C@@H]1CC2(CC[NH2+]CC2)C[N@H+]1Cc1cccc2nonc12)c1ccc(-c2c3nc(c(-c4c(F)cccc4F)c4ccc([nH]4)c(-c4c(F)cccc4F)c4nc(c(-c5c(F)cccc5F)c5ccc2[nH]5)C=C4)C=C3)cc1
REMARK SMILES IDX 6 1 5 2 4 3 3 4 1 5 2 6 33 8 34 9 86 10 35 11 85 12 36 13
REMARK SMILES IDX 37 14 38 15 79 16 39 17 84 18 78 19 80 20 40 21 83 22 77 23
REMARK SMILES IDX 76 24 41 26 67 27 50 28 66 29 51 30 54 31 65 32 81 33 52 34
REMARK SMILES IDX 53 35 64 37 82 38 55 39 42 40 43 41 48 42 44 43 45 44 47 45
REMARK SMILES IDX 49 46 46 47 68 48 69 49 74 50 70 51 71 52 73 53 75 54 72 55
REMARK SMILES IDX 56 56 57 57 62 58 58 59 59 60 61 61 63 62 60 63 7 64 8 65
REMARK SMILES IDX 9 66 10 67 11 68 12 70 13 71 14 72 22 73 15 74 21 75 16 77
REMARK SMILES IDX 20 78 17 79 19 80 18 81 23 84 24 85 25 86 32 87 26 88 28 89
REMARK SMILES IDX 31 90 27 91 29 92 30 93
REMARK H PARENT 3 7 80 25 54 36 10 69 22 76 18 82 18 83
REMARK Flexibility Score: inf
ROOT
ATOM      1  C   UNL     1       4.406  -1.056   3.101  1.00  0.00     0.002 C 
ENDROOT
BRANCH   1   2
ATOM      2  C   UNL     1       4.714  -0.066   1.968  1.00  0.00     0.021 C 
BRANCH   2   3
ATOM      3  C   UNL     1       4.108  -0.435   0.609  1.00  0.00     0.116 C 
BRANCH   3   4
ATOM      4  N   UNL     1       2.661  -0.516   0.699  1.00  0.00    -0.352 N 
ATOM      5  O   UNL     1       0.547   0.128   0.332  1.00  0.00    -0.269 OA
ATOM      6  C   UNL     1       1.698   0.025  -0.100  1.00  0.00     0.251 C 
ATOM      7  H   UNL     1       2.322  -1.046   1.456  1.00  0.00     0.163 HD
BRANCH   6   8
ATOM      8  C   UNL     1       1.986   0.452  -1.483  1.00  0.00     0.039 A 
ATOM      9  C   UNL     1       1.314   1.574  -1.981  1.00  0.00     0.014 A 
ATOM     10  C   UNL     1       2.753  -0.342  -2.340  1.00  0.00     0.014 A 
ATOM     11  C   UNL     1       1.398   1.900  -3.335  1.00  0.00     0.010 A 
ATOM     12  C   UNL     1       2.836  -0.013  -3.695  1.00  0.00     0.010 A 
ATOM     13  C   UNL     1       2.148   1.101  -4.205  1.00  0.00    -0.014 A 
BRANCH  13  14
ATOM     14  C   UNL     1       2.141   1.405  -5.652  1.00  0.00     0.031 A 
ATOM     15  C   UNL     1       3.447   1.375  -6.354  1.00  0.00     0.074 A 
ATOM     16  C   UNL     1       1.097   1.053  -6.438  1.00  0.00     0.049 A 
ATOM     17  N   UNL     1       3.956   0.246  -6.743  1.00  0.00    -0.248 NA
ATOM     18  C   UNL     1       4.335   2.518  -6.527  1.00  0.00     0.031 C 
ATOM     19  C   UNL     1       0.056   0.094  -6.045  1.00  0.00     0.029 A 
ATOM     20  N   UNL     1       0.867   1.273  -7.780  1.00  0.00    -0.354 N 
ATOM     21  C   UNL     1       5.243   0.493  -7.159  1.00  0.00     0.074 A 
ATOM     22  C   UNL     1       5.430   1.924  -7.032  1.00  0.00     0.031 C 
ATOM     23  C   UNL     1      -0.605  -0.306  -7.149  1.00  0.00     0.029 A 
ATOM     24  C   UNL     1      -0.153   0.484  -8.284  1.00  0.00     0.049 A 
ATOM     25  H   UNL     1       1.374   1.921  -8.321  1.00  0.00     0.167 HD
ATOM     26  C   UNL     1       6.058  -0.507  -7.582  1.00  0.00     0.037 A 
ATOM     27  C   UNL     1      -0.413   0.177  -9.578  1.00  0.00     0.037 A 
ATOM     28  C   UNL     1       5.531  -1.855  -7.662  1.00  0.00     0.049 A 
ATOM     29  C   UNL     1       0.682  -0.780  -9.938  1.00  0.00     0.074 A 
ATOM     30  C   UNL     1       6.030  -3.145  -7.634  1.00  0.00     0.029 A 
ATOM     31  N   UNL     1       4.185  -2.008  -7.868  1.00  0.00    -0.354 N 
ATOM     32  N   UNL     1       0.687  -2.055  -9.643  1.00  0.00    -0.248 NA
ATOM     33  C   UNL     1       1.967  -0.259 -10.430  1.00  0.00     0.031 C 
ATOM     34  C   UNL     1       4.982  -4.026  -8.061  1.00  0.00     0.029 A 
ATOM     35  C   UNL     1       3.888  -3.245  -8.380  1.00  0.00     0.049 A 
ATOM     36  H   UNL     1       3.514  -1.315  -7.673  1.00  0.00     0.167 HD
ATOM     37  C   UNL     1       2.028  -2.409  -9.654  1.00  0.00     0.074 A 
ATOM     38  C   UNL     1       2.752  -1.318 -10.273  1.00  0.00     0.031 C 
ATOM     39  C   UNL     1       2.558  -3.408  -8.898  1.00  0.00     0.037 A 
BRANCH  26  40
ATOM     40  C   UNL     1       7.402  -0.244  -8.137  1.00  0.00     0.057 A 
ATOM     41  C   UNL     1       8.532  -0.079  -7.338  1.00  0.00     0.134 A 
ATOM     42  C   UNL     1       7.584  -0.336  -9.524  1.00  0.00     0.134 A 
ATOM     43  F   UNL     1       8.419   0.007  -6.005  1.00  0.00    -0.206 F 
ATOM     44  C   UNL     1       9.811  -0.040  -7.902  1.00  0.00     0.040 A 
ATOM     45  C   UNL     1       8.853  -0.305 -10.097  1.00  0.00     0.040 A 
ATOM     46  F   UNL     1       6.526  -0.487 -10.337  1.00  0.00    -0.206 F 
ATOM     47  C   UNL     1       9.974  -0.168  -9.283  1.00  0.00     0.006 A 
ENDBRANCH  26  40
BRANCH  27  48
ATOM     48  C   UNL     1      -0.889   1.298 -10.438  1.00  0.00     0.057 A 
ATOM     49  C   UNL     1      -0.419   1.618 -11.716  1.00  0.00     0.134 A 
ATOM     50  C   UNL     1      -1.961   2.089  -9.969  1.00  0.00     0.134 A 
ATOM     51  F   UNL     1       0.507   0.871 -12.328  1.00  0.00    -0.206 F 
ATOM     52  C   UNL     1      -0.894   2.727 -12.429  1.00  0.00     0.040 A 
ATOM     53  C   UNL     1      -2.459   3.186 -10.677  1.00  0.00     0.040 A 
ATOM     54  F   UNL     1      -2.566   1.796  -8.806  1.00  0.00    -0.206 F 
ATOM     55  C   UNL     1      -1.907   3.523 -11.905  1.00  0.00     0.006 A 
ENDBRANCH  27  48
BRANCH  39  56
ATOM     56  C   UNL     1       1.652  -4.487  -8.449  1.00  0.00     0.057 A 
ATOM     57  C   UNL     1       1.406  -4.736  -7.096  1.00  0.00     0.134 A 
ATOM     58  C   UNL     1       1.025  -5.314  -9.389  1.00  0.00     0.134 A 
ATOM     59  F   UNL     1       1.972  -3.979  -6.143  1.00  0.00    -0.206 F 
ATOM     60  C   UNL     1       0.564  -5.774  -6.692  1.00  0.00     0.040 A 
ATOM     61  C   UNL     1       0.175  -6.348  -8.998  1.00  0.00     0.040 A 
ATOM     62  F   UNL     1       1.251  -5.149 -10.702  1.00  0.00    -0.206 F 
ATOM     63  C   UNL     1      -0.057  -6.581  -7.645  1.00  0.00     0.006 A 
ENDBRANCH  39  56
ENDBRANCH  13  14
ENDBRANCH   6   8
ENDBRANCH   3   4
ENDBRANCH   2   3
ENDBRANCH   1   2
BRANCH   1  64
ATOM     64  C   UNL     1       4.935  -2.472   2.870  1.00  0.00     0.002 C 
BRANCH  64  65
ATOM     65  C   UNL     1       6.466  -2.584   2.866  1.00  0.00     0.021 C 
BRANCH  65  66
ATOM     66  C   UNL     1       7.131  -2.235   4.202  1.00  0.00     0.116 C 
BRANCH  66  67
ATOM     67  N   UNL     1       6.700  -3.165   5.223  1.00  0.00    -0.351 N 
ATOM     68  C   UNL     1       7.410  -3.922   6.096  1.00  0.00     0.278 C 
ATOM     69  H   UNL     1       5.723  -3.265   5.297  1.00  0.00     0.163 HD
ATOM     70  O   UNL     1       6.785  -4.821   6.664  1.00  0.00    -0.268 OA
BRANCH  68  71
ATOM     71  C   UNL     1       8.891  -3.607   6.380  1.00  0.00     0.275 C 
ATOM     72  C   UNL     1       9.760  -4.851   6.164  1.00  0.00     0.089 C 
ATOM     73  N   UNL     1       9.091  -3.309   7.795  1.00  0.00    -0.320 N 
ATOM     74  C   UNL     1      10.147  -5.354   7.578  1.00  0.00     0.036 C 
ATOM     75  C   UNL     1      10.186  -4.042   8.377  1.00  0.00     0.270 C 
ATOM     76  H   UNL     1       8.267  -3.673   8.273  1.00  0.00     0.349 HD
ATOM     77  C   UNL     1      11.501  -6.082   7.580  1.00  0.00     0.074 C 
ATOM     78  C   UNL     1       9.105  -6.335   8.178  1.00  0.00     0.074 C 
ATOM     79  C   UNL     1      11.414  -7.430   6.859  1.00  0.00     0.261 C 
ATOM     80  C   UNL     1       9.076  -7.672   7.440  1.00  0.00     0.261 C 
ATOM     81  N   UNL     1      10.396  -8.308   7.439  1.00  0.00    -0.346 N 
ATOM     82  H   UNL     1      10.658  -8.529   8.400  1.00  0.00     0.346 HD
ATOM     83  H   UNL     1      10.344  -9.155   6.873  1.00  0.00     0.346 HD
BRANCH  73  84
ATOM     84  C   UNL     1       8.538  -2.128   8.409  1.00  0.00     0.302 C 
BRANCH  84  85
ATOM     85  C   UNL     1       7.137  -2.411   8.877  1.00  0.00     0.038 A 
ATOM     86  C   UNL     1       6.871  -3.440   9.822  1.00  0.00     0.012 A 
ATOM     87  C   UNL     1       5.965  -1.836   8.336  1.00  0.00     0.144 A 
ATOM     88  C   UNL     1       5.572  -3.895  10.160  1.00  0.00     0.003 A 
ATOM     89  C   UNL     1       4.628  -2.309   8.683  1.00  0.00     0.135 A 
ATOM     90  N   UNL     1       5.833  -0.847   7.439  1.00  0.00    -0.049 NA
ATOM     91  C   UNL     1       4.405  -3.355   9.595  1.00  0.00     0.034 A 
ATOM     92  N   UNL     1       3.736  -1.599   7.982  1.00  0.00    -0.050 NA
ATOM     93  O   UNL     1       4.473  -0.703   7.229  1.00  0.00    -0.243 OA
ENDBRANCH  84  85
ENDBRANCH  73  84
ENDBRANCH  68  71
ENDBRANCH  66  67
ENDBRANCH  65  66
ENDBRANCH  64  65
ENDBRANCH   1  64
TORSDOF 15
