REMARK SMILES O=C(NCCCCCCNC(=O)[C@@H]1CN(C(=O)CCC(F)(F)F)C[C@H]1c1ccc2c(c1)OCO2)c1ccc(-c2c3nc(c(-c4c(F)cccc4F)c4ccc([nH]4)c(-c4c(F)cccc4F)c4nc(c(-c5c(F)cccc5F)c5ccc2[nH]5)C=C4)C=C3)cc1
REMARK SMILES IDX 7 1 6 2 5 3 4 4 3 5 1 6 2 7 35 9 36 10 88 11 37 12 87 13
REMARK SMILES IDX 38 14 39 15 40 16 81 17 41 18 86 19 80 20 82 21 42 22 85 23
REMARK SMILES IDX 79 24 78 25 43 27 69 28 52 29 68 30 53 31 56 32 67 33 83 34
REMARK SMILES IDX 54 35 55 36 66 38 84 39 57 40 44 41 45 42 50 43 46 44 47 45
REMARK SMILES IDX 49 46 51 47 48 48 70 49 71 50 76 51 72 52 73 53 75 54 77 55
REMARK SMILES IDX 74 56 58 57 59 58 64 59 60 60 61 61 63 62 65 63 62 64 8 65
REMARK SMILES IDX 9 66 10 67 11 68 12 70 13 71 14 72 25 73 15 74 24 75 26 76
REMARK SMILES IDX 27 77 31 78 28 79 30 80 29 81 32 82 34 83 33 84 16 85 17 86
REMARK SMILES IDX 18 87 19 88 20 89 21 90 22 91 23 92
REMARK H PARENT 3 8 82 26 56 37 10 69
REMARK Flexibility Score: inf
ROOT
ATOM      1  C   UNL     1       4.530   3.829  -2.295  1.00  0.00     0.002 C 
ENDROOT
BRANCH   1   2
ATOM      2  C   UNL     1       4.103   2.568  -3.053  1.00  0.00     0.002 C 
BRANCH   2   3
ATOM      3  C   UNL     1       4.592   1.234  -2.495  1.00  0.00     0.021 C 
BRANCH   3   4
ATOM      4  C   UNL     1       4.338   1.004  -1.016  1.00  0.00     0.116 C 
BRANCH   4   5
ATOM      5  N   UNL     1       2.930   0.892  -0.679  1.00  0.00    -0.352 N 
ATOM      6  O   UNL     1       1.088  -0.060   0.215  1.00  0.00    -0.269 OA
ATOM      7  C   UNL     1       2.306  -0.047   0.111  1.00  0.00     0.251 C 
ATOM      8  H   UNL     1       2.343   1.580  -1.069  1.00  0.00     0.163 HD
BRANCH   7   9
ATOM      9  C   UNL     1       3.121  -1.068   0.813  1.00  0.00     0.039 A 
ATOM     10  C   UNL     1       4.299  -0.711   1.472  1.00  0.00     0.014 A 
ATOM     11  C   UNL     1       2.704  -2.402   0.801  1.00  0.00     0.014 A 
ATOM     12  C   UNL     1       5.132  -1.699   1.980  1.00  0.00     0.010 A 
ATOM     13  C   UNL     1       3.495  -3.386   1.405  1.00  0.00     0.010 A 
ATOM     14  C   UNL     1       4.729  -3.045   1.978  1.00  0.00    -0.014 A 
BRANCH  14  15
ATOM     15  C   UNL     1       5.586  -4.043   2.668  1.00  0.00     0.031 A 
ATOM     16  C   UNL     1       6.255  -5.164   1.924  1.00  0.00     0.074 A 
ATOM     17  C   UNL     1       5.800  -3.884   3.989  1.00  0.00     0.049 A 
ATOM     18  N   UNL     1       7.080  -6.073   2.381  1.00  0.00    -0.248 NA
ATOM     19  C   UNL     1       5.960  -5.291   0.489  1.00  0.00     0.031 C 
ATOM     20  C   UNL     1       5.181  -2.848   4.822  1.00  0.00     0.029 A 
ATOM     21  N   UNL     1       6.615  -4.562   4.858  1.00  0.00    -0.354 N 
ATOM     22  C   UNL     1       7.394  -6.885   1.298  1.00  0.00     0.074 A 
ATOM     23  C   UNL     1       6.650  -6.377   0.164  1.00  0.00     0.031 C 
ATOM     24  C   UNL     1       5.687  -2.917   6.060  1.00  0.00     0.029 A 
ATOM     25  C   UNL     1       6.612  -4.040   6.129  1.00  0.00     0.049 A 
ATOM     26  H   UNL     1       7.150  -5.346   4.597  1.00  0.00     0.167 HD
ATOM     27  C   UNL     1       8.230  -7.950   1.256  1.00  0.00     0.037 A 
ATOM     28  C   UNL     1       7.272  -4.428   7.235  1.00  0.00     0.037 A 
ATOM     29  C   UNL     1       8.974  -8.447   2.388  1.00  0.00     0.049 A 
ATOM     30  C   UNL     1       8.193  -5.607   7.154  1.00  0.00     0.074 A 
ATOM     31  C   UNL     1       9.854  -9.515   2.441  1.00  0.00     0.029 A 
ATOM     32  N   UNL     1       8.926  -7.907   3.665  1.00  0.00    -0.354 N 
ATOM     33  N   UNL     1       8.490  -6.351   6.117  1.00  0.00    -0.248 NA
ATOM     34  C   UNL     1       8.867  -6.004   8.397  1.00  0.00     0.031 C 
ATOM     35  C   UNL     1      10.314  -9.641   3.757  1.00  0.00     0.029 A 
ATOM     36  C   UNL     1       9.753  -8.626   4.514  1.00  0.00     0.049 A 
ATOM     37  H   UNL     1       8.385  -7.129   3.929  1.00  0.00     0.167 HD
ATOM     38  C   UNL     1       9.384  -7.305   6.580  1.00  0.00     0.074 A 
ATOM     39  C   UNL     1       9.610  -7.019   7.983  1.00  0.00     0.031 C 
ATOM     40  C   UNL     1       9.956  -8.334   5.909  1.00  0.00     0.037 A 
BRANCH  27  41
ATOM     41  C   UNL     1       8.390  -8.663  -0.056  1.00  0.00     0.057 A 
ATOM     42  C   UNL     1       9.129  -8.110  -1.109  1.00  0.00     0.134 A 
ATOM     43  C   UNL     1       7.859  -9.946  -0.243  1.00  0.00     0.134 A 
ATOM     44  F   UNL     1       9.657  -6.881  -0.997  1.00  0.00    -0.206 F 
ATOM     45  C   UNL     1       9.326  -8.803  -2.305  1.00  0.00     0.040 A 
ATOM     46  C   UNL     1       8.067 -10.657  -1.427  1.00  0.00     0.040 A 
ATOM     47  F   UNL     1       7.147 -10.537   0.728  1.00  0.00    -0.206 F 
ATOM     48  C   UNL     1       8.801 -10.084  -2.463  1.00  0.00     0.006 A 
ENDBRANCH  27  41
BRANCH  28  49
ATOM     49  C   UNL     1       7.068  -3.699   8.511  1.00  0.00     0.057 A 
ATOM     50  C   UNL     1       8.088  -2.929   9.081  1.00  0.00     0.134 A 
ATOM     51  C   UNL     1       5.842  -3.750   9.187  1.00  0.00     0.134 A 
ATOM     52  F   UNL     1       9.288  -2.853   8.488  1.00  0.00    -0.206 F 
ATOM     53  C   UNL     1       7.903  -2.252  10.287  1.00  0.00     0.040 A 
ATOM     54  C   UNL     1       5.634  -3.054  10.377  1.00  0.00     0.040 A 
ATOM     55  F   UNL     1       4.822  -4.462   8.686  1.00  0.00    -0.206 F 
ATOM     56  C   UNL     1       6.670  -2.308  10.935  1.00  0.00     0.006 A 
ENDBRANCH  28  49
BRANCH  40  57
ATOM     57  C   UNL     1      10.882  -9.213   6.695  1.00  0.00     0.057 A 
ATOM     58  C   UNL     1      10.401 -10.114   7.654  1.00  0.00     0.134 A 
ATOM     59  C   UNL     1      12.266  -9.153   6.496  1.00  0.00     0.134 A 
ATOM     60  F   UNL     1       9.086 -10.204   7.902  1.00  0.00    -0.206 F 
ATOM     61  C   UNL     1      11.268 -10.902   8.411  1.00  0.00     0.040 A 
ATOM     62  C   UNL     1      13.142  -9.954   7.229  1.00  0.00     0.040 A 
ATOM     63  F   UNL     1      12.789  -8.314   5.589  1.00  0.00    -0.206 F 
ATOM     64  C   UNL     1      12.643 -10.826   8.197  1.00  0.00     0.006 A 
ENDBRANCH  40  57
ENDBRANCH  14  15
ENDBRANCH   7   9
ENDBRANCH   4   5
ENDBRANCH   3   4
ENDBRANCH   2   3
ENDBRANCH   1   2
BRANCH   1  65
ATOM     65  C   UNL     1       6.021   3.982  -1.972  1.00  0.00     0.021 C 
BRANCH  65  66
ATOM     66  C   UNL     1       6.985   3.730  -3.124  1.00  0.00     0.116 C 
BRANCH  66  67
ATOM     67  N   UNL     1       6.766   4.609  -4.251  1.00  0.00    -0.356 N 
ATOM     68  C   UNL     1       7.657   5.046  -5.181  1.00  0.00     0.225 C 
ATOM     69  H   UNL     1       5.844   4.936  -4.360  1.00  0.00     0.163 HD
ATOM     70  O   UNL     1       7.205   5.602  -6.182  1.00  0.00    -0.275 OA
BRANCH  68  71
ATOM     71  C   UNL     1       9.145   4.836  -4.974  1.00  0.00     0.107 C 
ATOM     72  C   UNL     1       9.895   6.060  -5.482  1.00  0.00     0.133 C 
ATOM     73  C   UNL     1       9.698   3.672  -5.824  1.00  0.00     0.053 C 
ATOM     74  N   UNL     1      11.174   5.564  -5.944  1.00  0.00    -0.341 N 
ATOM     75  C   UNL     1      11.091   4.151  -6.283  1.00  0.00     0.128 C 
BRANCH  73  76
ATOM     76  C   UNL     1       9.664   2.363  -5.049  1.00  0.00    -0.038 A 
ATOM     77  C   UNL     1       8.554   1.498  -5.219  1.00  0.00     0.008 A 
ATOM     78  C   UNL     1      10.642   2.028  -4.095  1.00  0.00     0.054 A 
ATOM     79  C   UNL     1       8.398   0.348  -4.437  1.00  0.00     0.051 A 
ATOM     80  C   UNL     1      10.470   0.876  -3.352  1.00  0.00     0.166 A 
ATOM     81  C   UNL     1       9.373   0.067  -3.508  1.00  0.00     0.165 A 
ATOM     82  O   UNL     1      11.313   0.426  -2.383  1.00  0.00    -0.454 OA
ATOM     83  O   UNL     1       9.374  -0.984  -2.646  1.00  0.00    -0.454 OA
ATOM     84  C   UNL     1      10.628  -0.773  -1.962  1.00  0.00     0.468 C 
ENDBRANCH  73  76
BRANCH  74  85
ATOM     85  C   UNL     1      12.306   6.289  -6.232  1.00  0.00     0.222 C 
ATOM     86  O   UNL     1      13.292   5.775  -6.763  1.00  0.00    -0.275 OA
BRANCH  85  87
ATOM     87  C   UNL     1      12.331   7.764  -5.879  1.00  0.00     0.109 C 
BRANCH  87  88
ATOM     88  C   UNL     1      12.185   8.660  -7.104  1.00  0.00     0.125 C 
BRANCH  88  89
ATOM     89  C   UNL     1      10.798   8.631  -7.699  1.00  0.00     0.389 C 
ATOM     90  F   UNL     1       9.866   8.903  -6.758  1.00  0.00    -0.171 F 
ATOM     91  F   UNL     1      10.678   9.565  -8.668  1.00  0.00    -0.171 F 
ATOM     92  F   UNL     1      10.508   7.436  -8.246  1.00  0.00    -0.171 F 
ENDBRANCH  88  89
ENDBRANCH  87  88
ENDBRANCH  85  87
ENDBRANCH  74  85
ENDBRANCH  68  71
ENDBRANCH  66  67
ENDBRANCH  65  66
ENDBRANCH   1  65
TORSDOF 18
