REMARK SMILES COc1ccc([C@@H](C(=O)NCCCCCCNC(=O)c2ccc(-c3c4nc(c(-c5c(F)cccc5F)c5ccc([nH]5)c(-c5c(F)cccc5F)c5nc(c(-c6c(F)cccc6F)c6ccc3[nH]6)C=C5)C=C4)cc2)[NH+]2CCC(C(N)=O)CC2)c(C)c1
REMARK SMILES IDX 13 1 12 2 11 3 10 4 8 5 9 6 7 8 6 9 3 10 4 11 85 12 5 13
REMARK SMILES IDX 83 14 84 15 2 16 1 17 74 18 75 19 82 20 76 22 81 23 77 24
REMARK SMILES IDX 78 25 79 26 80 27 14 30 15 31 16 32 17 33 18 34 19 36 20 37
REMARK SMILES IDX 21 38 73 39 22 40 72 41 23 42 24 43 25 44 66 45 26 46 71 47
REMARK SMILES IDX 65 48 67 49 27 50 70 51 64 52 63 53 28 55 54 56 37 57 53 58
REMARK SMILES IDX 38 59 41 60 52 61 68 62 39 63 40 64 51 66 69 67 42 68 29 69
REMARK SMILES IDX 30 70 35 71 31 72 32 73 34 74 36 75 33 76 55 77 56 78 61 79
REMARK SMILES IDX 57 80 58 81 60 82 62 83 59 84 43 85 44 86 49 87 45 88 46 89
REMARK SMILES IDX 48 90 50 91 47 92
REMARK H PARENT 10 7 74 21 79 28 79 29 17 35 67 54 41 65
REMARK Flexibility Score: inf
ROOT
ATOM      1  C   UNL     1       2.198  -7.838   1.781  1.00  0.00     0.002 C 
ENDROOT
BRANCH   1   2
ATOM      2  C   UNL     1       2.453  -6.607   0.898  1.00  0.00     0.021 C 
BRANCH   2   3
ATOM      3  C   UNL     1       2.882  -6.902  -0.541  1.00  0.00     0.116 C 
BRANCH   3   4
ATOM      4  N   UNL     1       1.853  -7.583  -1.296  1.00  0.00    -0.351 N 
ATOM      5  C   UNL     1       1.093  -7.147  -2.351  1.00  0.00     0.283 C 
ATOM      6  O   UNL     1       0.334  -7.988  -2.844  1.00  0.00    -0.268 OA
ATOM      7  H   UNL     1       1.669  -8.506  -1.007  1.00  0.00     0.163 HD
BRANCH   5   8
ATOM      8  C   UNL     1       1.261  -5.694  -2.896  1.00  0.00     0.305 C 
BRANCH   8   9
ATOM      9  C   UNL     1       1.019  -4.566  -1.875  1.00  0.00     0.022 A 
ATOM     10  C   UNL     1       0.770  -2.296  -0.191  1.00  0.00     0.119 A 
ATOM     11  C   UNL     1       1.896  -2.440  -0.986  1.00  0.00     0.047 A 
ATOM     12  C   UNL     1      -0.198  -3.299  -0.192  1.00  0.00     0.050 A 
ATOM     13  C   UNL     1       2.011  -3.553  -1.820  1.00  0.00     0.014 A 
ATOM     14  C   UNL     1      -0.095  -4.441  -1.016  1.00  0.00    -0.038 A 
ATOM     15  C   UNL     1      -1.244  -5.409  -0.929  1.00  0.00     0.045 C 
BRANCH  10  16
ATOM     16  O   UNL     1       0.538  -1.240   0.644  1.00  0.00    -0.497 OA
ATOM     17  C   UNL     1       0.992   0.017   0.147  1.00  0.00     0.278 C 
ENDBRANCH  10  16
ENDBRANCH   8   9
BRANCH   8  18
ATOM     18  N   UNL     1       0.601  -5.494  -4.231  1.00  0.00    -0.321 N 
ATOM     19  C   UNL     1      -0.865  -5.503  -4.188  1.00  0.00     0.263 C 
ATOM     20  C   UNL     1       1.128  -4.321  -4.944  1.00  0.00     0.263 C 
ATOM     21  H   UNL     1       0.854  -6.320  -4.773  1.00  0.00     0.349 HD
ATOM     22  C   UNL     1      -1.484  -5.399  -5.583  1.00  0.00     0.075 C 
ATOM     23  C   UNL     1       0.537  -4.177  -6.348  1.00  0.00     0.075 C 
ATOM     24  C   UNL     1      -0.986  -4.133  -6.274  1.00  0.00     0.089 C 
BRANCH  24  25
ATOM     25  C   UNL     1      -1.609  -4.000  -7.648  1.00  0.00     0.220 C 
ATOM     26  N   UNL     1      -2.648  -3.118  -7.718  1.00  0.00    -0.369 N 
ATOM     27  O   UNL     1      -1.254  -4.630  -8.636  1.00  0.00    -0.275 OA
ATOM     28  H   UNL     1      -2.924  -2.617  -6.916  1.00  0.00     0.159 HD
ATOM     29  H   UNL     1      -3.122  -2.982  -8.570  1.00  0.00     0.159 HD
ENDBRANCH  24  25
ENDBRANCH   8  18
ENDBRANCH   5   8
ENDBRANCH   3   4
ENDBRANCH   2   3
ENDBRANCH   1   2
BRANCH   1  30
ATOM     30  C   UNL     1       3.303  -8.905   1.820  1.00  0.00     0.002 C 
BRANCH  30  31
ATOM     31  C   UNL     1       4.728  -8.398   2.056  1.00  0.00     0.021 C 
BRANCH  31  32
ATOM     32  C   UNL     1       4.974  -7.819   3.442  1.00  0.00     0.116 C 
BRANCH  32  33
ATOM     33  N   UNL     1       5.611  -8.745   4.370  1.00  0.00    -0.352 N 
ATOM     34  C   UNL     1       5.902  -8.583   5.714  1.00  0.00     0.251 C 
ATOM     35  H   UNL     1       5.873  -9.612   3.985  1.00  0.00     0.163 HD
ATOM     36  O   UNL     1       6.460  -9.475   6.333  1.00  0.00    -0.269 OA
BRANCH  34  37
ATOM     37  C   UNL     1       5.401  -7.382   6.430  1.00  0.00     0.039 A 
ATOM     38  C   UNL     1       4.736  -7.586   7.645  1.00  0.00     0.014 A 
ATOM     39  C   UNL     1       5.383  -6.128   5.826  1.00  0.00     0.014 A 
ATOM     40  C   UNL     1       3.839  -6.625   8.101  1.00  0.00     0.010 A 
ATOM     41  C   UNL     1       4.429  -5.211   6.223  1.00  0.00     0.010 A 
ATOM     42  C   UNL     1       3.601  -5.499   7.312  1.00  0.00    -0.014 A 
BRANCH  42  43
ATOM     43  C   UNL     1       2.392  -4.695   7.446  1.00  0.00     0.031 A 
ATOM     44  C   UNL     1       2.422  -3.349   8.046  1.00  0.00     0.074 A 
ATOM     45  C   UNL     1       1.231  -5.183   6.953  1.00  0.00     0.049 A 
ATOM     46  N   UNL     1       1.420  -2.803   8.652  1.00  0.00    -0.248 NA
ATOM     47  C   UNL     1       3.616  -2.516   8.036  1.00  0.00     0.031 C 
ATOM     48  C   UNL     1      -0.020  -4.460   6.749  1.00  0.00     0.029 A 
ATOM     49  N   UNL     1       0.903  -6.525   6.720  1.00  0.00    -0.354 N 
ATOM     50  C   UNL     1       1.731  -1.478   8.862  1.00  0.00     0.074 A 
ATOM     51  C   UNL     1       3.134  -1.368   8.522  1.00  0.00     0.031 C 
ATOM     52  C   UNL     1      -1.026  -5.347   6.691  1.00  0.00     0.029 A 
ATOM     53  C   UNL     1      -0.471  -6.653   7.004  1.00  0.00     0.049 A 
ATOM     54  H   UNL     1       1.512  -7.237   6.417  1.00  0.00     0.167 HD
ATOM     55  C   UNL     1       0.741  -0.586   9.159  1.00  0.00     0.037 A 
ATOM     56  C   UNL     1      -0.919  -7.473   7.998  1.00  0.00     0.037 A 
ATOM     57  C   UNL     1      -0.562  -1.240   9.244  1.00  0.00     0.049 A 
ATOM     58  C   UNL     1      -1.702  -6.766   9.078  1.00  0.00     0.074 A 
ATOM     59  C   UNL     1      -1.587  -1.385   8.321  1.00  0.00     0.029 A 
ATOM     60  N   UNL     1      -0.838  -2.126  10.279  1.00  0.00    -0.354 N 
ATOM     61  N   UNL     1      -1.673  -5.478   9.271  1.00  0.00    -0.248 NA
ATOM     62  C   UNL     1      -2.530  -7.461  10.062  1.00  0.00     0.031 C 
ATOM     63  C   UNL     1      -2.457  -2.400   8.781  1.00  0.00     0.029 A 
ATOM     64  C   UNL     1      -1.970  -2.866   9.989  1.00  0.00     0.049 A 
ATOM     65  H   UNL     1      -0.304  -2.214  11.101  1.00  0.00     0.167 HD
ATOM     66  C   UNL     1      -2.389  -5.172  10.398  1.00  0.00     0.074 A 
ATOM     67  C   UNL     1      -2.936  -6.441  10.838  1.00  0.00     0.031 C 
ATOM     68  C   UNL     1      -2.444  -3.902  10.892  1.00  0.00     0.037 A 
BRANCH  55  69
ATOM     69  C   UNL     1       0.917   0.912   9.027  1.00  0.00     0.057 A 
ATOM     70  C   UNL     1      -0.141   1.737   8.597  1.00  0.00     0.134 A 
ATOM     71  C   UNL     1       2.125   1.594   9.250  1.00  0.00     0.134 A 
ATOM     72  F   UNL     1      -1.392   1.276   8.471  1.00  0.00    -0.206 F 
ATOM     73  C   UNL     1       0.028   3.088   8.268  1.00  0.00     0.040 A 
ATOM     74  C   UNL     1       2.324   2.932   8.876  1.00  0.00     0.040 A 
ATOM     75  F   UNL     1       3.150   1.006   9.882  1.00  0.00    -0.206 F 
ATOM     76  C   UNL     1       1.276   3.680   8.361  1.00  0.00     0.006 A 
ENDBRANCH  55  69
BRANCH  56  77
ATOM     77  C   UNL     1      -0.050  -8.652   8.242  1.00  0.00     0.057 A 
ATOM     78  C   UNL     1       0.076  -9.626   7.237  1.00  0.00     0.134 A 
ATOM     79  C   UNL     1       0.901  -8.664   9.266  1.00  0.00     0.134 A 
ATOM     80  F   UNL     1      -0.804  -9.668   6.224  1.00  0.00    -0.206 F 
ATOM     81  C   UNL     1       1.158 -10.509   7.198  1.00  0.00     0.040 A 
ATOM     82  C   UNL     1       1.984  -9.550   9.242  1.00  0.00     0.040 A 
ATOM     83  F   UNL     1       0.861  -7.751  10.246  1.00  0.00    -0.206 F 
ATOM     84  C   UNL     1       2.134 -10.451   8.188  1.00  0.00     0.006 A 
ENDBRANCH  56  77
BRANCH  68  85
ATOM     85  C   UNL     1      -3.023  -3.514  12.225  1.00  0.00     0.057 A 
ATOM     86  C   UNL     1      -2.961  -4.324  13.368  1.00  0.00     0.134 A 
ATOM     87  C   UNL     1      -3.546  -2.220  12.426  1.00  0.00     0.134 A 
ATOM     88  F   UNL     1      -2.391  -5.536  13.337  1.00  0.00    -0.206 F 
ATOM     89  C   UNL     1      -3.440  -3.897  14.614  1.00  0.00     0.040 A 
ATOM     90  C   UNL     1      -3.983  -1.767  13.674  1.00  0.00     0.040 A 
ATOM     91  F   UNL     1      -3.637  -1.336  11.421  1.00  0.00    -0.206 F 
ATOM     92  C   UNL     1      -3.944  -2.612  14.773  1.00  0.00     0.006 A 
ENDBRANCH  68  85
ENDBRANCH  42  43
ENDBRANCH  34  37
ENDBRANCH  32  33
ENDBRANCH  31  32
ENDBRANCH  30  31
ENDBRANCH   1  30
TORSDOF 17
