REMARK SMILES CCOC(=O)c1ccc(NC(=O)[C@H]2CC=CC[C@@]2(C)C(=O)NCCCCCCNC(=O)c2ccc(-c3c4nc(c(-c5c(F)cccc5F)c5ccc([nH]5)c(-c5c(F)cccc5F)c5nc(c(-c6c(F)cccc6F)c6ccc3[nH]6)C=C5)C=C4)cc2)cc1
REMARK SMILES IDX 24 1 23 2 22 3 20 4 21 5 18 7 13 8 14 9 15 10 17 11 19 12
REMARK SMILES IDX 16 13 11 14 10 15 12 17 9 18 6 19 7 20 87 21 8 22 86 23 4 24
REMARK SMILES IDX 5 25 3 26 2 27 1 28 25 29 26 30 27 31 28 32 29 33 30 34
REMARK SMILES IDX 31 36 32 37 33 38 85 39 34 40 84 41 35 42 36 43 37 44 78 45
REMARK SMILES IDX 38 46 83 47 77 48 79 49 39 50 82 51 76 52 75 53 40 55 66 56
REMARK SMILES IDX 49 57 65 58 50 59 53 60 64 61 80 62 51 63 52 64 63 66 81 67
REMARK SMILES IDX 54 68 41 69 42 70 47 71 43 72 44 73 46 74 48 75 45 76 67 77
REMARK SMILES IDX 68 78 73 79 69 80 70 81 72 82 74 83 71 84 55 85 56 86 61 87
REMARK SMILES IDX 57 88 58 89 60 90 62 91 59 92
REMARK H PARENT 22 6 10 16 29 35 79 54 53 65
REMARK Flexibility Score: inf
ROOT
ATOM      1  C   UNL     1       7.068   9.027   7.125  1.00  0.00     0.021 C 
ENDROOT
BRANCH   1   2
ATOM      2  C   UNL     1       6.784   7.644   6.558  1.00  0.00     0.116 C 
BRANCH   2   3
ATOM      3  N   UNL     1       5.596   7.629   5.727  1.00  0.00    -0.356 N 
ATOM      4  C   UNL     1       5.291   6.947   4.593  1.00  0.00     0.227 C 
ATOM      5  O   UNL     1       4.136   7.085   4.180  1.00  0.00    -0.274 OA
ATOM      6  H   UNL     1       4.878   8.224   6.043  1.00  0.00     0.163 HD
BRANCH   4   7
ATOM      7  C   UNL     1       6.293   6.004   3.891  1.00  0.00     0.062 C 
ATOM      8  C   UNL     1       6.513   4.708   4.760  1.00  0.00     0.098 C 
ATOM      9  C   UNL     1       6.896   3.415   4.016  1.00  0.00     0.041 C 
ATOM     10  C   UNL     1       6.780   3.442   2.524  1.00  0.00    -0.030 C 
ATOM     11  C   UNL     1       5.744   5.717   2.453  1.00  0.00     0.044 C 
ATOM     12  C   UNL     1       7.649   6.733   3.622  1.00  0.00     0.023 C 
ATOM     13  C   UNL     1       6.268   4.461   1.824  1.00  0.00    -0.030 C 
BRANCH   8  14
ATOM     14  C   UNL     1       5.628   4.467   6.010  1.00  0.00     0.228 C 
ATOM     15  N   UNL     1       4.402   3.900   6.107  1.00  0.00    -0.326 N 
ATOM     16  H   UNL     1       4.016   3.996   7.008  1.00  0.00     0.169 HD
ATOM     17  O   UNL     1       6.116   4.754   7.119  1.00  0.00    -0.274 OA
BRANCH  15  18
ATOM     18  C   UNL     1       3.554   3.212   5.237  1.00  0.00     0.041 A 
ATOM     19  C   UNL     1       2.190   1.406   3.615  1.00  0.00     0.060 A 
ATOM     20  C   UNL     1       2.990   2.384   3.038  1.00  0.00     0.018 A 
ATOM     21  C   UNL     1       1.954   1.399   4.989  1.00  0.00     0.018 A 
ATOM     22  C   UNL     1       3.642   3.292   3.863  1.00  0.00     0.027 A 
ATOM     23  C   UNL     1       2.629   2.320   5.799  1.00  0.00     0.027 A 
BRANCH  19  24
ATOM     24  C   UNL     1       1.778   0.285   2.773  1.00  0.00     0.338 C 
ATOM     25  O   UNL     1       2.542  -0.626   2.480  1.00  0.00    -0.246 OA
BRANCH  24  26
ATOM     26  O   UNL     1       0.521   0.487   2.327  1.00  0.00    -0.462 OA
BRANCH  26  27
ATOM     27  C   UNL     1       0.093  -0.471   1.349  1.00  0.00     0.230 C 
ATOM     28  C   UNL     1       0.606  -0.077  -0.026  1.00  0.00     0.049 C 
ENDBRANCH  26  27
ENDBRANCH  24  26
ENDBRANCH  19  24
ENDBRANCH  15  18
ENDBRANCH   8  14
ENDBRANCH   4   7
ENDBRANCH   2   3
ENDBRANCH   1   2
BRANCH   1  29
ATOM     29  C   UNL     1       6.088   9.467   8.218  1.00  0.00     0.002 C 
BRANCH  29  30
ATOM     30  C   UNL     1       5.900   8.490   9.386  1.00  0.00     0.002 C 
BRANCH  30  31
ATOM     31  C   UNL     1       7.183   7.996  10.062  1.00  0.00     0.021 C 
BRANCH  31  32
ATOM     32  C   UNL     1       8.141   9.087  10.522  1.00  0.00     0.116 C 
BRANCH  32  33
ATOM     33  N   UNL     1       7.531  10.016  11.453  1.00  0.00    -0.352 N 
ATOM     34  C   UNL     1       8.072  10.612  12.563  1.00  0.00     0.251 C 
ATOM     35  H   UNL     1       6.595  10.254  11.261  1.00  0.00     0.163 HD
ATOM     36  O   UNL     1       7.364  11.290  13.301  1.00  0.00    -0.269 OA
BRANCH  34  37
ATOM     37  C   UNL     1       9.501  10.418  12.892  1.00  0.00     0.039 A 
ATOM     38  C   UNL     1       9.847  10.178  14.225  1.00  0.00     0.014 A 
ATOM     39  C   UNL     1      10.498  10.505  11.915  1.00  0.00     0.014 A 
ATOM     40  C   UNL     1      11.185   9.993  14.573  1.00  0.00     0.010 A 
ATOM     41  C   UNL     1      11.827  10.255  12.252  1.00  0.00     0.010 A 
ATOM     42  C   UNL     1      12.185  10.015  13.587  1.00  0.00    -0.014 A 
BRANCH  42  43
ATOM     43  C   UNL     1      13.609   9.822  13.953  1.00  0.00     0.031 A 
ATOM     44  C   UNL     1      14.586  10.955  13.807  1.00  0.00     0.074 A 
ATOM     45  C   UNL     1      14.029   8.620  14.390  1.00  0.00     0.049 A 
ATOM     46  N   UNL     1      15.868  10.982  14.074  1.00  0.00    -0.248 NA
ATOM     47  C   UNL     1      14.060  12.219  13.267  1.00  0.00     0.031 C 
ATOM     48  C   UNL     1      13.189   7.428  14.524  1.00  0.00     0.029 A 
ATOM     49  N   UNL     1      15.268   8.203  14.804  1.00  0.00    -0.354 N 
ATOM     50  C   UNL     1      16.301  12.254  13.723  1.00  0.00     0.074 A 
ATOM     51  C   UNL     1      15.159  12.954  13.176  1.00  0.00     0.031 C 
ATOM     52  C   UNL     1      13.932   6.422  15.015  1.00  0.00     0.029 A 
ATOM     53  C   UNL     1      15.300   6.891  15.209  1.00  0.00     0.049 A 
ATOM     54  H   UNL     1      16.059   8.789  14.811  1.00  0.00     0.167 HD
ATOM     55  C   UNL     1      17.532  12.800  13.867  1.00  0.00     0.037 A 
ATOM     56  C   UNL     1      16.318   6.155  15.692  1.00  0.00     0.037 A 
ATOM     57  C   UNL     1      18.660  12.114  14.441  1.00  0.00     0.049 A 
ATOM     58  C   UNL     1      17.667   6.793  15.873  1.00  0.00     0.074 A 
ATOM     59  C   UNL     1      19.934  12.598  14.682  1.00  0.00     0.029 A 
ATOM     60  N   UNL     1      18.644  10.795  14.869  1.00  0.00    -0.354 N 
ATOM     61  N   UNL     1      18.045   8.018  15.600  1.00  0.00    -0.248 NA
ATOM     62  C   UNL     1      18.726   5.949  16.444  1.00  0.00     0.031 C 
ATOM     63  C   UNL     1      20.699  11.561  15.229  1.00  0.00     0.029 A 
ATOM     64  C   UNL     1      19.890  10.444  15.363  1.00  0.00     0.049 A 
ATOM     65  H   UNL     1      17.863  10.197  14.828  1.00  0.00     0.167 HD
ATOM     66  C   UNL     1      19.375   8.101  15.989  1.00  0.00     0.074 A 
ATOM     67  C   UNL     1      19.733   6.806  16.532  1.00  0.00     0.031 C 
ATOM     68  C   UNL     1      20.225   9.153  15.906  1.00  0.00     0.037 A 
BRANCH  55  69
ATOM     69  C   UNL     1      17.716  14.214  13.401  1.00  0.00     0.057 A 
ATOM     70  C   UNL     1      17.153  15.296  14.091  1.00  0.00     0.134 A 
ATOM     71  C   UNL     1      18.481  14.501  12.264  1.00  0.00     0.134 A 
ATOM     72  F   UNL     1      16.397  15.089  15.180  1.00  0.00    -0.206 F 
ATOM     73  C   UNL     1      17.321  16.610  13.651  1.00  0.00     0.040 A 
ATOM     74  C   UNL     1      18.678  15.813  11.829  1.00  0.00     0.040 A 
ATOM     75  F   UNL     1      19.053  13.513  11.560  1.00  0.00    -0.206 F 
ATOM     76  C   UNL     1      18.091  16.872  12.520  1.00  0.00     0.006 A 
ENDBRANCH  55  69
BRANCH  56  77
ATOM     77  C   UNL     1      16.090   4.742  16.082  1.00  0.00     0.057 A 
ATOM     78  C   UNL     1      16.070   4.361  17.428  1.00  0.00     0.134 A 
ATOM     79  C   UNL     1      15.893   3.742  15.124  1.00  0.00     0.134 A 
ATOM     80  F   UNL     1      16.270   5.273  18.391  1.00  0.00    -0.206 F 
ATOM     81  C   UNL     1      15.882   3.031  17.809  1.00  0.00     0.040 A 
ATOM     82  C   UNL     1      15.681   2.412  15.490  1.00  0.00     0.040 A 
ATOM     83  F   UNL     1      15.894   4.045  13.817  1.00  0.00    -0.206 F 
ATOM     84  C   UNL     1      15.682   2.053  16.837  1.00  0.00     0.006 A 
ENDBRANCH  56  77
BRANCH  68  85
ATOM     85  C   UNL     1      21.611   8.954  16.442  1.00  0.00     0.057 A 
ATOM     86  C   UNL     1      22.559   8.175  15.768  1.00  0.00     0.134 A 
ATOM     87  C   UNL     1      22.006   9.568  17.638  1.00  0.00     0.134 A 
ATOM     88  F   UNL     1      22.238   7.551  14.625  1.00  0.00    -0.206 F 
ATOM     89  C   UNL     1      23.846   7.992  16.278  1.00  0.00     0.040 A 
ATOM     90  C   UNL     1      23.297   9.412  18.145  1.00  0.00     0.040 A 
ATOM     91  F   UNL     1      21.147  10.333  18.328  1.00  0.00    -0.206 F 
ATOM     92  C   UNL     1      24.218   8.616  17.467  1.00  0.00     0.006 A 
ENDBRANCH  68  85
ENDBRANCH  42  43
ENDBRANCH  34  37
ENDBRANCH  32  33
ENDBRANCH  31  32
ENDBRANCH  30  31
ENDBRANCH  29  30
ENDBRANCH   1  29
TORSDOF 18
