REMARK SMILES Cc1ccc(S(=O)(=O)n2cc(C(=O)C(=O)NCC(=O)NCCCCCCNC(=O)c3ccc(-c4c5nc(c(-c6c(F)cccc6F)c6ccc([nH]6)c(-c6c(F)cccc6F)c6nc(c(-c7c(F)cccc7F)c7ccc4[nH]7)C=C6)C=C5)cc3)c3ccccc32)cc1
REMARK SMILES IDX 22 1 21 2 20 3 18 4 19 5 17 7 16 8 14 9 15 10 12 12 13 13
REMARK SMILES IDX 11 14 9 15 10 16 89 17 84 18 88 19 85 20 87 21 86 22 6 23
REMARK SMILES IDX 7 24 8 25 5 26 1 27 2 28 3 29 91 30 4 31 90 32 23 33 24 34
REMARK SMILES IDX 25 35 26 36 27 37 28 38 29 40 30 41 31 42 83 43 32 44 82 45
REMARK SMILES IDX 33 46 34 47 35 48 76 49 36 50 81 51 75 52 77 53 37 54 80 55
REMARK SMILES IDX 74 56 73 57 38 59 64 60 47 61 63 62 48 63 51 64 62 65 78 66
REMARK SMILES IDX 49 67 50 68 61 70 79 71 52 72 39 73 40 74 45 75 41 76 42 77
REMARK SMILES IDX 44 78 46 79 43 80 65 81 66 82 71 83 67 84 68 85 70 86 72 87
REMARK SMILES IDX 69 88 53 89 54 90 59 91 55 92 56 93 58 94 60 95 57 96
REMARK H PARENT 20 6 16 11 27 39 77 58 51 69
REMARK Flexibility Score: inf
ROOT
ATOM      1  C   UNL     1     -10.094   3.559   1.309  1.00  0.00     0.021 C 
ENDROOT
BRANCH   1   2
ATOM      2  C   UNL     1      -9.395   4.891   1.041  1.00  0.00     0.116 C 
BRANCH   2   3
ATOM      3  N   UNL     1      -9.875   5.923   1.931  1.00  0.00    -0.355 N 
ATOM      4  C   UNL     1      -9.213   6.602   2.910  1.00  0.00     0.239 C 
ATOM      5  O   UNL     1      -9.817   7.504   3.495  1.00  0.00    -0.273 OA
ATOM      6  H   UNL     1     -10.820   6.172   1.813  1.00  0.00     0.163 HD
BRANCH   4   7
ATOM      7  C   UNL     1      -7.721   6.354   3.163  1.00  0.00     0.216 C 
BRANCH   7   8
ATOM      8  N   UNL     1      -7.379   4.965   3.458  1.00  0.00    -0.340 N 
ATOM      9  C   UNL     1      -6.486   4.099   2.861  1.00  0.00     0.292 C 
ATOM     10  O   UNL     1      -6.362   2.974   3.336  1.00  0.00    -0.265 OA
ATOM     11  H   UNL     1      -7.872   4.580   4.218  1.00  0.00     0.164 HD
BRANCH   9  12
ATOM     12  C   UNL     1      -5.687   4.506   1.592  1.00  0.00     0.252 C 
ATOM     13  O   UNL     1      -5.604   5.698   1.314  1.00  0.00    -0.283 OA
BRANCH  12  14
ATOM     14  C   UNL     1      -5.053   3.506   0.714  1.00  0.00     0.054 A 
ATOM     15  N   UNL     1      -4.166   1.614  -0.083  1.00  0.00    -0.240 N 
ATOM     16  C   UNL     1      -4.842   2.163   0.976  1.00  0.00     0.117 A 
ATOM     17  C   UNL     1      -3.942   2.548  -1.072  1.00  0.00     0.065 A 
ATOM     18  C   UNL     1      -4.487   3.748  -0.594  1.00  0.00     0.012 A 
ATOM     19  C   UNL     1      -3.284   2.471  -2.314  1.00  0.00     0.028 A 
ATOM     20  C   UNL     1      -4.380   4.899  -1.408  1.00  0.00     0.011 A 
ATOM     21  C   UNL     1      -3.173   3.633  -3.080  1.00  0.00     0.002 A 
ATOM     22  C   UNL     1      -3.718   4.831  -2.638  1.00  0.00     0.001 A 
BRANCH  15  23
ATOM     23  S   UNL     1      -3.584   0.012  -0.106  1.00  0.00     0.268 S 
ATOM     24  O   UNL     1      -3.930  -0.498  -1.416  1.00  0.00    -0.201 OA
ATOM     25  O   UNL     1      -4.081  -0.603   1.113  1.00  0.00    -0.201 OA
BRANCH  23  26
ATOM     26  C   UNL     1      -1.815   0.066   0.012  1.00  0.00     0.088 A 
ATOM     27  C   UNL     1       2.487  -0.047   0.023  1.00  0.00     0.044 C 
ATOM     28  C   UNL     1       0.987  -0.002   0.039  1.00  0.00    -0.051 A 
ATOM     29  C   UNL     1       0.252  -1.191  -0.042  1.00  0.00     0.005 A 
ATOM     30  C   UNL     1       0.304   1.216   0.137  1.00  0.00     0.005 A 
ATOM     31  C   UNL     1      -1.143  -1.159  -0.061  1.00  0.00     0.022 A 
ATOM     32  C   UNL     1      -1.093   1.254   0.136  1.00  0.00     0.022 A 
ENDBRANCH  23  26
ENDBRANCH  15  23
ENDBRANCH  12  14
ENDBRANCH   9  12
ENDBRANCH   7   8
ENDBRANCH   4   7
ENDBRANCH   2   3
ENDBRANCH   1   2
BRANCH   1  33
ATOM     33  C   UNL     1     -11.570   3.532   0.885  1.00  0.00     0.002 C 
BRANCH  33  34
ATOM     34  C   UNL     1     -11.857   3.992  -0.552  1.00  0.00     0.002 C 
BRANCH  34  35
ATOM     35  C   UNL     1     -10.991   3.337  -1.626  1.00  0.00     0.021 C 
BRANCH  35  36
ATOM     36  C   UNL     1     -11.334   1.880  -1.885  1.00  0.00     0.116 C 
BRANCH  36  37
ATOM     37  N   UNL     1     -12.413   1.734  -2.858  1.00  0.00    -0.352 N 
ATOM     38  C   UNL     1     -12.864   0.634  -3.562  1.00  0.00     0.251 C 
ATOM     39  H   UNL     1     -12.906   2.565  -3.045  1.00  0.00     0.163 HD
ATOM     40  O   UNL     1     -13.767   0.774  -4.383  1.00  0.00    -0.269 OA
BRANCH  38  41
ATOM     41  C   UNL     1     -12.431  -0.731  -3.175  1.00  0.00     0.039 A 
ATOM     42  C   UNL     1     -13.478  -1.640  -2.962  1.00  0.00     0.014 A 
ATOM     43  C   UNL     1     -11.198  -0.927  -2.574  1.00  0.00     0.014 A 
ATOM     44  C   UNL     1     -13.421  -2.472  -1.859  1.00  0.00     0.010 A 
ATOM     45  C   UNL     1     -11.188  -1.628  -1.398  1.00  0.00     0.010 A 
ATOM     46  C   UNL     1     -12.338  -2.320  -1.007  1.00  0.00    -0.014 A 
BRANCH  46  47
ATOM     47  C   UNL     1     -12.273  -2.875   0.324  1.00  0.00     0.031 A 
ATOM     48  C   UNL     1     -11.549  -4.141   0.471  1.00  0.00     0.074 A 
ATOM     49  C   UNL     1     -12.698  -2.113   1.354  1.00  0.00     0.049 A 
ATOM     50  N   UNL     1     -11.589  -4.888   1.510  1.00  0.00    -0.248 NA
ATOM     51  C   UNL     1     -10.739  -4.698  -0.609  1.00  0.00     0.031 C 
ATOM     52  C   UNL     1     -12.430  -2.273   2.777  1.00  0.00     0.029 A 
ATOM     53  N   UNL     1     -13.669  -1.103   1.300  1.00  0.00    -0.354 N 
ATOM     54  C   UNL     1     -10.596  -5.835   1.375  1.00  0.00     0.074 A 
ATOM     55  C   UNL     1     -10.177  -5.742   0.002  1.00  0.00     0.031 C 
ATOM     56  C   UNL     1     -13.393  -1.642   3.474  1.00  0.00     0.029 A 
ATOM     57  C   UNL     1     -14.390  -1.204   2.510  1.00  0.00     0.049 A 
ATOM     58  H   UNL     1     -13.818  -0.458   0.571  1.00  0.00     0.167 HD
ATOM     59  C   UNL     1     -10.165  -6.459   2.507  1.00  0.00     0.037 A 
ATOM     60  C   UNL     1     -15.689  -1.630   2.494  1.00  0.00     0.037 A 
ATOM     61  C   UNL     1     -11.055  -6.109   3.619  1.00  0.00     0.049 A 
ATOM     62  C   UNL     1     -15.869  -2.950   3.216  1.00  0.00     0.074 A 
ATOM     63  C   UNL     1     -10.975  -5.150   4.616  1.00  0.00     0.029 A 
ATOM     64  N   UNL     1     -12.391  -6.495   3.551  1.00  0.00    -0.354 N 
ATOM     65  N   UNL     1     -14.923  -3.840   3.370  1.00  0.00    -0.248 NA
ATOM     66  C   UNL     1     -17.113  -3.337   3.872  1.00  0.00     0.031 C 
ATOM     67  C   UNL     1     -12.295  -4.899   5.084  1.00  0.00     0.029 A 
ATOM     68  C   UNL     1     -13.168  -5.727   4.396  1.00  0.00     0.049 A 
ATOM     69  H   UNL     1     -12.735  -7.218   2.978  1.00  0.00     0.167 HD
ATOM     70  C   UNL     1     -15.388  -4.877   4.140  1.00  0.00     0.074 A 
ATOM     71  C   UNL     1     -16.761  -4.506   4.434  1.00  0.00     0.031 C 
ATOM     72  C   UNL     1     -14.608  -5.947   4.488  1.00  0.00     0.037 A 
BRANCH  59  73
ATOM     73  C   UNL     1      -8.817  -7.131   2.681  1.00  0.00     0.057 A 
ATOM     74  C   UNL     1      -8.288  -7.320   3.975  1.00  0.00     0.134 A 
ATOM     75  C   UNL     1      -7.952  -7.548   1.651  1.00  0.00     0.134 A 
ATOM     76  F   UNL     1      -9.000  -7.037   5.074  1.00  0.00    -0.206 F 
ATOM     77  C   UNL     1      -6.994  -7.804   4.215  1.00  0.00     0.040 A 
ATOM     78  C   UNL     1      -6.645  -8.009   1.875  1.00  0.00     0.040 A 
ATOM     79  F   UNL     1      -8.322  -7.580   0.370  1.00  0.00    -0.206 F 
ATOM     80  C   UNL     1      -6.156  -8.131   3.162  1.00  0.00     0.006 A 
ENDBRANCH  59  73
BRANCH  60  81
ATOM     81  C   UNL     1     -16.409  -1.185   1.262  1.00  0.00     0.057 A 
ATOM     82  C   UNL     1     -16.521   0.203   1.040  1.00  0.00     0.134 A 
ATOM     83  C   UNL     1     -16.540  -2.014   0.145  1.00  0.00     0.134 A 
ATOM     84  F   UNL     1     -16.432   1.058   2.072  1.00  0.00    -0.206 F 
ATOM     85  C   UNL     1     -16.568   0.746  -0.247  1.00  0.00     0.040 A 
ATOM     86  C   UNL     1     -16.623  -1.478  -1.149  1.00  0.00     0.040 A 
ATOM     87  F   UNL     1     -16.455  -3.346   0.267  1.00  0.00    -0.206 F 
ATOM     88  C   UNL     1     -16.572  -0.099  -1.351  1.00  0.00     0.006 A 
ENDBRANCH  60  81
BRANCH  72  89
ATOM     89  C   UNL     1     -15.099  -7.277   5.032  1.00  0.00     0.057 A 
ATOM     90  C   UNL     1     -16.414  -7.750   4.917  1.00  0.00     0.134 A 
ATOM     91  C   UNL     1     -14.188  -8.219   5.574  1.00  0.00     0.134 A 
ATOM     92  F   UNL     1     -17.371  -7.044   4.301  1.00  0.00    -0.206 F 
ATOM     93  C   UNL     1     -16.808  -9.017   5.372  1.00  0.00     0.040 A 
ATOM     94  C   UNL     1     -14.554  -9.512   5.958  1.00  0.00     0.040 A 
ATOM     95  F   UNL     1     -12.884  -7.944   5.731  1.00  0.00    -0.206 F 
ATOM     96  C   UNL     1     -15.876  -9.909   5.881  1.00  0.00     0.006 A 
ENDBRANCH  72  89
ENDBRANCH  46  47
ENDBRANCH  38  41
ENDBRANCH  36  37
ENDBRANCH  35  36
ENDBRANCH  34  35
ENDBRANCH  33  34
ENDBRANCH   1  33
TORSDOF 18
