REMARK SMILES O=C(NCCCCCCNC(=O)c1sc2ccccc2c1CSC[C@H](O)CO)c1ccc(-c2c3nc(c(-c4c(F)cccc4F)c4ccc([nH]4)c(-c4c(F)cccc4F)c4nc(c(-c5c(F)cccc5F)c5ccc2[nH]5)C=C4)C=C3)cc1
REMARK SMILES IDX 8 1 7 2 6 3 5 4 4 5 3 6 1 7 2 8 29 10 30 11 82 12 31 13
REMARK SMILES IDX 81 14 32 15 33 16 34 17 75 18 35 19 80 20 74 21 76 22 36 23
REMARK SMILES IDX 79 24 73 25 72 26 37 28 63 29 46 30 62 31 47 32 50 33 61 34
REMARK SMILES IDX 77 35 48 36 49 37 60 39 78 40 51 41 38 42 39 43 44 44 40 45
REMARK SMILES IDX 41 46 43 47 45 48 42 49 64 50 65 51 70 52 66 53 67 54 69 55
REMARK SMILES IDX 71 56 68 57 52 58 53 59 58 60 54 61 55 62 57 63 59 64 56 65
REMARK SMILES IDX 9 66 10 67 11 68 12 70 13 71 14 72 21 73 15 74 20 75 16 76
REMARK SMILES IDX 19 77 17 78 18 79 22 80 23 81 24 82 25 83 27 84 28 85 26 87
REMARK H PARENT 3 9 76 27 50 38 10 69 28 86 26 88
REMARK Flexibility Score: inf
ROOT
ATOM      1  C   UNL     1      15.187  -7.460 -10.844  1.00  0.00     0.021 C 
ENDROOT
BRANCH   1   2
ATOM      2  C   UNL     1      15.457  -5.968 -11.063  1.00  0.00     0.002 C 
BRANCH   2   3
ATOM      3  C   UNL     1      16.831  -5.437 -10.653  1.00  0.00     0.002 C 
BRANCH   3   4
ATOM      4  C   UNL     1      18.056  -6.156 -11.224  1.00  0.00     0.021 C 
BRANCH   4   5
ATOM      5  C   UNL     1      18.078  -6.382 -12.733  1.00  0.00     0.116 C 
BRANCH   5   6
ATOM      6  N   UNL     1      17.999  -5.160 -13.509  1.00  0.00    -0.352 N 
ATOM      7  O   UNL     1      18.453  -3.727 -15.185  1.00  0.00    -0.269 OA
ATOM      8  C   UNL     1      18.593  -4.850 -14.710  1.00  0.00     0.251 C 
ATOM      9  H   UNL     1      17.440  -4.450 -13.121  1.00  0.00     0.163 HD
BRANCH   8  10
ATOM     10  C   UNL     1      19.438  -5.841 -15.420  1.00  0.00     0.039 A 
ATOM     11  C   UNL     1      19.042  -7.172 -15.584  1.00  0.00     0.014 A 
ATOM     12  C   UNL     1      20.654  -5.407 -15.963  1.00  0.00     0.014 A 
ATOM     13  C   UNL     1      19.905  -8.086 -16.191  1.00  0.00     0.010 A 
ATOM     14  C   UNL     1      21.503  -6.314 -16.603  1.00  0.00     0.010 A 
ATOM     15  C   UNL     1      21.149  -7.667 -16.689  1.00  0.00    -0.014 A 
BRANCH  15  16
ATOM     16  C   UNL     1      22.071  -8.662 -17.286  1.00  0.00     0.031 A 
ATOM     17  C   UNL     1      23.250  -9.170 -16.506  1.00  0.00     0.074 A 
ATOM     18  C   UNL     1      21.827  -9.142 -18.519  1.00  0.00     0.049 A 
ATOM     19  N   UNL     1      24.113 -10.100 -16.830  1.00  0.00    -0.248 NA
ATOM     20  C   UNL     1      23.491  -8.554 -15.192  1.00  0.00     0.031 C 
ATOM     21  C   UNL     1      20.731  -8.718 -19.390  1.00  0.00     0.029 A 
ATOM     22  N   UNL     1      22.478 -10.109 -19.240  1.00  0.00    -0.354 N 
ATOM     23  C   UNL     1      25.010 -10.167 -15.774  1.00  0.00     0.074 A 
ATOM     24  C   UNL     1      24.587  -9.187 -14.795  1.00  0.00     0.031 C 
ATOM     25  C   UNL     1      20.762  -9.450 -20.516  1.00  0.00     0.029 A 
ATOM     26  C   UNL     1      21.879 -10.388 -20.442  1.00  0.00     0.049 A 
ATOM     27  H   UNL     1      23.295 -10.560 -18.926  1.00  0.00     0.167 HD
ATOM     28  C   UNL     1      26.088 -10.973 -15.628  1.00  0.00     0.037 A 
ATOM     29  C   UNL     1      22.184 -11.312 -21.371  1.00  0.00     0.037 A 
ATOM     30  C   UNL     1      26.503 -11.973 -16.574  1.00  0.00     0.049 A 
ATOM     31  C   UNL     1      23.346 -12.235 -21.160  1.00  0.00     0.074 A 
ATOM     32  C   UNL     1      27.571 -12.851 -16.493  1.00  0.00     0.029 A 
ATOM     33  N   UNL     1      25.860 -12.234 -17.772  1.00  0.00    -0.354 N 
ATOM     34  N   UNL     1      24.172 -12.300 -20.147  1.00  0.00    -0.248 NA
ATOM     35  C   UNL     1      23.612 -13.217 -22.222  1.00  0.00     0.031 C 
ATOM     36  C   UNL     1      27.572 -13.647 -17.645  1.00  0.00     0.029 A 
ATOM     37  C   UNL     1      26.505 -13.262 -18.439  1.00  0.00     0.049 A 
ATOM     38  H   UNL     1      25.064 -11.758 -18.102  1.00  0.00     0.167 HD
ATOM     39  C   UNL     1      25.053 -13.330 -20.444  1.00  0.00     0.074 A 
ATOM     40  C   UNL     1      24.660 -13.865 -21.732  1.00  0.00     0.031 C 
ATOM     41  C   UNL     1      26.095 -13.789 -19.712  1.00  0.00     0.037 A 
BRANCH  28  42
ATOM     42  C   UNL     1      26.899 -10.800 -14.385  1.00  0.00     0.057 A 
ATOM     43  C   UNL     1      26.593 -11.503 -13.216  1.00  0.00     0.134 A 
ATOM     44  C   UNL     1      28.003  -9.940 -14.364  1.00  0.00     0.134 A 
ATOM     45  F   UNL     1      25.537 -12.330 -13.176  1.00  0.00    -0.206 F 
ATOM     46  C   UNL     1      27.360 -11.354 -12.059  1.00  0.00     0.040 A 
ATOM     47  C   UNL     1      28.779  -9.785 -13.215  1.00  0.00     0.040 A 
ATOM     48  F   UNL     1      28.337  -9.235 -15.455  1.00  0.00    -0.206 F 
ATOM     49  C   UNL     1      28.457 -10.494 -12.058  1.00  0.00     0.006 A 
ENDBRANCH  28  42
BRANCH  29  50
ATOM     50  C   UNL     1      21.338 -11.438 -22.576  1.00  0.00     0.057 A 
ATOM     51  C   UNL     1      20.253 -12.320 -22.598  1.00  0.00     0.134 A 
ATOM     52  C   UNL     1      21.589 -10.676 -23.720  1.00  0.00     0.134 A 
ATOM     53  F   UNL     1      19.978 -13.079 -21.528  1.00  0.00    -0.206 F 
ATOM     54  C   UNL     1      19.441 -12.441 -23.725  1.00  0.00     0.040 A 
ATOM     55  C   UNL     1      20.784 -10.786 -24.853  1.00  0.00     0.040 A 
ATOM     56  F   UNL     1      22.622  -9.822 -23.750  1.00  0.00    -0.206 F 
ATOM     57  C   UNL     1      19.705 -11.671 -24.856  1.00  0.00     0.006 A 
ENDBRANCH  29  50
BRANCH  41  58
ATOM     58  C   UNL     1      26.872 -14.930 -20.285  1.00  0.00     0.057 A 
ATOM     59  C   UNL     1      27.965 -14.707 -21.129  1.00  0.00     0.134 A 
ATOM     60  C   UNL     1      26.540 -16.253 -19.975  1.00  0.00     0.134 A 
ATOM     61  F   UNL     1      28.321 -13.459 -21.466  1.00  0.00    -0.206 F 
ATOM     62  C   UNL     1      28.703 -15.769 -21.652  1.00  0.00     0.040 A 
ATOM     63  C   UNL     1      27.272 -17.323 -20.491  1.00  0.00     0.040 A 
ATOM     64  F   UNL     1      25.496 -16.524 -19.177  1.00  0.00    -0.206 F 
ATOM     65  C   UNL     1      28.358 -17.081 -21.332  1.00  0.00     0.006 A 
ENDBRANCH  41  58
ENDBRANCH  15  16
ENDBRANCH   8  10
ENDBRANCH   5   6
ENDBRANCH   4   5
ENDBRANCH   3   4
ENDBRANCH   2   3
ENDBRANCH   1   2
BRANCH   1  66
ATOM     66  C   UNL     1      15.511  -8.025  -9.463  1.00  0.00     0.116 C 
BRANCH  66  67
ATOM     67  N   UNL     1      14.858  -7.317  -8.380  1.00  0.00    -0.351 N 
ATOM     68  C   UNL     1      14.316  -7.826  -7.226  1.00  0.00     0.261 C 
ATOM     69  H   UNL     1      14.795  -6.341  -8.486  1.00  0.00     0.163 HD
ATOM     70  O   UNL     1      13.899  -7.021  -6.386  1.00  0.00    -0.268 OA
BRANCH  68  71
ATOM     71  C   UNL     1      14.224  -9.262  -7.062  1.00  0.00     0.097 A 
ATOM     72  S   UNL     1      15.648 -10.152  -6.760  1.00  0.00    -0.130 S 
ATOM     73  C   UNL     1      13.086 -10.057  -7.023  1.00  0.00    -0.007 A 
ATOM     74  C   UNL     1      14.812 -11.649  -6.768  1.00  0.00     0.035 A 
ATOM     75  C   UNL     1      13.435 -11.467  -6.927  1.00  0.00    -0.003 A 
ATOM     76  C   UNL     1      15.382 -12.931  -6.629  1.00  0.00     0.019 A 
ATOM     77  C   UNL     1      12.623 -12.632  -6.957  1.00  0.00     0.010 A 
ATOM     78  C   UNL     1      14.551 -14.052  -6.658  1.00  0.00     0.001 A 
ATOM     79  C   UNL     1      13.184 -13.906  -6.821  1.00  0.00     0.001 A 
BRANCH  73  80
ATOM     80  C   UNL     1      11.676  -9.546  -7.130  1.00  0.00     0.107 C 
BRANCH  80  81
ATOM     81  S   UNL     1      11.069  -8.623  -5.676  1.00  0.00    -0.154 SA
BRANCH  81  82
ATOM     82  C   UNL     1      11.713  -9.622  -4.281  1.00  0.00     0.104 C 
BRANCH  82  83
ATOM     83  C   UNL     1      10.914 -10.911  -4.095  1.00  0.00     0.149 C 
BRANCH  83  84
ATOM     84  C   UNL     1      11.554 -11.803  -3.027  1.00  0.00     0.188 C 
BRANCH  84  85
ATOM     85  O   UNL     1      10.763 -12.980  -2.862  1.00  0.00    -0.394 OA
ATOM     86  H   UNL     1       9.867 -12.732  -2.587  1.00  0.00     0.210 HD
ENDBRANCH  84  85
ENDBRANCH  83  84
BRANCH  83  87
ATOM     87  O   UNL     1       9.572 -10.615  -3.668  1.00  0.00    -0.390 OA
ATOM     88  H   UNL     1       9.598 -10.158  -2.813  1.00  0.00     0.211 HD
ENDBRANCH  83  87
ENDBRANCH  82  83
ENDBRANCH  81  82
ENDBRANCH  80  81
ENDBRANCH  73  80
ENDBRANCH  68  71
ENDBRANCH  66  67
ENDBRANCH   1  66
TORSDOF 20
