REMARK SMILES O=C(NCCCCCCNC(=O)[C@@H]1[C@H](C(=O)Nc2cccc(Cl)c2F)[C@@H]2C=C[C@H]1C2)c1ccc(-c2c3nc(c(-c4c(F)cccc4F)c4ccc([nH]4)c(-c4c(F)cccc4F)c4nc(c(-c5c(F)cccc5F)c5ccc2[nH]5)C=C4)C=C3)cc1
REMARK SMILES IDX 6 1 5 2 4 3 3 4 1 5 2 6 31 8 32 9 84 10 33 11 83 12 34 13
REMARK SMILES IDX 35 14 36 15 77 16 37 17 82 18 76 19 78 20 38 21 81 22 75 23
REMARK SMILES IDX 74 24 39 26 65 27 48 28 64 29 49 30 52 31 63 32 79 33 50 34
REMARK SMILES IDX 51 35 62 37 80 38 53 39 40 40 41 41 46 42 42 43 43 44 45 45
REMARK SMILES IDX 47 46 44 47 66 48 67 49 72 50 68 51 69 52 71 53 73 54 70 55
REMARK SMILES IDX 54 56 55 57 60 58 56 59 57 60 59 61 61 62 58 63 7 64 8 65
REMARK SMILES IDX 9 66 10 67 11 68 12 70 13 71 14 72 29 73 26 74 28 75 30 76
REMARK SMILES IDX 27 77 15 78 16 79 17 80 18 82 19 83 24 84 20 85 22 86 25 87
REMARK SMILES IDX 21 88 23 89
REMARK H PARENT 3 7 78 25 52 36 10 69 17 81
REMARK Flexibility Score: inf
ROOT
ATOM      1  C   UNL     1       3.623   3.893   0.661  1.00  0.00     0.002 C 
ENDROOT
BRANCH   1   2
ATOM      2  C   UNL     1       4.305   2.717  -0.046  1.00  0.00     0.021 C 
BRANCH   2   3
ATOM      3  C   UNL     1       4.200   1.370   0.665  1.00  0.00     0.116 C 
BRANCH   3   4
ATOM      4  N   UNL     1       2.831   0.889   0.732  1.00  0.00    -0.352 N 
ATOM      5  O   UNL     1       1.002  -0.252   0.077  1.00  0.00    -0.269 OA
ATOM      6  C   UNL     1       2.228  -0.132   0.046  1.00  0.00     0.251 C 
ATOM      7  H   UNL     1       2.249   1.368   1.366  1.00  0.00     0.163 HD
BRANCH   6   8
ATOM      8  C   UNL     1       3.031  -1.101  -0.730  1.00  0.00     0.039 A 
ATOM      9  C   UNL     1       4.166  -1.698  -0.174  1.00  0.00     0.014 A 
ATOM     10  C   UNL     1       2.587  -1.491  -1.998  1.00  0.00     0.014 A 
ATOM     11  C   UNL     1       4.898  -2.626  -0.912  1.00  0.00     0.010 A 
ATOM     12  C   UNL     1       3.286  -2.467  -2.714  1.00  0.00     0.010 A 
ATOM     13  C   UNL     1       4.446  -3.043  -2.174  1.00  0.00    -0.014 A 
BRANCH  13  14
ATOM     14  C   UNL     1       5.113  -4.185  -2.848  1.00  0.00     0.031 A 
ATOM     15  C   UNL     1       5.883  -4.005  -4.123  1.00  0.00     0.074 A 
ATOM     16  C   UNL     1       4.991  -5.408  -2.293  1.00  0.00     0.049 A 
ATOM     17  N   UNL     1       6.502  -4.908  -4.841  1.00  0.00    -0.248 NA
ATOM     18  C   UNL     1       5.968  -2.642  -4.668  1.00  0.00     0.031 C 
ATOM     19  C   UNL     1       4.238  -5.704  -1.071  1.00  0.00     0.029 A 
ATOM     20  N   UNL     1       5.489  -6.626  -2.678  1.00  0.00    -0.354 N 
ATOM     21  C   UNL     1       7.036  -4.231  -5.929  1.00  0.00     0.074 A 
ATOM     22  C   UNL     1       6.658  -2.840  -5.785  1.00  0.00     0.031 C 
ATOM     23  C   UNL     1       4.339  -7.013  -0.797  1.00  0.00     0.029 A 
ATOM     24  C   UNL     1       5.116  -7.657  -1.849  1.00  0.00     0.049 A 
ATOM     25  H   UNL     1       6.060  -6.750  -3.470  1.00  0.00     0.167 HD
ATOM     26  C   UNL     1       7.776  -4.729  -6.948  1.00  0.00     0.037 A 
ATOM     27  C   UNL     1       5.345  -8.979  -1.941  1.00  0.00     0.037 A 
ATOM     28  C   UNL     1       8.163  -6.112  -7.071  1.00  0.00     0.049 A 
ATOM     29  C   UNL     1       6.147  -9.500  -3.097  1.00  0.00     0.074 A 
ATOM     30  C   UNL     1       8.982  -6.694  -8.024  1.00  0.00     0.029 A 
ATOM     31  N   UNL     1       7.749  -7.129  -6.226  1.00  0.00    -0.354 N 
ATOM     32  N   UNL     1       6.709  -8.835  -4.076  1.00  0.00    -0.248 NA
ATOM     33  C   UNL     1       6.339 -10.955  -3.168  1.00  0.00     0.031 C 
ATOM     34  C   UNL     1       9.022  -8.072  -7.784  1.00  0.00     0.029 A 
ATOM     35  C   UNL     1       8.262  -8.341  -6.658  1.00  0.00     0.049 A 
ATOM     36  H   UNL     1       7.175  -7.008  -5.435  1.00  0.00     0.167 HD
ATOM     37  C   UNL     1       7.323  -9.787  -4.877  1.00  0.00     0.074 A 
ATOM     38  C   UNL     1       7.091 -11.073  -4.253  1.00  0.00     0.031 C 
ATOM     39  C   UNL     1       8.010  -9.612  -6.031  1.00  0.00     0.037 A 
BRANCH  26  40
ATOM     40  C   UNL     1       8.217  -3.788  -8.030  1.00  0.00     0.057 A 
ATOM     41  C   UNL     1       9.265  -2.881  -7.837  1.00  0.00     0.134 A 
ATOM     42  C   UNL     1       7.650  -3.861  -9.309  1.00  0.00     0.134 A 
ATOM     43  F   UNL     1       9.848  -2.760  -6.635  1.00  0.00    -0.206 F 
ATOM     44  C   UNL     1       9.734  -2.077  -8.879  1.00  0.00     0.040 A 
ATOM     45  C   UNL     1       8.121  -3.075 -10.362  1.00  0.00     0.040 A 
ATOM     46  F   UNL     1       6.647  -4.715  -9.561  1.00  0.00    -0.206 F 
ATOM     47  C   UNL     1       9.167  -2.180 -10.149  1.00  0.00     0.006 A 
ENDBRANCH  26  40
BRANCH  27  48
ATOM     48  C   UNL     1       4.776  -9.903  -0.929  1.00  0.00     0.057 A 
ATOM     49  C   UNL     1       5.596 -10.588  -0.027  1.00  0.00     0.134 A 
ATOM     50  C   UNL     1       3.396 -10.129  -0.849  1.00  0.00     0.134 A 
ATOM     51  F   UNL     1       6.927 -10.428  -0.068  1.00  0.00    -0.206 F 
ATOM     52  C   UNL     1       5.067 -11.480   0.908  1.00  0.00     0.040 A 
ATOM     53  C   UNL     1       2.851 -10.996   0.099  1.00  0.00     0.040 A 
ATOM     54  F   UNL     1       2.557  -9.498  -1.682  1.00  0.00    -0.206 F 
ATOM     55  C   UNL     1       3.689 -11.681   0.975  1.00  0.00     0.006 A 
ENDBRANCH  27  48
BRANCH  39  56
ATOM     56  C   UNL     1       8.553 -10.845  -6.688  1.00  0.00     0.057 A 
ATOM     57  C   UNL     1       7.716 -11.743  -7.361  1.00  0.00     0.134 A 
ATOM     58  C   UNL     1       9.925 -11.124  -6.667  1.00  0.00     0.134 A 
ATOM     59  F   UNL     1       6.391 -11.539  -7.401  1.00  0.00    -0.206 F 
ATOM     60  C   UNL     1       8.223 -12.889  -7.975  1.00  0.00     0.040 A 
ATOM     61  C   UNL     1      10.446 -12.255  -7.297  1.00  0.00     0.040 A 
ATOM     62  F   UNL     1      10.779 -10.300  -6.042  1.00  0.00    -0.206 F 
ATOM     63  C   UNL     1       9.593 -13.143  -7.949  1.00  0.00     0.006 A 
ENDBRANCH  39  56
ENDBRANCH  13  14
ENDBRANCH   6   8
ENDBRANCH   3   4
ENDBRANCH   2   3
ENDBRANCH   1   2
BRANCH   1  64
ATOM     64  C   UNL     1       4.039   4.145   2.114  1.00  0.00     0.002 C 
BRANCH  64  65
ATOM     65  C   UNL     1       5.546   4.191   2.379  1.00  0.00     0.021 C 
BRANCH  65  66
ATOM     66  C   UNL     1       6.310   5.373   1.771  1.00  0.00     0.116 C 
BRANCH  66  67
ATOM     67  N   UNL     1       6.601   6.378   2.779  1.00  0.00    -0.356 N 
ATOM     68  C   UNL     1       7.721   6.713   3.473  1.00  0.00     0.224 C 
ATOM     69  H   UNL     1       5.822   6.934   3.009  1.00  0.00     0.163 HD
ATOM     70  O   UNL     1       7.607   7.675   4.243  1.00  0.00    -0.275 OA
BRANCH  68  71
ATOM     71  C   UNL     1       9.096   6.106   3.221  1.00  0.00     0.098 C 
ATOM     72  C   UNL     1       9.471   4.652   2.858  1.00  0.00     0.099 C 
ATOM     73  C   UNL     1      10.188   6.444   4.301  1.00  0.00     0.025 C 
ATOM     74  C   UNL     1      10.849   4.440   3.557  1.00  0.00     0.025 C 
ATOM     75  C   UNL     1      10.204   5.478   5.475  1.00  0.00    -0.027 C 
ATOM     76  C   UNL     1      11.422   5.867   3.588  1.00  0.00     0.017 C 
ATOM     77  C   UNL     1      10.622   4.284   5.030  1.00  0.00    -0.027 C 
BRANCH  72  78
ATOM     78  C   UNL     1       8.608   3.399   2.877  1.00  0.00     0.228 C 
ATOM     79  O   UNL     1       8.522   2.789   1.789  1.00  0.00    -0.274 OA
ATOM     80  N   UNL     1       8.008   2.722   3.877  1.00  0.00    -0.323 N 
ATOM     81  H   UNL     1       7.818   1.804   3.578  1.00  0.00     0.170 HD
BRANCH  80  82
ATOM     82  C   UNL     1       7.559   2.880   5.203  1.00  0.00     0.078 A 
ATOM     83  C   UNL     1       7.174   1.695   5.853  1.00  0.00     0.029 A 
ATOM     84  C   UNL     1       7.352   4.067   5.895  1.00  0.00     0.165 A 
ATOM     85  C   UNL     1       6.654   1.704   7.154  1.00  0.00     0.004 A 
ATOM     86  C   UNL     1       6.847   4.090   7.199  1.00  0.00     0.078 A 
ATOM     87  F   UNL     1       7.543   5.229   5.291  1.00  0.00    -0.203 F 
ATOM     88  C   UNL     1       6.500   2.906   7.835  1.00  0.00     0.024 A 
ATOM     89  Cl  UNL     1       6.615   5.587   8.022  1.00  0.00    -0.081 Cl
ENDBRANCH  80  82
ENDBRANCH  72  78
ENDBRANCH  68  71
ENDBRANCH  66  67
ENDBRANCH  65  66
ENDBRANCH  64  65
ENDBRANCH   1  64
TORSDOF 15
