REMARK SMILES CC[C@@H]1CCC[C@@](Cc2cccc(O)c2)(C(=O)NCCCCCCNC(=O)c2ccc(-c3c4nc(c(-c5c(F)cccc5F)c5ccc([nH]5)c(-c5c(F)cccc5F)c5nc(c(-c6c(F)cccc6F)c6ccc3[nH]6)C=C5)C=C4)cc2)C1
REMARK SMILES IDX 21 1 20 2 19 3 18 4 16 5 17 6 7 8 3 9 4 10 82 11 5 12 6 13
REMARK SMILES IDX 2 14 1 15 8 16 9 17 10 18 15 19 11 20 13 21 12 22 14 23
REMARK SMILES IDX 22 25 23 26 24 27 25 28 26 29 27 31 28 32 29 33 81 34 30 35
REMARK SMILES IDX 80 36 31 37 32 38 33 39 74 40 34 41 79 42 73 43 75 44 35 45
REMARK SMILES IDX 78 46 72 47 71 48 36 50 62 51 45 52 61 53 46 54 49 55 60 56
REMARK SMILES IDX 76 57 47 58 48 59 59 61 77 62 50 63 37 64 38 65 43 66 39 67
REMARK SMILES IDX 40 68 42 69 44 70 41 71 63 72 64 73 69 74 65 75 66 76 68 77
REMARK SMILES IDX 70 78 67 79 51 80 52 81 57 82 53 83 54 84 56 85 58 86 55 87
REMARK H PARENT 18 7 14 24 25 30 75 49 49 60
REMARK Flexibility Score: inf
ROOT
ATOM      1  C   UNL     1       4.475   0.489   8.456  1.00  0.00     0.002 C 
ENDROOT
BRANCH   1   2
ATOM      2  C   UNL     1       3.033   0.200   8.026  1.00  0.00     0.021 C 
BRANCH   2   3
ATOM      3  C   UNL     1       2.460   1.183   7.016  1.00  0.00     0.116 C 
BRANCH   3   4
ATOM      4  N   UNL     1       2.961   1.002   5.672  1.00  0.00    -0.356 N 
ATOM      5  C   UNL     1       2.366   1.151   4.459  1.00  0.00     0.226 C 
ATOM      6  O   UNL     1       3.151   1.298   3.514  1.00  0.00    -0.274 OA
ATOM      7  H   UNL     1       3.904   0.721   5.628  1.00  0.00     0.163 HD
BRANCH   5   8
ATOM      8  C   UNL     1       0.828   1.172   4.225  1.00  0.00     0.053 C 
ATOM      9  C   UNL     1       0.953  -0.648   2.337  1.00  0.00    -0.010 C 
ATOM     10  C   UNL     1       0.303  -1.663   3.291  1.00  0.00     0.003 C 
ATOM     11  C   UNL     1       0.580   0.803   2.713  1.00  0.00     0.020 C 
ATOM     12  C   UNL     1       0.488  -1.298   4.756  1.00  0.00     0.001 C 
ATOM     13  C   UNL     1       0.018   0.130   5.026  1.00  0.00     0.017 C 
BRANCH   9  14
ATOM     14  C   UNL     1       0.551  -0.996   0.888  1.00  0.00     0.000 C 
ATOM     15  C   UNL     1       1.155  -0.080  -0.165  1.00  0.00     0.004 C 
ENDBRANCH   9  14
BRANCH   8  16
ATOM     16  C   UNL     1       0.284   2.629   4.380  1.00  0.00     0.052 C 
BRANCH  16  17
ATOM     17  C   UNL     1       0.382   3.314   5.721  1.00  0.00    -0.043 A 
ATOM     18  C   UNL     1       1.446   4.188   5.996  1.00  0.00     0.004 A 
ATOM     19  C   UNL     1      -0.583   3.097   6.713  1.00  0.00     0.049 A 
ATOM     20  C   UNL     1       1.567   4.792   7.252  1.00  0.00     0.004 A 
ATOM     21  C   UNL     1      -0.452   3.698   7.962  1.00  0.00     0.115 A 
ATOM     22  C   UNL     1       0.620   4.539   8.244  1.00  0.00     0.046 A 
BRANCH  21  23
ATOM     23  O   UNL     1      -1.400   3.419   8.901  1.00  0.00    -0.508 OA
ATOM     24  H   UNL     1      -1.344   3.806   9.753  1.00  0.00     0.293 HD
ENDBRANCH  21  23
ENDBRANCH  16  17
ENDBRANCH   8  16
ENDBRANCH   5   8
ENDBRANCH   3   4
ENDBRANCH   2   3
ENDBRANCH   1   2
BRANCH   1  25
ATOM     25  C   UNL     1       4.773   1.926   8.904  1.00  0.00     0.002 C 
BRANCH  25  26
ATOM     26  C   UNL     1       3.819   2.523   9.943  1.00  0.00     0.021 C 
BRANCH  26  27
ATOM     27  C   UNL     1       3.697   1.742  11.245  1.00  0.00     0.116 C 
BRANCH  27  28
ATOM     28  N   UNL     1       4.961   1.640  11.952  1.00  0.00    -0.352 N 
ATOM     29  C   UNL     1       5.253   1.890  13.267  1.00  0.00     0.251 C 
ATOM     30  H   UNL     1       5.724   1.347  11.403  1.00  0.00     0.163 HD
ATOM     31  O   UNL     1       6.426   1.895  13.641  1.00  0.00    -0.269 OA
BRANCH  29  32
ATOM     32  C   UNL     1       4.176   2.176  14.240  1.00  0.00     0.039 A 
ATOM     33  C   UNL     1       4.384   3.180  15.191  1.00  0.00     0.014 A 
ATOM     34  C   UNL     1       2.985   1.443  14.249  1.00  0.00     0.014 A 
ATOM     35  C   UNL     1       3.383   3.481  16.116  1.00  0.00     0.010 A 
ATOM     36  C   UNL     1       1.960   1.791  15.127  1.00  0.00     0.010 A 
ATOM     37  C   UNL     1       2.153   2.806  16.076  1.00  0.00    -0.014 A 
BRANCH  37  38
ATOM     38  C   UNL     1       1.064   3.143  17.028  1.00  0.00     0.031 A 
ATOM     39  C   UNL     1       0.607   2.133  18.044  1.00  0.00     0.074 A 
ATOM     40  C   UNL     1       0.452   4.339  16.943  1.00  0.00     0.049 A 
ATOM     41  N   UNL     1      -0.351   2.228  18.931  1.00  0.00    -0.248 NA
ATOM     42  C   UNL     1       1.301   0.836  18.047  1.00  0.00     0.031 C 
ATOM     43  C   UNL     1       0.776   5.389  15.975  1.00  0.00     0.029 A 
ATOM     44  N   UNL     1      -0.573   4.873  17.682  1.00  0.00    -0.354 N 
ATOM     45  C   UNL     1      -0.388   1.000  19.581  1.00  0.00     0.074 A 
ATOM     46  C   UNL     1       0.611   0.162  18.955  1.00  0.00     0.031 C 
ATOM     47  C   UNL     1      -0.013   6.452  16.200  1.00  0.00     0.029 A 
ATOM     48  C   UNL     1      -0.919   6.147  17.302  1.00  0.00     0.049 A 
ATOM     49  H   UNL     1      -1.018   4.390  18.415  1.00  0.00     0.167 HD
ATOM     50  C   UNL     1      -1.169   0.614  20.618  1.00  0.00     0.037 A 
ATOM     51  C   UNL     1      -1.861   6.976  17.790  1.00  0.00     0.037 A 
ATOM     52  C   UNL     1      -2.138   1.462  21.261  1.00  0.00     0.049 A 
ATOM     53  C   UNL     1      -2.716   6.523  18.941  1.00  0.00     0.074 A 
ATOM     54  C   UNL     1      -2.921   1.191  22.369  1.00  0.00     0.029 A 
ATOM     55  N   UNL     1      -2.459   2.747  20.849  1.00  0.00    -0.354 N 
ATOM     56  N   UNL     1      -2.687   5.387  19.595  1.00  0.00    -0.248 NA
ATOM     57  C   UNL     1      -3.731   7.470  19.423  1.00  0.00     0.031 C 
ATOM     58  C   UNL     1      -3.748   2.296  22.601  1.00  0.00     0.029 A 
ATOM     59  C   UNL     1      -3.448   3.272  21.664  1.00  0.00     0.049 A 
ATOM     60  H   UNL     1      -2.044   3.216  20.089  1.00  0.00     0.167 HD
ATOM     61  C   UNL     1      -3.657   5.494  20.584  1.00  0.00     0.074 A 
ATOM     62  C   UNL     1      -4.248   6.809  20.449  1.00  0.00     0.031 C 
ATOM     63  C   UNL     1      -4.023   4.585  21.520  1.00  0.00     0.037 A 
BRANCH  50  64
ATOM     64  C   UNL     1      -1.008  -0.793  21.118  1.00  0.00     0.057 A 
ATOM     65  C   UNL     1       0.137  -1.208  21.810  1.00  0.00     0.134 A 
ATOM     66  C   UNL     1      -2.023  -1.739  20.925  1.00  0.00     0.134 A 
ATOM     67  F   UNL     1       1.152  -0.355  22.019  1.00  0.00    -0.206 F 
ATOM     68  C   UNL     1       0.282  -2.520  22.264  1.00  0.00     0.040 A 
ATOM     69  C   UNL     1      -1.902  -3.047  21.398  1.00  0.00     0.040 A 
ATOM     70  F   UNL     1      -3.150  -1.408  20.276  1.00  0.00    -0.206 F 
ATOM     71  C   UNL     1      -0.743  -3.443  22.063  1.00  0.00     0.006 A 
ENDBRANCH  50  64
BRANCH  51  72
ATOM     72  C   UNL     1      -2.021   8.337  17.219  1.00  0.00     0.057 A 
ATOM     73  C   UNL     1      -1.641   9.469  17.948  1.00  0.00     0.134 A 
ATOM     74  C   UNL     1      -2.556   8.540  15.942  1.00  0.00     0.134 A 
ATOM     75  F   UNL     1      -1.138   9.338  19.185  1.00  0.00    -0.206 F 
ATOM     76  C   UNL     1      -1.803  10.757  17.436  1.00  0.00     0.040 A 
ATOM     77  C   UNL     1      -2.703   9.822  15.408  1.00  0.00     0.040 A 
ATOM     78  F   UNL     1      -2.931   7.495  15.190  1.00  0.00    -0.206 F 
ATOM     79  C   UNL     1      -2.331  10.935  16.159  1.00  0.00     0.006 A 
ENDBRANCH  51  72
BRANCH  63  80
ATOM     80  C   UNL     1      -5.089   4.996  22.493  1.00  0.00     0.057 A 
ATOM     81  C   UNL     1      -6.432   5.107  22.114  1.00  0.00     0.134 A 
ATOM     82  C   UNL     1      -4.770   5.254  23.832  1.00  0.00     0.134 A 
ATOM     83  F   UNL     1      -6.801   4.887  20.843  1.00  0.00    -0.206 F 
ATOM     84  C   UNL     1      -7.418   5.483  23.028  1.00  0.00     0.040 A 
ATOM     85  C   UNL     1      -5.750   5.605  24.761  1.00  0.00     0.040 A 
ATOM     86  F   UNL     1      -3.502   5.158  24.261  1.00  0.00    -0.206 F 
ATOM     87  C   UNL     1      -7.078   5.726  24.358  1.00  0.00     0.006 A 
ENDBRANCH  63  80
ENDBRANCH  37  38
ENDBRANCH  29  32
ENDBRANCH  27  28
ENDBRANCH  26  27
ENDBRANCH  25  26
ENDBRANCH   1  25
TORSDOF 17
