REMARK SMILES CC[C@H]1CCCC[N@H+]1[C@@H]1CC(=O)N(c2nc(CC(=O)NCCCCCCNC(=O)c3ccc(-c4c5nc(c(-c6c(F)cccc6F)c6ccc([nH]6)c(-c6c(F)cccc6F)c6nc(c(-c7c(F)cccc7F)c7ccc4[nH]7)C=C6)C=C5)cc3)cs2)C1=O
REMARK SMILES IDX 22 1 21 2 20 3 18 4 19 5 17 7 16 8 14 9 15 10 85 11 84 12
REMARK SMILES IDX 13 13 9 14 10 15 86 16 11 17 87 18 12 19 8 20 3 21 4 22 5 23
REMARK SMILES IDX 7 24 6 26 2 27 1 28 23 29 24 30 25 31 26 32 27 33 28 34
REMARK SMILES IDX 29 36 30 37 31 38 83 39 32 40 82 41 33 42 34 43 35 44 76 45
REMARK SMILES IDX 36 46 81 47 75 48 77 49 37 50 80 51 74 52 73 53 38 55 64 56
REMARK SMILES IDX 47 57 63 58 48 59 51 60 62 61 78 62 49 63 50 64 61 66 79 67
REMARK SMILES IDX 52 68 39 69 40 70 45 71 41 72 42 73 44 74 46 75 43 76 65 77
REMARK SMILES IDX 66 78 71 79 67 80 68 81 70 82 72 83 69 84 53 85 54 86 59 87
REMARK SMILES IDX 55 88 56 89 58 90 60 91 57 92
REMARK H PARENT 20 6 8 25 27 35 77 54 51 65
REMARK Flexibility Score: inf
ROOT
ATOM      1  C   UNL     1       0.311   6.450  -3.870  1.00  0.00     0.021 C 
ENDROOT
BRANCH   1   2
ATOM      2  C   UNL     1       1.672   6.869  -4.433  1.00  0.00     0.116 C 
BRANCH   2   3
ATOM      3  N   UNL     1       1.795   8.315  -4.512  1.00  0.00    -0.356 N 
ATOM      4  C   UNL     1       2.469   9.175  -3.691  1.00  0.00     0.226 C 
ATOM      5  O   UNL     1       2.357  10.385  -3.898  1.00  0.00    -0.275 OA
ATOM      6  H   UNL     1       1.325   8.736  -5.267  1.00  0.00     0.163 HD
BRANCH   4   7
ATOM      7  C   UNL     1       3.367   8.650  -2.586  1.00  0.00     0.157 C 
BRANCH   7   8
ATOM      8  C   UNL     1       2.605   7.931  -1.526  1.00  0.00     0.063 A 
ATOM      9  C   UNL     1       2.091   6.058  -0.454  1.00  0.00     0.199 A 
ATOM     10  N   UNL     1       2.961   6.620  -1.258  1.00  0.00    -0.224 NA
ATOM     11  S   UNL     1       0.880   7.110   0.151  1.00  0.00    -0.104 S 
ATOM     12  C   UNL     1       1.541   8.395  -0.776  1.00  0.00     0.093 A 
BRANCH   9  13
ATOM     13  N   UNL     1       2.134   4.752  -0.035  1.00  0.00    -0.219 N 
ATOM     14  C   UNL     1       1.523   2.586   0.618  1.00  0.00     0.285 C 
ATOM     15  C   UNL     1       3.039   2.684   0.501  1.00  0.00     0.176 C 
ATOM     16  C   UNL     1       1.032   3.959   0.150  1.00  0.00     0.294 C 
ATOM     17  C   UNL     1       3.318   4.080   0.050  1.00  0.00     0.242 C 
ATOM     18  O   UNL     1      -0.140   4.223  -0.085  1.00  0.00    -0.267 OA
ATOM     19  O   UNL     1       4.459   4.474  -0.150  1.00  0.00    -0.274 OA
BRANCH  14  20
ATOM     20  N   UNL     1       0.949   2.240   1.929  1.00  0.00    -0.322 N 
ATOM     21  C   UNL     1       1.022   0.815   2.322  1.00  0.00     0.184 C 
ATOM     22  C   UNL     1       0.052   0.579   3.502  1.00  0.00     0.065 C 
ATOM     23  C   UNL     1       0.324   1.517   4.673  1.00  0.00     0.012 C 
ATOM     24  C   UNL     1       1.220   3.188   3.014  1.00  0.00     0.263 C 
ATOM     25  H   UNL     1      -0.046   2.368   1.745  1.00  0.00     0.349 HD
ATOM     26  C   UNL     1       0.281   2.960   4.198  1.00  0.00     0.062 C 
BRANCH  21  27
ATOM     27  C   UNL     1       2.432   0.277   2.680  1.00  0.00     0.061 C 
ATOM     28  C   UNL     1       3.141  -0.406   1.515  1.00  0.00     0.010 C 
ENDBRANCH  21  27
ENDBRANCH  14  20
ENDBRANCH   9  13
ENDBRANCH   7   8
ENDBRANCH   4   7
ENDBRANCH   2   3
ENDBRANCH   1   2
BRANCH   1  29
ATOM     29  C   UNL     1      -0.886   6.791  -4.767  1.00  0.00     0.002 C 
BRANCH  29  30
ATOM     30  C   UNL     1      -0.866   6.149  -6.157  1.00  0.00     0.002 C 
BRANCH  30  31
ATOM     31  C   UNL     1      -0.770   4.622  -6.171  1.00  0.00     0.021 C 
BRANCH  31  32
ATOM     32  C   UNL     1      -1.910   3.893  -5.461  1.00  0.00     0.116 C 
BRANCH  32  33
ATOM     33  N   UNL     1      -3.197   4.128  -6.095  1.00  0.00    -0.352 N 
ATOM     34  C   UNL     1      -4.151   3.232  -6.508  1.00  0.00     0.251 C 
ATOM     35  H   UNL     1      -3.418   5.074  -6.252  1.00  0.00     0.163 HD
ATOM     36  O   UNL     1      -5.105   3.621  -7.178  1.00  0.00    -0.269 OA
BRANCH  34  37
ATOM     37  C   UNL     1      -4.031   1.795  -6.175  1.00  0.00     0.039 A 
ATOM     38  C   UNL     1      -4.334   0.852  -7.163  1.00  0.00     0.014 A 
ATOM     39  C   UNL     1      -3.661   1.369  -4.896  1.00  0.00     0.014 A 
ATOM     40  C   UNL     1      -4.212  -0.511  -6.886  1.00  0.00     0.010 A 
ATOM     41  C   UNL     1      -3.479   0.011  -4.639  1.00  0.00     0.010 A 
ATOM     42  C   UNL     1      -3.755  -0.943  -5.630  1.00  0.00    -0.014 A 
BRANCH  42  43
ATOM     43  C   UNL     1      -3.557  -2.388  -5.348  1.00  0.00     0.031 A 
ATOM     44  C   UNL     1      -4.412  -3.093  -4.332  1.00  0.00     0.074 A 
ATOM     45  C   UNL     1      -2.572  -3.057  -5.978  1.00  0.00     0.049 A 
ATOM     46  N   UNL     1      -4.367  -4.341  -3.938  1.00  0.00    -0.248 NA
ATOM     47  C   UNL     1      -5.435  -2.285  -3.651  1.00  0.00     0.031 C 
ATOM     48  C   UNL     1      -1.641  -2.477  -6.947  1.00  0.00     0.029 A 
ATOM     49  N   UNL     1      -2.187  -4.372  -5.892  1.00  0.00    -0.354 N 
ATOM     50  C   UNL     1      -5.344  -4.465  -2.958  1.00  0.00     0.074 A 
ATOM     51  C   UNL     1      -5.933  -3.154  -2.783  1.00  0.00     0.031 C 
ATOM     52  C   UNL     1      -0.809  -3.436  -7.385  1.00  0.00     0.029 A 
ATOM     53  C   UNL     1      -1.130  -4.690  -6.710  1.00  0.00     0.049 A 
ATOM     54  H   UNL     1      -2.627  -5.025  -5.302  1.00  0.00     0.167 HD
ATOM     55  C   UNL     1      -5.730  -5.573  -2.282  1.00  0.00     0.037 A 
ATOM     56  C   UNL     1      -0.492  -5.861  -6.897  1.00  0.00     0.037 A 
ATOM     57  C   UNL     1      -5.164  -6.882  -2.475  1.00  0.00     0.049 A 
ATOM     58  C   UNL     1      -0.952  -7.079  -6.148  1.00  0.00     0.074 A 
ATOM     59  C   UNL     1      -5.530  -8.077  -1.880  1.00  0.00     0.029 A 
ATOM     60  N   UNL     1      -4.111  -7.168  -3.331  1.00  0.00    -0.354 N 
ATOM     61  N   UNL     1      -1.922  -7.195  -5.274  1.00  0.00    -0.248 NA
ATOM     62  C   UNL     1      -0.234  -8.333  -6.419  1.00  0.00     0.031 C 
ATOM     63  C   UNL     1      -4.677  -9.081  -2.351  1.00  0.00     0.029 A 
ATOM     64  C   UNL     1      -3.804  -8.518  -3.268  1.00  0.00     0.049 A 
ATOM     65  H   UNL     1      -3.650  -6.510  -3.899  1.00  0.00     0.167 HD
ATOM     66  C   UNL     1      -1.950  -8.535  -4.912  1.00  0.00     0.074 A 
ATOM     67  C   UNL     1      -0.906  -9.195  -5.669  1.00  0.00     0.031 C 
ATOM     68  C   UNL     1      -2.767  -9.162  -4.032  1.00  0.00     0.037 A 
BRANCH  55  69
ATOM     69  C   UNL     1      -6.828  -5.416  -1.271  1.00  0.00     0.057 A 
ATOM     70  C   UNL     1      -8.157  -5.198  -1.656  1.00  0.00     0.134 A 
ATOM     71  C   UNL     1      -6.560  -5.520   0.100  1.00  0.00     0.134 A 
ATOM     72  F   UNL     1      -8.478  -5.078  -2.953  1.00  0.00    -0.206 F 
ATOM     73  C   UNL     1      -9.177  -5.064  -0.712  1.00  0.00     0.040 A 
ATOM     74  C   UNL     1      -7.576  -5.412   1.051  1.00  0.00     0.040 A 
ATOM     75  F   UNL     1      -5.310  -5.736   0.536  1.00  0.00    -0.206 F 
ATOM     76  C   UNL     1      -8.888  -5.177   0.646  1.00  0.00     0.006 A 
ENDBRANCH  55  69
BRANCH  56  77
ATOM     77  C   UNL     1       0.628  -5.945  -7.865  1.00  0.00     0.057 A 
ATOM     78  C   UNL     1       0.475  -6.610  -9.087  1.00  0.00     0.134 A 
ATOM     79  C   UNL     1       1.875  -5.369  -7.594  1.00  0.00     0.134 A 
ATOM     80  F   UNL     1      -0.691  -7.197  -9.393  1.00  0.00    -0.206 F 
ATOM     81  C   UNL     1       1.525  -6.713 -10.000  1.00  0.00     0.040 A 
ATOM     82  C   UNL     1       2.927  -5.445  -8.507  1.00  0.00     0.040 A 
ATOM     83  F   UNL     1       2.081  -4.713  -6.443  1.00  0.00    -0.206 F 
ATOM     84  C   UNL     1       2.755  -6.125  -9.712  1.00  0.00     0.006 A 
ENDBRANCH  56  77
BRANCH  68  85
ATOM     85  C   UNL     1      -2.585 -10.640  -3.863  1.00  0.00     0.057 A 
ATOM     86  C   UNL     1      -1.496 -11.175  -3.163  1.00  0.00     0.134 A 
ATOM     87  C   UNL     1      -3.528 -11.538  -4.380  1.00  0.00     0.134 A 
ATOM     88  F   UNL     1      -0.552 -10.368  -2.656  1.00  0.00    -0.206 F 
ATOM     89  C   UNL     1      -1.340 -12.552  -3.002  1.00  0.00     0.040 A 
ATOM     90  C   UNL     1      -3.395 -12.916  -4.205  1.00  0.00     0.040 A 
ATOM     91  F   UNL     1      -4.598 -11.089  -5.054  1.00  0.00    -0.206 F 
ATOM     92  C   UNL     1      -2.295 -13.427  -3.518  1.00  0.00     0.006 A 
ENDBRANCH  68  85
ENDBRANCH  42  43
ENDBRANCH  34  37
ENDBRANCH  32  33
ENDBRANCH  31  32
ENDBRANCH  30  31
ENDBRANCH  29  30
ENDBRANCH   1  29
TORSDOF 17
