REMARK SMILES O=C(CCC(=O)N1CCC[C@@]2(CCC(=O)N(Cc3ccncc3)C2)C1)NCCCCCCNC(=O)c1ccc(-c2c3nc(c(-c4c(F)cccc4F)c4ccc([nH]4)c(-c4c(F)cccc4F)c4nc(c(-c5c(F)cccc5F)c5ccc2[nH]5)C=C4)C=C3)cc1
REMARK SMILES IDX 28 1 27 2 26 3 1 4 2 5 3 7 4 8 5 9 6 10 7 11 8 12 25 13 9 14
REMARK SMILES IDX 11 15 10 16 12 17 24 18 13 19 16 20 14 21 15 22 17 23 18 24
REMARK SMILES IDX 19 25 23 26 20 27 22 28 21 29 29 30 30 31 31 32 32 33 33 34
REMARK SMILES IDX 34 35 35 37 36 38 37 39 89 40 38 41 88 42 39 43 40 44 41 45
REMARK SMILES IDX 82 46 42 47 87 48 81 49 83 50 43 51 86 52 80 53 79 54 44 56
REMARK SMILES IDX 70 57 53 58 69 59 54 60 57 61 68 62 84 63 55 64 56 65 67 67
REMARK SMILES IDX 85 68 58 69 45 70 46 71 51 72 47 73 48 74 50 75 52 76 49 77
REMARK SMILES IDX 71 78 72 79 77 80 73 81 74 82 76 83 78 84 75 85 59 86 60 87
REMARK SMILES IDX 65 88 61 89 62 90 64 91 66 92 63 93
REMARK H PARENT 26 6 33 36 83 55 57 66
REMARK Flexibility Score: inf
ROOT
ATOM      1  C   UNL     1       3.096   1.948   2.053  1.00  0.00     0.021 C 
ENDROOT
BRANCH   1   2
ATOM      2  C   UNL     1       2.107   0.957   1.413  1.00  0.00     0.116 C 
BRANCH   2   3
ATOM      3  N   UNL     1       2.791  -0.096   0.736  1.00  0.00    -0.356 N 
ATOM      4  O   UNL     1       1.017  -0.683  -0.607  1.00  0.00    -0.275 OA
ATOM      5  C   UNL     1       2.171  -0.849  -0.229  1.00  0.00     0.220 C 
ATOM      6  H   UNL     1       3.729  -0.287   0.967  1.00  0.00     0.163 HD
BRANCH   5   7
ATOM      7  C   UNL     1       3.099  -1.850  -0.861  1.00  0.00     0.110 C 
BRANCH   7   8
ATOM      8  C   UNL     1       3.785  -1.182  -2.059  1.00  0.00     0.110 C 
BRANCH   8   9
ATOM      9  C   UNL     1       4.790  -0.163  -1.551  1.00  0.00     0.223 C 
ATOM     10  O   UNL     1       5.568  -0.498  -0.649  1.00  0.00    -0.275 OA
BRANCH   9  11
ATOM     11  N   UNL     1       4.735   1.148  -2.020  1.00  0.00    -0.342 N 
ATOM     12  C   UNL     1       4.416   1.549  -3.381  1.00  0.00     0.119 C 
ATOM     13  C   UNL     1       5.459   2.139  -1.267  1.00  0.00     0.128 C 
ATOM     14  C   UNL     1       4.144   3.065  -3.571  1.00  0.00     0.022 C 
ATOM     15  C   UNL     1       4.645   3.541  -1.131  1.00  0.00     0.006 C 
ATOM     16  C   UNL     1       4.801   4.052  -2.572  1.00  0.00     0.012 C 
ATOM     17  C   UNL     1       2.748   3.402  -0.768  1.00  0.00     0.020 C 
ATOM     18  C   UNL     1       5.744   4.350   0.115  1.00  0.00     0.128 C 
ATOM     19  C   UNL     1       2.071   3.903   1.000  1.00  0.00     0.101 C 
ATOM     20  N   UNL     1       5.084   5.070   1.569  1.00  0.00    -0.338 N 
ATOM     21  C   UNL     1       3.506   4.363   2.321  1.00  0.00     0.222 C 
ATOM     22  O   UNL     1       3.184   4.302   3.520  1.00  0.00    -0.275 OA
BRANCH  20  23
ATOM     23  C   UNL     1       5.334   6.931   1.350  1.00  0.00     0.155 C 
BRANCH  23  24
ATOM     24  C   UNL     1       4.943   8.158   2.756  1.00  0.00    -0.026 A 
ATOM     25  C   UNL     1       5.665   7.931   4.508  1.00  0.00     0.025 A 
ATOM     26  C   UNL     1       4.791   9.875   2.288  1.00  0.00     0.025 A 
ATOM     27  C   UNL     1       6.310   9.194   5.487  1.00  0.00     0.111 A 
ATOM     28  C   UNL     1       5.547  11.175   3.620  1.00  0.00     0.111 A 
ATOM     29  N   UNL     1       6.266  10.758   5.094  1.00  0.00    -0.265 NA
ENDBRANCH  23  24
ENDBRANCH  20  23
ENDBRANCH   9  11
ENDBRANCH   8   9
ENDBRANCH   7   8
ENDBRANCH   5   7
ENDBRANCH   2   3
ENDBRANCH   1   2
BRANCH   1  30
ATOM     30  C   UNL     1       3.981   3.084   0.974  1.00  0.00     0.002 C 
BRANCH  30  31
ATOM     31  C   UNL     1       3.527   5.095   0.437  1.00  0.00     0.002 C 
BRANCH  31  32
ATOM     32  C   UNL     1       3.325   6.339   1.957  1.00  0.00     0.021 C 
BRANCH  32  33
ATOM     33  C   UNL     1       4.691   6.092   3.387  1.00  0.00     0.116 C 
BRANCH  33  34
ATOM     34  N   UNL     1       6.501   6.494   3.119  1.00  0.00    -0.352 N 
ATOM     35  C   UNL     1       7.280   7.936   2.942  1.00  0.00     0.251 C 
ATOM     36  H   UNL     1       7.090   5.707   3.077  1.00  0.00     0.163 HD
ATOM     37  O   UNL     1       8.415   7.927   2.470  1.00  0.00    -0.269 OA
BRANCH  35  38
ATOM     38  C   UNL     1       6.400   9.505   3.242  1.00  0.00     0.039 A 
ATOM     39  C   UNL     1       6.676  10.746   1.922  1.00  0.00     0.014 A 
ATOM     40  C   UNL     1       4.604   9.646   4.169  1.00  0.00     0.014 A 
ATOM     41  C   UNL     1       5.343  11.948   1.614  1.00  0.00     0.010 A 
ATOM     42  C   UNL     1       3.392  10.780   3.710  1.00  0.00     0.010 A 
ATOM     43  C   UNL     1       3.789  11.958   2.542  1.00  0.00    -0.014 A 
BRANCH  43  44
ATOM     44  C   UNL     1       2.797  13.063   2.773  1.00  0.00     0.031 A 
ATOM     45  C   UNL     1       2.403  13.527   4.216  1.00  0.00     0.074 A 
ATOM     46  C   UNL     1       1.982  13.351   1.753  1.00  0.00     0.049 A 
ATOM     47  N   UNL     1       1.396  14.280   4.610  1.00  0.00    -0.248 NA
ATOM     48  C   UNL     1       3.169  12.996   5.370  1.00  0.00     0.031 C 
ATOM     49  C   UNL     1       2.089  12.774   0.416  1.00  0.00     0.029 A 
ATOM     50  N   UNL     1       0.884  14.161   1.694  1.00  0.00    -0.354 N 
ATOM     51  C   UNL     1       1.406  14.265   6.015  1.00  0.00     0.074 A 
ATOM     52  C   UNL     1       2.423  13.332   6.412  1.00  0.00     0.031 C 
ATOM     53  C   UNL     1       1.133  13.305  -0.359  1.00  0.00     0.029 A 
ATOM     54  C   UNL     1       0.343  14.239   0.438  1.00  0.00     0.049 A 
ATOM     55  H   UNL     1       0.519  14.639   2.473  1.00  0.00     0.167 HD
ATOM     56  C   UNL     1       0.686  15.002   6.903  1.00  0.00     0.037 A 
ATOM     57  C   UNL     1      -0.654  15.014  -0.019  1.00  0.00     0.037 A 
ATOM     58  C   UNL     1      -0.272  15.989   6.481  1.00  0.00     0.049 A 
ATOM     59  C   UNL     1      -1.318  15.964   0.934  1.00  0.00     0.074 A 
ATOM     60  C   UNL     1      -0.947  16.933   7.233  1.00  0.00     0.029 A 
ATOM     61  N   UNL     1      -0.677  16.153   5.165  1.00  0.00    -0.354 N 
ATOM     62  N   UNL     1      -1.164  16.078   2.233  1.00  0.00    -0.248 NA
ATOM     63  C   UNL     1      -2.270  16.915   0.353  1.00  0.00     0.031 C 
ATOM     64  C   UNL     1      -1.797  17.639   6.375  1.00  0.00     0.029 A 
ATOM     65  C   UNL     1      -1.605  17.173   5.082  1.00  0.00     0.049 A 
ATOM     66  H   UNL     1      -0.352  15.622   4.403  1.00  0.00     0.167 HD
ATOM     67  C   UNL     1      -1.985  17.128   2.623  1.00  0.00     0.074 A 
ATOM     68  C   UNL     1      -2.610  17.631   1.415  1.00  0.00     0.031 C 
ATOM     69  C   UNL     1      -2.211  17.634   3.861  1.00  0.00     0.037 A 
BRANCH  56  70
ATOM     70  C   UNL     1       0.946  14.851   8.393  1.00  0.00     0.057 A 
ATOM     71  C   UNL     1       2.186  15.171   8.969  1.00  0.00     0.134 A 
ATOM     72  C   UNL     1      -0.075  14.477   9.282  1.00  0.00     0.134 A 
ATOM     73  F   UNL     1       3.214  15.559   8.199  1.00  0.00    -0.206 F 
ATOM     74  C   UNL     1       2.413  15.085  10.348  1.00  0.00     0.040 A 
ATOM     75  C   UNL     1       0.129  14.422  10.668  1.00  0.00     0.040 A 
ATOM     76  F   UNL     1      -1.302  14.179   8.828  1.00  0.00    -0.206 F 
ATOM     77  C   UNL     1       1.379  14.719  11.204  1.00  0.00     0.006 A 
ENDBRANCH  56  70
BRANCH  57  78
ATOM     78  C   UNL     1      -0.945  15.010  -1.472  1.00  0.00     0.057 A 
ATOM     79  C   UNL     1      -0.542  16.081  -2.280  1.00  0.00     0.134 A 
ATOM     80  C   UNL     1      -1.527  13.907  -2.104  1.00  0.00     0.134 A 
ATOM     81  F   UNL     1       0.035  17.160  -1.732  1.00  0.00    -0.206 F 
ATOM     82  C   UNL     1      -0.727  16.063  -3.662  1.00  0.00     0.040 A 
ATOM     83  C   UNL     1      -1.691  13.863  -3.489  1.00  0.00     0.040 A 
ATOM     84  F   UNL     1      -1.892  12.832  -1.390  1.00  0.00    -0.206 F 
ATOM     85  C   UNL     1      -1.296  14.947  -4.271  1.00  0.00     0.006 A 
ENDBRANCH  57  78
BRANCH  69  86
ATOM     86  C   UNL     1      -3.160  18.788   3.957  1.00  0.00     0.057 A 
ATOM     87  C   UNL     1      -4.535  18.629   3.745  1.00  0.00     0.134 A 
ATOM     88  C   UNL     1      -2.696  20.066   4.293  1.00  0.00     0.134 A 
ATOM     89  F   UNL     1      -5.038  17.430   3.414  1.00  0.00    -0.206 F 
ATOM     90  C   UNL     1      -5.411  19.710   3.826  1.00  0.00     0.040 A 
ATOM     91  C   UNL     1      -3.567  21.147   4.411  1.00  0.00     0.040 A 
ATOM     92  F   UNL     1      -1.392  20.279   4.526  1.00  0.00    -0.206 F 
ATOM     93  C   UNL     1      -4.928  20.972   4.166  1.00  0.00     0.006 A 
ENDBRANCH  69  86
ENDBRANCH  43  44
ENDBRANCH  35  38
ENDBRANCH  33  34
ENDBRANCH  32  33
ENDBRANCH  31  32
ENDBRANCH  30  31
ENDBRANCH   1  30
TORSDOF 18
