REMARK SMILES Cc1ccccc1C(=O)Nc1cc(NC(=O)c2ccccc2C)cc(C(=O)NCCCCCCNC(=O)c2ccc(-c3c4nc(c(-c5c(F)cccc5F)c5ccc([nH]5)c(-c5c(F)cccc5F)c5nc(c(-c6c(F)cccc6F)c6ccc3[nH]6)C=C5)C=C4)cc2)c1
REMARK SMILES IDX 31 1 30 2 29 3 28 4 26 5 27 6 25 8 11 9 12 10 92 11 13 12
REMARK SMILES IDX 24 13 10 14 8 15 9 16 7 18 1 19 2 20 3 21 4 22 6 23 5 24
REMARK SMILES IDX 14 25 15 26 16 28 17 29 18 30 22 31 19 32 21 33 23 34 20 35
REMARK SMILES IDX 32 36 33 37 34 38 35 39 36 40 37 42 38 43 39 44 91 45 40 46
REMARK SMILES IDX 90 47 41 48 42 49 43 50 84 51 44 52 89 53 83 54 85 55 45 56
REMARK SMILES IDX 88 57 82 58 81 59 46 61 72 62 55 63 71 64 56 65 59 66 70 67
REMARK SMILES IDX 86 68 57 69 58 70 69 72 87 73 60 74 47 75 48 76 53 77 49 78
REMARK SMILES IDX 50 79 52 80 54 81 51 82 73 83 74 84 79 85 75 86 76 87 78 88
REMARK SMILES IDX 80 89 77 90 61 91 62 92 67 93 63 94 64 95 66 96 68 97 65 98
REMARK H PARENT 28 7 10 17 14 27 35 41 85 60 59 71
REMARK Flexibility Score: inf
ROOT
ATOM      1  C   UNL     1       9.177  -3.769   1.264  1.00  0.00     0.002 C 
ENDROOT
BRANCH   1   2
ATOM      2  C   UNL     1       8.321  -3.104   0.190  1.00  0.00     0.021 C 
BRANCH   2   3
ATOM      3  C   UNL     1       6.958  -2.554   0.585  1.00  0.00     0.116 C 
BRANCH   3   4
ATOM      4  N   UNL     1       6.961  -1.414   1.477  1.00  0.00    -0.352 N 
ATOM      5  C   UNL     1       6.095  -0.347   1.589  1.00  0.00     0.251 C 
ATOM      6  O   UNL     1       6.316   0.474   2.481  1.00  0.00    -0.269 OA
ATOM      7  H   UNL     1       7.711  -1.399   2.115  1.00  0.00     0.163 HD
BRANCH   5   8
ATOM      8  C   UNL     1       4.920  -0.120   0.685  1.00  0.00     0.043 A 
ATOM      9  C   UNL     1       3.113   1.343   0.001  1.00  0.00     0.044 A 
ATOM     10  C   UNL     1       2.704   0.421  -0.961  1.00  0.00     0.052 A 
ATOM     11  C   UNL     1       4.303   1.140   0.710  1.00  0.00     0.040 A 
ATOM     12  C   UNL     1       3.332  -0.813  -1.029  1.00  0.00     0.044 A 
ATOM     13  C   UNL     1       4.333  -1.112  -0.103  1.00  0.00     0.040 A 
BRANCH   9  14
ATOM     14  N   UNL     1       2.288   2.399   0.412  1.00  0.00    -0.322 N 
ATOM     15  C   UNL     1       0.910   2.424   0.564  1.00  0.00     0.255 C 
ATOM     16  O   UNL     1       0.369   3.492   0.854  1.00  0.00    -0.269 OA
ATOM     17  H   UNL     1       2.751   3.241   0.622  1.00  0.00     0.170 HD
BRANCH  15  18
ATOM     18  C   UNL     1       0.047   1.206   0.428  1.00  0.00     0.043 A 
ATOM     19  C   UNL     1       1.374  -0.369   1.997  1.00  0.00     0.045 C 
ATOM     20  C   UNL     1       0.296  -0.063   0.996  1.00  0.00    -0.038 A 
ATOM     21  C   UNL     1      -0.559  -1.135   0.668  1.00  0.00     0.004 A 
ATOM     22  C   UNL     1      -1.709  -0.935  -0.092  1.00  0.00     0.000 A 
ATOM     23  C   UNL     1      -1.145   1.400  -0.294  1.00  0.00     0.014 A 
ATOM     24  C   UNL     1      -2.024   0.342  -0.538  1.00  0.00     0.001 A 
ENDBRANCH  15  18
ENDBRANCH   9  14
BRANCH  12  25
ATOM     25  N   UNL     1       2.993  -1.831  -1.932  1.00  0.00    -0.322 N 
ATOM     26  C   UNL     1       2.391  -1.798  -3.167  1.00  0.00     0.255 C 
ATOM     27  H   UNL     1       3.228  -2.736  -1.624  1.00  0.00     0.170 HD
ATOM     28  O   UNL     1       2.062  -2.858  -3.698  1.00  0.00    -0.269 OA
BRANCH  26  29
ATOM     29  C   UNL     1       2.176  -0.533  -3.905  1.00  0.00     0.043 A 
ATOM     30  C   UNL     1       0.865  -0.310  -4.356  1.00  0.00     0.014 A 
ATOM     31  C   UNL     1       3.196   0.394  -4.201  1.00  0.00    -0.038 A 
ATOM     32  C   UNL     1       0.543   0.863  -5.033  1.00  0.00     0.001 A 
ATOM     33  C   UNL     1       2.841   1.587  -4.852  1.00  0.00     0.004 A 
ATOM     34  C   UNL     1       4.645   0.194  -3.854  1.00  0.00     0.045 C 
ATOM     35  C   UNL     1       1.527   1.821  -5.262  1.00  0.00     0.000 A 
ENDBRANCH  26  29
ENDBRANCH  12  25
ENDBRANCH   5   8
ENDBRANCH   3   4
ENDBRANCH   2   3
ENDBRANCH   1   2
BRANCH   1  36
ATOM     36  C   UNL     1       8.535  -4.843   2.152  1.00  0.00     0.002 C 
BRANCH  36  37
ATOM     37  C   UNL     1       7.687  -5.918   1.474  1.00  0.00     0.021 C 
BRANCH  37  38
ATOM     38  C   UNL     1       8.422  -6.829   0.497  1.00  0.00     0.116 C 
BRANCH  38  39
ATOM     39  N   UNL     1       8.924  -8.069   1.071  1.00  0.00    -0.352 N 
ATOM     40  C   UNL     1       9.611  -9.110   0.434  1.00  0.00     0.251 C 
ATOM     41  H   UNL     1       8.758  -8.193   2.034  1.00  0.00     0.163 HD
ATOM     42  O   UNL     1      10.004 -10.073   1.069  1.00  0.00    -0.269 OA
BRANCH  40  43
ATOM     43  C   UNL     1       9.990  -8.936  -0.986  1.00  0.00     0.039 A 
ATOM     44  C   UNL     1      11.355  -9.009  -1.287  1.00  0.00     0.014 A 
ATOM     45  C   UNL     1       9.098  -8.358  -1.883  1.00  0.00     0.014 A 
ATOM     46  C   UNL     1      11.861  -8.196  -2.293  1.00  0.00     0.010 A 
ATOM     47  C   UNL     1       9.601  -7.476  -2.817  1.00  0.00     0.010 A 
ATOM     48  C   UNL     1      10.984  -7.332  -2.949  1.00  0.00    -0.014 A 
BRANCH  48  49
ATOM     49  C   UNL     1      11.444  -6.198  -3.734  1.00  0.00     0.031 A 
ATOM     50  C   UNL     1      11.577  -6.342  -5.187  1.00  0.00     0.074 A 
ATOM     51  C   UNL     1      11.789  -5.032  -3.146  1.00  0.00     0.049 A 
ATOM     52  N   UNL     1      12.511  -5.779  -5.872  1.00  0.00    -0.248 NA
ATOM     53  C   UNL     1      10.688  -7.181  -5.978  1.00  0.00     0.031 C 
ATOM     54  C   UNL     1      12.104  -3.767  -3.802  1.00  0.00     0.029 A 
ATOM     55  N   UNL     1      12.107  -4.811  -1.810  1.00  0.00    -0.354 N 
ATOM     56  C   UNL     1      12.189  -5.934  -7.196  1.00  0.00     0.074 A 
ATOM     57  C   UNL     1      11.106  -6.894  -7.215  1.00  0.00     0.031 C 
ATOM     58  C   UNL     1      12.784  -2.986  -2.947  1.00  0.00     0.029 A 
ATOM     59  C   UNL     1      13.045  -3.761  -1.748  1.00  0.00     0.049 A 
ATOM     60  H   UNL     1      11.741  -5.303  -1.041  1.00  0.00     0.167 HD
ATOM     61  C   UNL     1      12.761  -5.116  -8.123  1.00  0.00     0.037 A 
ATOM     62  C   UNL     1      14.271  -3.956  -1.176  1.00  0.00     0.037 A 
ATOM     63  C   UNL     1      13.651  -4.137  -7.497  1.00  0.00     0.049 A 
ATOM     64  C   UNL     1      15.424  -3.889  -2.158  1.00  0.00     0.074 A 
ATOM     65  C   UNL     1      13.485  -2.816  -7.113  1.00  0.00     0.029 A 
ATOM     66  N   UNL     1      14.808  -4.567  -6.869  1.00  0.00    -0.354 N 
ATOM     67  N   UNL     1      15.303  -3.645  -3.433  1.00  0.00    -0.248 NA
ATOM     68  C   UNL     1      16.797  -4.226  -1.786  1.00  0.00     0.031 C 
ATOM     69  C   UNL     1      14.574  -2.450  -6.276  1.00  0.00     0.029 A 
ATOM     70  C   UNL     1      15.411  -3.543  -6.158  1.00  0.00     0.049 A 
ATOM     71  H   UNL     1      15.157  -5.486  -6.920  1.00  0.00     0.167 HD
ATOM     72  C   UNL     1      16.500  -3.885  -4.062  1.00  0.00     0.074 A 
ATOM     73  C   UNL     1      17.400  -4.256  -2.985  1.00  0.00     0.031 C 
ATOM     74  C   UNL     1      16.640  -3.814  -5.423  1.00  0.00     0.037 A 
BRANCH  61  75
ATOM     75  C   UNL     1      12.255  -5.017  -9.540  1.00  0.00     0.057 A 
ATOM     76  C   UNL     1      12.273  -3.792 -10.233  1.00  0.00     0.134 A 
ATOM     77  C   UNL     1      11.698  -6.088 -10.262  1.00  0.00     0.134 A 
ATOM     78  F   UNL     1      12.871  -2.705  -9.729  1.00  0.00    -0.206 F 
ATOM     79  C   UNL     1      11.668  -3.617 -11.483  1.00  0.00     0.040 A 
ATOM     80  C   UNL     1      11.043  -5.917 -11.491  1.00  0.00     0.040 A 
ATOM     81  F   UNL     1      11.796  -7.351  -9.822  1.00  0.00    -0.206 F 
ATOM     82  C   UNL     1      11.013  -4.671 -12.098  1.00  0.00     0.006 A 
ENDBRANCH  61  75
BRANCH  62  83
ATOM     83  C   UNL     1      14.192  -4.913  -0.035  1.00  0.00     0.057 A 
ATOM     84  C   UNL     1      13.390  -4.554   1.065  1.00  0.00     0.134 A 
ATOM     85  C   UNL     1      14.440  -6.273  -0.234  1.00  0.00     0.134 A 
ATOM     86  F   UNL     1      13.142  -3.261   1.328  1.00  0.00    -0.206 F 
ATOM     87  C   UNL     1      12.687  -5.514   1.793  1.00  0.00     0.040 A 
ATOM     88  C   UNL     1      13.762  -7.239   0.510  1.00  0.00     0.040 A 
ATOM     89  F   UNL     1      15.218  -6.690  -1.242  1.00  0.00    -0.206 F 
ATOM     90  C   UNL     1      12.830  -6.860   1.475  1.00  0.00     0.006 A 
ENDBRANCH  62  83
BRANCH  74  91
ATOM     91  C   UNL     1      17.938  -4.027  -6.179  1.00  0.00     0.057 A 
ATOM     92  C   UNL     1      19.203  -3.725  -5.654  1.00  0.00     0.134 A 
ATOM     93  C   UNL     1      17.956  -4.458  -7.526  1.00  0.00     0.134 A 
ATOM     94  F   UNL     1      19.341  -3.129  -4.461  1.00  0.00    -0.206 F 
ATOM     95  C   UNL     1      20.393  -3.965  -6.356  1.00  0.00     0.040 A 
ATOM     96  C   UNL     1      19.133  -4.652  -8.256  1.00  0.00     0.040 A 
ATOM     97  F   UNL     1      16.837  -4.715  -8.214  1.00  0.00    -0.206 F 
ATOM     98  C   UNL     1      20.362  -4.436  -7.661  1.00  0.00     0.006 A 
ENDBRANCH  74  91
ENDBRANCH  48  49
ENDBRANCH  40  43
ENDBRANCH  38  39
ENDBRANCH  37  38
ENDBRANCH  36  37
ENDBRANCH   1  36
TORSDOF 17
