REMARK SMILES COc1cccc(NC(=O)[C@@H]2[C@@H](C(=O)NCCCCCCNC(=O)c3ccc(-c4c5nc(c(-c6c(F)cccc6F)c6ccc([nH]6)c(-c6c(F)cccc6F)c6nc(c(-c7c(F)cccc7F)c7ccc4[nH]7)C=C6)C=C5)cc3)[C@H]3C=C[C@@H]2C3)c1
REMARK SMILES IDX 18 1 17 2 16 3 15 4 13 5 14 6 12 8 11 9 82 10 79 11 81 12
REMARK SMILES IDX 83 13 80 14 9 15 8 16 10 18 7 19 3 20 4 21 84 22 5 23 6 24
REMARK SMILES IDX 2 25 1 26 19 27 20 28 21 29 22 30 23 31 24 33 25 34 26 35
REMARK SMILES IDX 78 36 27 37 77 38 28 39 29 40 30 41 71 42 31 43 76 44 70 45
REMARK SMILES IDX 72 46 32 47 75 48 69 49 68 50 33 52 59 53 42 54 58 55 43 56
REMARK SMILES IDX 46 57 57 58 73 59 44 60 45 61 56 63 74 64 47 65 34 66 35 67
REMARK SMILES IDX 40 68 36 69 37 70 39 71 41 72 38 73 60 74 61 75 66 76 62 77
REMARK SMILES IDX 63 78 65 79 67 80 64 81 48 82 49 83 54 84 50 85 51 86 53 87
REMARK SMILES IDX 55 88 52 89
REMARK H PARENT 15 7 8 17 22 32 72 51 46 62
REMARK Flexibility Score: inf
ROOT
ATOM      1  C   UNL     1       0.928   4.122   6.197  1.00  0.00     0.002 C 
ENDROOT
BRANCH   1   2
ATOM      2  C   UNL     1       2.322   3.480   6.198  1.00  0.00     0.021 C 
BRANCH   2   3
ATOM      3  C   UNL     1       2.657   2.672   7.453  1.00  0.00     0.116 C 
BRANCH   3   4
ATOM      4  N   UNL     1       1.739   1.564   7.638  1.00  0.00    -0.356 N 
ATOM      5  C   UNL     1       1.958   0.220   7.588  1.00  0.00     0.224 C 
ATOM      6  O   UNL     1       0.992  -0.527   7.741  1.00  0.00    -0.275 OA
ATOM      7  H   UNL     1       0.809   1.825   7.830  1.00  0.00     0.163 HD
BRANCH   5   8
ATOM      8  C   UNL     1       3.376  -0.288   7.407  1.00  0.00     0.098 C 
ATOM      9  C   UNL     1       3.509  -1.736   6.826  1.00  0.00     0.099 C 
ATOM     10  C   UNL     1       4.389  -2.434   7.911  1.00  0.00     0.025 C 
ATOM     11  C   UNL     1       4.074  -0.406   8.792  1.00  0.00     0.025 C 
ATOM     12  C   UNL     1       3.519  -2.616   9.134  1.00  0.00    -0.027 C 
ATOM     13  C   UNL     1       5.268  -1.287   8.430  1.00  0.00     0.017 C 
ATOM     14  C   UNL     1       3.331  -1.398   9.665  1.00  0.00    -0.027 C 
BRANCH   9  15
ATOM     15  C   UNL     1       4.215  -1.724   5.477  1.00  0.00     0.228 C 
ATOM     16  N   UNL     1       3.638  -1.274   4.328  1.00  0.00    -0.326 N 
ATOM     17  H   UNL     1       4.283  -1.219   3.587  1.00  0.00     0.169 HD
ATOM     18  O   UNL     1       5.400  -2.067   5.382  1.00  0.00    -0.274 OA
BRANCH  16  19
ATOM     19  C   UNL     1       2.349  -0.871   3.939  1.00  0.00     0.044 A 
ATOM     20  C   UNL     1       1.007   0.218   2.220  1.00  0.00     0.120 A 
ATOM     21  C   UNL     1      -0.131   0.095   3.006  1.00  0.00     0.046 A 
ATOM     22  C   UNL     1       2.243  -0.242   2.687  1.00  0.00     0.072 A 
ATOM     23  C   UNL     1      -0.045  -0.567   4.224  1.00  0.00     0.006 A 
ATOM     24  C   UNL     1       1.183  -1.070   4.670  1.00  0.00     0.026 A 
BRANCH  20  25
ATOM     25  O   UNL     1       0.866   0.860   1.020  1.00  0.00    -0.497 OA
ATOM     26  C   UNL     1       1.290   0.046  -0.074  1.00  0.00     0.278 C 
ENDBRANCH  20  25
ENDBRANCH  16  19
ENDBRANCH   9  15
ENDBRANCH   5   8
ENDBRANCH   3   4
ENDBRANCH   2   3
ENDBRANCH   1   2
BRANCH   1  27
ATOM     27  C   UNL     1       0.598   4.995   7.412  1.00  0.00     0.002 C 
BRANCH  27  28
ATOM     28  C   UNL     1       1.572   6.144   7.685  1.00  0.00     0.021 C 
BRANCH  28  29
ATOM     29  C   UNL     1       1.726   7.153   6.551  1.00  0.00     0.116 C 
BRANCH  29  30
ATOM     30  N   UNL     1       0.484   7.843   6.244  1.00  0.00    -0.352 N 
ATOM     31  C   UNL     1       0.236   9.181   6.081  1.00  0.00     0.251 C 
ATOM     32  H   UNL     1      -0.300   7.259   6.135  1.00  0.00     0.163 HD
ATOM     33  O   UNL     1      -0.928   9.573   5.972  1.00  0.00    -0.269 OA
BRANCH  31  34
ATOM     34  C   UNL     1       1.338  10.169   6.061  1.00  0.00     0.039 A 
ATOM     35  C   UNL     1       1.153  11.386   6.724  1.00  0.00     0.014 A 
ATOM     36  C   UNL     1       2.531   9.929   5.372  1.00  0.00     0.014 A 
ATOM     37  C   UNL     1       2.179  12.333   6.745  1.00  0.00     0.010 A 
ATOM     38  C   UNL     1       3.580  10.847   5.448  1.00  0.00     0.010 A 
ATOM     39  C   UNL     1       3.415  12.059   6.135  1.00  0.00    -0.014 A 
BRANCH  39  40
ATOM     40  C   UNL     1       4.538  13.025   6.238  1.00  0.00     0.031 A 
ATOM     41  C   UNL     1       5.067  13.729   5.019  1.00  0.00     0.074 A 
ATOM     42  C   UNL     1       5.109  13.245   7.439  1.00  0.00     0.049 A 
ATOM     43  N   UNL     1       6.033  14.608   4.928  1.00  0.00    -0.248 NA
ATOM     44  C   UNL     1       4.446  13.385   3.731  1.00  0.00     0.031 C 
ATOM     45  C   UNL     1       4.729  12.584   8.689  1.00  0.00     0.029 A 
ATOM     46  N   UNL     1       6.131  14.085   7.805  1.00  0.00    -0.354 N 
ATOM     47  C   UNL     1       6.139  14.918   3.578  1.00  0.00     0.074 A 
ATOM     48  C   UNL     1       5.174  14.094   2.881  1.00  0.00     0.031 C 
ATOM     49  C   UNL     1       5.484  13.066   9.688  1.00  0.00     0.029 A 
ATOM     50  C   UNL     1       6.418  14.048   9.148  1.00  0.00     0.049 A 
ATOM     51  H   UNL     1       6.611  14.660   7.166  1.00  0.00     0.167 HD
ATOM     52  C   UNL     1       6.949  15.822   2.976  1.00  0.00     0.037 A 
ATOM     53  C   UNL     1       7.329  14.732   9.865  1.00  0.00     0.037 A 
ATOM     54  C   UNL     1       7.897  16.656   3.671  1.00  0.00     0.049 A 
ATOM     55  C   UNL     1       8.208  15.736   9.175  1.00  0.00     0.074 A 
ATOM     56  C   UNL     1       8.717  17.645   3.155  1.00  0.00     0.029 A 
ATOM     57  N   UNL     1       8.154  16.595   5.032  1.00  0.00    -0.354 N 
ATOM     58  N   UNL     1       8.243  16.073   7.909  1.00  0.00    -0.248 NA
ATOM     59  C   UNL     1       9.168  16.463  10.018  1.00  0.00     0.031 C 
ATOM     60  C   UNL     1       9.499  18.155   4.198  1.00  0.00     0.029 A 
ATOM     61  C   UNL     1       9.135  17.514   5.370  1.00  0.00     0.049 A 
ATOM     62  H   UNL     1       7.705  15.989   5.665  1.00  0.00     0.167 HD
ATOM     63  C   UNL     1       9.212  17.061   7.806  1.00  0.00     0.074 A 
ATOM     64  C   UNL     1       9.725  17.286   9.142  1.00  0.00     0.031 C 
ATOM     65  C   UNL     1       9.642  17.721   6.702  1.00  0.00     0.037 A 
BRANCH  52  66
ATOM     66  C   UNL     1       6.840  15.963   1.485  1.00  0.00     0.057 A 
ATOM     67  C   UNL     1       5.724  16.557   0.881  1.00  0.00     0.134 A 
ATOM     68  C   UNL     1       7.877  15.536   0.646  1.00  0.00     0.134 A 
ATOM     69  F   UNL     1       4.691  16.979   1.626  1.00  0.00    -0.206 F 
ATOM     70  C   UNL     1       5.633  16.699  -0.505  1.00  0.00     0.040 A 
ATOM     71  C   UNL     1       7.808  15.696  -0.739  1.00  0.00     0.040 A 
ATOM     72  F   UNL     1       8.977  14.965   1.159  1.00  0.00    -0.206 F 
ATOM     73  C   UNL     1       6.681  16.274  -1.319  1.00  0.00     0.006 A 
ENDBRANCH  52  66
BRANCH  53  74
ATOM     74  C   UNL     1       7.433  14.516  11.330  1.00  0.00     0.057 A 
ATOM     75  C   UNL     1       7.010  15.496  12.235  1.00  0.00     0.134 A 
ATOM     76  C   UNL     1       7.959  13.331  11.858  1.00  0.00     0.134 A 
ATOM     77  F   UNL     1       6.515  16.659  11.788  1.00  0.00    -0.206 F 
ATOM     78  C   UNL     1       7.124  15.314  13.614  1.00  0.00     0.040 A 
ATOM     79  C   UNL     1       8.057  13.126  13.235  1.00  0.00     0.040 A 
ATOM     80  F   UNL     1       8.374  12.351  11.042  1.00  0.00    -0.206 F 
ATOM     81  C   UNL     1       7.645  14.123  14.117  1.00  0.00     0.006 A 
ENDBRANCH  53  74
BRANCH  65  82
ATOM     82  C   UNL     1      10.709  18.757   6.904  1.00  0.00     0.057 A 
ATOM     83  C   UNL     1      12.032  18.405   7.202  1.00  0.00     0.134 A 
ATOM     84  C   UNL     1      10.412  20.121   6.790  1.00  0.00     0.134 A 
ATOM     85  F   UNL     1      12.378  17.116   7.340  1.00  0.00    -0.206 F 
ATOM     86  C   UNL     1      13.015  19.374   7.410  1.00  0.00     0.040 A 
ATOM     87  C   UNL     1      11.393  21.098   6.970  1.00  0.00     0.040 A 
ATOM     88  F   UNL     1       9.167  20.526   6.498  1.00  0.00    -0.206 F 
ATOM     89  C   UNL     1      12.697  20.725   7.290  1.00  0.00     0.006 A 
ENDBRANCH  65  82
ENDBRANCH  39  40
ENDBRANCH  31  34
ENDBRANCH  29  30
ENDBRANCH  28  29
ENDBRANCH  27  28
ENDBRANCH   1  27
TORSDOF 16
