REMARK SMILES CC1(C)CCCN(c2cncc(C(=O)NCCCCCCNC(=O)c3ccc(-c4c5nc(c(-c6c(F)cccc6F)c6ccc([nH]6)c(-c6c(F)cccc6F)c6nc(c(-c7c(F)cccc7F)c7ccc4[nH]7)C=C6)C=C5)cc3)n2)CC1
REMARK SMILES IDX 17 1 16 2 15 3 13 4 14 5 12 7 8 8 9 9 79 10 10 11 11 12 7 13
REMARK SMILES IDX 80 14 81 15 2 16 1 17 3 18 4 19 6 21 5 22 18 24 19 25 20 26
REMARK SMILES IDX 21 27 22 28 23 29 24 31 25 32 26 33 78 34 27 35 77 36 28 37
REMARK SMILES IDX 29 38 30 39 71 40 31 41 76 42 70 43 72 44 32 45 75 46 69 47
REMARK SMILES IDX 68 48 33 50 59 51 42 52 58 53 43 54 46 55 57 56 73 57 44 58
REMARK SMILES IDX 45 59 56 61 74 62 47 63 34 64 35 65 40 66 36 67 37 68 39 69
REMARK SMILES IDX 41 70 38 71 60 72 61 73 66 74 62 75 63 76 65 77 67 78 64 79
REMARK SMILES IDX 48 80 49 81 54 82 50 83 51 84 53 85 55 86 52 87
REMARK H PARENT 15 6 22 30 72 49 46 60
REMARK Flexibility Score: 80.00
ROOT
ATOM      1  C   UNL     1      -0.842  -6.871  -2.699  1.00  0.00     0.021 C 
ENDROOT
BRANCH   1   2
ATOM      2  C   UNL     1      -1.625  -6.902  -1.387  1.00  0.00     0.116 C 
BRANCH   2   3
ATOM      3  N   UNL     1      -1.563  -8.206  -0.749  1.00  0.00    -0.351 N 
ATOM      4  C   UNL     1      -1.060  -8.607   0.469  1.00  0.00     0.271 C 
ATOM      5  O   UNL     1      -1.093  -9.812   0.730  1.00  0.00    -0.267 OA
ATOM      6  H   UNL     1      -1.951  -8.935  -1.284  1.00  0.00     0.163 HD
BRANCH   4   7
ATOM      7  C   UNL     1      -0.465  -7.667   1.464  1.00  0.00     0.148 A 
ATOM      8  C   UNL     1       0.006  -5.519   2.175  1.00  0.00     0.148 A 
ATOM      9  C   UNL     1       0.742  -6.071   3.229  1.00  0.00     0.157 A 
ATOM     10  N   UNL     1      -0.624  -6.331   1.301  1.00  0.00    -0.222 NA
ATOM     11  N   UNL     1       0.878  -7.404   3.442  1.00  0.00    -0.258 NA
ATOM     12  C   UNL     1       0.257  -8.189   2.528  1.00  0.00     0.145 A 
BRANCH   8  13
ATOM     13  N   UNL     1      -0.043  -4.138   1.964  1.00  0.00    -0.355 N 
BRANCH  13  14
ATOM     14  C   UNL     1       1.249  -3.550   1.616  1.00  0.00     0.118 C 
BRANCH  14  15
ATOM     15  C   UNL     1       1.206  -2.393   0.614  1.00  0.00     0.028 C 
BRANCH  15  16
ATOM     16  C   UNL     1       0.583  -1.059   1.089  1.00  0.00    -0.034 C 
ATOM     17  C   UNL     1       0.969   0.030   0.058  1.00  0.00     0.011 C 
ATOM     18  C   UNL     1       1.148  -0.625   2.453  1.00  0.00     0.011 C 
BRANCH  16  19
ATOM     19  C   UNL     1      -0.960  -1.119   1.127  1.00  0.00     0.008 CG0
ATOM     20  G   UNL     1      -1.584  -2.227   1.970  1.00  0.00     0.000 G0
ENDBRANCH  16  19
ENDBRANCH  15  16
ENDBRANCH  14  15
ENDBRANCH  13  14
BRANCH  13  21
ATOM     21  C   UNL     1      -1.303  -3.631   1.438  1.00  0.00     0.118 C 
BRANCH  21  22
ATOM     22  C   UNL     1      -1.584  -2.227   1.970  1.00  0.00     0.022 CG0
ATOM     23  G   UNL     1      -0.960  -1.119   1.127  1.00  0.00     0.000 G0
ENDBRANCH  21  22
ENDBRANCH  13  21
ENDBRANCH   8  13
ENDBRANCH   4   7
ENDBRANCH   2   3
ENDBRANCH   1   2
BRANCH   1  24
ATOM     24  C   UNL     1      -1.466  -7.679  -3.841  1.00  0.00     0.002 C 
BRANCH  24  25
ATOM     25  C   UNL     1      -2.912  -7.316  -4.194  1.00  0.00     0.002 C 
BRANCH  25  26
ATOM     26  C   UNL     1      -3.178  -5.831  -4.453  1.00  0.00     0.021 C 
BRANCH  26  27
ATOM     27  C   UNL     1      -2.338  -5.208  -5.564  1.00  0.00     0.116 C 
BRANCH  27  28
ATOM     28  N   UNL     1      -2.612  -5.802  -6.862  1.00  0.00    -0.352 N 
ATOM     29  C   UNL     1      -2.998  -5.202  -8.032  1.00  0.00     0.251 C 
ATOM     30  H   UNL     1      -2.505  -6.779  -6.908  1.00  0.00     0.163 HD
ATOM     31  O   UNL     1      -3.361  -5.890  -8.988  1.00  0.00    -0.269 OA
BRANCH  29  32
ATOM     32  C   UNL     1      -3.005  -3.729  -8.151  1.00  0.00     0.039 A 
ATOM     33  C   UNL     1      -4.101  -3.104  -8.752  1.00  0.00     0.014 A 
ATOM     34  C   UNL     1      -1.929  -2.964  -7.689  1.00  0.00     0.014 A 
ATOM     35  C   UNL     1      -4.148  -1.711  -8.833  1.00  0.00     0.010 A 
ATOM     36  C   UNL     1      -2.008  -1.573  -7.710  1.00  0.00     0.010 A 
ATOM     37  C   UNL     1      -3.117  -0.933  -8.283  1.00  0.00    -0.014 A 
BRANCH  37  38
ATOM     38  C   UNL     1      -3.188   0.551  -8.291  1.00  0.00     0.031 A 
ATOM     39  C   UNL     1      -2.187   1.354  -9.075  1.00  0.00     0.074 A 
ATOM     40  C   UNL     1      -4.117   1.177  -7.543  1.00  0.00     0.049 A 
ATOM     41  N   UNL     1      -2.051   2.654  -9.155  1.00  0.00    -0.248 NA
ATOM     42  C   UNL     1      -1.193   0.597  -9.852  1.00  0.00     0.031 C 
ATOM     43  C   UNL     1      -5.117   0.511  -6.705  1.00  0.00     0.029 A 
ATOM     44  N   UNL     1      -4.366   2.514  -7.359  1.00  0.00    -0.354 N 
ATOM     45  C   UNL     1      -0.953   2.869  -9.978  1.00  0.00     0.074 A 
ATOM     46  C   UNL     1      -0.428   1.568 -10.331  1.00  0.00     0.031 C 
ATOM     47  C   UNL     1      -5.883   1.442  -6.114  1.00  0.00     0.029 A 
ATOM     48  C   UNL     1      -5.408   2.767  -6.499  1.00  0.00     0.049 A 
ATOM     49  H   UNL     1      -3.847   3.224  -7.800  1.00  0.00     0.167 HD
ATOM     50  C   UNL     1      -0.442   4.044 -10.416  1.00  0.00     0.037 A 
ATOM     51  C   UNL     1      -5.918   3.934  -6.065  1.00  0.00     0.037 A 
ATOM     52  C   UNL     1      -0.979   5.337 -10.081  1.00  0.00     0.049 A 
ATOM     53  C   UNL     1      -5.329   5.225  -6.562  1.00  0.00     0.074 A 
ATOM     54  C   UNL     1      -0.565   6.582 -10.520  1.00  0.00     0.029 A 
ATOM     55  N   UNL     1      -2.048   5.550  -9.224  1.00  0.00    -0.354 N 
ATOM     56  N   UNL     1      -4.331   5.412  -7.391  1.00  0.00    -0.248 NA
ATOM     57  C   UNL     1      -5.940   6.468  -6.067  1.00  0.00     0.031 C 
ATOM     58  C   UNL     1      -1.355   7.552  -9.895  1.00  0.00     0.029 A 
ATOM     59  C   UNL     1      -2.294   6.907  -9.105  1.00  0.00     0.049 A 
ATOM     60  H   UNL     1      -2.556   4.841  -8.767  1.00  0.00     0.167 HD
ATOM     61  C   UNL     1      -4.218   6.788  -7.546  1.00  0.00     0.074 A 
ATOM     62  C   UNL     1      -5.251   7.388  -6.728  1.00  0.00     0.031 C 
ATOM     63  C   UNL     1      -3.338   7.490  -8.301  1.00  0.00     0.037 A 
BRANCH  50  64
ATOM     64  C   UNL     1       0.762   3.985 -11.312  1.00  0.00     0.057 A 
ATOM     65  C   UNL     1       0.678   3.519 -12.631  1.00  0.00     0.134 A 
ATOM     66  C   UNL     1       2.010   4.438 -10.865  1.00  0.00     0.134 A 
ATOM     67  F   UNL     1      -0.485   3.062 -13.118  1.00  0.00    -0.206 F 
ATOM     68  C   UNL     1       1.798   3.480 -13.464  1.00  0.00     0.040 A 
ATOM     69  C   UNL     1       3.130   4.429 -11.698  1.00  0.00     0.040 A 
ATOM     70  F   UNL     1       2.159   4.904  -9.616  1.00  0.00    -0.206 F 
ATOM     71  C   UNL     1       3.027   3.943 -12.999  1.00  0.00     0.006 A 
ENDBRANCH  50  64
BRANCH  51  72
ATOM     72  C   UNL     1      -7.069   3.938  -5.128  1.00  0.00     0.057 A 
ATOM     73  C   UNL     1      -8.339   4.354  -5.545  1.00  0.00     0.134 A 
ATOM     74  C   UNL     1      -6.930   3.530  -3.796  1.00  0.00     0.134 A 
ATOM     75  F   UNL     1      -8.531   4.772  -6.805  1.00  0.00    -0.206 F 
ATOM     76  C   UNL     1      -9.424   4.382  -4.669  1.00  0.00     0.040 A 
ATOM     77  C   UNL     1      -8.012   3.530  -2.914  1.00  0.00     0.040 A 
ATOM     78  F   UNL     1      -5.741   3.113  -3.336  1.00  0.00    -0.206 F 
ATOM     79  C   UNL     1      -9.263   3.965  -3.349  1.00  0.00     0.006 A 
ENDBRANCH  51  72
BRANCH  63  80
ATOM     80  C   UNL     1      -3.481   8.983  -8.319  1.00  0.00     0.057 A 
ATOM     81  C   UNL     1      -3.107   9.777  -7.229  1.00  0.00     0.134 A 
ATOM     82  C   UNL     1      -3.948   9.636  -9.467  1.00  0.00     0.134 A 
ATOM     83  F   UNL     1      -2.664   9.212  -6.096  1.00  0.00    -0.206 F 
ATOM     84  C   UNL     1      -3.208  11.169  -7.274  1.00  0.00     0.040 A 
ATOM     85  C   UNL     1      -4.030  11.027  -9.534  1.00  0.00     0.040 A 
ATOM     86  F   UNL     1      -4.315   8.932 -10.550  1.00  0.00    -0.206 F 
ATOM     87  C   UNL     1      -3.663  11.797  -8.432  1.00  0.00     0.006 A 
ENDBRANCH  63  80
ENDBRANCH  37  38
ENDBRANCH  29  32
ENDBRANCH  27  28
ENDBRANCH  26  27
ENDBRANCH  25  26
ENDBRANCH  24  25
ENDBRANCH   1  24
TORSDOF 14
