REMARK SMILES CC[C@@](C)(NC(=O)Nc1c(C)cccc1Cl)C(=O)NCCCCCCNC(=O)c1ccc(-c2c3nc(c(-c4c(F)cccc4F)c4ccc([nH]4)c(-c4c(F)cccc4F)c4nc(c(-c5c(F)cccc5F)c5ccc2[nH]5)C=C4)C=C3)cc1
REMARK SMILES IDX 22 1 21 2 20 3 19 4 17 5 18 6 3 8 4 9 2 10 1 11 5 12 6 13
REMARK SMILES IDX 7 15 8 16 9 18 10 19 15 20 11 21 12 22 14 23 16 24 13 25
REMARK SMILES IDX 23 26 24 27 25 28 26 29 27 30 28 32 29 33 30 34 82 35 31 36
REMARK SMILES IDX 81 37 32 38 33 39 34 40 75 41 35 42 80 43 74 44 76 45 36 46
REMARK SMILES IDX 79 47 73 48 72 49 37 51 63 52 46 53 62 54 47 55 50 56 61 57
REMARK SMILES IDX 77 58 48 59 49 60 60 62 78 63 51 64 38 65 39 66 44 67 40 68
REMARK SMILES IDX 41 69 43 70 45 71 42 72 64 73 65 74 70 75 66 76 67 77 69 78
REMARK SMILES IDX 71 79 68 80 52 81 53 82 58 83 54 84 55 85 57 86 59 87 56 88
REMARK H PARENT 19 7 5 14 8 17 26 31 76 50 50 61
REMARK Flexibility Score: inf
ROOT
ATOM      1  C   UNL     1       3.807   5.611  -2.789  1.00  0.00     0.002 C 
ENDROOT
BRANCH   1   2
ATOM      2  C   UNL     1       2.290   5.856  -2.688  1.00  0.00     0.021 C 
BRANCH   2   3
ATOM      3  C   UNL     1       1.265   4.756  -3.031  1.00  0.00     0.116 C 
BRANCH   3   4
ATOM      4  N   UNL     1       1.651   3.391  -2.721  1.00  0.00    -0.354 N 
ATOM      5  C   UNL     1       1.038   2.322  -2.065  1.00  0.00     0.245 C 
ATOM      6  O   UNL     1       1.070   1.189  -2.548  1.00  0.00    -0.272 OA
ATOM      7  H   UNL     1       2.552   3.168  -3.049  1.00  0.00     0.163 HD
BRANCH   5   8
ATOM      8  C   UNL     1       0.228   2.591  -0.798  1.00  0.00     0.117 C 
ATOM      9  C   UNL     1      -1.200   2.818  -1.351  1.00  0.00     0.045 C 
BRANCH   8  10
ATOM     10  C   UNL     1       0.125   1.569   0.368  1.00  0.00     0.035 C 
ATOM     11  C   UNL     1       0.380   0.102   0.096  1.00  0.00     0.007 C 
ENDBRANCH   8  10
BRANCH   8  12
ATOM     12  N   UNL     1       0.860   3.783  -0.265  1.00  0.00    -0.324 N 
ATOM     13  C   UNL     1       2.129   4.052   0.042  1.00  0.00     0.320 C 
ATOM     14  H   UNL     1       0.239   4.529  -0.100  1.00  0.00     0.166 HD
ATOM     15  O   UNL     1       2.278   5.136   0.634  1.00  0.00    -0.248 OA
ATOM     16  N   UNL     1       3.259   3.348  -0.115  1.00  0.00    -0.306 N 
ATOM     17  H   UNL     1       3.958   3.963   0.202  1.00  0.00     0.171 HD
BRANCH  16  18
ATOM     18  C   UNL     1       3.996   2.170  -0.502  1.00  0.00     0.064 A 
ATOM     19  C   UNL     1       4.044   1.279  -1.618  1.00  0.00    -0.026 A 
ATOM     20  C   UNL     1       5.006   1.900   0.479  1.00  0.00     0.064 A 
ATOM     21  C   UNL     1       3.917   1.561  -3.109  1.00  0.00     0.046 C 
ATOM     22  C   UNL     1       4.734   0.036  -1.497  1.00  0.00     0.005 A 
ATOM     23  C   UNL     1       5.801   0.750   0.493  1.00  0.00     0.023 A 
ATOM     24  Cl  UNL     1       5.348   3.042   1.761  1.00  0.00    -0.082 Cl
ATOM     25  C   UNL     1       5.612  -0.221  -0.463  1.00  0.00     0.002 A 
ENDBRANCH  16  18
ENDBRANCH   8  12
ENDBRANCH   5   8
ENDBRANCH   3   4
ENDBRANCH   2   3
ENDBRANCH   1   2
BRANCH   1  26
ATOM     26  C   UNL     1       4.423   5.194  -4.125  1.00  0.00     0.002 C 
BRANCH  26  27
ATOM     27  C   UNL     1       3.984   5.953  -5.361  1.00  0.00     0.021 C 
BRANCH  27  28
ATOM     28  C   UNL     1       4.263   7.442  -5.326  1.00  0.00     0.116 C 
BRANCH  28  29
ATOM     29  N   UNL     1       5.676   7.767  -5.446  1.00  0.00    -0.352 N 
ATOM     30  C   UNL     1       6.288   8.652  -6.313  1.00  0.00     0.251 C 
ATOM     31  H   UNL     1       6.276   7.293  -4.826  1.00  0.00     0.163 HD
ATOM     32  O   UNL     1       7.497   8.732  -6.376  1.00  0.00    -0.269 OA
BRANCH  30  33
ATOM     33  C   UNL     1       5.435   9.472  -7.206  1.00  0.00     0.039 A 
ATOM     34  C   UNL     1       5.729   9.508  -8.570  1.00  0.00     0.014 A 
ATOM     35  C   UNL     1       4.311  10.135  -6.707  1.00  0.00     0.014 A 
ATOM     36  C   UNL     1       4.840  10.132  -9.448  1.00  0.00     0.010 A 
ATOM     37  C   UNL     1       3.381  10.671  -7.591  1.00  0.00     0.010 A 
ATOM     38  C   UNL     1       3.634  10.671  -8.971  1.00  0.00    -0.014 A 
BRANCH  38  39
ATOM     39  C   UNL     1       2.614  11.219  -9.900  1.00  0.00     0.031 A 
ATOM     40  C   UNL     1       2.218  12.665  -9.819  1.00  0.00     0.074 A 
ATOM     41  C   UNL     1       1.989  10.395 -10.764  1.00  0.00     0.049 A 
ATOM     42  N   UNL     1       1.302  13.311 -10.495  1.00  0.00    -0.248 NA
ATOM     43  C   UNL     1       2.926  13.489  -8.827  1.00  0.00     0.031 C 
ATOM     44  C   UNL     1       2.241   8.959 -10.896  1.00  0.00     0.029 A 
ATOM     45  N   UNL     1       1.001  10.645 -11.683  1.00  0.00    -0.354 N 
ATOM     46  C   UNL     1       1.321  14.611 -10.007  1.00  0.00     0.074 A 
ATOM     47  C   UNL     1       2.290  14.645  -8.934  1.00  0.00     0.031 C 
ATOM     48  C   UNL     1       1.441   8.459 -11.851  1.00  0.00     0.029 A 
ATOM     49  C   UNL     1       0.591   9.527 -12.368  1.00  0.00     0.049 A 
ATOM     50  H   UNL     1       0.622  11.540 -11.837  1.00  0.00     0.167 HD
ATOM     51  C   UNL     1       0.615  15.685 -10.432  1.00  0.00     0.037 A 
ATOM     52  C   UNL     1      -0.372   9.374 -13.297  1.00  0.00     0.037 A 
ATOM     53  C   UNL     1      -0.348  15.646 -11.502  1.00  0.00     0.049 A 
ATOM     54  C   UNL     1      -1.162  10.574 -13.739  1.00  0.00     0.074 A 
ATOM     55  C   UNL     1      -1.076  16.689 -12.046  1.00  0.00     0.029 A 
ATOM     56  N   UNL     1      -0.726  14.497 -12.183  1.00  0.00    -0.354 N 
ATOM     57  N   UNL     1      -1.077  11.816 -13.326  1.00  0.00    -0.248 NA
ATOM     58  C   UNL     1      -2.178  10.354 -14.777  1.00  0.00     0.031 C 
ATOM     59  C   UNL     1      -1.937  16.162 -13.015  1.00  0.00     0.029 A 
ATOM     60  C   UNL     1      -1.702  14.800 -13.118  1.00  0.00     0.049 A 
ATOM     61  H   UNL     1      -0.355  13.599 -12.025  1.00  0.00     0.167 HD
ATOM     62  C   UNL     1      -2.014  12.528 -14.065  1.00  0.00     0.074 A 
ATOM     63  C   UNL     1      -2.641  11.582 -14.965  1.00  0.00     0.031 C 
ATOM     64  C   UNL     1      -2.325  13.846 -14.002  1.00  0.00     0.037 A 
BRANCH  51  65
ATOM     65  C   UNL     1       0.859  16.990  -9.728  1.00  0.00     0.057 A 
ATOM     66  C   UNL     1       2.080  17.671  -9.833  1.00  0.00     0.134 A 
ATOM     67  C   UNL     1      -0.139  17.577  -8.941  1.00  0.00     0.134 A 
ATOM     68  F   UNL     1       3.084  17.160 -10.562  1.00  0.00    -0.206 F 
ATOM     69  C   UNL     1       2.313  18.865  -9.149  1.00  0.00     0.040 A 
ATOM     70  C   UNL     1       0.071  18.788  -8.278  1.00  0.00     0.040 A 
ATOM     71  F   UNL     1      -1.335  16.985  -8.801  1.00  0.00    -0.206 F 
ATOM     72  C   UNL     1       1.304  19.430  -8.372  1.00  0.00     0.006 A 
ENDBRANCH  51  65
BRANCH  52  73
ATOM     73  C   UNL     1      -0.634   8.029 -13.870  1.00  0.00     0.057 A 
ATOM     74  C   UNL     1      -0.308   7.728 -15.197  1.00  0.00     0.134 A 
ATOM     75  C   UNL     1      -1.202   7.008 -13.098  1.00  0.00     0.134 A 
ATOM     76  F   UNL     1       0.222   8.668 -15.992  1.00  0.00    -0.206 F 
ATOM     77  C   UNL     1      -0.548   6.464 -15.739  1.00  0.00     0.040 A 
ATOM     78  C   UNL     1      -1.423   5.732 -13.619  1.00  0.00     0.040 A 
ATOM     79  F   UNL     1      -1.529   7.230 -11.816  1.00  0.00    -0.206 F 
ATOM     80  C   UNL     1      -1.100   5.459 -14.946  1.00  0.00     0.006 A 
ENDBRANCH  52  73
BRANCH  64  81
ATOM     81  C   UNL     1      -3.382  14.349 -14.943  1.00  0.00     0.057 A 
ATOM     82  C   UNL     1      -4.736  14.027 -14.775  1.00  0.00     0.134 A 
ATOM     83  C   UNL     1      -3.048  15.203 -16.002  1.00  0.00     0.134 A 
ATOM     84  F   UNL     1      -5.122  13.204 -13.789  1.00  0.00    -0.206 F 
ATOM     85  C   UNL     1      -5.715  14.521 -15.638  1.00  0.00     0.040 A 
ATOM     86  C   UNL     1      -4.021  15.726 -16.854  1.00  0.00     0.040 A 
ATOM     87  F   UNL     1      -1.772  15.557 -16.215  1.00  0.00    -0.206 F 
ATOM     88  C   UNL     1      -5.359  15.380 -16.677  1.00  0.00     0.006 A 
ENDBRANCH  64  81
ENDBRANCH  38  39
ENDBRANCH  30  33
ENDBRANCH  28  29
ENDBRANCH  27  28
ENDBRANCH  26  27
ENDBRANCH   1  26
TORSDOF 16
