REMARK SMILES Cc1nc(-c2cccc(N3C[C@H](C(=O)NCCCCCCNC(=O)c4ccc(-c5c6nc(c(-c7c(F)cccc7F)c7ccc([nH]7)c(-c7c(F)cccc7F)c7nc(c(-c8c(F)cccc8F)c8ccc5[nH]8)C=C7)C=C6)cc4)CC3=O)c2)no1
REMARK SMILES IDX 18 1 17 2 16 3 15 4 13 5 14 6 12 8 10 9 11 10 80 11 79 12
REMARK SMILES IDX 81 13 9 14 5 15 6 16 82 17 7 18 8 19 4 20 1 21 2 22 3 23
REMARK SMILES IDX 84 24 83 25 19 26 20 27 21 28 22 29 23 30 24 32 25 33 26 34
REMARK SMILES IDX 78 35 27 36 77 37 28 38 29 39 30 40 71 41 31 42 76 43 70 44
REMARK SMILES IDX 72 45 32 46 75 47 69 48 68 49 33 51 59 52 42 53 58 54 43 55
REMARK SMILES IDX 46 56 57 57 73 58 44 59 45 60 56 62 74 63 47 64 34 65 35 66
REMARK SMILES IDX 40 67 36 68 37 69 39 70 41 71 38 72 60 73 61 74 66 75 62 76
REMARK SMILES IDX 63 77 65 78 67 79 64 80 48 81 49 82 54 83 50 84 51 85 53 86
REMARK SMILES IDX 55 87 52 88
REMARK H PARENT 15 7 22 31 72 50 46 61
REMARK Flexibility Score: inf
ROOT
ATOM      1  C   UNL     1       7.725   9.758   4.485  1.00  0.00     0.002 C 
ENDROOT
BRANCH   1   2
ATOM      2  C   UNL     1       6.233   9.405   4.416  1.00  0.00     0.021 C 
BRANCH   2   3
ATOM      3  C   UNL     1       5.872   8.491   3.244  1.00  0.00     0.116 C 
BRANCH   3   4
ATOM      4  N   UNL     1       6.506   7.194   3.402  1.00  0.00    -0.356 N 
ATOM      5  C   UNL     1       5.961   5.996   3.755  1.00  0.00     0.225 C 
ATOM      6  O   UNL     1       6.716   5.067   4.034  1.00  0.00    -0.275 OA
ATOM      7  H   UNL     1       7.475   7.179   3.227  1.00  0.00     0.163 HD
BRANCH   5   8
ATOM      8  C   UNL     1       4.459   5.832   3.675  1.00  0.00     0.107 C 
ATOM      9  N   UNL     1       3.897   3.985   2.345  1.00  0.00    -0.312 N 
ATOM     10  C   UNL     1       4.121   5.404   2.257  1.00  0.00     0.139 C 
ATOM     11  C   UNL     1       3.718   3.551   3.656  1.00  0.00     0.227 C 
ATOM     12  C   UNL     1       3.926   4.724   4.574  1.00  0.00     0.116 C 
ATOM     13  O   UNL     1       3.422   2.431   4.048  1.00  0.00    -0.274 OA
BRANCH   9  14
ATOM     14  C   UNL     1       3.735   3.171   1.210  1.00  0.00     0.044 A 
ATOM     15  C   UNL     1       2.500   1.441   0.031  1.00  0.00     0.025 A 
ATOM     16  C   UNL     1       3.445   1.475  -1.000  1.00  0.00     0.012 A 
ATOM     17  C   UNL     1       2.667   2.273   1.144  1.00  0.00     0.038 A 
ATOM     18  C   UNL     1       4.514   2.371  -0.942  1.00  0.00     0.003 A 
ATOM     19  C   UNL     1       4.643   3.236   0.148  1.00  0.00     0.026 A 
BRANCH  15  20
ATOM     20  C   UNL     1       1.324   0.596  -0.058  1.00  0.00     0.202 A 
ATOM     21  C   UNL     1      -2.161  -0.081   0.063  1.00  0.00     0.114 C 
ATOM     22  C   UNL     1      -0.696   0.044  -0.010  1.00  0.00     0.223 A 
ATOM     23  N   UNL     1       0.069   1.076   0.251  1.00  0.00    -0.191 NA
ATOM     24  O   UNL     1      -0.004  -1.051  -0.434  1.00  0.00    -0.339 OA
ATOM     25  N   UNL     1       1.339  -0.676  -0.486  1.00  0.00    -0.057 NA
ENDBRANCH  15  20
ENDBRANCH   9  14
ENDBRANCH   5   8
ENDBRANCH   3   4
ENDBRANCH   2   3
ENDBRANCH   1   2
BRANCH   1  26
ATOM     26  C   UNL     1       8.291  10.417   3.222  1.00  0.00     0.002 C 
BRANCH  26  27
ATOM     27  C   UNL     1       7.559  11.683   2.776  1.00  0.00     0.021 C 
BRANCH  27  28
ATOM     28  C   UNL     1       7.545  12.797   3.815  1.00  0.00     0.116 C 
BRANCH  28  29
ATOM     29  N   UNL     1       8.879  13.306   4.090  1.00  0.00    -0.352 N 
ATOM     30  C   UNL     1       9.331  14.602   4.065  1.00  0.00     0.251 C 
ATOM     31  H   UNL     1       9.551  12.627   4.327  1.00  0.00     0.163 HD
ATOM     32  O   UNL     1      10.531  14.844   4.135  1.00  0.00    -0.269 OA
BRANCH  30  33
ATOM     33  C   UNL     1       8.360  15.707   3.932  1.00  0.00     0.039 A 
ATOM     34  C   UNL     1       8.623  16.738   3.026  1.00  0.00     0.014 A 
ATOM     35  C   UNL     1       7.189  15.720   4.694  1.00  0.00     0.014 A 
ATOM     36  C   UNL     1       7.682  17.753   2.844  1.00  0.00     0.010 A 
ATOM     37  C   UNL     1       6.219  16.686   4.454  1.00  0.00     0.010 A 
ATOM     38  C   UNL     1       6.459  17.718   3.533  1.00  0.00    -0.014 A 
BRANCH  38  39
ATOM     39  C   UNL     1       5.421  18.759   3.327  1.00  0.00     0.031 A 
ATOM     40  C   UNL     1       5.009  19.641   4.473  1.00  0.00     0.074 A 
ATOM     41  C   UNL     1       4.797  18.861   2.138  1.00  0.00     0.049 A 
ATOM     42  N   UNL     1       4.053  20.534   4.530  1.00  0.00    -0.248 NA
ATOM     43  C   UNL     1       5.751  19.475   5.733  1.00  0.00     0.031 C 
ATOM     44  C   UNL     1       5.079  18.040   0.959  1.00  0.00     0.029 A 
ATOM     45  N   UNL     1       3.783  19.691   1.729  1.00  0.00    -0.354 N 
ATOM     46  C   UNL     1       4.068  21.019   5.831  1.00  0.00     0.074 A 
ATOM     47  C   UNL     1       5.087  20.282   6.546  1.00  0.00     0.031 C 
ATOM     48  C   UNL     1       4.271  18.419  -0.044  1.00  0.00     0.029 A 
ATOM     49  C   UNL     1       3.385  19.477   0.432  1.00  0.00     0.049 A 
ATOM     50  H   UNL     1       3.379  20.375   2.311  1.00  0.00     0.167 HD
ATOM     51  C   UNL     1       3.317  22.006   6.376  1.00  0.00     0.037 A 
ATOM     52  C   UNL     1       2.408  20.059  -0.288  1.00  0.00     0.037 A 
ATOM     53  C   UNL     1       2.319  22.751   5.655  1.00  0.00     0.049 A 
ATOM     54  C   UNL     1       1.573  21.140   0.343  1.00  0.00     0.074 A 
ATOM     55  C   UNL     1       1.543  23.806   6.100  1.00  0.00     0.029 A 
ATOM     56  N   UNL     1       1.958  22.516   4.336  1.00  0.00    -0.354 N 
ATOM     57  N   UNL     1       1.637  21.631   1.557  1.00  0.00    -0.248 NA
ATOM     58  C   UNL     1       0.534  21.752  -0.497  1.00  0.00     0.031 C 
ATOM     59  C   UNL     1       0.674  24.174   5.068  1.00  0.00     0.029 A 
ATOM     60  C   UNL     1       0.951  23.390   3.960  1.00  0.00     0.049 A 
ATOM     61  H   UNL     1       2.357  21.830   3.755  1.00  0.00     0.167 HD
ATOM     62  C   UNL     1       0.674  22.631   1.615  1.00  0.00     0.074 A 
ATOM     63  C   UNL     1       0.046  22.681   0.312  1.00  0.00     0.031 C 
ATOM     64  C   UNL     1       0.343  23.437   2.654  1.00  0.00     0.037 A 
BRANCH  51  65
ATOM     65  C   UNL     1       3.546  22.328   7.825  1.00  0.00     0.057 A 
ATOM     66  C   UNL     1       4.734  22.923   8.275  1.00  0.00     0.134 A 
ATOM     67  C   UNL     1       2.558  22.061   8.782  1.00  0.00     0.134 A 
ATOM     68  F   UNL     1       5.726  23.195   7.414  1.00  0.00    -0.206 F 
ATOM     69  C   UNL     1       4.944  23.206   9.625  1.00  0.00     0.040 A 
ATOM     70  C   UNL     1       2.744  22.370  10.130  1.00  0.00     0.040 A 
ATOM     71  F   UNL     1       1.394  21.500   8.421  1.00  0.00    -0.206 F 
ATOM     72  C   UNL     1       3.944  22.935  10.557  1.00  0.00     0.006 A 
ENDBRANCH  51  65
BRANCH  52  73
ATOM     73  C   UNL     1       2.176  19.646  -1.696  1.00  0.00     0.057 A 
ATOM     74  C   UNL     1       2.474  20.507  -2.759  1.00  0.00     0.134 A 
ATOM     75  C   UNL     1       1.651  18.389  -2.014  1.00  0.00     0.134 A 
ATOM     76  F   UNL     1       2.964  21.733  -2.518  1.00  0.00    -0.206 F 
ATOM     77  C   UNL     1       2.240  20.142  -4.085  1.00  0.00     0.040 A 
ATOM     78  C   UNL     1       1.436  17.999  -3.338  1.00  0.00     0.040 A 
ATOM     79  F   UNL     1       1.352  17.513  -1.043  1.00  0.00    -0.206 F 
ATOM     80  C   UNL     1       1.724  18.881  -4.378  1.00  0.00     0.006 A 
ENDBRANCH  52  73
BRANCH  64  81
ATOM     81  C   UNL     1      -0.713  24.477   2.413  1.00  0.00     0.057 A 
ATOM     82  C   UNL     1      -2.065  24.145   2.261  1.00  0.00     0.134 A 
ATOM     83  C   UNL     1      -0.374  25.837   2.383  1.00  0.00     0.134 A 
ATOM     84  F   UNL     1      -2.455  22.861   2.267  1.00  0.00    -0.206 F 
ATOM     85  C   UNL     1      -3.039  25.126   2.065  1.00  0.00     0.040 A 
ATOM     86  C   UNL     1      -1.342  26.828   2.218  1.00  0.00     0.040 A 
ATOM     87  F   UNL     1       0.901  26.224   2.532  1.00  0.00    -0.206 F 
ATOM     88  C   UNL     1      -2.679  26.473   2.053  1.00  0.00     0.006 A 
ENDBRANCH  64  81
ENDBRANCH  38  39
ENDBRANCH  30  33
ENDBRANCH  28  29
ENDBRANCH  27  28
ENDBRANCH  26  27
ENDBRANCH   1  26
TORSDOF 15
