REMARK SMILES O=C(NCCCCCCNC(=O)[C@@H](Cc1ccc(O)cc1)Nc1c2ccccc2nc2ccccc12)c1ccc(-c2c3nc(c(-c4c(F)cccc4F)c4ccc([nH]4)c(-c4c(F)cccc4F)c4nc(c(-c5c(F)cccc5F)c5ccc2[nH]5)C=C4)C=C3)cc1
REMARK SMILES IDX 7 1 6 2 5 3 4 4 3 5 1 6 2 7 37 9 38 10 90 11 39 12 89 13
REMARK SMILES IDX 40 14 41 15 42 16 83 17 43 18 88 19 82 20 84 21 44 22 87 23
REMARK SMILES IDX 81 24 80 25 45 27 71 28 54 29 70 30 55 31 58 32 69 33 85 34
REMARK SMILES IDX 56 35 57 36 68 38 86 39 59 40 46 41 47 42 52 43 48 44 49 45
REMARK SMILES IDX 51 46 53 47 50 48 72 49 73 50 78 51 74 52 75 53 77 54 79 55
REMARK SMILES IDX 76 56 60 57 61 58 66 59 62 60 63 61 65 62 67 63 64 64 8 65
REMARK SMILES IDX 9 66 10 67 11 68 12 70 13 71 14 72 15 73 16 74 21 75 17 76
REMARK SMILES IDX 20 77 18 78 19 79 22 81 23 83 24 84 36 85 25 86 29 87 31 88
REMARK SMILES IDX 35 89 26 90 28 91 30 92 32 93 34 94 27 95 33 96
REMARK H PARENT 3 8 84 26 58 37 10 69 19 80 22 82
REMARK Flexibility Score: inf
ROOT
ATOM      1  C   UNL     1       3.659   4.630   0.240  1.00  0.00     0.002 C 
ENDROOT
BRANCH   1   2
ATOM      2  C   UNL     1       3.327   3.791  -0.997  1.00  0.00     0.002 C 
BRANCH   2   3
ATOM      3  C   UNL     1       4.104   2.482  -1.158  1.00  0.00     0.021 C 
BRANCH   3   4
ATOM      4  C   UNL     1       4.056   1.527   0.034  1.00  0.00     0.116 C 
BRANCH   4   5
ATOM      5  N   UNL     1       2.709   1.055   0.308  1.00  0.00    -0.352 N 
ATOM      6  O   UNL     1       0.919  -0.304   0.207  1.00  0.00    -0.269 OA
ATOM      7  C   UNL     1       2.143  -0.179   0.117  1.00  0.00     0.251 C 
ATOM      8  H   UNL     1       2.105   1.730   0.693  1.00  0.00     0.163 HD
BRANCH   7   9
ATOM      9  C   UNL     1       2.970  -1.366  -0.194  1.00  0.00     0.039 A 
ATOM     10  C   UNL     1       4.156  -1.625   0.498  1.00  0.00     0.014 A 
ATOM     11  C   UNL     1       2.496  -2.294  -1.129  1.00  0.00     0.014 A 
ATOM     12  C   UNL     1       4.910  -2.757   0.192  1.00  0.00     0.010 A 
ATOM     13  C   UNL     1       3.219  -3.464  -1.387  1.00  0.00     0.010 A 
ATOM     14  C   UNL     1       4.438  -3.702  -0.735  1.00  0.00    -0.014 A 
BRANCH  14  15
ATOM     15  C   UNL     1       5.178  -4.977  -0.932  1.00  0.00     0.031 A 
ATOM     16  C   UNL     1       5.827  -5.311  -2.245  1.00  0.00     0.074 A 
ATOM     17  C   UNL     1       5.254  -5.846   0.097  1.00  0.00     0.049 A 
ATOM     18  N   UNL     1       6.509  -6.379  -2.578  1.00  0.00    -0.248 NA
ATOM     19  C   UNL     1       5.690  -4.326  -3.328  1.00  0.00     0.031 C 
ATOM     20  C   UNL     1       4.641  -5.648   1.413  1.00  0.00     0.029 A 
ATOM     21  N   UNL     1       5.880  -7.062   0.203  1.00  0.00    -0.354 N 
ATOM     22  C   UNL     1       6.874  -6.201  -3.907  1.00  0.00     0.074 A 
ATOM     23  C   UNL     1       6.316  -4.933  -4.328  1.00  0.00     0.031 C 
ATOM     24  C   UNL     1       4.947  -6.689   2.202  1.00  0.00     0.029 A 
ATOM     25  C   UNL     1       5.730  -7.651   1.435  1.00  0.00     0.049 A 
ATOM     26  H   UNL     1       6.388  -7.473  -0.534  1.00  0.00     0.167 HD
ATOM     27  C   UNL     1       7.613  -7.017  -4.697  1.00  0.00     0.037 A 
ATOM     28  C   UNL     1       6.157  -8.842   1.894  1.00  0.00     0.037 A 
ATOM     29  C   UNL     1       8.174  -8.275  -4.271  1.00  0.00     0.049 A 
ATOM     30  C   UNL     1       6.952  -9.736   0.986  1.00  0.00     0.074 A 
ATOM     31  C   UNL     1       8.975  -9.148  -4.988  1.00  0.00     0.029 A 
ATOM     32  N   UNL     1       7.988  -8.844  -3.020  1.00  0.00    -0.354 N 
ATOM     33  N   UNL     1       7.335  -9.526  -0.250  1.00  0.00    -0.248 NA
ATOM     34  C   UNL     1       7.372 -11.032   1.535  1.00  0.00     0.031 C 
ATOM     35  C   UNL     1       9.234 -10.266  -4.189  1.00  0.00     0.029 A 
ATOM     36  C   UNL     1       8.637 -10.067  -2.955  1.00  0.00     0.049 A 
ATOM     37  H   UNL     1       7.471  -8.439  -2.286  1.00  0.00     0.167 HD
ATOM     38  C   UNL     1       8.059 -10.652  -0.618  1.00  0.00     0.074 A 
ATOM     39  C   UNL     1       8.079 -11.532   0.532  1.00  0.00     0.031 C 
ATOM     40  C   UNL     1       8.653 -10.932  -1.803  1.00  0.00     0.037 A 
BRANCH  27  41
ATOM     41  C   UNL     1       7.859  -6.588  -6.114  1.00  0.00     0.057 A 
ATOM     42  C   UNL     1       8.745  -5.551  -6.429  1.00  0.00     0.134 A 
ATOM     43  C   UNL     1       7.261  -7.273  -7.181  1.00  0.00     0.134 A 
ATOM     44  F   UNL     1       9.344  -4.849  -5.455  1.00  0.00    -0.206 F 
ATOM     45  C   UNL     1       9.021  -5.203  -7.753  1.00  0.00     0.040 A 
ATOM     46  C   UNL     1       7.546  -6.949  -8.509  1.00  0.00     0.040 A 
ATOM     47  F   UNL     1       6.408  -8.283  -6.950  1.00  0.00    -0.206 F 
ATOM     48  C   UNL     1       8.427  -5.910  -8.798  1.00  0.00     0.006 A 
ENDBRANCH  27  41
BRANCH  28  49
ATOM     49  C   UNL     1       5.832  -9.265   3.280  1.00  0.00     0.057 A 
ATOM     50  C   UNL     1       6.829  -9.385   4.255  1.00  0.00     0.134 A 
ATOM     51  C   UNL     1       4.519  -9.573   3.658  1.00  0.00     0.134 A 
ATOM     52  F   UNL     1       8.108  -9.123   3.949  1.00  0.00    -0.206 F 
ATOM     53  C   UNL     1       6.536  -9.818   5.549  1.00  0.00     0.040 A 
ATOM     54  C   UNL     1       4.208  -9.979   4.956  1.00  0.00     0.040 A 
ATOM     55  F   UNL     1       3.518  -9.472   2.772  1.00  0.00    -0.206 F 
ATOM     56  C   UNL     1       5.221 -10.111   5.904  1.00  0.00     0.006 A 
ENDBRANCH  28  49
BRANCH  40  57
ATOM     57  C   UNL     1       9.400 -12.229  -1.903  1.00  0.00     0.057 A 
ATOM     58  C   UNL     1       8.738 -13.461  -1.961  1.00  0.00     0.134 A 
ATOM     59  C   UNL     1      10.800 -12.242  -1.965  1.00  0.00     0.134 A 
ATOM     60  F   UNL     1       7.400 -13.518  -1.890  1.00  0.00    -0.206 F 
ATOM     61  C   UNL     1       9.443 -14.663  -2.051  1.00  0.00     0.040 A 
ATOM     62  C   UNL     1      11.514 -13.434  -2.082  1.00  0.00     0.040 A 
ATOM     63  F   UNL     1      11.495 -11.095  -1.922  1.00  0.00    -0.206 F 
ATOM     64  C   UNL     1      10.835 -14.651  -2.118  1.00  0.00     0.006 A 
ENDBRANCH  40  57
ENDBRANCH  14  15
ENDBRANCH   7   9
ENDBRANCH   4   5
ENDBRANCH   3   4
ENDBRANCH   2   3
ENDBRANCH   1   2
BRANCH   1  65
ATOM     65  C   UNL     1       5.128   5.037   0.417  1.00  0.00     0.021 C 
BRANCH  65  66
ATOM     66  C   UNL     1       5.688   5.986  -0.660  1.00  0.00     0.116 C 
BRANCH  66  67
ATOM     67  N   UNL     1       6.329   7.140  -0.044  1.00  0.00    -0.354 N 
ATOM     68  C   UNL     1       7.550   7.561   0.352  1.00  0.00     0.242 C 
ATOM     69  H   UNL     1       5.658   7.836   0.142  1.00  0.00     0.163 HD
ATOM     70  O   UNL     1       7.489   8.616   1.013  1.00  0.00    -0.273 OA
BRANCH  68  71
ATOM     71  C   UNL     1       8.955   6.925   0.149  1.00  0.00     0.173 C 
BRANCH  71  72
ATOM     72  C   UNL     1       9.349   5.835   1.183  1.00  0.00     0.070 C 
BRANCH  72  73
ATOM     73  C   UNL     1       9.283   4.348   0.893  1.00  0.00    -0.045 A 
ATOM     74  C   UNL     1       8.332   3.790   0.047  1.00  0.00     0.007 A 
ATOM     75  C   UNL     1      10.137   3.460   1.569  1.00  0.00     0.007 A 
ATOM     76  C   UNL     1       8.160   2.412  -0.082  1.00  0.00     0.046 A 
ATOM     77  C   UNL     1       9.996   2.074   1.427  1.00  0.00     0.046 A 
ATOM     78  C   UNL     1       8.988   1.560   0.624  1.00  0.00     0.115 A 
BRANCH  78  79
ATOM     79  O   UNL     1       8.831   0.210   0.555  1.00  0.00    -0.508 OA
ATOM     80  H   UNL     1       8.156  -0.157   0.018  1.00  0.00     0.293 HD
ENDBRANCH  78  79
ENDBRANCH  72  73
ENDBRANCH  71  72
BRANCH  71  81
ATOM     81  N   UNL     1       9.320   6.615  -1.236  1.00  0.00    -0.372 N 
ATOM     82  H   UNL     1       8.831   5.864  -1.645  1.00  0.00     0.161 HD
BRANCH  81  83
ATOM     83  C   UNL     1      10.271   7.240  -2.063  1.00  0.00     0.054 A 
ATOM     84  C   UNL     1      11.521   7.820  -1.626  1.00  0.00     0.024 A 
ATOM     85  C   UNL     1       9.948   7.316  -3.461  1.00  0.00     0.024 A 
ATOM     86  C   UNL     1      12.047   7.877  -0.302  1.00  0.00     0.012 A 
ATOM     87  C   UNL     1      12.359   8.367  -2.627  1.00  0.00     0.073 A 
ATOM     88  C   UNL     1      10.899   7.879  -4.334  1.00  0.00     0.073 A 
ATOM     89  C   UNL     1       8.721   6.882  -4.031  1.00  0.00     0.012 A 
ATOM     90  C   UNL     1      13.274   8.474   0.014  1.00  0.00     0.001 A 
ATOM     91  C   UNL     1      13.585   8.937  -2.303  1.00  0.00     0.029 A 
ATOM     92  N   UNL     1      12.063   8.375  -3.925  1.00  0.00    -0.248 NA
ATOM     93  C   UNL     1      10.637   7.949  -5.695  1.00  0.00     0.029 A 
ATOM     94  C   UNL     1       8.468   6.974  -5.401  1.00  0.00     0.001 A 
ATOM     95  C   UNL     1      14.049   9.008  -0.995  1.00  0.00     0.002 A 
ATOM     96  C   UNL     1       9.435   7.502  -6.239  1.00  0.00     0.002 A 
ENDBRANCH  81  83
ENDBRANCH  71  81
ENDBRANCH  68  71
ENDBRANCH  66  67
ENDBRANCH  65  66
ENDBRANCH   1  65
TORSDOF 18
