REMARK SMILES CCCCCCOC(=O)Nc1cccc(-c2ccc([C@@H](C)C(=O)NCCCCCCNC(=O)c3ccc(-c4c5nc(c(-c6c(F)cccc6F)c6ccc([nH]6)c(-c6c(F)cccc6F)c6nc(c(-c7c(F)cccc7F)c7ccc4[nH]7)C=C6)C=C5)cc3)cc2F)c1
REMARK SMILES IDX 22 1 23 2 24 3 20 5 21 6 19 7 16 8 17 9 89 10 18 11 88 12
REMARK SMILES IDX 90 13 15 14 11 15 12 16 91 17 13 18 14 19 10 20 8 21 9 22
REMARK SMILES IDX 7 24 6 25 5 26 4 27 3 28 2 29 1 30 25 31 26 32 27 33 28 34
REMARK SMILES IDX 29 35 30 36 31 37 32 38 33 40 34 41 35 42 87 43 36 44 86 45
REMARK SMILES IDX 37 46 38 47 39 48 80 49 40 50 85 51 79 52 81 53 41 54 84 55
REMARK SMILES IDX 78 56 77 57 42 59 68 60 51 61 67 62 52 63 55 64 66 65 82 66
REMARK SMILES IDX 53 67 54 68 65 70 83 71 56 72 43 73 44 74 49 75 45 76 46 77
REMARK SMILES IDX 48 78 50 79 47 80 69 81 70 82 75 83 71 84 72 85 74 86 76 87
REMARK SMILES IDX 73 88 57 89 58 90 63 91 59 92 60 93 62 94 64 95 61 96
REMARK H PARENT 24 4 10 23 31 39 81 58 55 69
REMARK Flexibility Score: inf
ROOT
ATOM      1  C   UNL     1      -7.143   7.902  -6.108  1.00  0.00     0.227 C 
ATOM      2  O   UNL     1      -7.089   8.420  -4.987  1.00  0.00    -0.274 OA
ATOM      3  N   UNL     1      -8.050   6.902  -6.270  1.00  0.00    -0.356 N 
ATOM      4  H   UNL     1      -8.632   6.752  -5.490  1.00  0.00     0.163 HD
ENDROOT
BRANCH   1   5
ATOM      5  C   UNL     1      -6.225   8.409  -7.231  1.00  0.00     0.105 C 
ATOM      6  C   UNL     1      -6.974   8.991  -8.430  1.00  0.00     0.023 C 
BRANCH   5   7
ATOM      7  C   UNL     1      -5.079   7.465  -7.558  1.00  0.00    -0.033 A 
ATOM      8  C   UNL     1      -2.917   5.642  -7.998  1.00  0.00     0.018 A 
ATOM      9  C   UNL     1      -4.105   5.563  -8.738  1.00  0.00     0.012 A 
ATOM     10  C   UNL     1      -2.828   6.687  -7.063  1.00  0.00     0.131 A 
ATOM     11  C   UNL     1      -5.150   6.476  -8.544  1.00  0.00     0.005 A 
ATOM     12  C   UNL     1      -3.887   7.566  -6.828  1.00  0.00     0.044 A 
ATOM     13  F   UNL     1      -1.701   6.879  -6.359  1.00  0.00    -0.206 F 
BRANCH   8  14
ATOM     14  C   UNL     1      -1.826   4.664  -8.197  1.00  0.00    -0.013 A 
ATOM     15  C   UNL     1       0.018   3.337  -7.280  1.00  0.00     0.045 A 
ATOM     16  C   UNL     1       0.364   2.912  -8.560  1.00  0.00     0.026 A 
ATOM     17  C   UNL     1      -1.078   4.191  -7.107  1.00  0.00     0.035 A 
ATOM     18  C   UNL     1      -0.404   3.309  -9.652  1.00  0.00     0.003 A 
ATOM     19  C   UNL     1      -1.479   4.185  -9.472  1.00  0.00     0.009 A 
BRANCH  15  20
ATOM     20  N   UNL     1       0.851   2.992  -6.209  1.00  0.00    -0.291 N 
ATOM     21  C   UNL     1       0.529   2.969  -4.878  1.00  0.00     0.411 C 
ATOM     22  O   UNL     1       1.381   3.105  -4.018  1.00  0.00    -0.224 OA
ATOM     23  H   UNL     1       1.774   2.736  -6.439  1.00  0.00     0.173 HD
BRANCH  21  24
ATOM     24  O   UNL     1      -0.774   2.649  -4.657  1.00  0.00    -0.449 OA
BRANCH  24  25
ATOM     25  C   UNL     1      -1.195   2.421  -3.304  1.00  0.00     0.235 C 
BRANCH  25  26
ATOM     26  C   UNL     1      -0.958   0.973  -2.862  1.00  0.00     0.042 C 
BRANCH  26  27
ATOM     27  C   UNL     1       0.499   0.600  -2.558  1.00  0.00     0.003 C 
BRANCH  27  28
ATOM     28  C   UNL     1       1.161   1.424  -1.446  1.00  0.00    -0.000 C 
BRANCH  28  29
ATOM     29  C   UNL     1       0.622   1.162  -0.041  1.00  0.00    -0.003 C 
ATOM     30  C   UNL     1       0.992  -0.217   0.481  1.00  0.00     0.004 C 
ENDBRANCH  28  29
ENDBRANCH  27  28
ENDBRANCH  26  27
ENDBRANCH  25  26
ENDBRANCH  24  25
ENDBRANCH  21  24
ENDBRANCH  15  20
ENDBRANCH   8  14
ENDBRANCH   5   7
ENDBRANCH   1   5
BRANCH   3  31
ATOM     31  C   UNL     1      -8.313   6.018  -7.385  1.00  0.00     0.116 C 
BRANCH  31  32
ATOM     32  C   UNL     1      -7.694   4.636  -7.168  1.00  0.00     0.021 C 
BRANCH  32  33
ATOM     33  C   UNL     1      -8.622   3.651  -6.450  1.00  0.00     0.002 C 
BRANCH  33  34
ATOM     34  C   UNL     1      -9.902   3.289  -7.215  1.00  0.00     0.002 C 
BRANCH  34  35
ATOM     35  C   UNL     1      -9.689   2.737  -8.629  1.00  0.00     0.021 C 
BRANCH  35  36
ATOM     36  C   UNL     1      -8.867   1.453  -8.691  1.00  0.00     0.116 C 
BRANCH  36  37
ATOM     37  N   UNL     1      -9.533   0.352  -8.012  1.00  0.00    -0.352 N 
ATOM     38  C   UNL     1     -10.004  -0.833  -8.520  1.00  0.00     0.251 C 
ATOM     39  H   UNL     1      -9.665   0.475  -7.044  1.00  0.00     0.163 HD
ATOM     40  O   UNL     1     -10.748  -1.543  -7.852  1.00  0.00    -0.269 OA
BRANCH  38  41
ATOM     41  C   UNL     1      -9.620  -1.250  -9.885  1.00  0.00     0.039 A 
ATOM     42  C   UNL     1     -10.604  -1.737 -10.750  1.00  0.00     0.014 A 
ATOM     43  C   UNL     1      -8.289  -1.171 -10.303  1.00  0.00     0.014 A 
ATOM     44  C   UNL     1     -10.263  -2.080 -12.060  1.00  0.00     0.010 A 
ATOM     45  C   UNL     1      -7.963  -1.451 -11.626  1.00  0.00     0.010 A 
ATOM     46  C   UNL     1      -8.947  -1.905 -12.518  1.00  0.00    -0.014 A 
BRANCH  46  47
ATOM     47  C   UNL     1      -8.576  -2.175 -13.929  1.00  0.00     0.031 A 
ATOM     48  C   UNL     1      -7.605  -3.274 -14.258  1.00  0.00     0.074 A 
ATOM     49  C   UNL     1      -9.052  -1.379 -14.905  1.00  0.00     0.049 A 
ATOM     50  N   UNL     1      -7.082  -3.598 -15.413  1.00  0.00    -0.248 NA
ATOM     51  C   UNL     1      -7.143  -4.103 -13.133  1.00  0.00     0.031 C 
ATOM     52  C   UNL     1      -9.974  -0.259 -14.710  1.00  0.00     0.029 A 
ATOM     53  N   UNL     1      -8.816  -1.383 -16.257  1.00  0.00    -0.354 N 
ATOM     54  C   UNL     1      -6.222  -4.657 -15.154  1.00  0.00     0.074 A 
ATOM     55  C   UNL     1      -6.254  -4.888 -13.725  1.00  0.00     0.031 C 
ATOM     56  C   UNL     1     -10.240   0.303 -15.900  1.00  0.00     0.029 A 
ATOM     57  C   UNL     1      -9.477  -0.388 -16.934  1.00  0.00     0.049 A 
ATOM     58  H   UNL     1      -8.227  -2.037 -16.699  1.00  0.00     0.167 HD
ATOM     59  C   UNL     1      -5.490  -5.386 -16.029  1.00  0.00     0.037 A 
ATOM     60  C   UNL     1      -9.462  -0.063 -18.240  1.00  0.00     0.037 A 
ATOM     61  C   UNL     1      -5.473  -5.164 -17.451  1.00  0.00     0.049 A 
ATOM     62  C   UNL     1      -8.614  -0.865 -19.187  1.00  0.00     0.074 A 
ATOM     63  C   UNL     1      -4.802  -5.879 -18.428  1.00  0.00     0.029 A 
ATOM     64  N   UNL     1      -6.157  -4.147 -18.099  1.00  0.00    -0.354 N 
ATOM     65  N   UNL     1      -7.848  -1.899 -18.937  1.00  0.00    -0.248 NA
ATOM     66  C   UNL     1      -8.629  -0.455 -20.599  1.00  0.00     0.031 C 
ATOM     67  C   UNL     1      -5.047  -5.268 -19.663  1.00  0.00     0.029 A 
ATOM     68  C   UNL     1      -5.907  -4.200 -19.461  1.00  0.00     0.049 A 
ATOM     69  H   UNL     1      -6.736  -3.485 -17.657  1.00  0.00     0.167 HD
ATOM     70  C   UNL     1      -7.313  -2.281 -20.160  1.00  0.00     0.074 A 
ATOM     71  C   UNL     1      -7.850  -1.373 -21.153  1.00  0.00     0.031 C 
ATOM     72  C   UNL     1      -6.455  -3.293 -20.436  1.00  0.00     0.037 A 
BRANCH  59  73
ATOM     73  C   UNL     1      -4.646  -6.494 -15.467  1.00  0.00     0.057 A 
ATOM     74  C   UNL     1      -5.216  -7.661 -14.941  1.00  0.00     0.134 A 
ATOM     75  C   UNL     1      -3.248  -6.404 -15.472  1.00  0.00     0.134 A 
ATOM     76  F   UNL     1      -6.550  -7.805 -14.896  1.00  0.00    -0.206 F 
ATOM     77  C   UNL     1      -4.429  -8.685 -14.413  1.00  0.00     0.040 A 
ATOM     78  C   UNL     1      -2.449  -7.434 -14.972  1.00  0.00     0.040 A 
ATOM     79  F   UNL     1      -2.636  -5.317 -15.967  1.00  0.00    -0.206 F 
ATOM     80  C   UNL     1      -3.040  -8.575 -14.433  1.00  0.00     0.006 A 
ENDBRANCH  59  73
BRANCH  60  81
ATOM     81  C   UNL     1     -10.292   1.064 -18.735  1.00  0.00     0.057 A 
ATOM     82  C   UNL     1     -11.417   0.828 -19.535  1.00  0.00     0.134 A 
ATOM     83  C   UNL     1      -9.985   2.394 -18.429  1.00  0.00     0.134 A 
ATOM     84  F   UNL     1     -11.750  -0.425 -19.877  1.00  0.00    -0.206 F 
ATOM     85  C   UNL     1     -12.197   1.876 -20.025  1.00  0.00     0.040 A 
ATOM     86  C   UNL     1     -10.770   3.451 -18.893  1.00  0.00     0.040 A 
ATOM     87  F   UNL     1      -8.924   2.686 -17.662  1.00  0.00    -0.206 F 
ATOM     88  C   UNL     1     -11.877   3.192 -19.700  1.00  0.00     0.006 A 
ENDBRANCH  60  81
BRANCH  72  89
ATOM     89  C   UNL     1      -6.070  -3.494 -21.873  1.00  0.00     0.057 A 
ATOM     90  C   UNL     1      -5.194  -2.623 -22.532  1.00  0.00     0.134 A 
ATOM     91  C   UNL     1      -6.550  -4.597 -22.590  1.00  0.00     0.134 A 
ATOM     92  F   UNL     1      -4.712  -1.540 -21.904  1.00  0.00    -0.206 F 
ATOM     93  C   UNL     1      -4.823  -2.832 -23.861  1.00  0.00     0.040 A 
ATOM     94  C   UNL     1      -6.166  -4.830 -23.911  1.00  0.00     0.040 A 
ATOM     95  F   UNL     1      -7.387  -5.473 -22.015  1.00  0.00    -0.206 F 
ATOM     96  C   UNL     1      -5.303  -3.943 -24.552  1.00  0.00     0.006 A 
ENDBRANCH  72  89
ENDBRANCH  46  47
ENDBRANCH  38  41
ENDBRANCH  36  37
ENDBRANCH  35  36
ENDBRANCH  34  35
ENDBRANCH  33  34
ENDBRANCH  32  33
ENDBRANCH  31  32
ENDBRANCH   3  31
TORSDOF 22
