REMARK SMILES CC(C)n1ncnc1C[C@H](C(=O)NCCCCCCNC(=O)c1ccc(-c2c3nc(c(-c4c(F)cccc4F)c4ccc([nH]4)c(-c4c(F)cccc4F)c4nc(c(-c5c(F)cccc5F)c5ccc2[nH]5)C=C4)C=C3)cc1)c1ccccc1F
REMARK SMILES IDX 16 1 15 2 14 3 13 4 11 5 12 6 10 8 9 9 8 10 4 11 5 12 6 13
REMARK SMILES IDX 7 14 2 15 1 16 3 17 77 18 78 19 82 20 79 21 81 22 83 23
REMARK SMILES IDX 80 24 17 25 18 26 19 27 20 28 21 29 22 31 23 32 24 33 76 34
REMARK SMILES IDX 25 35 75 36 26 37 27 38 28 39 69 40 29 41 74 42 68 43 70 44
REMARK SMILES IDX 30 45 73 46 67 47 66 48 31 50 57 51 40 52 56 53 41 54 44 55
REMARK SMILES IDX 55 56 71 57 42 58 43 59 54 61 72 62 45 63 32 64 33 65 38 66
REMARK SMILES IDX 34 67 35 68 37 69 39 70 36 71 58 72 59 73 64 74 60 75 61 76
REMARK SMILES IDX 63 77 65 78 62 79 46 80 47 81 52 82 48 83 49 84 51 85 53 86
REMARK SMILES IDX 50 87
REMARK H PARENT 13 7 20 30 70 49 44 60
REMARK Flexibility Score: inf
ROOT
ATOM      1  C   UNL     1      -0.767   3.136   3.832  1.00  0.00     0.002 C 
ENDROOT
BRANCH   1   2
ATOM      2  C   UNL     1      -1.573   3.616   2.627  1.00  0.00     0.021 C 
BRANCH   2   3
ATOM      3  C   UNL     1      -1.009   3.262   1.263  1.00  0.00     0.116 C 
BRANCH   3   4
ATOM      4  N   UNL     1      -0.926   1.843   0.942  1.00  0.00    -0.356 N 
ATOM      5  C   UNL     1      -1.027   1.260  -0.305  1.00  0.00     0.228 C 
ATOM      6  O   UNL     1      -0.708   0.075  -0.425  1.00  0.00    -0.274 OA
ATOM      7  H   UNL     1      -0.783   1.232   1.700  1.00  0.00     0.163 HD
BRANCH   5   8
ATOM      8  C   UNL     1      -1.641   2.042  -1.496  1.00  0.00     0.119 C 
BRANCH   8   9
ATOM      9  C   UNL     1      -3.160   2.042  -1.107  1.00  0.00     0.095 C 
BRANCH   9  10
ATOM     10  C   UNL     1      -4.025   3.180  -1.510  1.00  0.00     0.128 A 
ATOM     11  N   UNL     1      -4.889   3.279  -2.583  1.00  0.00    -0.248 N 
ATOM     12  N   UNL     1      -5.440   4.521  -2.608  1.00  0.00    -0.159 NA
ATOM     13  C   UNL     1      -4.921   5.090  -1.526  1.00  0.00     0.246 A 
ATOM     14  N   UNL     1      -4.085   4.301  -0.810  1.00  0.00    -0.220 NA
BRANCH  11  15
ATOM     15  C   UNL     1      -5.211   2.391  -3.700  1.00  0.00     0.103 C 
ATOM     16  C   UNL     1      -4.829   0.918  -3.552  1.00  0.00     0.033 C 
ATOM     17  C   UNL     1      -6.712   2.458  -4.039  1.00  0.00     0.033 C 
ENDBRANCH  11  15
ENDBRANCH   9  10
ENDBRANCH   8   9
BRANCH   8  18
ATOM     18  C   UNL     1      -0.857   3.320  -1.823  1.00  0.00     0.001 A 
ATOM     19  C   UNL     1       0.460   3.515  -1.367  1.00  0.00     0.007 A 
ATOM     20  C   UNL     1      -1.418   4.384  -2.525  1.00  0.00     0.127 A 
ATOM     21  C   UNL     1       1.004   4.802  -1.279  1.00  0.00     0.001 A 
ATOM     22  C   UNL     1      -0.909   5.676  -2.422  1.00  0.00     0.039 A 
ATOM     23  F   UNL     1      -2.453   4.181  -3.347  1.00  0.00    -0.207 F 
ATOM     24  C   UNL     1       0.278   5.896  -1.734  1.00  0.00     0.003 A 
ENDBRANCH   8  18
ENDBRANCH   5   8
ENDBRANCH   3   4
ENDBRANCH   2   3
ENDBRANCH   1   2
BRANCH   1  25
ATOM     25  C   UNL     1       0.750   3.379   3.824  1.00  0.00     0.002 C 
BRANCH  25  26
ATOM     26  C   UNL     1       1.266   4.801   3.563  1.00  0.00     0.021 C 
BRANCH  26  27
ATOM     27  C   UNL     1       0.736   5.869   4.505  1.00  0.00     0.116 C 
BRANCH  27  28
ATOM     28  N   UNL     1       1.112   5.656   5.902  1.00  0.00    -0.352 N 
ATOM     29  C   UNL     1       0.746   6.407   7.008  1.00  0.00     0.251 C 
ATOM     30  H   UNL     1       1.696   4.884   6.079  1.00  0.00     0.163 HD
ATOM     31  O   UNL     1       1.392   6.368   8.043  1.00  0.00    -0.269 OA
BRANCH  29  32
ATOM     32  C   UNL     1      -0.456   7.256   6.912  1.00  0.00     0.039 A 
ATOM     33  C   UNL     1      -0.512   8.533   7.479  1.00  0.00     0.014 A 
ATOM     34  C   UNL     1      -1.536   6.747   6.201  1.00  0.00     0.014 A 
ATOM     35  C   UNL     1      -1.642   9.317   7.249  1.00  0.00     0.010 A 
ATOM     36  C   UNL     1      -2.543   7.583   5.810  1.00  0.00     0.010 A 
ATOM     37  C   UNL     1      -2.647   8.837   6.395  1.00  0.00    -0.014 A 
BRANCH  37  38
ATOM     38  C   UNL     1      -3.783   9.662   6.004  1.00  0.00     0.031 A 
ATOM     39  C   UNL     1      -3.409  10.951   5.364  1.00  0.00     0.074 A 
ATOM     40  C   UNL     1      -5.048   9.182   5.988  1.00  0.00     0.049 A 
ATOM     41  N   UNL     1      -3.596  12.143   5.822  1.00  0.00    -0.248 NA
ATOM     42  C   UNL     1      -2.595  10.909   4.136  1.00  0.00     0.031 C 
ATOM     43  C   UNL     1      -5.509   7.818   6.283  1.00  0.00     0.029 A 
ATOM     44  N   UNL     1      -6.195   9.796   5.591  1.00  0.00    -0.354 N 
ATOM     45  C   UNL     1      -3.130  13.009   4.836  1.00  0.00     0.074 A 
ATOM     46  C   UNL     1      -2.350  12.205   3.933  1.00  0.00     0.031 C 
ATOM     47  C   UNL     1      -6.771   7.652   5.829  1.00  0.00     0.029 A 
ATOM     48  C   UNL     1      -7.270   8.937   5.380  1.00  0.00     0.049 A 
ATOM     49  H   UNL     1      -6.260  10.770   5.463  1.00  0.00     0.167 HD
ATOM     50  C   UNL     1      -3.654  14.259   4.703  1.00  0.00     0.037 A 
ATOM     51  C   UNL     1      -8.478   9.262   4.855  1.00  0.00     0.037 A 
ATOM     52  C   UNL     1      -4.393  14.633   5.885  1.00  0.00     0.049 A 
ATOM     53  C   UNL     1      -8.619  10.734   4.965  1.00  0.00     0.074 A 
ATOM     54  C   UNL     1      -4.086  14.776   7.224  1.00  0.00     0.029 A 
ATOM     55  N   UNL     1      -5.762  14.540   5.825  1.00  0.00    -0.354 N 
ATOM     56  N   UNL     1      -8.744  11.366   6.098  1.00  0.00    -0.248 NA
ATOM     57  C   UNL     1      -8.148  11.537   3.848  1.00  0.00     0.031 C 
ATOM     58  C   UNL     1      -5.226  14.275   7.920  1.00  0.00     0.029 A 
ATOM     59  C   UNL     1      -6.192  13.930   6.973  1.00  0.00     0.049 A 
ATOM     60  H   UNL     1      -6.333  14.857   5.088  1.00  0.00     0.167 HD
ATOM     61  C   UNL     1      -7.957  12.499   5.955  1.00  0.00     0.074 A 
ATOM     62  C   UNL     1      -7.690  12.597   4.521  1.00  0.00     0.031 C 
ATOM     63  C   UNL     1      -7.353  13.072   7.038  1.00  0.00     0.037 A 
BRANCH  50  64
ATOM     64  C   UNL     1      -3.861  14.969   3.382  1.00  0.00     0.057 A 
ATOM     65  C   UNL     1      -4.345  16.291   3.392  1.00  0.00     0.134 A 
ATOM     66  C   UNL     1      -3.905  14.330   2.126  1.00  0.00     0.134 A 
ATOM     67  F   UNL     1      -4.360  17.011   4.524  1.00  0.00    -0.206 F 
ATOM     68  C   UNL     1      -4.920  16.891   2.265  1.00  0.00     0.040 A 
ATOM     69  C   UNL     1      -4.429  14.940   0.982  1.00  0.00     0.040 A 
ATOM     70  F   UNL     1      -3.542  13.056   1.948  1.00  0.00    -0.206 F 
ATOM     71  C   UNL     1      -4.974  16.210   1.056  1.00  0.00     0.006 A 
ENDBRANCH  50  64
BRANCH  51  72
ATOM     72  C   UNL     1      -9.389   8.451   4.017  1.00  0.00     0.057 A 
ATOM     73  C   UNL     1     -10.728   8.826   3.829  1.00  0.00     0.134 A 
ATOM     74  C   UNL     1      -8.898   7.462   3.147  1.00  0.00     0.134 A 
ATOM     75  F   UNL     1     -11.277   9.787   4.585  1.00  0.00    -0.206 F 
ATOM     76  C   UNL     1     -11.522   8.277   2.813  1.00  0.00     0.040 A 
ATOM     77  C   UNL     1      -9.681   6.902   2.130  1.00  0.00     0.040 A 
ATOM     78  F   UNL     1      -7.615   7.076   3.194  1.00  0.00    -0.206 F 
ATOM     79  C   UNL     1     -10.994   7.322   1.950  1.00  0.00     0.006 A 
ENDBRANCH  51  72
BRANCH  63  80
ATOM     80  C   UNL     1      -7.779  12.607   8.405  1.00  0.00     0.057 A 
ATOM     81  C   UNL     1      -7.598  11.303   8.895  1.00  0.00     0.134 A 
ATOM     82  C   UNL     1      -8.264  13.556   9.310  1.00  0.00     0.134 A 
ATOM     83  F   UNL     1      -7.050  10.346   8.138  1.00  0.00    -0.206 F 
ATOM     84  C   UNL     1      -7.927  10.954  10.209  1.00  0.00     0.040 A 
ATOM     85  C   UNL     1      -8.565  13.229  10.634  1.00  0.00     0.040 A 
ATOM     86  F   UNL     1      -8.412  14.835   8.932  1.00  0.00    -0.206 F 
ATOM     87  C   UNL     1      -8.407  11.921  11.085  1.00  0.00     0.006 A 
ENDBRANCH  63  80
ENDBRANCH  37  38
ENDBRANCH  29  32
ENDBRANCH  27  28
ENDBRANCH  26  27
ENDBRANCH  25  26
ENDBRANCH   1  25
TORSDOF 17
