REMARK SMILES Cc1cc(C)cc(Oc2nc3ccccn3c(=O)c2/C=C2\SC(=S)N(CCC(=O)NCCCCCCNC(=O)c3ccc(-c4c5nc(c(-c6c(F)cccc6F)c6ccc([nH]6)c(-c6c(F)cccc6F)c6nc(c(-c7c(F)cccc7F)c7ccc4[nH]7)C=C6)C=C5)cc3)C2=O)c1
REMARK SMILES IDX 32 1 31 2 30 3 28 4 29 5 27 7 26 8 25 9 20 10 21 11 22 12
REMARK SMILES IDX 94 13 23 14 95 15 24 16 19 17 9 18 10 19 11 20 17 21 12 22
REMARK SMILES IDX 16 23 18 24 13 25 15 26 14 27 8 28 7 29 1 30 2 31 3 32 96 33
REMARK SMILES IDX 4 34 5 35 6 36 33 37 34 38 35 39 36 40 37 41 38 42 39 44
REMARK SMILES IDX 40 45 41 46 93 47 42 48 92 49 43 50 44 51 45 52 86 53 46 54
REMARK SMILES IDX 91 55 85 56 87 57 47 58 90 59 84 60 83 61 48 63 74 64 57 65
REMARK SMILES IDX 73 66 58 67 61 68 72 69 88 70 59 71 60 72 71 74 89 75 62 76
REMARK SMILES IDX 49 77 50 78 55 79 51 80 52 81 54 82 56 83 53 84 75 85 76 86
REMARK SMILES IDX 81 87 77 88 78 89 80 90 82 91 79 92 63 93 64 94 69 95 65 96
REMARK SMILES IDX 66 97 68 98 70 99 67 100
REMARK H PARENT 30 6 37 43 87 62 61 73
REMARK Flexibility Score: inf
ROOT
ATOM      1  C   UNL     1       0.754  -1.250   3.251  1.00  0.00     0.021 C 
ENDROOT
BRANCH   1   2
ATOM      2  C   UNL     1       0.325   0.198   3.063  1.00  0.00     0.116 C 
BRANCH   2   3
ATOM      3  N   UNL     1       0.207   0.865   4.340  1.00  0.00    -0.356 N 
ATOM      4  C   UNL     1       1.133   1.575   5.046  1.00  0.00     0.221 C 
ATOM      5  O   UNL     1       0.895   1.811   6.232  1.00  0.00    -0.275 OA
ATOM      6  H   UNL     1      -0.678   0.797   4.766  1.00  0.00     0.163 HD
BRANCH   4   7
ATOM      7  C   UNL     1       2.391   2.124   4.391  1.00  0.00     0.122 C 
BRANCH   7   8
ATOM      8  C   UNL     1       3.678   1.353   4.729  1.00  0.00     0.137 C 
BRANCH   8   9
ATOM      9  N   UNL     1       4.174   0.559   3.593  1.00  0.00    -0.292 N 
ATOM     10  C   UNL     1       3.424  -2.304   1.643  1.00  0.00     0.041 C 
ATOM     11  C   UNL     1       4.109  -1.272   2.153  1.00  0.00     0.081 C 
ATOM     12  S   UNL     1       5.150  -0.199   1.323  1.00  0.00    -0.054 SA
ATOM     13  C   UNL     1       3.948  -0.802   3.553  1.00  0.00     0.266 C 
ATOM     14  C   UNL     1       4.926   1.053   2.544  1.00  0.00     0.148 C 
ATOM     15  O   UNL     1       3.664  -1.528   4.493  1.00  0.00    -0.268 OA
ATOM     16  S   UNL     1       5.537   2.590   2.343  1.00  0.00    -0.052 S 
BRANCH  10  17
ATOM     17  C   UNL     1       3.562  -2.837   0.294  1.00  0.00     0.104 A 
ATOM     18  C   UNL     1       2.658  -2.749  -0.737  1.00  0.00     0.234 A 
ATOM     19  N   UNL     1       2.720  -3.445  -1.914  1.00  0.00    -0.194 NA
ATOM     20  C   UNL     1       3.199  -4.618  -1.731  1.00  0.00     0.143 A 
ATOM     21  C   UNL     1       4.703  -3.841   0.250  1.00  0.00     0.269 A 
ATOM     22  C   UNL     1       2.385  -6.191  -2.509  1.00  0.00     0.048 A 
ATOM     23  N   UNL     1       4.373  -4.911  -0.527  1.00  0.00    -0.267 N 
ATOM     24  O   UNL     1       5.634  -3.813   1.048  1.00  0.00    -0.268 OA
ATOM     25  C   UNL     1       2.993  -7.822  -1.851  1.00  0.00     0.005 A 
ATOM     26  C   UNL     1       4.927  -6.470  -0.027  1.00  0.00     0.096 A 
ATOM     27  C   UNL     1       4.358  -7.778  -0.537  1.00  0.00     0.019 A 
BRANCH  18  28
ATOM     28  O   UNL     1       1.333  -2.335  -0.560  1.00  0.00    -0.438 OA
BRANCH  28  29
ATOM     29  C   UNL     1       0.902  -1.052  -0.739  1.00  0.00     0.130 A 
ATOM     30  C   UNL     1       2.503   2.246  -0.292  1.00  0.00     0.044 C 
ATOM     31  C   UNL     1       1.416   1.253  -0.530  1.00  0.00    -0.047 A 
ATOM     32  C   UNL     1       0.063   1.548  -0.313  1.00  0.00     0.007 A 
ATOM     33  C   UNL     1       1.808  -0.031  -0.870  1.00  0.00     0.050 A 
ATOM     34  C   UNL     1      -0.907   0.540  -0.370  1.00  0.00    -0.047 A 
ATOM     35  C   UNL     1      -2.352   0.888  -0.129  1.00  0.00     0.044 C 
ATOM     36  C   UNL     1      -0.471  -0.777  -0.565  1.00  0.00     0.050 A 
ENDBRANCH  28  29
ENDBRANCH  18  28
ENDBRANCH  10  17
ENDBRANCH   8   9
ENDBRANCH   7   8
ENDBRANCH   4   7
ENDBRANCH   2   3
ENDBRANCH   1   2
BRANCH   1  37
ATOM     37  C   UNL     1      -0.234  -2.362   3.634  1.00  0.00     0.002 C 
BRANCH  37  38
ATOM     38  C   UNL     1      -1.029  -3.027   2.493  1.00  0.00     0.002 C 
BRANCH  38  39
ATOM     39  C   UNL     1      -0.196  -3.676   1.384  1.00  0.00     0.021 C 
BRANCH  39  40
ATOM     40  C   UNL     1       0.511  -5.025   1.533  1.00  0.00     0.116 C 
BRANCH  40  41
ATOM     41  N   UNL     1      -0.227  -6.129   0.937  1.00  0.00    -0.352 N 
ATOM     42  C   UNL     1      -0.043  -6.971  -0.136  1.00  0.00     0.251 C 
ATOM     43  H   UNL     1      -1.064  -6.319   1.419  1.00  0.00     0.163 HD
ATOM     44  O   UNL     1      -0.973  -7.730  -0.420  1.00  0.00    -0.269 OA
BRANCH  42  45
ATOM     45  C   UNL     1       1.141  -7.041  -1.026  1.00  0.00     0.039 A 
ATOM     46  C   UNL     1       0.894  -7.787  -2.638  1.00  0.00     0.014 A 
ATOM     47  C   UNL     1       2.771  -6.347  -0.685  1.00  0.00     0.014 A 
ATOM     48  C   UNL     1       2.152  -7.845  -3.927  1.00  0.00     0.010 A 
ATOM     49  C   UNL     1       4.198  -6.380  -2.140  1.00  0.00     0.010 A 
ATOM     50  C   UNL     1       3.789  -7.156  -3.730  1.00  0.00    -0.014 A 
BRANCH  50  51
ATOM     51  C   UNL     1       4.765  -7.237  -4.816  1.00  0.00     0.031 A 
ATOM     52  C   UNL     1       5.913  -8.179  -4.680  1.00  0.00     0.074 A 
ATOM     53  C   UNL     1       4.552  -6.503  -5.918  1.00  0.00     0.049 A 
ATOM     54  N   UNL     1       6.840  -8.499  -5.539  1.00  0.00    -0.248 NA
ATOM     55  C   UNL     1       6.044  -8.861  -3.388  1.00  0.00     0.031 C 
ATOM     56  C   UNL     1       3.469  -5.533  -6.099  1.00  0.00     0.029 A 
ATOM     57  N   UNL     1       5.226  -6.474  -7.107  1.00  0.00    -0.354 N 
ATOM     58  C   UNL     1       7.634  -9.438  -4.890  1.00  0.00     0.074 A 
ATOM     59  C   UNL     1       7.155  -9.557  -3.538  1.00  0.00     0.031 C 
ATOM     60  C   UNL     1       3.523  -5.041  -7.347  1.00  0.00     0.029 A 
ATOM     61  C   UNL     1       4.661  -5.636  -8.037  1.00  0.00     0.049 A 
ATOM     62  H   UNL     1       6.038  -7.003  -7.280  1.00  0.00     0.167 HD
ATOM     63  C   UNL     1       8.635 -10.184  -5.406  1.00  0.00     0.037 A 
ATOM     64  C   UNL     1       5.037  -5.397  -9.305  1.00  0.00     0.037 A 
ATOM     65  C   UNL     1       9.078 -10.038  -6.761  1.00  0.00     0.049 A 
ATOM     66  C   UNL     1       6.215  -6.177  -9.830  1.00  0.00     0.074 A 
ATOM     67  C   UNL     1      10.090 -10.703  -7.422  1.00  0.00     0.029 A 
ATOM     68  N   UNL     1       8.517  -9.143  -7.664  1.00  0.00    -0.354 N 
ATOM     69  N   UNL     1       6.935  -7.099  -9.229  1.00  0.00    -0.248 NA
ATOM     70  C   UNL     1       6.622  -5.900 -11.210  1.00  0.00     0.031 C 
ATOM     71  C   UNL     1      10.188 -10.158  -8.706  1.00  0.00     0.029 A 
ATOM     72  C   UNL     1       9.181  -9.216  -8.872  1.00  0.00     0.049 A 
ATOM     73  H   UNL     1       7.759  -8.545  -7.471  1.00  0.00     0.167 HD
ATOM     74  C   UNL     1       7.858  -7.537 -10.169  1.00  0.00     0.074 A 
ATOM     75  C   UNL     1       7.578  -6.799 -11.387  1.00  0.00     0.031 C 
ATOM     76  C   UNL     1       8.851  -8.455 -10.051  1.00  0.00     0.037 A 
BRANCH  63  77
ATOM     77  C   UNL     1       9.293 -11.187  -4.502  1.00  0.00     0.057 A 
ATOM     78  C   UNL     1       8.608 -12.310  -4.013  1.00  0.00     0.134 A 
ATOM     79  C   UNL     1      10.622 -11.022  -4.099  1.00  0.00     0.134 A 
ATOM     80  F   UNL     1       7.321 -12.516  -4.333  1.00  0.00    -0.206 F 
ATOM     81  C   UNL     1       9.212 -13.214  -3.137  1.00  0.00     0.040 A 
ATOM     82  C   UNL     1      11.248 -11.936  -3.249  1.00  0.00     0.040 A 
ATOM     83  F   UNL     1      11.335  -9.966  -4.518  1.00  0.00    -0.206 F 
ATOM     84  C   UNL     1      10.540 -13.032  -2.759  1.00  0.00     0.006 A 
ENDBRANCH  63  77
BRANCH  64  85
ATOM     85  C   UNL     1       4.310  -4.413 -10.150  1.00  0.00     0.057 A 
ATOM     86  C   UNL     1       3.655  -4.794 -11.328  1.00  0.00     0.134 A 
ATOM     87  C   UNL     1       4.288  -3.050  -9.823  1.00  0.00     0.134 A 
ATOM     88  F   UNL     1       3.636  -6.082 -11.704  1.00  0.00    -0.206 F 
ATOM     89  C   UNL     1       3.050  -3.858 -12.170  1.00  0.00     0.040 A 
ATOM     90  C   UNL     1       3.655  -2.108 -10.635  1.00  0.00     0.040 A 
ATOM     91  F   UNL     1       4.880  -2.612  -8.702  1.00  0.00    -0.206 F 
ATOM     92  C   UNL     1       3.049  -2.509 -11.823  1.00  0.00     0.006 A 
ENDBRANCH  64  85
BRANCH  76  93
ATOM     93  C   UNL     1       9.655  -8.730 -11.286  1.00  0.00     0.057 A 
ATOM     94  C   UNL     1      10.505  -7.771 -11.849  1.00  0.00     0.134 A 
ATOM     95  C   UNL     1       9.581  -9.982 -11.910  1.00  0.00     0.134 A 
ATOM     96  F   UNL     1      10.618  -6.553 -11.297  1.00  0.00    -0.206 F 
ATOM     97  C   UNL     1      11.205  -8.025 -13.027  1.00  0.00     0.040 A 
ATOM     98  C   UNL     1      10.316 -10.265 -13.058  1.00  0.00     0.040 A 
ATOM     99  F   UNL     1       8.805 -10.954 -11.406  1.00  0.00    -0.206 F 
ATOM    100  C   UNL     1      11.115  -9.278 -13.631  1.00  0.00     0.006 A 
ENDBRANCH  76  93
ENDBRANCH  50  51
ENDBRANCH  42  45
ENDBRANCH  40  41
ENDBRANCH  39  40
ENDBRANCH  38  39
ENDBRANCH  37  38
ENDBRANCH   1  37
TORSDOF 18
