REMARK SMILES C[C@@H](NC(=O)NCCC(=O)NC1CC1)C(=O)NCCCCCCNC(=O)c1ccc(-c2c3nc(c(-c4c(F)cccc4F)c4ccc([nH]4)c(-c4c(F)cccc4F)c4nc(c(-c5c(F)cccc5F)c5ccc2[nH]5)C=C4)C=C3)cc1
REMARK SMILES IDX 19 1 18 2 17 3 15 4 16 5 2 7 1 8 3 9 4 10 5 12 6 13 7 15
REMARK SMILES IDX 8 16 9 17 10 18 11 19 12 21 13 22 14 23 20 24 21 25 22 26
REMARK SMILES IDX 23 27 24 28 25 29 26 31 27 32 28 33 80 34 29 35 79 36 30 37
REMARK SMILES IDX 31 38 32 39 73 40 33 41 78 42 72 43 74 44 34 45 77 46 71 47
REMARK SMILES IDX 70 48 35 50 61 51 44 52 60 53 45 54 48 55 59 56 75 57 46 58
REMARK SMILES IDX 47 59 58 61 76 62 49 63 36 64 37 65 42 66 38 67 39 68 41 69
REMARK SMILES IDX 43 70 40 71 62 72 63 73 68 74 64 75 65 76 67 77 69 78 66 79
REMARK SMILES IDX 50 80 51 81 56 82 52 83 53 84 55 85 57 86 54 87
REMARK H PARENT 17 6 3 11 6 14 11 20 24 30 74 49 48 60
REMARK Flexibility Score: inf
ROOT
ATOM      1  C   UNL     1      -1.613  -0.110  -2.905  1.00  0.00     0.021 C 
ENDROOT
BRANCH   1   2
ATOM      2  C   UNL     1      -0.928   0.538  -1.710  1.00  0.00     0.116 C 
BRANCH   2   3
ATOM      3  N   UNL     1      -1.250  -0.182  -0.496  1.00  0.00    -0.354 N 
ATOM      4  C   UNL     1      -0.617  -0.187   0.706  1.00  0.00     0.242 C 
ATOM      5  O   UNL     1      -1.061  -0.944   1.575  1.00  0.00    -0.273 OA
ATOM      6  H   UNL     1      -2.048  -0.756  -0.549  1.00  0.00     0.163 HD
BRANCH   4   7
ATOM      7  C   UNL     1       0.685   0.593   0.952  1.00  0.00     0.170 C 
ATOM      8  C   UNL     1       1.828  -0.311   0.471  1.00  0.00     0.041 C 
BRANCH   7   9
ATOM      9  N   UNL     1       0.837   1.896   0.315  1.00  0.00    -0.327 N 
ATOM     10  C   UNL     1       0.091   2.995   0.242  1.00  0.00     0.315 C 
ATOM     11  H   UNL     1       1.686   1.982  -0.175  1.00  0.00     0.166 HD
ATOM     12  O   UNL     1       0.573   3.970  -0.341  1.00  0.00    -0.249 OA
ATOM     13  N   UNL     1      -1.173   3.083   0.645  1.00  0.00    -0.338 N 
ATOM     14  H   UNL     1      -1.622   3.866   0.251  1.00  0.00     0.165 HD
BRANCH  13  15
ATOM     15  C   UNL     1      -2.071   2.337   1.508  1.00  0.00     0.127 C 
BRANCH  15  16
ATOM     16  C   UNL     1      -2.961   3.254   2.344  1.00  0.00     0.121 C 
BRANCH  16  17
ATOM     17  C   UNL     1      -4.087   3.895   1.556  1.00  0.00     0.221 C 
ATOM     18  O   UNL     1      -5.196   3.362   1.486  1.00  0.00    -0.275 OA
ATOM     19  N   UNL     1      -3.885   5.088   0.912  1.00  0.00    -0.353 N 
ATOM     20  H   UNL     1      -4.694   5.504   0.534  1.00  0.00     0.163 HD
BRANCH  19  21
ATOM     21  C   UNL     1      -2.675   5.814   0.709  1.00  0.00     0.082 C 
ATOM     22  C   UNL     1      -2.241   6.059  -0.720  1.00  0.00     0.027 C 
ATOM     23  C   UNL     1      -2.644   7.207   0.152  1.00  0.00     0.027 C 
ENDBRANCH  19  21
ENDBRANCH  16  17
ENDBRANCH  15  16
ENDBRANCH  13  15
ENDBRANCH   7   9
ENDBRANCH   4   7
ENDBRANCH   2   3
ENDBRANCH   1   2
BRANCH   1  24
ATOM     24  C   UNL     1      -3.116   0.198  -2.973  1.00  0.00     0.002 C 
BRANCH  24  25
ATOM     25  C   UNL     1      -3.466   1.631  -3.390  1.00  0.00     0.002 C 
BRANCH  25  26
ATOM     26  C   UNL     1      -2.834   2.104  -4.700  1.00  0.00     0.021 C 
BRANCH  26  27
ATOM     27  C   UNL     1      -2.977   1.137  -5.870  1.00  0.00     0.116 C 
BRANCH  27  28
ATOM     28  N   UNL     1      -4.362   0.890  -6.233  1.00  0.00    -0.352 N 
ATOM     29  C   UNL     1      -4.911   0.809  -7.488  1.00  0.00     0.251 C 
ATOM     30  H   UNL     1      -4.986   0.764  -5.482  1.00  0.00     0.163 HD
ATOM     31  O   UNL     1      -6.126   0.726  -7.637  1.00  0.00    -0.269 OA
BRANCH  29  32
ATOM     32  C   UNL     1      -4.021   0.862  -8.666  1.00  0.00     0.039 A 
ATOM     33  C   UNL     1      -4.321   1.754  -9.696  1.00  0.00     0.014 A 
ATOM     34  C   UNL     1      -2.878   0.060  -8.733  1.00  0.00     0.014 A 
ATOM     35  C   UNL     1      -3.438   1.887 -10.770  1.00  0.00     0.010 A 
ATOM     36  C   UNL     1      -1.963   0.248  -9.764  1.00  0.00     0.010 A 
ATOM     37  C   UNL     1      -2.236   1.161 -10.795  1.00  0.00    -0.014 A 
BRANCH  37  38
ATOM     38  C   UNL     1      -1.252   1.346 -11.892  1.00  0.00     0.031 A 
ATOM     39  C   UNL     1      -0.921   0.201 -12.809  1.00  0.00     0.074 A 
ATOM     40  C   UNL     1      -0.615   2.526 -12.025  1.00  0.00     0.049 A 
ATOM     41  N   UNL     1      -0.052   0.150 -13.787  1.00  0.00    -0.248 NA
ATOM     42  C   UNL     1      -1.641  -1.063 -12.581  1.00  0.00     0.031 C 
ATOM     43  C   UNL     1      -0.814   3.698 -11.169  1.00  0.00     0.029 A 
ATOM     44  N   UNL     1       0.338   2.933 -12.925  1.00  0.00    -0.354 N 
ATOM     45  C   UNL     1      -0.108  -1.149 -14.275  1.00  0.00     0.074 A 
ATOM     46  C   UNL     1      -1.059  -1.869 -13.457  1.00  0.00     0.031 C 
ATOM     47  C   UNL     1      -0.027   4.697 -11.601  1.00  0.00     0.029 A 
ATOM     48  C   UNL     1       0.762   4.226 -12.735  1.00  0.00     0.049 A 
ATOM     49  H   UNL     1       0.685   2.353 -13.641  1.00  0.00     0.167 HD
ATOM     50  C   UNL     1       0.559  -1.688 -15.323  1.00  0.00     0.037 A 
ATOM     51  C   UNL     1       1.689   4.947 -13.394  1.00  0.00     0.037 A 
ATOM     52  C   UNL     1       1.480  -0.959 -16.154  1.00  0.00     0.049 A 
ATOM     53  C   UNL     1       2.420   4.319 -14.550  1.00  0.00     0.074 A 
ATOM     54  C   UNL     1       2.144  -1.393 -17.288  1.00  0.00     0.029 A 
ATOM     55  N   UNL     1       1.873   0.353 -15.938  1.00  0.00    -0.354 N 
ATOM     56  N   UNL     1       2.292   3.116 -15.055  1.00  0.00    -0.248 NA
ATOM     57  C   UNL     1       3.422   5.151 -15.230  1.00  0.00     0.031 C 
ATOM     58  C   UNL     1       2.983  -0.363 -17.724  1.00  0.00     0.029 A 
ATOM     59  C   UNL     1       2.796   0.733 -16.898  1.00  0.00     0.049 A 
ATOM     60  H   UNL     1       1.544   0.929 -15.210  1.00  0.00     0.167 HD
ATOM     61  C   UNL     1       3.168   3.060 -16.132  1.00  0.00     0.074 A 
ATOM     62  C   UNL     1       3.811   4.354 -16.215  1.00  0.00     0.031 C 
ATOM     63  C   UNL     1       3.418   2.030 -16.976  1.00  0.00     0.037 A 
BRANCH  50  64
ATOM     64  C   UNL     1       0.322  -3.138 -15.633  1.00  0.00     0.057 A 
ATOM     65  C   UNL     1      -0.892  -3.597 -16.160  1.00  0.00     0.134 A 
ATOM     66  C   UNL     1       1.344  -4.079 -15.455  1.00  0.00     0.134 A 
ATOM     67  F   UNL     1      -1.917  -2.750 -16.346  1.00  0.00    -0.206 F 
ATOM     68  C   UNL     1      -1.089  -4.942 -16.478  1.00  0.00     0.040 A 
ATOM     69  C   UNL     1       1.170  -5.421 -15.796  1.00  0.00     0.040 A 
ATOM     70  F   UNL     1       2.535  -3.707 -14.961  1.00  0.00    -0.206 F 
ATOM     71  C   UNL     1      -0.052  -5.857 -16.305  1.00  0.00     0.006 A 
ENDBRANCH  50  64
BRANCH  51  72
ATOM     72  C   UNL     1       1.980   6.348 -12.991  1.00  0.00     0.057 A 
ATOM     73  C   UNL     1       1.665   7.423 -13.831  1.00  0.00     0.134 A 
ATOM     74  C   UNL     1       2.611   6.645 -11.777  1.00  0.00     0.134 A 
ATOM     75  F   UNL     1       1.076   7.203 -15.016  1.00  0.00    -0.206 F 
ATOM     76  C   UNL     1       1.995   8.737 -13.495  1.00  0.00     0.040 A 
ATOM     77  C   UNL     1       2.920   7.957 -11.414  1.00  0.00     0.040 A 
ATOM     78  F   UNL     1       2.933   5.663 -10.922  1.00  0.00    -0.206 F 
ATOM     79  C   UNL     1       2.622   9.007 -12.281  1.00  0.00     0.006 A 
ENDBRANCH  51  72
BRANCH  63  80
ATOM     80  C   UNL     1       4.394   2.273 -18.091  1.00  0.00     0.057 A 
ATOM     81  C   UNL     1       5.768   2.411 -17.859  1.00  0.00     0.134 A 
ATOM     82  C   UNL     1       3.954   2.328 -19.420  1.00  0.00     0.134 A 
ATOM     83  F   UNL     1       6.253   2.381 -16.609  1.00  0.00    -0.206 F 
ATOM     84  C   UNL     1       6.666   2.621 -18.907  1.00  0.00     0.040 A 
ATOM     85  C   UNL     1       4.845   2.506 -20.478  1.00  0.00     0.040 A 
ATOM     86  F   UNL     1       2.651   2.192 -19.713  1.00  0.00    -0.206 F 
ATOM     87  C   UNL     1       6.206   2.661 -20.222  1.00  0.00     0.006 A 
ENDBRANCH  63  80
ENDBRANCH  37  38
ENDBRANCH  29  32
ENDBRANCH  27  28
ENDBRANCH  26  27
ENDBRANCH  25  26
ENDBRANCH  24  25
ENDBRANCH   1  24
TORSDOF 18
