REMARK SMILES O=C(Cc1cccnc1Cl)NCCCCCCNC(=O)c1ccc(-c2c3nc(c(-c4c(F)cccc4F)c4ccc([nH]4)c(-c4c(F)cccc4F)c4nc(c(-c5c(F)cccc5F)c5ccc2[nH]5)C=C4)C=C3)cc1
REMARK SMILES IDX 15 1 14 2 13 3 12 4 11 5 1 6 2 7 3 9 4 10 5 11 9 12 6 13
REMARK SMILES IDX 8 14 10 15 7 16 16 17 17 18 18 19 19 20 20 22 21 23 22 24
REMARK SMILES IDX 74 25 23 26 73 27 24 28 25 29 26 30 67 31 27 32 72 33 66 34
REMARK SMILES IDX 68 35 28 36 71 37 65 38 64 39 29 41 55 42 38 43 54 44 39 45
REMARK SMILES IDX 42 46 53 47 69 48 40 49 41 50 52 52 70 53 43 54 30 55 31 56
REMARK SMILES IDX 36 57 32 58 33 59 35 60 37 61 34 62 56 63 57 64 62 65 58 66
REMARK SMILES IDX 59 67 61 68 63 69 60 70 44 71 45 72 50 73 46 74 47 75 49 76
REMARK SMILES IDX 51 77 48 78
REMARK H PARENT 11 8 18 21 68 40 42 51
REMARK Flexibility Score: inf
ROOT
ATOM      1  C   UNL     1       4.637  -2.860   2.975  1.00  0.00     0.002 C 
ENDROOT
BRANCH   1   2
ATOM      2  C   UNL     1       4.132  -3.272   1.589  1.00  0.00     0.002 C 
BRANCH   2   3
ATOM      3  C   UNL     1       2.627  -3.079   1.351  1.00  0.00     0.021 C 
BRANCH   3   4
ATOM      4  C   UNL     1       2.118  -1.651   1.562  1.00  0.00     0.116 C 
BRANCH   4   5
ATOM      5  N   UNL     1       2.839  -0.716   0.726  1.00  0.00    -0.356 N 
ATOM      6  O   UNL     1       1.022   0.359  -0.176  1.00  0.00    -0.275 OA
ATOM      7  C   UNL     1       2.236   0.202  -0.100  1.00  0.00     0.224 C 
ATOM      8  H   UNL     1       3.823  -0.738   0.752  1.00  0.00     0.163 HD
BRANCH   7   9
ATOM      9  C   UNL     1       3.210   0.986  -0.965  1.00  0.00     0.138 C 
BRANCH   9  10
ATOM     10  C   UNL     1       3.998   2.015  -0.198  1.00  0.00    -0.001 A 
ATOM     11  C   UNL     1       3.526   3.330  -0.112  1.00  0.00     0.009 A 
ATOM     12  C   UNL     1       5.188   1.736   0.472  1.00  0.00     0.132 A 
ATOM     13  C   UNL     1       4.240   4.282   0.612  1.00  0.00     0.020 A 
ATOM     14  N   UNL     1       5.895   2.633   1.192  1.00  0.00    -0.244 NA
ATOM     15  Cl  UNL     1       5.930   0.182   0.462  1.00  0.00    -0.062 Cl
ATOM     16  C   UNL     1       5.405   3.887   1.245  1.00  0.00     0.113 A 
ENDBRANCH   9  10
ENDBRANCH   7   9
ENDBRANCH   4   5
ENDBRANCH   3   4
ENDBRANCH   2   3
ENDBRANCH   1   2
BRANCH   1  17
ATOM     17  C   UNL     1       3.989  -3.601   4.145  1.00  0.00     0.021 C 
BRANCH  17  18
ATOM     18  C   UNL     1       4.131  -5.119   4.100  1.00  0.00     0.116 C 
BRANCH  18  19
ATOM     19  N   UNL     1       5.514  -5.558   4.196  1.00  0.00    -0.352 N 
ATOM     20  C   UNL     1       6.051  -6.565   4.957  1.00  0.00     0.251 C 
ATOM     21  H   UNL     1       6.156  -5.062   3.636  1.00  0.00     0.163 HD
ATOM     22  O   UNL     1       7.272  -6.704   5.026  1.00  0.00    -0.269 OA
BRANCH  20  23
ATOM     23  C   UNL     1       5.166  -7.473   5.718  1.00  0.00     0.039 A 
ATOM     24  C   UNL     1       5.507  -7.802   7.033  1.00  0.00     0.014 A 
ATOM     25  C   UNL     1       4.015  -8.014   5.138  1.00  0.00     0.014 A 
ATOM     26  C   UNL     1       4.670  -8.634   7.780  1.00  0.00     0.010 A 
ATOM     27  C   UNL     1       3.144  -8.782   5.906  1.00  0.00     0.010 A 
ATOM     28  C   UNL     1       3.469  -9.112   7.231  1.00  0.00    -0.014 A 
BRANCH  28  29
ATOM     29  C   UNL     1       2.561  -9.990   8.014  1.00  0.00     0.031 A 
ATOM     30  C   UNL     1       2.312 -11.405   7.564  1.00  0.00     0.074 A 
ATOM     31  C   UNL     1       1.927  -9.508   9.101  1.00  0.00     0.049 A 
ATOM     32  N   UNL     1       1.503 -12.304   8.064  1.00  0.00    -0.248 NA
ATOM     33  C   UNL     1       3.055 -11.863   6.378  1.00  0.00     0.031 C 
ATOM     34  C   UNL     1       2.050  -8.144   9.620  1.00  0.00     0.029 A 
ATOM     35  N   UNL     1       1.044 -10.111   9.961  1.00  0.00    -0.354 N 
ATOM     36  C   UNL     1       1.637 -13.426   7.255  1.00  0.00     0.074 A 
ATOM     37  C   UNL     1       2.554 -13.075   6.194  1.00  0.00     0.031 C 
ATOM     38  C   UNL     1       1.282  -8.020  10.715  1.00  0.00     0.029 A 
ATOM     39  C   UNL     1       0.589  -9.281  10.958  1.00  0.00     0.049 A 
ATOM     40  H   UNL     1       0.763 -11.051   9.873  1.00  0.00     0.167 HD
ATOM     41  C   UNL     1       1.073 -14.649   7.400  1.00  0.00     0.037 A 
ATOM     42  C   UNL     1      -0.293  -9.510  11.949  1.00  0.00     0.037 A 
ATOM     43  C   UNL     1       0.173 -15.005   8.465  1.00  0.00     0.049 A 
ATOM     44  C   UNL     1      -0.911 -10.876  12.082  1.00  0.00     0.074 A 
ATOM     45  C   UNL     1      -0.443 -16.222   8.704  1.00  0.00     0.029 A 
ATOM     46  N   UNL     1      -0.230 -14.147   9.476  1.00  0.00    -0.354 N 
ATOM     47  N   UNL     1      -0.743 -11.938  11.332  1.00  0.00    -0.248 NA
ATOM     48  C   UNL     1      -1.832 -11.080  13.210  1.00  0.00     0.031 C 
ATOM     49  C   UNL     1      -1.241 -16.091   9.845  1.00  0.00     0.029 A 
ATOM     50  C   UNL     1      -1.085 -14.808  10.342  1.00  0.00     0.049 A 
ATOM     51  H   UNL     1       0.050 -13.207   9.565  1.00  0.00     0.167 HD
ATOM     52  C   UNL     1      -1.500 -12.944  11.921  1.00  0.00     0.074 A 
ATOM     53  C   UNL     1      -2.119 -12.368  13.095  1.00  0.00     0.031 C 
ATOM     54  C   UNL     1      -1.668 -14.229  11.524  1.00  0.00     0.037 A 
BRANCH  41  55
ATOM     55  C   UNL     1       1.433 -15.700   6.391  1.00  0.00     0.057 A 
ATOM     56  C   UNL     1       2.711 -16.276   6.358  1.00  0.00     0.134 A 
ATOM     57  C   UNL     1       0.488 -16.176   5.474  1.00  0.00     0.134 A 
ATOM     58  F   UNL     1       3.667 -15.855   7.200  1.00  0.00    -0.206 F 
ATOM     59  C   UNL     1       3.041 -17.271   5.437  1.00  0.00     0.040 A 
ATOM     60  C   UNL     1       0.798 -17.191   4.567  1.00  0.00     0.040 A 
ATOM     61  F   UNL     1      -0.756 -15.674   5.455  1.00  0.00    -0.206 F 
ATOM     62  C   UNL     1       2.080 -17.737   4.543  1.00  0.00     0.006 A 
ENDBRANCH  41  55
BRANCH  42  63
ATOM     63  C   UNL     1      -0.642  -8.431  12.910  1.00  0.00     0.057 A 
ATOM     64  C   UNL     1      -0.266  -8.509  14.256  1.00  0.00     0.134 A 
ATOM     65  C   UNL     1      -1.398  -7.321  12.517  1.00  0.00     0.134 A 
ATOM     66  F   UNL     1       0.444  -9.558  14.699  1.00  0.00    -0.206 F 
ATOM     67  C   UNL     1      -0.659  -7.543  15.184  1.00  0.00     0.040 A 
ATOM     68  C   UNL     1      -1.774  -6.332  13.427  1.00  0.00     0.040 A 
ATOM     69  F   UNL     1      -1.783  -7.181  11.239  1.00  0.00    -0.206 F 
ATOM     70  C   UNL     1      -1.415  -6.449  14.769  1.00  0.00     0.006 A 
ENDBRANCH  42  63
BRANCH  54  71
ATOM     71  C   UNL     1      -2.498 -15.117  12.404  1.00  0.00     0.057 A 
ATOM     72  C   UNL     1      -3.888 -14.980  12.504  1.00  0.00     0.134 A 
ATOM     73  C   UNL     1      -1.895 -16.144  13.142  1.00  0.00     0.134 A 
ATOM     74  F   UNL     1      -4.526 -14.009  11.832  1.00  0.00    -0.206 F 
ATOM     75  C   UNL     1      -4.645 -15.813  13.329  1.00  0.00     0.040 A 
ATOM     76  C   UNL     1      -2.644 -17.001  13.948  1.00  0.00     0.040 A 
ATOM     77  F   UNL     1      -0.568 -16.337  13.084  1.00  0.00    -0.206 F 
ATOM     78  C   UNL     1      -4.023 -16.831  14.050  1.00  0.00     0.006 A 
ENDBRANCH  54  71
ENDBRANCH  28  29
ENDBRANCH  20  23
ENDBRANCH  18  19
ENDBRANCH  17  18
ENDBRANCH   1  17
TORSDOF 14
