REMARK SMILES O=C(NCCCCCCNC(=O)[C@H]1CCN1C(=O)OCC1c2ccccc2-c2ccccc21)c1ccc(-c2c3nc(c(-c4c(F)cccc4F)c4ccc([nH]4)c(-c4c(F)cccc4F)c4nc(c(-c5c(F)cccc5F)c5ccc2[nH]5)C=C4)C=C3)cc1
REMARK SMILES IDX 7 1 6 2 5 3 4 4 3 5 1 6 2 7 34 9 35 10 87 11 36 12 86 13
REMARK SMILES IDX 37 14 38 15 39 16 80 17 40 18 85 19 79 20 81 21 41 22 84 23
REMARK SMILES IDX 78 24 77 25 42 27 68 28 51 29 67 30 52 31 55 32 66 33 82 34
REMARK SMILES IDX 53 35 54 36 65 38 83 39 56 40 43 41 44 42 49 43 45 44 46 45
REMARK SMILES IDX 48 46 50 47 47 48 69 49 70 50 75 51 71 52 72 53 74 54 76 55
REMARK SMILES IDX 73 56 57 57 58 58 63 59 59 60 60 61 62 62 64 63 61 64 8 65
REMARK SMILES IDX 9 66 10 67 11 68 12 70 13 71 14 72 16 73 15 74 17 75 18 76
REMARK SMILES IDX 19 77 20 78 21 79 22 80 33 81 23 82 27 83 28 84 32 85 24 86
REMARK SMILES IDX 26 87 29 88 31 89 25 90 30 91
REMARK H PARENT 3 8 81 26 55 37 10 69
REMARK Flexibility Score: inf
ROOT
ATOM      1  C   UNL     1       7.411   9.253  -0.384  1.00  0.00     0.002 C 
ENDROOT
BRANCH   1   2
ATOM      2  C   UNL     1       6.039   8.890  -0.962  1.00  0.00     0.002 C 
BRANCH   2   3
ATOM      3  C   UNL     1       4.848   9.626  -0.345  1.00  0.00     0.021 C 
BRANCH   3   4
ATOM      4  C   UNL     1       4.921  11.145  -0.431  1.00  0.00     0.116 C 
BRANCH   4   5
ATOM      5  N   UNL     1       4.795  11.623  -1.796  1.00  0.00    -0.352 N 
ATOM      6  O   UNL     1       3.857  12.770  -3.497  1.00  0.00    -0.269 OA
ATOM      7  C   UNL     1       3.969  12.603  -2.287  1.00  0.00     0.251 C 
ATOM      8  H   UNL     1       5.380  11.187  -2.456  1.00  0.00     0.163 HD
BRANCH   7   9
ATOM      9  C   UNL     1       3.201  13.455  -1.353  1.00  0.00     0.039 A 
ATOM     10  C   UNL     1       3.817  14.028  -0.235  1.00  0.00     0.014 A 
ATOM     11  C   UNL     1       1.858  13.723  -1.630  1.00  0.00     0.014 A 
ATOM     12  C   UNL     1       3.070  14.806   0.645  1.00  0.00     0.010 A 
ATOM     13  C   UNL     1       1.124  14.553  -0.779  1.00  0.00     0.010 A 
ATOM     14  C   UNL     1       1.726  15.099   0.365  1.00  0.00    -0.014 A 
BRANCH  14  15
ATOM     15  C   UNL     1       1.004  16.084   1.205  1.00  0.00     0.031 A 
ATOM     16  C   UNL     1      -0.137  15.675   2.089  1.00  0.00     0.074 A 
ATOM     17  C   UNL     1       1.390  17.373   1.141  1.00  0.00     0.049 A 
ATOM     18  N   UNL     1      -0.874  16.421   2.872  1.00  0.00    -0.248 NA
ATOM     19  C   UNL     1      -0.504  14.251   2.095  1.00  0.00     0.031 C 
ATOM     20  C   UNL     1       2.467  17.887   0.290  1.00  0.00     0.029 A 
ATOM     21  N   UNL     1       0.925  18.483   1.796  1.00  0.00    -0.354 N 
ATOM     22  C   UNL     1      -1.802  15.566   3.450  1.00  0.00     0.074 A 
ATOM     23  C   UNL     1      -1.544  14.243   2.920  1.00  0.00     0.031 C 
ATOM     24  C   UNL     1       2.593  19.207   0.490  1.00  0.00     0.029 A 
ATOM     25  C   UNL     1       1.578  19.639   1.442  1.00  0.00     0.049 A 
ATOM     26  H   UNL     1       0.195  18.456   2.456  1.00  0.00     0.167 HD
ATOM     27  C   UNL     1      -2.776  15.864   4.343  1.00  0.00     0.037 A 
ATOM     28  C   UNL     1       1.367  20.912   1.823  1.00  0.00     0.037 A 
ATOM     29  C   UNL     1      -3.011  17.179   4.882  1.00  0.00     0.049 A 
ATOM     30  C   UNL     1       0.270  21.209   2.799  1.00  0.00     0.074 A 
ATOM     31  C   UNL     1      -3.916  17.560   5.858  1.00  0.00     0.029 A 
ATOM     32  N   UNL     1      -2.348  18.328   4.481  1.00  0.00    -0.354 N 
ATOM     33  N   UNL     1      -0.553  20.378   3.391  1.00  0.00    -0.248 NA
ATOM     34  C   UNL     1       0.063  22.619   3.154  1.00  0.00     0.031 C 
ATOM     35  C   UNL     1      -3.830  18.947   6.017  1.00  0.00     0.029 A 
ATOM     36  C   UNL     1      -2.849  19.424   5.164  1.00  0.00     0.049 A 
ATOM     37  H   UNL     1      -1.628  18.360   3.810  1.00  0.00     0.167 HD
ATOM     38  C   UNL     1      -1.375  21.162   4.186  1.00  0.00     0.074 A 
ATOM     39  C   UNL     1      -0.933  22.532   4.023  1.00  0.00     0.031 C 
ATOM     40  C   UNL     1      -2.408  20.782   4.974  1.00  0.00     0.037 A 
BRANCH  27  41
ATOM     41  C   UNL     1      -3.674  14.755   4.800  1.00  0.00     0.057 A 
ATOM     42  C   UNL     1      -3.256  13.809   5.743  1.00  0.00     0.134 A 
ATOM     43  C   UNL     1      -5.002  14.688   4.359  1.00  0.00     0.134 A 
ATOM     44  F   UNL     1      -1.994  13.815   6.199  1.00  0.00    -0.206 F 
ATOM     45  C   UNL     1      -4.127  12.832   6.230  1.00  0.00     0.040 A 
ATOM     46  C   UNL     1      -5.886  13.726   4.849  1.00  0.00     0.040 A 
ATOM     47  F   UNL     1      -5.465  15.570   3.460  1.00  0.00    -0.206 F 
ATOM     48  C   UNL     1      -5.449  12.795   5.790  1.00  0.00     0.006 A 
ENDBRANCH  27  41
BRANCH  28  49
ATOM     49  C   UNL     1       2.198  21.999   1.252  1.00  0.00     0.057 A 
ATOM     50  C   UNL     1       3.146  22.671   2.030  1.00  0.00     0.134 A 
ATOM     51  C   UNL     1       2.066  22.384  -0.088  1.00  0.00     0.134 A 
ATOM     52  F   UNL     1       3.303  22.356   3.324  1.00  0.00    -0.206 F 
ATOM     53  C   UNL     1       3.927  23.698   1.499  1.00  0.00     0.040 A 
ATOM     54  C   UNL     1       2.857  23.393  -0.638  1.00  0.00     0.040 A 
ATOM     55  F   UNL     1       1.178  21.771  -0.884  1.00  0.00    -0.206 F 
ATOM     56  C   UNL     1       3.787  24.057   0.159  1.00  0.00     0.006 A 
ENDBRANCH  28  49
BRANCH  40  57
ATOM     57  C   UNL     1      -3.131  21.868   5.708  1.00  0.00     0.057 A 
ATOM     58  C   UNL     1      -4.025  22.721   5.049  1.00  0.00     0.134 A 
ATOM     59  C   UNL     1      -2.946  22.054   7.083  1.00  0.00     0.134 A 
ATOM     60  F   UNL     1      -4.229  22.603   3.729  1.00  0.00    -0.206 F 
ATOM     61  C   UNL     1      -4.699  23.735   5.731  1.00  0.00     0.040 A 
ATOM     62  C   UNL     1      -3.630  23.051   7.779  1.00  0.00     0.040 A 
ATOM     63  F   UNL     1      -2.106  21.266   7.770  1.00  0.00    -0.206 F 
ATOM     64  C   UNL     1      -4.505  23.898   7.102  1.00  0.00     0.006 A 
ENDBRANCH  40  57
ENDBRANCH  14  15
ENDBRANCH   7   9
ENDBRANCH   4   5
ENDBRANCH   3   4
ENDBRANCH   2   3
ENDBRANCH   1   2
BRANCH   1  65
ATOM     65  C   UNL     1       7.529   9.192   1.145  1.00  0.00     0.021 C 
BRANCH  65  66
ATOM     66  C   UNL     1       7.107   7.863   1.770  1.00  0.00     0.116 C 
BRANCH  66  67
ATOM     67  N   UNL     1       7.958   6.779   1.340  1.00  0.00    -0.354 N 
ATOM     68  C   UNL     1       8.830   6.020   2.079  1.00  0.00     0.243 C 
ATOM     69  H   UNL     1       7.906   6.553   0.383  1.00  0.00     0.163 HD
ATOM     70  O   UNL     1       9.481   5.172   1.455  1.00  0.00    -0.273 OA
BRANCH  68  71
ATOM     71  C   UNL     1       8.951   6.263   3.635  1.00  0.00     0.179 C 
ATOM     72  C   UNL     1       9.790   5.206   4.404  1.00  0.00     0.057 C 
ATOM     73  N   UNL     1      10.013   7.183   4.019  1.00  0.00    -0.296 N 
ATOM     74  C   UNL     1      10.997   6.145   4.233  1.00  0.00     0.126 C 
BRANCH  73  75
ATOM     75  C   UNL     1      10.121   8.529   4.106  1.00  0.00     0.410 C 
ATOM     76  O   UNL     1      11.197   9.115   4.137  1.00  0.00    -0.224 OA
BRANCH  75  77
ATOM     77  O   UNL     1       8.911   9.131   4.233  1.00  0.00    -0.448 OA
BRANCH  77  78
ATOM     78  C   UNL     1       8.916  10.555   4.502  1.00  0.00     0.248 C 
BRANCH  78  79
ATOM     79  C   UNL     1       8.782  10.844   6.013  1.00  0.00     0.088 C 
ATOM     80  C   UNL     1      10.109  11.180   6.697  1.00  0.00    -0.029 A 
ATOM     81  C   UNL     1       7.981  12.122   6.284  1.00  0.00    -0.029 A 
ATOM     82  C   UNL     1      11.226  10.380   6.877  1.00  0.00     0.005 A 
ATOM     83  C   UNL     1      10.083  12.496   7.205  1.00  0.00    -0.014 A 
ATOM     84  C   UNL     1       8.775  13.065   6.971  1.00  0.00    -0.014 A 
ATOM     85  C   UNL     1       6.654  12.393   5.983  1.00  0.00     0.005 A 
ATOM     86  C   UNL     1      12.350  10.927   7.502  1.00  0.00     0.000 A 
ATOM     87  C   UNL     1      11.193  13.038   7.837  1.00  0.00     0.009 A 
ATOM     88  C   UNL     1       8.252  14.290   7.353  1.00  0.00     0.009 A 
ATOM     89  C   UNL     1       6.126  13.629   6.368  1.00  0.00     0.000 A 
ATOM     90  C   UNL     1      12.337  12.248   7.971  1.00  0.00     0.001 A 
ATOM     91  C   UNL     1       6.918  14.570   7.046  1.00  0.00     0.001 A 
ENDBRANCH  78  79
ENDBRANCH  77  78
ENDBRANCH  75  77
ENDBRANCH  73  75
ENDBRANCH  68  71
ENDBRANCH  66  67
ENDBRANCH  65  66
ENDBRANCH   1  65
TORSDOF 17
