REMARK SMILES CCc1ccnc(C(=O)c2[nH]c3ccc(OC(F)(F)F)cc3c2CC(=O)NCCCCCCNC(=O)c2ccc(-c3c4nc(c(-c5c(F)cccc5F)c5ccc([nH]5)c(-c5c(F)cccc5F)c5nc(c(-c6c(F)cccc6F)c6ccc3[nH]6)C=C5)C=C4)cc2)c1
REMARK SMILES IDX 29 1 28 2 27 3 25 4 26 5 24 7 23 8 10 9 11 10 12 11 22 13
REMARK SMILES IDX 13 14 21 15 14 16 15 17 8 18 9 19 7 20 3 21 4 22 91 23 5 24
REMARK SMILES IDX 6 25 2 26 1 27 16 28 17 29 18 30 19 31 20 32 30 33 31 34
REMARK SMILES IDX 32 35 33 36 34 37 35 38 36 40 37 41 38 42 90 43 39 44 89 45
REMARK SMILES IDX 40 46 41 47 42 48 83 49 43 50 88 51 82 52 84 53 44 54 87 55
REMARK SMILES IDX 81 56 80 57 45 59 71 60 54 61 70 62 55 63 58 64 69 65 85 66
REMARK SMILES IDX 56 67 57 68 68 70 86 71 59 72 46 73 47 74 52 75 48 76 49 77
REMARK SMILES IDX 51 78 53 79 50 80 72 81 73 82 78 83 74 84 75 85 77 86 79 87
REMARK SMILES IDX 76 88 60 89 61 90 66 91 62 92 63 93 65 94 67 95 64 96
REMARK H PARENT 27 6 11 12 34 39 84 58 58 69
REMARK Flexibility Score: inf
ROOT
ATOM      1  C   UNL     1      -3.214   8.393  -0.285  1.00  0.00     0.021 C 
ENDROOT
BRANCH   1   2
ATOM      2  C   UNL     1      -2.197   8.552  -1.414  1.00  0.00     0.116 C 
BRANCH   2   3
ATOM      3  N   UNL     1      -0.827   8.497  -0.949  1.00  0.00    -0.356 N 
ATOM      4  C   UNL     1       0.077   7.477  -1.033  1.00  0.00     0.224 C 
ATOM      5  O   UNL     1       1.238   7.692  -0.676  1.00  0.00    -0.275 OA
ATOM      6  H   UNL     1      -0.499   9.314  -0.507  1.00  0.00     0.163 HD
BRANCH   4   7
ATOM      7  C   UNL     1      -0.308   6.147  -1.659  1.00  0.00     0.138 C 
BRANCH   7   8
ATOM      8  C   UNL     1      -1.352   5.367  -0.910  1.00  0.00    -0.002 A 
ATOM      9  C   UNL     1      -1.304   4.936   0.412  1.00  0.00     0.093 A 
ATOM     10  N   UNL     1      -2.501   4.318   0.689  1.00  0.00    -0.352 N 
ATOM     11  C   UNL     1      -3.275   4.229  -0.440  1.00  0.00     0.046 A 
ATOM     12  H   UNL     1      -2.766   3.984   1.577  1.00  0.00     0.167 HD
ATOM     13  C   UNL     1      -2.583   4.872  -1.462  1.00  0.00     0.008 A 
ATOM     14  C   UNL     1      -4.530   3.643  -0.627  1.00  0.00     0.030 A 
ATOM     15  C   UNL     1      -3.181   4.922  -2.739  1.00  0.00     0.057 A 
ATOM     16  C   UNL     1      -5.100   3.710  -1.905  1.00  0.00     0.049 A 
ATOM     17  C   UNL     1      -4.440   4.341  -2.957  1.00  0.00     0.130 A 
BRANCH   9  18
ATOM     18  C   UNL     1      -0.274   5.130   1.417  1.00  0.00     0.227 C 
ATOM     19  O   UNL     1      -0.112   6.224   1.946  1.00  0.00    -0.285 OA
BRANCH  18  20
ATOM     20  C   UNL     1       0.542   3.930   1.845  1.00  0.00     0.113 A 
ATOM     21  C   UNL     1       1.109   1.586   1.760  1.00  0.00    -0.044 A 
ATOM     22  C   UNL     1       2.037   1.820   2.775  1.00  0.00     0.024 A 
ATOM     23  C   UNL     1       0.363   2.668   1.275  1.00  0.00     0.036 A 
ATOM     24  C   UNL     1       2.164   3.105   3.275  1.00  0.00     0.112 A 
ATOM     25  N   UNL     1       1.433   4.153   2.846  1.00  0.00    -0.253 NA
BRANCH  21  26
ATOM     26  C   UNL     1       0.906   0.199   1.205  1.00  0.00     0.032 C 
ATOM     27  C   UNL     1       1.499   0.031  -0.185  1.00  0.00     0.009 C 
ENDBRANCH  21  26
ENDBRANCH  18  20
ENDBRANCH   9  18
BRANCH  17  28
ATOM     28  O   UNL     1      -4.895   4.471  -4.240  1.00  0.00    -0.406 OA
BRANCH  28  29
ATOM     29  C   UNL     1      -6.167   3.929  -4.550  1.00  0.00     0.573 C 
ATOM     30  F   UNL     1      -6.188   2.593  -4.356  1.00  0.00    -0.132 F 
ATOM     31  F   UNL     1      -7.136   4.509  -3.809  1.00  0.00    -0.132 F 
ATOM     32  F   UNL     1      -6.433   4.169  -5.853  1.00  0.00    -0.132 F 
ENDBRANCH  28  29
ENDBRANCH  17  28
ENDBRANCH   7   8
ENDBRANCH   4   7
ENDBRANCH   2   3
ENDBRANCH   1   2
BRANCH   1  33
ATOM     33  C   UNL     1      -3.267   9.557   0.712  1.00  0.00     0.002 C 
BRANCH  33  34
ATOM     34  C   UNL     1      -3.619  10.929   0.127  1.00  0.00     0.002 C 
BRANCH  34  35
ATOM     35  C   UNL     1      -4.898  10.998  -0.715  1.00  0.00     0.021 C 
BRANCH  35  36
ATOM     36  C   UNL     1      -6.180  10.537  -0.020  1.00  0.00     0.116 C 
BRANCH  36  37
ATOM     37  N   UNL     1      -6.548  11.386   1.098  1.00  0.00    -0.352 N 
ATOM     38  C   UNL     1      -7.794  11.782   1.518  1.00  0.00     0.251 C 
ATOM     39  H   UNL     1      -5.795  11.728   1.633  1.00  0.00     0.163 HD
ATOM     40  O   UNL     1      -7.904  12.608   2.418  1.00  0.00    -0.269 OA
BRANCH  38  41
ATOM     41  C   UNL     1      -9.016  11.239   0.880  1.00  0.00     0.039 A 
ATOM     42  C   UNL     1     -10.036  12.132   0.531  1.00  0.00     0.014 A 
ATOM     43  C   UNL     1      -9.193   9.866   0.683  1.00  0.00     0.014 A 
ATOM     44  C   UNL     1     -11.211  11.658  -0.059  1.00  0.00     0.010 A 
ATOM     45  C   UNL     1     -10.361   9.394   0.079  1.00  0.00     0.010 A 
ATOM     46  C   UNL     1     -11.375  10.287  -0.300  1.00  0.00    -0.014 A 
BRANCH  46  47
ATOM     47  C   UNL     1     -12.603   9.771  -0.950  1.00  0.00     0.031 A 
ATOM     48  C   UNL     1     -13.675   9.111  -0.136  1.00  0.00     0.074 A 
ATOM     49  C   UNL     1     -12.733   9.857  -2.286  1.00  0.00     0.049 A 
ATOM     50  N   UNL     1     -14.759   8.500  -0.541  1.00  0.00    -0.248 NA
ATOM     51  C   UNL     1     -13.500   9.130   1.324  1.00  0.00     0.031 C 
ATOM     52  C   UNL     1     -11.761  10.464  -3.195  1.00  0.00     0.029 A 
ATOM     53  N   UNL     1     -13.738   9.418  -3.111  1.00  0.00    -0.354 N 
ATOM     54  C   UNL     1     -15.380   8.032   0.607  1.00  0.00     0.074 A 
ATOM     55  C   UNL     1     -14.561   8.444   1.729  1.00  0.00     0.031 C 
ATOM     56  C   UNL     1     -12.217  10.357  -4.455  1.00  0.00     0.029 A 
ATOM     57  C   UNL     1     -13.501   9.661  -4.440  1.00  0.00     0.049 A 
ATOM     58  H   UNL     1     -14.550   8.970  -2.780  1.00  0.00     0.167 HD
ATOM     59  C   UNL     1     -16.523   7.315   0.717  1.00  0.00     0.037 A 
ATOM     60  C   UNL     1     -14.230   9.347  -5.525  1.00  0.00     0.037 A 
ATOM     61  C   UNL     1     -17.363   6.928  -0.383  1.00  0.00     0.049 A 
ATOM     62  C   UNL     1     -15.524   8.605  -5.371  1.00  0.00     0.074 A 
ATOM     63  C   UNL     1     -18.545   6.206  -0.358  1.00  0.00     0.029 A 
ATOM     64  N   UNL     1     -17.116   7.243  -1.709  1.00  0.00    -0.354 N 
ATOM     65  N   UNL     1     -16.087   8.151  -4.280  1.00  0.00    -0.248 NA
ATOM     66  C   UNL     1     -16.279   8.329  -6.603  1.00  0.00     0.031 C 
ATOM     67  C   UNL     1     -19.015   6.087  -1.672  1.00  0.00     0.029 A 
ATOM     68  C   UNL     1     -18.125   6.737  -2.511  1.00  0.00     0.049 A 
ATOM     69  H   UNL     1     -16.338   7.752  -2.033  1.00  0.00     0.167 HD
ATOM     70  C   UNL     1     -17.259   7.532  -4.690  1.00  0.00     0.074 A 
ATOM     71  C   UNL     1     -17.333   7.676  -6.130  1.00  0.00     0.031 C 
ATOM     72  C   UNL     1     -18.186   6.893  -3.938  1.00  0.00     0.037 A 
BRANCH  59  73
ATOM     73  C   UNL     1     -16.921   6.886   2.092  1.00  0.00     0.057 A 
ATOM     74  C   UNL     1     -17.694   7.708   2.917  1.00  0.00     0.134 A 
ATOM     75  C   UNL     1     -16.543   5.631   2.584  1.00  0.00     0.134 A 
ATOM     76  F   UNL     1     -18.074   8.925   2.501  1.00  0.00    -0.206 F 
ATOM     77  C   UNL     1     -18.076   7.296   4.195  1.00  0.00     0.040 A 
ATOM     78  C   UNL     1     -16.922   5.207   3.857  1.00  0.00     0.040 A 
ATOM     79  F   UNL     1     -15.794   4.805   1.837  1.00  0.00    -0.206 F 
ATOM     80  C   UNL     1     -17.692   6.042   4.666  1.00  0.00     0.006 A 
ENDBRANCH  59  73
BRANCH  60  81
ATOM     81  C   UNL     1     -13.743   9.729  -6.866  1.00  0.00     0.057 A 
ATOM     82  C   UNL     1     -14.165  10.915  -7.473  1.00  0.00     0.134 A 
ATOM     83  C   UNL     1     -12.842   8.919  -7.564  1.00  0.00     0.134 A 
ATOM     84  F   UNL     1     -15.040  11.718  -6.850  1.00  0.00    -0.206 F 
ATOM     85  C   UNL     1     -13.707  11.285  -8.738  1.00  0.00     0.040 A 
ATOM     86  C   UNL     1     -12.372   9.279  -8.827  1.00  0.00     0.040 A 
ATOM     87  F   UNL     1     -12.411   7.768  -7.027  1.00  0.00    -0.206 F 
ATOM     88  C   UNL     1     -12.806  10.466  -9.417  1.00  0.00     0.006 A 
ENDBRANCH  60  81
BRANCH  72  89
ATOM     89  C   UNL     1     -19.354   6.307  -4.662  1.00  0.00     0.057 A 
ATOM     90  C   UNL     1     -19.304   5.009  -5.181  1.00  0.00     0.134 A 
ATOM     91  C   UNL     1     -20.539   7.033  -4.825  1.00  0.00     0.134 A 
ATOM     92  F   UNL     1     -18.190   4.271  -5.062  1.00  0.00    -0.206 F 
ATOM     93  C   UNL     1     -20.398   4.451  -5.844  1.00  0.00     0.040 A 
ATOM     94  C   UNL     1     -21.639   6.486  -5.484  1.00  0.00     0.040 A 
ATOM     95  F   UNL     1     -20.639   8.286  -4.355  1.00  0.00    -0.206 F 
ATOM     96  C   UNL     1     -21.570   5.190  -5.996  1.00  0.00     0.006 A 
ENDBRANCH  72  89
ENDBRANCH  46  47
ENDBRANCH  38  41
ENDBRANCH  36  37
ENDBRANCH  35  36
ENDBRANCH  34  35
ENDBRANCH  33  34
ENDBRANCH   1  33
TORSDOF 19
