REMARK SMILES Cc1nn(C)c(=O)c(C(=O)N2CCCC[C@H]2C(=O)NCCCCCCNC(=O)c2ccc(-c3c4nc(c(-c5c(F)cccc5F)c5ccc([nH]5)c(-c5c(F)cccc5F)c5nc(c(-c6c(F)cccc6F)c6ccc3[nH]6)C=C5)C=C4)cc2)c1C
REMARK SMILES IDX 22 1 21 2 20 3 19 4 17 5 18 6 16 8 11 9 12 10 13 11 15 12
REMARK SMILES IDX 14 13 9 14 10 15 8 16 1 17 2 18 3 19 83 20 4 21 84 22 5 23
REMARK SMILES IDX 6 24 7 25 23 26 24 27 25 28 26 29 27 30 28 32 29 33 30 34
REMARK SMILES IDX 82 35 31 36 81 37 32 38 33 39 34 40 75 41 35 42 80 43 74 44
REMARK SMILES IDX 76 45 36 46 79 47 73 48 72 49 37 51 63 52 46 53 62 54 47 55
REMARK SMILES IDX 50 56 61 57 77 58 48 59 49 60 60 62 78 63 51 64 38 65 39 66
REMARK SMILES IDX 44 67 40 68 41 69 43 70 45 71 42 72 64 73 65 74 70 75 66 76
REMARK SMILES IDX 67 77 69 78 71 79 68 80 52 81 53 82 58 83 54 84 55 85 57 86
REMARK SMILES IDX 59 87 56 88
REMARK H PARENT 19 7 26 31 76 50 50 61
REMARK Flexibility Score: inf
ROOT
ATOM      1  C   UNL     1      -1.401   4.410   3.631  1.00  0.00     0.002 C 
ENDROOT
BRANCH   1   2
ATOM      2  C   UNL     1      -1.150   4.289   2.134  1.00  0.00     0.021 C 
BRANCH   2   3
ATOM      3  C   UNL     1      -0.062   5.196   1.568  1.00  0.00     0.116 C 
BRANCH   3   4
ATOM      4  N   UNL     1       1.284   4.887   2.005  1.00  0.00    -0.354 N 
ATOM      5  C   UNL     1       2.467   4.786   1.333  1.00  0.00     0.242 C 
ATOM      6  O   UNL     1       3.444   4.489   2.035  1.00  0.00    -0.273 OA
ATOM      7  H   UNL     1       1.359   4.716   2.972  1.00  0.00     0.163 HD
BRANCH   5   8
ATOM      8  C   UNL     1       2.656   4.938  -0.228  1.00  0.00     0.174 C 
ATOM      9  N   UNL     1       1.517   5.322  -1.080  1.00  0.00    -0.326 N 
ATOM     10  C   UNL     1       1.158   6.766  -1.062  1.00  0.00     0.120 C 
ATOM     11  C   UNL     1       2.317   7.761  -1.019  1.00  0.00     0.022 C 
ATOM     12  C   UNL     1       3.839   5.910  -0.426  1.00  0.00     0.035 C 
ATOM     13  C   UNL     1       3.424   7.333  -0.075  1.00  0.00     0.004 C 
BRANCH   9  14
ATOM     14  C   UNL     1       0.605   4.468  -1.724  1.00  0.00     0.260 C 
ATOM     15  O   UNL     1      -0.470   4.957  -2.106  1.00  0.00    -0.269 OA
BRANCH  14  16
ATOM     16  C   UNL     1       0.740   2.963  -1.975  1.00  0.00     0.111 A 
ATOM     17  C   UNL     1       0.899  -0.572  -0.511  1.00  0.00     0.069 C 
ATOM     18  C   UNL     1       0.628   0.571  -1.473  1.00  0.00     0.062 A 
ATOM     19  N   UNL     1       0.027   0.244  -2.565  1.00  0.00    -0.175 NA
ATOM     20  C   UNL     1       0.977   1.975  -1.079  1.00  0.00    -0.010 A 
ATOM     21  N   UNL     1      -0.216   1.226  -3.470  1.00  0.00    -0.232 N 
ATOM     22  C   UNL     1       1.347   2.117   0.349  1.00  0.00     0.047 C 
ATOM     23  C   UNL     1      -0.925   0.782  -4.659  1.00  0.00     0.178 C 
ATOM     24  C   UNL     1       0.247   2.531  -3.345  1.00  0.00     0.279 A 
ATOM     25  O   UNL     1       0.259   3.320  -4.291  1.00  0.00    -0.267 OA
ENDBRANCH  14  16
ENDBRANCH   9  14
ENDBRANCH   5   8
ENDBRANCH   3   4
ENDBRANCH   2   3
ENDBRANCH   1   2
BRANCH   1  26
ATOM     26  C   UNL     1      -1.531   5.838   4.160  1.00  0.00     0.002 C 
BRANCH  26  27
ATOM     27  C   UNL     1      -2.522   6.742   3.422  1.00  0.00     0.021 C 
BRANCH  27  28
ATOM     28  C   UNL     1      -3.924   6.174   3.247  1.00  0.00     0.116 C 
BRANCH  28  29
ATOM     29  N   UNL     1      -4.535   5.816   4.514  1.00  0.00    -0.352 N 
ATOM     30  C   UNL     1      -5.737   6.212   5.035  1.00  0.00     0.251 C 
ATOM     31  H   UNL     1      -4.011   5.203   5.078  1.00  0.00     0.163 HD
ATOM     32  O   UNL     1      -6.021   5.953   6.204  1.00  0.00    -0.269 OA
BRANCH  30  33
ATOM     33  C   UNL     1      -6.686   6.971   4.197  1.00  0.00     0.039 A 
ATOM     34  C   UNL     1      -7.296   8.107   4.732  1.00  0.00     0.014 A 
ATOM     35  C   UNL     1      -6.970   6.565   2.889  1.00  0.00     0.014 A 
ATOM     36  C   UNL     1      -8.151   8.869   3.937  1.00  0.00     0.010 A 
ATOM     37  C   UNL     1      -7.766   7.364   2.076  1.00  0.00     0.010 A 
ATOM     38  C   UNL     1      -8.368   8.521   2.594  1.00  0.00    -0.014 A 
BRANCH  38  39
ATOM     39  C   UNL     1      -9.225   9.351   1.714  1.00  0.00     0.031 A 
ATOM     40  C   UNL     1     -10.508   8.792   1.170  1.00  0.00     0.074 A 
ATOM     41  C   UNL     1      -8.820  10.588   1.367  1.00  0.00     0.049 A 
ATOM     42  N   UNL     1     -11.353   9.332   0.330  1.00  0.00    -0.248 NA
ATOM     43  C   UNL     1     -10.882   7.439   1.613  1.00  0.00     0.031 C 
ATOM     44  C   UNL     1      -7.583  11.229   1.817  1.00  0.00     0.029 A 
ATOM     45  N   UNL     1      -9.402  11.524   0.550  1.00  0.00    -0.354 N 
ATOM     46  C   UNL     1     -12.355   8.388   0.145  1.00  0.00     0.074 A 
ATOM     47  C   UNL     1     -11.984   7.219   0.912  1.00  0.00     0.031 C 
ATOM     48  C   UNL     1      -7.513  12.463   1.292  1.00  0.00     0.029 A 
ATOM     49  C   UNL     1      -8.673  12.682   0.434  1.00  0.00     0.049 A 
ATOM     50  H   UNL     1     -10.261  11.379   0.092  1.00  0.00     0.167 HD
ATOM     51  C   UNL     1     -13.492   8.497  -0.580  1.00  0.00     0.037 A 
ATOM     52  C   UNL     1      -8.910  13.793  -0.290  1.00  0.00     0.037 A 
ATOM     53  C   UNL     1     -13.858   9.667  -1.335  1.00  0.00     0.049 A 
ATOM     54  C   UNL     1     -10.158  13.871  -1.125  1.00  0.00     0.074 A 
ATOM     55  C   UNL     1     -15.001   9.884  -2.084  1.00  0.00     0.029 A 
ATOM     56  N   UNL     1     -13.087  10.815  -1.439  1.00  0.00    -0.354 N 
ATOM     57  N   UNL     1     -11.115  12.986  -1.264  1.00  0.00    -0.248 NA
ATOM     58  C   UNL     1     -10.362  15.102  -1.900  1.00  0.00     0.031 C 
ATOM     59  C   UNL     1     -14.899  11.144  -2.680  1.00  0.00     0.029 A 
ATOM     60  C   UNL     1     -13.722  11.737  -2.255  1.00  0.00     0.049 A 
ATOM     61  H   UNL     1     -12.218  10.954  -0.998  1.00  0.00     0.167 HD
ATOM     62  C   UNL     1     -12.049  13.563  -2.114  1.00  0.00     0.074 A 
ATOM     63  C   UNL     1     -11.548  14.880  -2.451  1.00  0.00     0.031 C 
ATOM     64  C   UNL     1     -13.217  13.050  -2.572  1.00  0.00     0.037 A 
BRANCH  51  65
ATOM     65  C   UNL     1     -14.433   7.327  -0.585  1.00  0.00     0.057 A 
ATOM     66  C   UNL     1     -15.173   6.973   0.551  1.00  0.00     0.134 A 
ATOM     67  C   UNL     1     -14.652   6.586  -1.754  1.00  0.00     0.134 A 
ATOM     68  F   UNL     1     -15.002   7.633   1.707  1.00  0.00    -0.206 F 
ATOM     69  C   UNL     1     -16.085   5.917   0.530  1.00  0.00     0.040 A 
ATOM     70  C   UNL     1     -15.583   5.547  -1.795  1.00  0.00     0.040 A 
ATOM     71  F   UNL     1     -13.982   6.874  -2.879  1.00  0.00    -0.206 F 
ATOM     72  C   UNL     1     -16.300   5.207  -0.650  1.00  0.00     0.006 A 
ENDBRANCH  51  65
BRANCH  52  73
ATOM     73  C   UNL     1      -7.959  14.932  -0.226  1.00  0.00     0.057 A 
ATOM     74  C   UNL     1      -8.315  16.131   0.402  1.00  0.00     0.134 A 
ATOM     75  C   UNL     1      -6.670  14.846  -0.766  1.00  0.00     0.134 A 
ATOM     76  F   UNL     1      -9.541  16.282   0.923  1.00  0.00    -0.206 F 
ATOM     77  C   UNL     1      -7.429  17.207   0.482  1.00  0.00     0.040 A 
ATOM     78  C   UNL     1      -5.764  15.904  -0.669  1.00  0.00     0.040 A 
ATOM     79  F   UNL     1      -6.263  13.722  -1.373  1.00  0.00    -0.206 F 
ATOM     80  C   UNL     1      -6.145  17.091  -0.047  1.00  0.00     0.006 A 
ENDBRANCH  52  73
BRANCH  64  81
ATOM     81  C   UNL     1     -14.061  13.921  -3.456  1.00  0.00     0.057 A 
ATOM     82  C   UNL     1     -13.694  14.216  -4.775  1.00  0.00     0.134 A 
ATOM     83  C   UNL     1     -15.292  14.413  -3.002  1.00  0.00     0.134 A 
ATOM     84  F   UNL     1     -12.524  13.784  -5.269  1.00  0.00    -0.206 F 
ATOM     85  C   UNL     1     -14.514  14.984  -5.605  1.00  0.00     0.040 A 
ATOM     86  C   UNL     1     -16.133  15.155  -3.832  1.00  0.00     0.040 A 
ATOM     87  F   UNL     1     -15.710  14.158  -1.753  1.00  0.00    -0.206 F 
ATOM     88  C   UNL     1     -15.742  15.446  -5.136  1.00  0.00     0.006 A 
ENDBRANCH  64  81
ENDBRANCH  38  39
ENDBRANCH  30  33
ENDBRANCH  28  29
ENDBRANCH  27  28
ENDBRANCH  26  27
ENDBRANCH   1  26
TORSDOF 15
