REMARK SMILES CNC(=O)NC1=[NH+]N=CN[C@@H]1C(=O)NCCCCCCNC(=O)c1ccc(-c2c3nc(c(-c4c(F)cccc4F)c4ccc([nH]4)c(-c4c(F)cccc4F)c4nc(c(-c5c(F)cccc5F)c5ccc2[nH]5)C=C4)C=C3)cc1
REMARK SMILES IDX 18 1 17 2 16 3 15 4 14 5 12 6 13 7 11 9 1 10 2 11 3 12 4 14
REMARK SMILES IDX 5 15 6 16 7 18 8 19 10 21 9 22 19 24 20 25 21 26 22 27 23 29
REMARK SMILES IDX 24 30 25 31 77 32 26 33 76 34 27 35 28 36 29 37 70 38 30 39
REMARK SMILES IDX 75 40 69 41 71 42 31 43 74 44 68 45 67 46 32 48 58 49 41 50
REMARK SMILES IDX 57 51 42 52 45 53 56 54 72 55 43 56 44 57 55 59 73 60 46 61
REMARK SMILES IDX 33 62 34 63 39 64 35 65 36 66 38 67 40 68 37 69 59 70 60 71
REMARK SMILES IDX 65 72 61 73 62 74 64 75 66 76 63 77 47 78 48 79 53 80 49 81
REMARK SMILES IDX 50 82 52 83 54 84 51 85
REMARK H PARENT 14 8 2 13 5 17 7 20 10 23 21 28 71 47 45 58
REMARK Flexibility Score: inf
ROOT
ATOM      1  C   UNL     1      -4.718   2.909   4.886  1.00  0.00     0.002 C 
ENDROOT
BRANCH   1   2
ATOM      2  C   UNL     1      -3.937   3.692   3.826  1.00  0.00     0.002 C 
BRANCH   2   3
ATOM      3  C   UNL     1      -2.454   3.320   3.720  1.00  0.00     0.021 C 
BRANCH   3   4
ATOM      4  C   UNL     1      -2.219   1.829   3.487  1.00  0.00     0.116 C 
BRANCH   4   5
ATOM      5  N   UNL     1      -2.618   1.444   2.150  1.00  0.00    -0.354 N 
ATOM      6  C   UNL     1      -1.856   1.163   1.056  1.00  0.00     0.255 C 
ATOM      7  O   UNL     1      -2.453   1.010  -0.015  1.00  0.00    -0.272 OA
ATOM      8  H   UNL     1      -3.590   1.374   2.009  1.00  0.00     0.163 HD
BRANCH   6   9
ATOM      9  C   UNL     1      -0.322   1.073   1.109  1.00  0.00     0.287 C 
ATOM     10  C   UNL     1       1.820  -0.848  -0.540  1.00  0.00     0.147 C 
ATOM     11  N   UNL     1       0.556  -1.562  -0.542  1.00  0.00    -0.321 N 
ATOM     12  C   UNL     1      -0.224  -1.930   0.509  1.00  0.00     0.406 C 
ATOM     13  H   UNL     1       0.215  -1.815  -1.431  1.00  0.00     0.167 HD
ATOM     14  O   UNL     1      -1.073  -2.806   0.372  1.00  0.00    -0.221 OA
ATOM     15  N   UNL     1       0.009  -1.345   1.719  1.00  0.00    -0.191 N 
ATOM     16  C   UNL     1       0.196  -0.024   2.036  1.00  0.00     0.309 C 
ATOM     17  H   UNL     1       0.049  -1.967   2.481  1.00  0.00     0.317 HD
ATOM     18  N   UNL     1       0.863   0.187   3.131  1.00  0.00    -0.148 N 
ATOM     19  N   UNL     1       1.298   1.494   3.428  1.00  0.00    -0.077 NA
ATOM     20  H   UNL     1       1.062  -0.557   3.745  1.00  0.00     0.342 HD
ATOM     21  N   UNL     1       0.272   2.353   1.467  1.00  0.00    -0.352 N 
ATOM     22  C   UNL     1       1.020   2.442   2.594  1.00  0.00     0.241 C 
ATOM     23  H   UNL     1       0.132   3.143   0.898  1.00  0.00     0.163 HD
ENDBRANCH   6   9
ENDBRANCH   4   5
ENDBRANCH   3   4
ENDBRANCH   2   3
ENDBRANCH   1   2
BRANCH   1  24
ATOM     24  C   UNL     1      -4.111   2.954   6.291  1.00  0.00     0.021 C 
BRANCH  24  25
ATOM     25  C   UNL     1      -3.967   4.359   6.861  1.00  0.00     0.116 C 
BRANCH  25  26
ATOM     26  N   UNL     1      -5.256   5.022   6.983  1.00  0.00    -0.352 N 
ATOM     27  C   UNL     1      -5.837   5.588   8.088  1.00  0.00     0.251 C 
ATOM     28  H   UNL     1      -5.786   5.072   6.154  1.00  0.00     0.163 HD
ATOM     29  O   UNL     1      -7.023   5.895   8.078  1.00  0.00    -0.269 OA
BRANCH  27  30
ATOM     30  C   UNL     1      -5.022   5.817   9.297  1.00  0.00     0.039 A 
ATOM     31  C   UNL     1      -5.554   5.489  10.545  1.00  0.00     0.014 A 
ATOM     32  C   UNL     1      -3.739   6.364   9.196  1.00  0.00     0.014 A 
ATOM     33  C   UNL     1      -4.779   5.666  11.691  1.00  0.00     0.010 A 
ATOM     34  C   UNL     1      -2.940   6.466  10.329  1.00  0.00     0.010 A 
ATOM     35  C   UNL     1      -3.457   6.130  11.589  1.00  0.00    -0.014 A 
BRANCH  35  36
ATOM     36  C   UNL     1      -2.603   6.278  12.792  1.00  0.00     0.031 A 
ATOM     37  C   UNL     1      -2.110   7.637  13.204  1.00  0.00     0.074 A 
ATOM     38  C   UNL     1      -2.227   5.182  13.479  1.00  0.00     0.049 A 
ATOM     39  N   UNL     1      -1.317   7.964  14.193  1.00  0.00    -0.248 NA
ATOM     40  C   UNL     1      -2.545   8.778  12.382  1.00  0.00     0.031 C 
ATOM     41  C   UNL     1      -2.602   3.806  13.148  1.00  0.00     0.029 A 
ATOM     42  N   UNL     1      -1.440   5.053  14.595  1.00  0.00    -0.354 N 
ATOM     43  C   UNL     1      -1.149   9.340  14.102  1.00  0.00     0.074 A 
ATOM     44  C   UNL     1      -1.874   9.779  12.931  1.00  0.00     0.031 C 
ATOM     45  C   UNL     1      -2.068   2.975  14.057  1.00  0.00     0.029 A 
ATOM     46  C   UNL     1      -1.281   3.753  15.009  1.00  0.00     0.049 A 
ATOM     47  H   UNL     1      -1.028   5.819  15.056  1.00  0.00     0.167 HD
ATOM     48  C   UNL     1      -0.472  10.166  14.935  1.00  0.00     0.037 A 
ATOM     49  C   UNL     1      -0.575   3.246  16.037  1.00  0.00     0.037 A 
ATOM     50  C   UNL     1       0.232   9.725  16.111  1.00  0.00     0.049 A 
ATOM     51  C   UNL     1       0.180   4.183  16.938  1.00  0.00     0.074 A 
ATOM     52  C   UNL     1       0.900  10.488  17.052  1.00  0.00     0.029 A 
ATOM     53  N   UNL     1       0.362   8.400  16.503  1.00  0.00    -0.354 N 
ATOM     54  N   UNL     1       0.270   5.490  16.884  1.00  0.00    -0.248 NA
ATOM     55  C   UNL     1       0.925   3.575  18.049  1.00  0.00     0.031 C 
ATOM     56  C   UNL     1       1.479   9.621  17.985  1.00  0.00     0.029 A 
ATOM     57  C   UNL     1       1.122   8.323  17.659  1.00  0.00     0.049 A 
ATOM     58  H   UNL     1      -0.028   7.630  16.030  1.00  0.00     0.167 HD
ATOM     59  C   UNL     1       1.054   5.863  17.969  1.00  0.00     0.074 A 
ATOM     60  C   UNL     1       1.401   4.644  18.671  1.00  0.00     0.031 C 
ATOM     61  C   UNL     1       1.451   7.102  18.350  1.00  0.00     0.037 A 
BRANCH  48  62
ATOM     62  C   UNL     1      -0.461  11.630  14.603  1.00  0.00     0.057 A 
ATOM     63  C   UNL     1      -1.614  12.421  14.703  1.00  0.00     0.134 A 
ATOM     64  C   UNL     1       0.723  12.266  14.209  1.00  0.00     0.134 A 
ATOM     65  F   UNL     1      -2.785  11.874  15.062  1.00  0.00    -0.206 F 
ATOM     66  C   UNL     1      -1.595  13.783  14.397  1.00  0.00     0.040 A 
ATOM     67  C   UNL     1       0.761  13.633  13.930  1.00  0.00     0.040 A 
ATOM     68  F   UNL     1       1.865  11.572  14.098  1.00  0.00    -0.206 F 
ATOM     69  C   UNL     1      -0.403  14.395  14.017  1.00  0.00     0.006 A 
ENDBRANCH  48  62
BRANCH  49  70
ATOM     70  C   UNL     1      -0.565   1.782  16.284  1.00  0.00     0.057 A 
ATOM     71  C   UNL     1      -1.191   1.235  17.410  1.00  0.00     0.134 A 
ATOM     72  C   UNL     1       0.079   0.896  15.411  1.00  0.00     0.134 A 
ATOM     73  F   UNL     1      -1.810   2.033  18.292  1.00  0.00    -0.206 F 
ATOM     74  C   UNL     1      -1.158  -0.136  17.673  1.00  0.00     0.040 A 
ATOM     75  C   UNL     1       0.096  -0.480  15.646  1.00  0.00     0.040 A 
ATOM     76  F   UNL     1       0.690   1.355  14.309  1.00  0.00    -0.206 F 
ATOM     77  C   UNL     1      -0.517  -0.998  16.786  1.00  0.00     0.006 A 
ENDBRANCH  49  70
BRANCH  61  78
ATOM     78  C   UNL     1       2.270   7.205  19.604  1.00  0.00     0.057 A 
ATOM     79  C   UNL     1       3.597   6.763  19.664  1.00  0.00     0.134 A 
ATOM     80  C   UNL     1       1.730   7.788  20.758  1.00  0.00     0.134 A 
ATOM     81  F   UNL     1       4.170   6.184  18.598  1.00  0.00    -0.206 F 
ATOM     82  C   UNL     1       4.350   6.872  20.834  1.00  0.00     0.040 A 
ATOM     83  C   UNL     1       2.482   7.931  21.925  1.00  0.00     0.040 A 
ATOM     84  F   UNL     1       0.468   8.242  20.767  1.00  0.00    -0.206 F 
ATOM     85  C   UNL     1       3.795   7.465  21.967  1.00  0.00     0.006 A 
ENDBRANCH  61  78
ENDBRANCH  35  36
ENDBRANCH  27  30
ENDBRANCH  25  26
ENDBRANCH  24  25
ENDBRANCH   1  24
TORSDOF 13
