REMARK SMILES Cc1ccccc1/C=C1\SC(=O)N(CC(=O)Nc2ccccc2C(=O)NCCCCCCNC(=O)c2ccc(-c3c4nc(c(-c5c(F)cccc5F)c5ccc([nH]5)c(-c5c(F)cccc5F)c5nc(c(-c6c(F)cccc6F)c6ccc3[nH]6)C=C5)C=C4)cc2)C1=O
REMARK SMILES IDX 28 1 27 2 26 3 24 4 25 5 23 7 18 8 19 9 20 10 22 11 21 12
REMARK SMILES IDX 17 13 15 14 16 15 14 17 13 18 8 19 9 20 10 21 90 22 11 23
REMARK SMILES IDX 91 24 12 25 7 26 1 27 2 28 3 29 4 30 6 31 5 32 29 33 30 34
REMARK SMILES IDX 31 35 32 36 33 37 34 38 35 40 36 41 37 42 89 43 38 44 88 45
REMARK SMILES IDX 39 46 40 47 41 48 82 49 42 50 87 51 81 52 83 53 43 54 86 55
REMARK SMILES IDX 80 56 79 57 44 59 70 60 53 61 69 62 54 63 57 64 68 65 84 66
REMARK SMILES IDX 55 67 56 68 67 70 85 71 58 72 45 73 46 74 51 75 47 76 48 77
REMARK SMILES IDX 50 78 52 79 49 80 71 81 72 82 77 83 73 84 74 85 76 86 78 87
REMARK SMILES IDX 75 88 59 89 60 90 65 91 61 92 62 93 64 94 66 95 63 96
REMARK H PARENT 26 6 17 16 33 39 83 58 57 69
REMARK Flexibility Score: inf
ROOT
ATOM      1  C   UNL     1       3.284   0.295  -3.716  1.00  0.00     0.021 C 
ENDROOT
BRANCH   1   2
ATOM      2  C   UNL     1       2.088   1.191  -4.034  1.00  0.00     0.116 C 
BRANCH   2   3
ATOM      3  N   UNL     1       1.782   2.283  -3.119  1.00  0.00    -0.352 N 
ATOM      4  C   UNL     1       1.592   3.640  -3.325  1.00  0.00     0.253 C 
ATOM      5  O   UNL     1       1.124   4.308  -2.407  1.00  0.00    -0.269 OA
ATOM      6  H   UNL     1       1.693   2.005  -2.179  1.00  0.00     0.163 HD
BRANCH   4   7
ATOM      7  C   UNL     1       1.923   4.311  -4.605  1.00  0.00     0.063 A 
ATOM      8  C   UNL     1       2.456   5.614  -4.709  1.00  0.00     0.054 A 
ATOM      9  C   UNL     1       2.591   6.179  -5.998  1.00  0.00     0.027 A 
ATOM     10  C   UNL     1       2.227   5.491  -7.155  1.00  0.00     0.002 A 
ATOM     11  C   UNL     1       1.434   3.699  -5.780  1.00  0.00     0.016 A 
ATOM     12  C   UNL     1       1.626   4.251  -7.044  1.00  0.00     0.001 A 
BRANCH   8  13
ATOM     13  N   UNL     1       2.683   6.556  -3.685  1.00  0.00    -0.324 N 
ATOM     14  C   UNL     1       3.260   6.593  -2.456  1.00  0.00     0.244 C 
ATOM     15  O   UNL     1       3.090   7.635  -1.808  1.00  0.00    -0.273 OA
ATOM     16  H   UNL     1       2.320   7.438  -3.931  1.00  0.00     0.170 HD
BRANCH  14  17
ATOM     17  C   UNL     1       4.261   5.563  -1.964  1.00  0.00     0.230 C 
BRANCH  17  18
ATOM     18  N   UNL     1       3.772   4.415  -1.245  1.00  0.00    -0.259 N 
ATOM     19  C   UNL     1       1.286   2.818   0.678  1.00  0.00     0.029 C 
ATOM     20  C   UNL     1       2.520   3.099   0.226  1.00  0.00     0.083 C 
ATOM     21  S   UNL     1       3.736   2.036  -0.329  1.00  0.00    -0.022 SA
ATOM     22  C   UNL     1       2.914   4.493  -0.163  1.00  0.00     0.268 C 
ATOM     23  C   UNL     1       4.373   3.211  -1.443  1.00  0.00     0.294 C 
ATOM     24  O   UNL     1       2.527   5.496   0.408  1.00  0.00    -0.268 OA
ATOM     25  O   UNL     1       5.261   2.941  -2.250  1.00  0.00    -0.261 OA
BRANCH  19  26
ATOM     26  C   UNL     1       0.548   1.526   0.711  1.00  0.00    -0.021 A 
ATOM     27  C   UNL     1       2.323   0.044   1.853  1.00  0.00     0.045 C 
ATOM     28  C   UNL     1       0.983   0.283   1.217  1.00  0.00    -0.044 A 
ATOM     29  C   UNL     1       0.152  -0.854   1.074  1.00  0.00     0.004 A 
ATOM     30  C   UNL     1      -1.111  -0.769   0.493  1.00  0.00     0.000 A 
ATOM     31  C   UNL     1      -0.750   1.588   0.154  1.00  0.00     0.008 A 
ATOM     32  C   UNL     1      -1.570   0.460   0.047  1.00  0.00     0.001 A 
ENDBRANCH  19  26
ENDBRANCH  17  18
ENDBRANCH  14  17
ENDBRANCH   8  13
ENDBRANCH   4   7
ENDBRANCH   2   3
ENDBRANCH   1   2
BRANCH   1  33
ATOM     33  C   UNL     1       3.295  -0.645  -2.505  1.00  0.00     0.002 C 
BRANCH  33  34
ATOM     34  C   UNL     1       1.975  -0.981  -1.811  1.00  0.00     0.002 C 
BRANCH  34  35
ATOM     35  C   UNL     1       0.991  -1.847  -2.587  1.00  0.00     0.021 C 
BRANCH  35  36
ATOM     36  C   UNL     1       1.453  -3.281  -2.747  1.00  0.00     0.116 C 
BRANCH  36  37
ATOM     37  N   UNL     1       1.056  -4.223  -1.708  1.00  0.00    -0.352 N 
ATOM     38  C   UNL     1       1.380  -5.569  -1.581  1.00  0.00     0.251 C 
ATOM     39  H   UNL     1       0.479  -3.856  -1.000  1.00  0.00     0.163 HD
ATOM     40  O   UNL     1       0.894  -6.226  -0.664  1.00  0.00    -0.269 OA
BRANCH  38  41
ATOM     41  C   UNL     1       2.458  -6.169  -2.424  1.00  0.00     0.039 A 
ATOM     42  C   UNL     1       3.403  -6.957  -1.754  1.00  0.00     0.014 A 
ATOM     43  C   UNL     1       2.792  -5.588  -3.635  1.00  0.00     0.014 A 
ATOM     44  C   UNL     1       4.747  -6.796  -2.063  1.00  0.00     0.010 A 
ATOM     45  C   UNL     1       4.110  -5.258  -3.821  1.00  0.00     0.010 A 
ATOM     46  C   UNL     1       5.077  -5.810  -2.983  1.00  0.00    -0.014 A 
BRANCH  46  47
ATOM     47  C   UNL     1       6.423  -5.366  -3.265  1.00  0.00     0.031 A 
ATOM     48  C   UNL     1       7.100  -6.041  -4.375  1.00  0.00     0.074 A 
ATOM     49  C   UNL     1       6.943  -4.305  -2.614  1.00  0.00     0.049 A 
ATOM     50  N   UNL     1       8.371  -6.121  -4.509  1.00  0.00    -0.248 NA
ATOM     51  C   UNL     1       6.362  -6.767  -5.403  1.00  0.00     0.031 C 
ATOM     52  C   UNL     1       8.158  -3.559  -2.919  1.00  0.00     0.029 A 
ATOM     53  N   UNL     1       6.533  -3.796  -1.379  1.00  0.00    -0.354 N 
ATOM     54  C   UNL     1       8.618  -6.628  -5.766  1.00  0.00     0.074 A 
ATOM     55  C   UNL     1       7.350  -7.137  -6.217  1.00  0.00     0.031 C 
ATOM     56  C   UNL     1       8.563  -2.918  -1.808  1.00  0.00     0.029 A 
ATOM     57  C   UNL     1       7.703  -3.348  -0.719  1.00  0.00     0.049 A 
ATOM     58  H   UNL     1       5.612  -3.758  -1.036  1.00  0.00     0.167 HD
ATOM     59  C   UNL     1       9.843  -6.398  -6.315  1.00  0.00     0.037 A 
ATOM     60  C   UNL     1       8.118  -4.001   0.410  1.00  0.00     0.037 A 
ATOM     61  C   UNL     1      10.709  -5.737  -5.326  1.00  0.00     0.049 A 
ATOM     62  C   UNL     1       9.369  -4.833   0.191  1.00  0.00     0.074 A 
ATOM     63  C   UNL     1      11.060  -4.418  -5.088  1.00  0.00     0.029 A 
ATOM     64  N   UNL     1      11.016  -6.419  -4.160  1.00  0.00    -0.354 N 
ATOM     65  N   UNL     1      10.002  -4.933  -0.948  1.00  0.00    -0.248 NA
ATOM     66  C   UNL     1       9.951  -5.684   1.225  1.00  0.00     0.031 C 
ATOM     67  C   UNL     1      11.545  -4.322  -3.745  1.00  0.00     0.029 A 
ATOM     68  C   UNL     1      11.527  -5.586  -3.182  1.00  0.00     0.049 A 
ATOM     69  H   UNL     1      10.884  -7.388  -4.041  1.00  0.00     0.167 HD
ATOM     70  C   UNL     1      11.020  -5.842  -0.837  1.00  0.00     0.074 A 
ATOM     71  C   UNL     1      10.924  -6.307   0.538  1.00  0.00     0.031 C 
ATOM     72  C   UNL     1      11.850  -6.162  -1.880  1.00  0.00     0.037 A 
BRANCH  59  73
ATOM     73  C   UNL     1      10.172  -6.514  -7.791  1.00  0.00     0.057 A 
ATOM     74  C   UNL     1      11.312  -5.867  -8.305  1.00  0.00     0.134 A 
ATOM     75  C   UNL     1       9.407  -7.175  -8.774  1.00  0.00     0.134 A 
ATOM     76  F   UNL     1      12.199  -5.265  -7.502  1.00  0.00    -0.206 F 
ATOM     77  C   UNL     1      11.607  -5.801  -9.676  1.00  0.00     0.040 A 
ATOM     78  C   UNL     1       9.669  -7.089 -10.150  1.00  0.00     0.040 A 
ATOM     79  F   UNL     1       8.395  -7.989  -8.473  1.00  0.00    -0.206 F 
ATOM     80  C   UNL     1      10.769  -6.389 -10.608  1.00  0.00     0.006 A 
ENDBRANCH  59  73
BRANCH  60  81
ATOM     81  C   UNL     1       6.944  -4.386   1.260  1.00  0.00     0.057 A 
ATOM     82  C   UNL     1       6.106  -3.331   1.674  1.00  0.00     0.134 A 
ATOM     83  C   UNL     1       6.359  -5.646   1.116  1.00  0.00     0.134 A 
ATOM     84  F   UNL     1       6.621  -2.114   1.912  1.00  0.00    -0.206 F 
ATOM     85  C   UNL     1       4.716  -3.453   1.632  1.00  0.00     0.040 A 
ATOM     86  C   UNL     1       4.969  -5.788   1.133  1.00  0.00     0.040 A 
ATOM     87  F   UNL     1       7.099  -6.715   0.791  1.00  0.00    -0.206 F 
ATOM     88  C   UNL     1       4.144  -4.674   1.293  1.00  0.00     0.006 A 
ENDBRANCH  60  81
BRANCH  72  89
ATOM     89  C   UNL     1      13.026  -7.105  -1.753  1.00  0.00     0.057 A 
ATOM     90  C   UNL     1      13.797  -7.208  -0.586  1.00  0.00     0.134 A 
ATOM     91  C   UNL     1      13.491  -7.888  -2.833  1.00  0.00     0.134 A 
ATOM     92  F   UNL     1      13.601  -6.385   0.454  1.00  0.00    -0.206 F 
ATOM     93  C   UNL     1      14.839  -8.133  -0.450  1.00  0.00     0.040 A 
ATOM     94  C   UNL     1      14.565  -8.774  -2.729  1.00  0.00     0.040 A 
ATOM     95  F   UNL     1      12.935  -7.845  -4.050  1.00  0.00    -0.206 F 
ATOM     96  C   UNL     1      15.220  -8.929  -1.521  1.00  0.00     0.006 A 
ENDBRANCH  72  89
ENDBRANCH  46  47
ENDBRANCH  38  41
ENDBRANCH  36  37
ENDBRANCH  35  36
ENDBRANCH  34  35
ENDBRANCH  33  34
ENDBRANCH   1  33
TORSDOF 17
