REMARK SMILES COC(=O)c1ccccc1N1C(=O)/C(=C\c2ccc(-c3ccc(Cl)c(C(=O)NCCCCCCNC(=O)c4ccc(-c5c6nc(c(-c7c(F)cccc7F)c7ccc([nH]7)c(-c7c(F)cccc7F)c7nc(c(-c8c(F)cccc8F)c8ccc5[nH]8)C=C7)C=C6)cc4)c3)o2)SC1=S
REMARK SMILES IDX 30 1 29 2 28 3 26 4 27 5 25 7 20 8 21 9 92 10 22 11 23 12
REMARK SMILES IDX 24 13 19 14 16 15 17 16 93 17 18 18 15 19 11 20 12 21 95 22
REMARK SMILES IDX 13 23 14 24 94 25 96 26 10 27 5 28 6 29 7 30 9 31 8 32 3 33
REMARK SMILES IDX 4 34 2 35 1 36 31 37 32 38 33 39 34 40 35 41 36 42 37 44
REMARK SMILES IDX 38 45 39 46 91 47 40 48 90 49 41 50 42 51 43 52 84 53 44 54
REMARK SMILES IDX 89 55 83 56 85 57 45 58 88 59 82 60 81 61 46 63 72 64 55 65
REMARK SMILES IDX 71 66 56 67 59 68 70 69 86 70 57 71 58 72 69 74 87 75 60 76
REMARK SMILES IDX 47 77 48 78 53 79 49 80 50 81 52 82 54 83 51 84 73 85 74 86
REMARK SMILES IDX 79 87 75 88 76 89 78 90 80 91 77 92 61 93 62 94 67 95 63 96
REMARK SMILES IDX 64 97 66 98 68 99 65 100
REMARK H PARENT 28 6 35 43 85 62 59 73
REMARK Flexibility Score: inf
ROOT
ATOM      1  C   UNL     1      -5.303   1.172  -9.900  1.00  0.00     0.021 C 
ENDROOT
BRANCH   1   2
ATOM      2  C   UNL     1      -4.888   2.552  -9.405  1.00  0.00     0.116 C 
BRANCH   2   3
ATOM      3  N   UNL     1      -5.397   3.673 -10.184  1.00  0.00    -0.352 N 
ATOM      4  C   UNL     1      -5.801   4.940  -9.794  1.00  0.00     0.252 C 
ATOM      5  O   UNL     1      -6.094   5.754 -10.665  1.00  0.00    -0.269 OA
ATOM      6  H   UNL     1      -5.464   3.502 -11.151  1.00  0.00     0.163 HD
BRANCH   4   7
ATOM      7  C   UNL     1      -5.881   5.311  -8.353  1.00  0.00     0.059 A 
ATOM      8  C   UNL     1      -5.040   4.854  -6.113  1.00  0.00     0.018 A 
ATOM      9  C   UNL     1      -6.121   5.543  -5.566  1.00  0.00     0.013 A 
ATOM     10  C   UNL     1      -4.869   4.865  -7.500  1.00  0.00     0.027 A 
ATOM     11  C   UNL     1      -7.044   6.171  -6.409  1.00  0.00     0.022 A 
ATOM     12  C   UNL     1      -6.953   6.024  -7.802  1.00  0.00     0.053 A 
ATOM     13  Cl  UNL     1      -8.234   6.699  -8.742  1.00  0.00    -0.083 Cl
BRANCH   8  14
ATOM     14  C   UNL     1      -4.169   3.986  -5.338  1.00  0.00     0.134 A 
ATOM     15  C   UNL     1      -3.820   2.430  -3.796  1.00  0.00     0.128 A 
ATOM     16  C   UNL     1      -2.678   2.512  -4.583  1.00  0.00     0.051 A 
ATOM     17  O   UNL     1      -4.744   3.317  -4.297  1.00  0.00    -0.457 OA
ATOM     18  C   UNL     1      -2.883   3.534  -5.531  1.00  0.00     0.051 A 
BRANCH  15  19
ATOM     19  C   UNL     1      -4.038   1.628  -2.645  1.00  0.00     0.068 C 
ATOM     20  N   UNL     1      -1.911   2.903   0.034  1.00  0.00    -0.260 N 
ATOM     21  C   UNL     1      -2.434   2.988  -1.248  1.00  0.00     0.270 C 
ATOM     22  C   UNL     1      -2.374   1.873   0.831  1.00  0.00     0.152 C 
ATOM     23  O   UNL     1      -2.170   3.862  -2.064  1.00  0.00    -0.268 OA
ATOM     24  C   UNL     1      -3.376   1.861  -1.503  1.00  0.00     0.084 C 
ATOM     25  S   UNL     1      -3.504   0.876  -0.096  1.00  0.00    -0.054 SA
ATOM     26  S   UNL     1      -2.078   1.580   2.449  1.00  0.00    -0.051 S 
BRANCH  20  27
ATOM     27  C   UNL     1      -0.973   3.901   0.429  1.00  0.00     0.065 A 
ATOM     28  C   UNL     1       0.362   3.636   0.784  1.00  0.00     0.084 A 
ATOM     29  C   UNL     1       1.221   4.712   1.078  1.00  0.00     0.018 A 
ATOM     30  C   UNL     1       0.776   6.033   0.997  1.00  0.00     0.001 A 
ATOM     31  C   UNL     1      -1.402   5.244   0.352  1.00  0.00     0.028 A 
ATOM     32  C   UNL     1      -0.537   6.299   0.631  1.00  0.00     0.002 A 
BRANCH  28  33
ATOM     33  C   UNL     1       1.001   2.292   0.798  1.00  0.00     0.339 C 
ATOM     34  O   UNL     1       1.948   2.015   1.510  1.00  0.00    -0.246 OA
BRANCH  33  35
ATOM     35  O   UNL     1       0.438   1.473  -0.129  1.00  0.00    -0.465 OA
ATOM     36  C   UNL     1       1.007   0.161  -0.151  1.00  0.00     0.282 C 
ENDBRANCH  33  35
ENDBRANCH  28  33
ENDBRANCH  20  27
ENDBRANCH  15  19
ENDBRANCH   8  14
ENDBRANCH   4   7
ENDBRANCH   2   3
ENDBRANCH   1   2
BRANCH   1  37
ATOM     37  C   UNL     1      -4.845   0.779 -11.303  1.00  0.00     0.002 C 
BRANCH  37  38
ATOM     38  C   UNL     1      -3.347   0.892 -11.598  1.00  0.00     0.002 C 
BRANCH  38  39
ATOM     39  C   UNL     1      -2.398   0.190 -10.624  1.00  0.00     0.021 C 
BRANCH  39  40
ATOM     40  C   UNL     1      -2.673  -1.287 -10.362  1.00  0.00     0.116 C 
BRANCH  40  41
ATOM     41  N   UNL     1      -2.596  -2.100 -11.561  1.00  0.00    -0.352 N 
ATOM     42  C   UNL     1      -1.946  -3.289 -11.781  1.00  0.00     0.251 C 
ATOM     43  H   UNL     1      -3.087  -1.745 -12.337  1.00  0.00     0.163 HD
ATOM     44  O   UNL     1      -1.897  -3.749 -12.919  1.00  0.00    -0.269 OA
BRANCH  42  45
ATOM     45  C   UNL     1      -1.289  -4.021 -10.672  1.00  0.00     0.039 A 
ATOM     46  C   UNL     1      -0.070  -4.658 -10.926  1.00  0.00     0.014 A 
ATOM     47  C   UNL     1      -1.884  -4.145  -9.413  1.00  0.00     0.014 A 
ATOM     48  C   UNL     1       0.559  -5.396  -9.919  1.00  0.00     0.010 A 
ATOM     49  C   UNL     1      -1.220  -4.819  -8.387  1.00  0.00     0.010 A 
ATOM     50  C   UNL     1      -0.005  -5.474  -8.637  1.00  0.00    -0.014 A 
BRANCH  50  51
ATOM     51  C   UNL     1       0.635  -6.292  -7.572  1.00  0.00     0.031 A 
ATOM     52  C   UNL     1      -0.071  -7.509  -7.032  1.00  0.00     0.074 A 
ATOM     53  C   UNL     1       1.833  -5.931  -7.071  1.00  0.00     0.049 A 
ATOM     54  N   UNL     1       0.305  -8.333  -6.085  1.00  0.00    -0.248 NA
ATOM     55  C   UNL     1      -1.385  -7.829  -7.613  1.00  0.00     0.031 C 
ATOM     56  C   UNL     1       2.601  -4.752  -7.475  1.00  0.00     0.029 A 
ATOM     57  N   UNL     1       2.614  -6.521  -6.108  1.00  0.00    -0.354 N 
ATOM     58  C   UNL     1      -0.730  -9.251  -5.948  1.00  0.00     0.074 A 
ATOM     59  C   UNL     1      -1.772  -8.855  -6.869  1.00  0.00     0.031 C 
ATOM     60  C   UNL     1       3.752  -4.718  -6.782  1.00  0.00     0.029 A 
ATOM     61  C   UNL     1       3.792  -5.854  -5.867  1.00  0.00     0.049 A 
ATOM     62  H   UNL     1       2.355  -7.345  -5.635  1.00  0.00     0.167 HD
ATOM     63  C   UNL     1      -0.796 -10.341  -5.146  1.00  0.00     0.037 A 
ATOM     64  C   UNL     1       4.789  -6.130  -5.006  1.00  0.00     0.037 A 
ATOM     65  C   UNL     1       0.259 -10.762  -4.263  1.00  0.00     0.049 A 
ATOM     66  C   UNL     1       4.699  -7.364  -4.147  1.00  0.00     0.074 A 
ATOM     67  C   UNL     1       0.311 -11.886  -3.457  1.00  0.00     0.029 A 
ATOM     68  N   UNL     1       1.451 -10.081  -4.078  1.00  0.00    -0.354 N 
ATOM     69  N   UNL     1       3.743  -8.258  -4.080  1.00  0.00    -0.248 NA
ATOM     70  C   UNL     1       5.836  -7.634  -3.255  1.00  0.00     0.031 C 
ATOM     71  C   UNL     1       1.519 -11.865  -2.754  1.00  0.00     0.029 A 
ATOM     72  C   UNL     1       2.240 -10.754  -3.160  1.00  0.00     0.049 A 
ATOM     73  H   UNL     1       1.700  -9.243  -4.530  1.00  0.00     0.167 HD
ATOM     74  C   UNL     1       4.181  -9.215  -3.172  1.00  0.00     0.074 A 
ATOM     75  C   UNL     1       5.494  -8.799  -2.727  1.00  0.00     0.031 C 
ATOM     76  C   UNL     1       3.554 -10.338  -2.745  1.00  0.00     0.037 A 
BRANCH  63  77
ATOM     77  C   UNL     1      -2.049 -11.168  -5.193  1.00  0.00     0.057 A 
ATOM     78  C   UNL     1      -2.363 -11.972  -6.296  1.00  0.00     0.134 A 
ATOM     79  C   UNL     1      -2.920 -11.207  -4.096  1.00  0.00     0.134 A 
ATOM     80  F   UNL     1      -1.578 -11.972  -7.384  1.00  0.00    -0.206 F 
ATOM     81  C   UNL     1      -3.507 -12.773  -6.314  1.00  0.00     0.040 A 
ATOM     82  C   UNL     1      -4.052 -12.024  -4.091  1.00  0.00     0.040 A 
ATOM     83  F   UNL     1      -2.675 -10.465  -3.005  1.00  0.00    -0.206 F 
ATOM     84  C   UNL     1      -4.350 -12.807  -5.204  1.00  0.00     0.006 A 
ENDBRANCH  63  77
BRANCH  64  85
ATOM     85  C   UNL     1       5.979  -5.243  -4.920  1.00  0.00     0.057 A 
ATOM     86  C   UNL     1       7.241  -5.681  -5.340  1.00  0.00     0.134 A 
ATOM     87  C   UNL     1       5.893  -3.959  -4.370  1.00  0.00     0.134 A 
ATOM     88  F   UNL     1       7.391  -6.909  -5.857  1.00  0.00    -0.206 F 
ATOM     89  C   UNL     1       8.380  -4.890  -5.183  1.00  0.00     0.040 A 
ATOM     90  C   UNL     1       7.019  -3.145  -4.234  1.00  0.00     0.040 A 
ATOM     91  F   UNL     1       4.712  -3.476  -3.957  1.00  0.00    -0.206 F 
ATOM     92  C   UNL     1       8.270  -3.616  -4.629  1.00  0.00     0.006 A 
ENDBRANCH  64  85
BRANCH  76  93
ATOM     93  C   UNL     1       4.305 -11.223  -1.793  1.00  0.00     0.057 A 
ATOM     94  C   UNL     1       4.546 -10.852  -0.464  1.00  0.00     0.134 A 
ATOM     95  C   UNL     1       4.775 -12.475  -2.210  1.00  0.00     0.134 A 
ATOM     96  F   UNL     1       4.131  -9.662  -0.005  1.00  0.00    -0.206 F 
ATOM     97  C   UNL     1       5.259 -11.679   0.406  1.00  0.00     0.040 A 
ATOM     98  C   UNL     1       5.463 -13.323  -1.342  1.00  0.00     0.040 A 
ATOM     99  F   UNL     1       4.568 -12.898  -3.466  1.00  0.00    -0.206 F 
ATOM    100  C   UNL     1       5.715 -12.921  -0.032  1.00  0.00     0.006 A 
ENDBRANCH  76  93
ENDBRANCH  50  51
ENDBRANCH  42  45
ENDBRANCH  40  41
ENDBRANCH  39  40
ENDBRANCH  38  39
ENDBRANCH  37  38
ENDBRANCH   1  37
TORSDOF 18
