REMARK SMILES Cc1c(Br)c(C)c2c(c1Br)O[C@H](C(F)(F)F)C(C(=O)NCCCCCCNC(=O)c1ccc(-c3c4nc(c(-c5c(F)cccc5F)c5ccc([nH]5)c(-c5c(F)cccc5F)c5nc(c(-c6c(F)cccc6F)c6ccc3[nH]6)C=C5)C=C4)cc1)=C2
REMARK SMILES IDX 24 1 23 2 22 3 21 4 20 5 18 6 19 7 17 9 1 10 2 11 3 12 9 13
REMARK SMILES IDX 4 14 5 15 8 16 10 17 6 18 7 19 11 20 84 21 12 22 13 23 14 24
REMARK SMILES IDX 15 25 16 26 25 27 26 28 27 29 28 30 29 32 30 33 31 34 83 35
REMARK SMILES IDX 32 36 82 37 33 38 34 39 35 40 76 41 36 42 81 43 75 44 77 45
REMARK SMILES IDX 37 46 80 47 74 48 73 49 38 51 64 52 47 53 63 54 48 55 51 56
REMARK SMILES IDX 62 57 78 58 49 59 50 60 61 62 79 63 52 64 39 65 40 66 45 67
REMARK SMILES IDX 41 68 42 69 44 70 46 71 43 72 65 73 66 74 71 75 67 76 68 77
REMARK SMILES IDX 70 78 72 79 69 80 53 81 54 82 59 83 55 84 56 85 58 86 60 87
REMARK SMILES IDX 57 88
REMARK H PARENT 20 8 27 31 77 50 51 61
REMARK Flexibility Score: inf
ROOT
ATOM      1  C   UNL     1      -3.782   4.510  10.027  1.00  0.00     0.002 C 
ENDROOT
BRANCH   1   2
ATOM      2  C   UNL     1      -2.267   4.555   9.786  1.00  0.00     0.002 C 
BRANCH   2   3
ATOM      3  C   UNL     1      -1.760   3.601   8.702  1.00  0.00     0.021 C 
BRANCH   3   4
ATOM      4  C   UNL     1      -2.453   3.790   7.358  1.00  0.00     0.116 C 
BRANCH   4   5
ATOM      5  N   UNL     1      -1.841   4.854   6.583  1.00  0.00    -0.352 N 
ATOM      6  C   UNL     1      -1.237   4.980   5.379  1.00  0.00     0.251 C 
ATOM      7  O   UNL     1      -0.870   6.124   5.090  1.00  0.00    -0.270 OA
ATOM      8  H   UNL     1      -1.875   5.713   7.061  1.00  0.00     0.163 HD
BRANCH   6   9
ATOM      9  C   UNL     1      -0.995   3.862   4.418  1.00  0.00     0.067 C 
ATOM     10  C   UNL     1       1.111  -0.135  -0.355  1.00  0.00     0.047 C 
ATOM     11  C   UNL     1       0.727   0.986   0.583  1.00  0.00    -0.019 A 
ATOM     12  C   UNL     1       1.091   2.326   0.285  1.00  0.00     0.025 A 
ATOM     13  C   UNL     1       0.024   0.743   1.774  1.00  0.00     0.064 A 
ATOM     14  Br  UNL     1       2.067   2.666  -1.336  1.00  0.00    -0.050 Br
ATOM     15  C   UNL     1       0.770   3.401   1.154  1.00  0.00    -0.026 A 
ATOM     16  C   UNL     1      -0.293   1.799   2.644  1.00  0.00     0.142 A 
ATOM     17  Br  UNL     1      -0.532  -1.022   2.277  1.00  0.00    -0.046 Br
ATOM     18  C   UNL     1       1.149   4.834   0.851  1.00  0.00     0.046 C 
ATOM     19  C   UNL     1       0.084   3.117   2.359  1.00  0.00     0.022 A 
ATOM     20  O   UNL     1      -0.931   1.461   3.805  1.00  0.00    -0.474 OA
ATOM     21  C   UNL     1      -0.208   4.147   3.365  1.00  0.00     0.026 C 
ATOM     22  C   UNL     1      -1.587   2.499   4.560  1.00  0.00     0.314 C 
BRANCH  22  23
ATOM     23  C   UNL     1      -3.099   2.466   4.274  1.00  0.00     0.429 C 
ATOM     24  F   UNL     1      -3.652   1.333   4.775  1.00  0.00    -0.167 F 
ATOM     25  F   UNL     1      -3.761   3.497   4.850  1.00  0.00    -0.167 F 
ATOM     26  F   UNL     1      -3.376   2.508   2.952  1.00  0.00    -0.167 F 
ENDBRANCH  22  23
ENDBRANCH   6   9
ENDBRANCH   4   5
ENDBRANCH   3   4
ENDBRANCH   2   3
ENDBRANCH   1   2
BRANCH   1  27
ATOM     27  C   UNL     1      -4.364   3.110  10.236  1.00  0.00     0.021 C 
BRANCH  27  28
ATOM     28  C   UNL     1      -3.737   2.340  11.392  1.00  0.00     0.116 C 
BRANCH  28  29
ATOM     29  N   UNL     1      -3.911   3.036  12.656  1.00  0.00    -0.352 N 
ATOM     30  C   UNL     1      -4.557   2.619  13.789  1.00  0.00     0.251 C 
ATOM     31  H   UNL     1      -3.508   3.933  12.704  1.00  0.00     0.163 HD
ATOM     32  O   UNL     1      -4.818   3.417  14.686  1.00  0.00    -0.269 OA
BRANCH  30  33
ATOM     33  C   UNL     1      -4.948   1.203  13.921  1.00  0.00     0.039 A 
ATOM     34  C   UNL     1      -6.228   0.894  14.384  1.00  0.00     0.014 A 
ATOM     35  C   UNL     1      -4.045   0.186  13.594  1.00  0.00     0.014 A 
ATOM     36  C   UNL     1      -6.618  -0.441  14.478  1.00  0.00     0.010 A 
ATOM     37  C   UNL     1      -4.462  -1.139  13.614  1.00  0.00     0.010 A 
ATOM     38  C   UNL     1      -5.747  -1.466  14.072  1.00  0.00    -0.014 A 
BRANCH  38  39
ATOM     39  C   UNL     1      -6.154  -2.888  14.154  1.00  0.00     0.031 A 
ATOM     40  C   UNL     1      -5.445  -3.814  15.103  1.00  0.00     0.074 A 
ATOM     41  C   UNL     1      -7.137  -3.349  13.358  1.00  0.00     0.049 A 
ATOM     42  N   UNL     1      -5.633  -5.094  15.301  1.00  0.00    -0.248 NA
ATOM     43  C   UNL     1      -4.370  -3.232  15.923  1.00  0.00     0.031 C 
ATOM     44  C   UNL     1      -7.875  -2.550  12.379  1.00  0.00     0.029 A 
ATOM     45  N   UNL     1      -7.687  -4.601  13.249  1.00  0.00    -0.354 N 
ATOM     46  C   UNL     1      -4.705  -5.465  16.265  1.00  0.00     0.074 A 
ATOM     47  C   UNL     1      -3.910  -4.295  16.564  1.00  0.00     0.031 C 
ATOM     48  C   UNL     1      -8.806  -3.322  11.795  1.00  0.00     0.029 A 
ATOM     49  C   UNL     1      -8.704  -4.677  12.329  1.00  0.00     0.049 A 
ATOM     50  H   UNL     1      -7.383  -5.371  13.781  1.00  0.00     0.167 HD
ATOM     51  C   UNL     1      -4.553  -6.665  16.871  1.00  0.00     0.037 A 
ATOM     52  C   UNL     1      -9.467  -5.723  11.958  1.00  0.00     0.037 A 
ATOM     53  C   UNL     1      -5.361  -7.819  16.584  1.00  0.00     0.049 A 
ATOM     54  C   UNL     1      -9.248  -7.058  12.616  1.00  0.00     0.074 A 
ATOM     55  C   UNL     1      -5.312  -9.071  17.172  1.00  0.00     0.029 A 
ATOM     56  N   UNL     1      -6.365  -7.864  15.628  1.00  0.00    -0.354 N 
ATOM     57  N   UNL     1      -8.403  -7.382  13.566  1.00  0.00    -0.248 NA
ATOM     58  C   UNL     1     -10.086  -8.173  12.152  1.00  0.00     0.031 C 
ATOM     59  C   UNL     1      -6.251  -9.887  16.537  1.00  0.00     0.029 A 
ATOM     60  C   UNL     1      -6.923  -9.130  15.590  1.00  0.00     0.049 A 
ATOM     61  H   UNL     1      -6.640  -7.107  15.061  1.00  0.00     0.167 HD
ATOM     62  C   UNL     1      -8.623  -8.728  13.828  1.00  0.00     0.074 A 
ATOM     63  C   UNL     1      -9.693  -9.155  12.951  1.00  0.00     0.031 C 
ATOM     64  C   UNL     1      -7.991  -9.538  14.713  1.00  0.00     0.037 A 
BRANCH  51  65
ATOM     65  C   UNL     1      -3.487  -6.787  17.920  1.00  0.00     0.057 A 
ATOM     66  C   UNL     1      -3.607  -6.158  19.166  1.00  0.00     0.134 A 
ATOM     67  C   UNL     1      -2.360  -7.590  17.708  1.00  0.00     0.134 A 
ATOM     68  F   UNL     1      -4.657  -5.364  19.429  1.00  0.00    -0.206 F 
ATOM     69  C   UNL     1      -2.638  -6.311  20.158  1.00  0.00     0.040 A 
ATOM     70  C   UNL     1      -1.397  -7.774  18.702  1.00  0.00     0.040 A 
ATOM     71  F   UNL     1      -2.184  -8.224  16.539  1.00  0.00    -0.206 F 
ATOM     72  C   UNL     1      -1.534  -7.131  19.931  1.00  0.00     0.006 A 
ENDBRANCH  51  65
BRANCH  52  73
ATOM     73  C   UNL     1     -10.528  -5.540  10.935  1.00  0.00     0.057 A 
ATOM     74  C   UNL     1     -11.882  -5.611  11.283  1.00  0.00     0.134 A 
ATOM     75  C   UNL     1     -10.220  -5.279   9.595  1.00  0.00     0.134 A 
ATOM     76  F   UNL     1     -12.241  -5.876  12.547  1.00  0.00    -0.206 F 
ATOM     77  C   UNL     1     -12.892  -5.440  10.334  1.00  0.00     0.040 A 
ATOM     78  C   UNL     1     -11.219  -5.079   8.640  1.00  0.00     0.040 A 
ATOM     79  F   UNL     1      -8.943  -5.192   9.197  1.00  0.00    -0.206 F 
ATOM     80  C   UNL     1     -12.560  -5.165   9.008  1.00  0.00     0.006 A 
ENDBRANCH  52  73
BRANCH  64  81
ATOM     81  C   UNL     1      -8.441 -10.967  14.791  1.00  0.00     0.057 A 
ATOM     82  C   UNL     1      -8.147 -11.887  13.777  1.00  0.00     0.134 A 
ATOM     83  C   UNL     1      -9.101 -11.448  15.930  1.00  0.00     0.134 A 
ATOM     84  F   UNL     1      -7.525 -11.488  12.657  1.00  0.00    -0.206 F 
ATOM     85  C   UNL     1      -8.502 -13.232  13.888  1.00  0.00     0.040 A 
ATOM     86  C   UNL     1      -9.436 -12.796  16.065  1.00  0.00     0.040 A 
ATOM     87  F   UNL     1      -9.402 -10.622  16.944  1.00  0.00    -0.206 F 
ATOM     88  C   UNL     1      -9.139 -13.691  15.040  1.00  0.00     0.006 A 
ENDBRANCH  64  81
ENDBRANCH  38  39
ENDBRANCH  30  33
ENDBRANCH  28  29
ENDBRANCH  27  28
ENDBRANCH   1  27
TORSDOF 14
