REMARK SMILES COc1cc2ccccc2cc1C(=O)Nc1cc(C(=O)NCCCCCCNC(=O)c2ccc(-c3c4nc(c(-c5c(F)cccc5F)c5ccc([nH]5)c(-c5c(F)cccc5F)c5nc(c(-c6c(F)cccc6F)c6ccc3[nH]6)C=C5)C=C4)cc2)ccc1C
REMARK SMILES IDX 24 1 23 2 22 3 21 4 19 5 20 6 18 8 16 9 17 10 87 11 86 12
REMARK SMILES IDX 88 13 85 14 15 15 13 16 14 17 12 19 3 20 4 21 5 22 11 23
REMARK SMILES IDX 6 24 10 25 7 26 9 27 8 28 2 29 1 30 25 31 26 32 27 33 28 34
REMARK SMILES IDX 29 35 30 37 31 38 32 39 84 40 33 41 83 42 34 43 35 44 36 45
REMARK SMILES IDX 77 46 37 47 82 48 76 49 78 50 38 51 81 52 75 53 74 54 39 56
REMARK SMILES IDX 65 57 48 58 64 59 49 60 52 61 63 62 79 63 50 64 51 65 62 67
REMARK SMILES IDX 80 68 53 69 40 70 41 71 46 72 42 73 43 74 45 75 47 76 44 77
REMARK SMILES IDX 66 78 67 79 72 80 68 81 69 82 71 83 73 84 70 85 54 86 55 87
REMARK SMILES IDX 60 88 56 89 57 90 59 91 61 92 58 93
REMARK H PARENT 21 7 15 18 28 36 78 55 52 66
REMARK Flexibility Score: inf
ROOT
ATOM      1  C   UNL     1       0.933  -5.391  -4.317  1.00  0.00     0.002 C 
ENDROOT
BRANCH   1   2
ATOM      2  C   UNL     1       1.258  -4.338  -3.247  1.00  0.00     0.021 C 
BRANCH   2   3
ATOM      3  C   UNL     1       0.191  -3.251  -3.106  1.00  0.00     0.116 C 
BRANCH   3   4
ATOM      4  N   UNL     1      -0.808  -3.619  -2.125  1.00  0.00    -0.352 N 
ATOM      5  C   UNL     1      -1.021  -3.299  -0.809  1.00  0.00     0.251 C 
ATOM      6  O   UNL     1      -2.015  -3.807  -0.282  1.00  0.00    -0.269 OA
ATOM      7  H   UNL     1      -1.486  -4.237  -2.482  1.00  0.00     0.163 HD
BRANCH   5   8
ATOM      8  C   UNL     1      -0.187  -2.357   0.000  1.00  0.00     0.041 A 
ATOM      9  C   UNL     1       1.674  -0.831   0.368  1.00  0.00     0.045 A 
ATOM     10  C   UNL     1       1.070  -1.871  -0.356  1.00  0.00     0.040 A 
ATOM     11  C   UNL     1       1.152  -0.433   1.611  1.00  0.00    -0.027 A 
ATOM     12  C   UNL     1      -0.077  -0.973   2.010  1.00  0.00     0.006 A 
ATOM     13  C   UNL     1       1.742   0.665   2.454  1.00  0.00     0.046 C 
ATOM     14  C   UNL     1      -0.749  -1.893   1.201  1.00  0.00     0.014 A 
BRANCH   9  15
ATOM     15  N   UNL     1       2.758  -0.127  -0.180  1.00  0.00    -0.322 N 
ATOM     16  C   UNL     1       2.994   0.300  -1.472  1.00  0.00     0.259 C 
ATOM     17  O   UNL     1       4.117   0.751  -1.722  1.00  0.00    -0.269 OA
ATOM     18  H   UNL     1       3.468   0.099   0.463  1.00  0.00     0.170 HD
BRANCH  16  19
ATOM     19  C   UNL     1       1.974   0.328  -2.569  1.00  0.00     0.082 A 
ATOM     20  C   UNL     1       0.593   0.515  -2.424  1.00  0.00     0.132 A 
ATOM     21  C   UNL     1      -0.264   0.419  -3.529  1.00  0.00     0.056 A 
ATOM     22  C   UNL     1       0.244   0.280  -4.825  1.00  0.00    -0.015 A 
ATOM     23  C   UNL     1       2.483   0.237  -3.881  1.00  0.00     0.026 A 
ATOM     24  C   UNL     1      -0.608   0.212  -5.940  1.00  0.00     0.009 A 
ATOM     25  C   UNL     1       1.641   0.238  -5.010  1.00  0.00    -0.017 A 
ATOM     26  C   UNL     1      -0.084   0.160  -7.231  1.00  0.00     0.001 A 
ATOM     27  C   UNL     1       2.152   0.203  -6.318  1.00  0.00     0.009 A 
ATOM     28  C   UNL     1       1.295   0.175  -7.421  1.00  0.00     0.001 A 
BRANCH  20  29
ATOM     29  O   UNL     1      -0.040   0.741  -1.233  1.00  0.00    -0.496 OA
ATOM     30  C   UNL     1       0.090   2.098  -0.822  1.00  0.00     0.278 C 
ENDBRANCH  20  29
ENDBRANCH  16  19
ENDBRANCH   9  15
ENDBRANCH   5   8
ENDBRANCH   3   4
ENDBRANCH   2   3
ENDBRANCH   1   2
BRANCH   1  31
ATOM     31  C   UNL     1       0.692  -4.859  -5.743  1.00  0.00     0.002 C 
BRANCH  31  32
ATOM     32  C   UNL     1       1.708  -3.834  -6.256  1.00  0.00     0.021 C 
BRANCH  32  33
ATOM     33  C   UNL     1       3.079  -4.426  -6.555  1.00  0.00     0.116 C 
BRANCH  33  34
ATOM     34  N   UNL     1       3.256  -4.822  -7.955  1.00  0.00    -0.352 N 
ATOM     35  C   UNL     1       4.273  -5.541  -8.541  1.00  0.00     0.251 C 
ATOM     36  H   UNL     1       2.542  -4.530  -8.567  1.00  0.00     0.163 HD
ATOM     37  O   UNL     1       4.262  -5.771  -9.736  1.00  0.00    -0.269 OA
BRANCH  35  38
ATOM     38  C   UNL     1       5.314  -6.158  -7.676  1.00  0.00     0.039 A 
ATOM     39  C   UNL     1       5.565  -7.524  -7.847  1.00  0.00     0.014 A 
ATOM     40  C   UNL     1       5.848  -5.473  -6.586  1.00  0.00     0.014 A 
ATOM     41  C   UNL     1       6.110  -8.249  -6.794  1.00  0.00     0.010 A 
ATOM     42  C   UNL     1       6.320  -6.202  -5.512  1.00  0.00     0.010 A 
ATOM     43  C   UNL     1       6.361  -7.599  -5.588  1.00  0.00    -0.014 A 
BRANCH  43  44
ATOM     44  C   UNL     1       6.480  -8.316  -4.323  1.00  0.00     0.031 A 
ATOM     45  C   UNL     1       7.789  -8.521  -3.678  1.00  0.00     0.074 A 
ATOM     46  C   UNL     1       5.354  -8.768  -3.723  1.00  0.00     0.049 A 
ATOM     47  N   UNL     1       7.997  -9.394  -2.749  1.00  0.00    -0.248 NA
ATOM     48  C   UNL     1       9.001  -7.815  -4.085  1.00  0.00     0.031 C 
ATOM     49  C   UNL     1       5.208  -9.271  -2.359  1.00  0.00     0.029 A 
ATOM     50  N   UNL     1       4.143  -9.106  -4.348  1.00  0.00    -0.354 N 
ATOM     51  C   UNL     1       9.246  -9.161  -2.237  1.00  0.00     0.074 A 
ATOM     52  C   UNL     1       9.879  -8.286  -3.192  1.00  0.00     0.031 C 
ATOM     53  C   UNL     1       4.155 -10.101  -2.319  1.00  0.00     0.029 A 
ATOM     54  C   UNL     1       3.684 -10.267  -3.682  1.00  0.00     0.049 A 
ATOM     55  H   UNL     1       3.706  -8.635  -5.093  1.00  0.00     0.167 HD
ATOM     56  C   UNL     1       9.541  -9.627  -0.992  1.00  0.00     0.037 A 
ATOM     57  C   UNL     1       3.580 -11.458  -4.340  1.00  0.00     0.037 A 
ATOM     58  C   UNL     1       8.585 -10.652  -0.566  1.00  0.00     0.049 A 
ATOM     59  C   UNL     1       4.438 -12.576  -3.782  1.00  0.00     0.074 A 
ATOM     60  C   UNL     1       7.567 -10.729   0.367  1.00  0.00     0.029 A 
ATOM     61  N   UNL     1       8.483 -11.801  -1.335  1.00  0.00    -0.354 N 
ATOM     62  N   UNL     1       5.271 -12.446  -2.787  1.00  0.00    -0.248 NA
ATOM     63  C   UNL     1       4.496 -13.910  -4.386  1.00  0.00     0.031 C 
ATOM     64  C   UNL     1       6.804 -11.905   0.088  1.00  0.00     0.029 A 
ATOM     65  C   UNL     1       7.381 -12.555  -0.988  1.00  0.00     0.049 A 
ATOM     66  H   UNL     1       9.120 -12.049  -2.044  1.00  0.00     0.167 HD
ATOM     67  C   UNL     1       6.013 -13.591  -2.670  1.00  0.00     0.074 A 
ATOM     68  C   UNL     1       5.483 -14.486  -3.681  1.00  0.00     0.031 C 
ATOM     69  C   UNL     1       7.051 -13.718  -1.796  1.00  0.00     0.037 A 
BRANCH  56  70
ATOM     70  C   UNL     1      10.621  -9.067  -0.091  1.00  0.00     0.057 A 
ATOM     71  C   UNL     1      10.894  -9.675   1.151  1.00  0.00     0.134 A 
ATOM     72  C   UNL     1      11.330  -7.867  -0.312  1.00  0.00     0.134 A 
ATOM     73  F   UNL     1      10.285 -10.811   1.522  1.00  0.00    -0.206 F 
ATOM     74  C   UNL     1      11.788  -9.133   2.087  1.00  0.00     0.040 A 
ATOM     75  C   UNL     1      12.266  -7.346   0.591  1.00  0.00     0.040 A 
ATOM     76  F   UNL     1      11.116  -7.088  -1.377  1.00  0.00    -0.206 F 
ATOM     77  C   UNL     1      12.489  -7.970   1.805  1.00  0.00     0.006 A 
ENDBRANCH  56  70
BRANCH  57  78
ATOM     78  C   UNL     1       3.226 -11.306  -5.776  1.00  0.00     0.057 A 
ATOM     79  C   UNL     1       1.998 -10.712  -6.115  1.00  0.00     0.134 A 
ATOM     80  C   UNL     1       4.182 -11.416  -6.789  1.00  0.00     0.134 A 
ATOM     81  F   UNL     1       1.036 -10.574  -5.188  1.00  0.00    -0.206 F 
ATOM     82  C   UNL     1       1.771 -10.155  -7.375  1.00  0.00     0.040 A 
ATOM     83  C   UNL     1       3.959 -10.879  -8.061  1.00  0.00     0.040 A 
ATOM     84  F   UNL     1       5.387 -11.947  -6.538  1.00  0.00    -0.206 F 
ATOM     85  C   UNL     1       2.767 -10.213  -8.344  1.00  0.00     0.006 A 
ENDBRANCH  57  78
BRANCH  69  86
ATOM     86  C   UNL     1       7.851 -14.979  -1.683  1.00  0.00     0.057 A 
ATOM     87  C   UNL     1       7.245 -16.231  -1.506  1.00  0.00     0.134 A 
ATOM     88  C   UNL     1       9.256 -14.962  -1.645  1.00  0.00     0.134 A 
ATOM     89  F   UNL     1       5.909 -16.352  -1.495  1.00  0.00    -0.206 F 
ATOM     90  C   UNL     1       7.992 -17.400  -1.325  1.00  0.00     0.040 A 
ATOM     91  C   UNL     1      10.013 -16.115  -1.423  1.00  0.00     0.040 A 
ATOM     92  F   UNL     1       9.946 -13.829  -1.847  1.00  0.00    -0.206 F 
ATOM     93  C   UNL     1       9.381 -17.342  -1.268  1.00  0.00     0.006 A 
ENDBRANCH  69  86
ENDBRANCH  43  44
ENDBRANCH  35  38
ENDBRANCH  33  34
ENDBRANCH  32  33
ENDBRANCH  31  32
ENDBRANCH   1  31
TORSDOF 16
