REMARK SMILES Cc1ccc(S(=O)(=O)Nc2ccc(N3CCCCCC3)cc2C(=O)NCCCCCCNC(=O)c2ccc(-c3c4nc(c(-c5c(F)cccc5F)c5ccc([nH]5)c(-c5c(F)cccc5F)c5nc(c(-c6c(F)cccc6F)c6ccc3[nH]6)C=C5)C=C4)cc2)cc1
REMARK SMILES IDX 27 1 26 2 25 3 23 4 24 5 22 7 10 8 11 9 12 10 21 11 13 12
REMARK SMILES IDX 9 13 6 15 7 16 8 17 5 18 1 19 2 20 3 21 90 22 4 23 89 24
REMARK SMILES IDX 14 25 15 26 16 27 17 28 18 29 20 31 19 32 28 34 29 35 30 36
REMARK SMILES IDX 31 37 32 38 33 39 34 41 35 42 36 43 88 44 37 45 87 46 38 47
REMARK SMILES IDX 39 48 40 49 81 50 41 51 86 52 80 53 82 54 42 55 85 56 79 57
REMARK SMILES IDX 78 58 43 60 69 61 52 62 68 63 53 64 56 65 67 66 83 67 54 68
REMARK SMILES IDX 55 69 66 71 84 72 57 73 44 74 45 75 50 76 46 77 47 78 49 79
REMARK SMILES IDX 51 80 48 81 70 82 71 83 76 84 72 85 73 86 75 87 77 88 74 89
REMARK SMILES IDX 58 90 59 91 64 92 60 93 61 94 63 95 65 96 62 97
REMARK H PARENT 25 6 9 14 32 40 82 59 56 70
REMARK Flexibility Score: 90.00
ROOT
ATOM      1  C   UNL     1       1.713   1.760  -2.660  1.00  0.00     0.021 C 
ENDROOT
BRANCH   1   2
ATOM      2  C   UNL     1       0.422   2.566  -2.571  1.00  0.00     0.116 C 
BRANCH   2   3
ATOM      3  N   UNL     1      -0.804   1.855  -2.881  1.00  0.00    -0.352 N 
ATOM      4  C   UNL     1      -2.097   2.088  -2.451  1.00  0.00     0.253 C 
ATOM      5  O   UNL     1      -3.013   1.466  -2.981  1.00  0.00    -0.269 OA
ATOM      6  H   UNL     1      -0.699   1.089  -3.492  1.00  0.00     0.163 HD
BRANCH   4   7
ATOM      7  C   UNL     1      -2.374   3.055  -1.352  1.00  0.00     0.066 A 
ATOM      8  C   UNL     1      -3.219   2.724  -0.283  1.00  0.00     0.062 A 
ATOM      9  C   UNL     1      -3.342   3.613   0.788  1.00  0.00     0.030 A 
ATOM     10  C   UNL     1      -2.573   4.786   0.822  1.00  0.00     0.028 A 
ATOM     11  C   UNL     1      -1.745   4.307  -1.365  1.00  0.00     0.042 A 
ATOM     12  C   UNL     1      -1.744   5.150  -0.248  1.00  0.00     0.038 A 
BRANCH   8  13
ATOM     13  N   UNL     1      -3.937   1.486  -0.273  1.00  0.00    -0.279 N 
ATOM     14  H   UNL     1      -4.692   1.347  -0.889  1.00  0.00     0.180 HD
BRANCH  13  15
ATOM     15  S   UNL     1      -3.483   0.264   0.799  1.00  0.00     0.261 S 
ATOM     16  O   UNL     1      -4.140  -0.942   0.358  1.00  0.00    -0.201 OA
ATOM     17  O   UNL     1      -3.703   0.762   2.148  1.00  0.00    -0.201 OA
BRANCH  15  18
ATOM     18  C   UNL     1      -1.731   0.071   0.580  1.00  0.00     0.087 A 
ATOM     19  C   UNL     1       2.526  -0.504   0.399  1.00  0.00     0.044 C 
ATOM     20  C   UNL     1       1.039  -0.293   0.435  1.00  0.00    -0.051 A 
ATOM     21  C   UNL     1       0.169  -1.214  -0.167  1.00  0.00     0.005 A 
ATOM     22  C   UNL     1       0.508   0.803   1.123  1.00  0.00     0.005 A 
ATOM     23  C   UNL     1      -1.217  -1.032  -0.105  1.00  0.00     0.022 A 
ATOM     24  C   UNL     1      -0.871   0.976   1.210  1.00  0.00     0.022 A 
ENDBRANCH  15  18
ENDBRANCH  13  15
ENDBRANCH   8  13
BRANCH  12  25
ATOM     25  N   UNL     1      -0.904   6.266  -0.174  1.00  0.00    -0.372 N 
BRANCH  25  26
ATOM     26  C   UNL     1       0.042   6.297   0.949  1.00  0.00     0.116 C 
BRANCH  26  27
ATOM     27  C   UNL     1      -0.191   7.521   1.830  1.00  0.00     0.021 C 
BRANCH  27  28
ATOM     28  C   UNL     1       0.284   8.840   1.224  1.00  0.00     0.002 C 
BRANCH  28  29
ATOM     29  C   UNL     1      -0.323   9.171  -0.138  1.00  0.00     0.002 CG0
ATOM     30  G   UNL     1       0.207   8.267  -1.244  1.00  0.00     0.000 G0
ENDBRANCH  28  29
ENDBRANCH  27  28
ENDBRANCH  26  27
ENDBRANCH  25  26
BRANCH  25  31
ATOM     31  C   UNL     1      -0.549   6.953  -1.420  1.00  0.00     0.116 C 
BRANCH  31  32
ATOM     32  C   UNL     1       0.207   8.267  -1.244  1.00  0.00     0.021 CG0
ATOM     33  G   UNL     1      -0.323   9.171  -0.138  1.00  0.00     0.000 G0
ENDBRANCH  31  32
ENDBRANCH  25  31
ENDBRANCH  12  25
ENDBRANCH   4   7
ENDBRANCH   2   3
ENDBRANCH   1   2
BRANCH   1  34
ATOM     34  C   UNL     1       1.942   0.872  -3.883  1.00  0.00     0.002 C 
BRANCH  34  35
ATOM     35  C   UNL     1       1.770   1.502  -5.268  1.00  0.00     0.002 C 
BRANCH  35  36
ATOM     36  C   UNL     1       2.430   2.858  -5.503  1.00  0.00     0.021 C 
BRANCH  36  37
ATOM     37  C   UNL     1       3.944   2.891  -5.346  1.00  0.00     0.116 C 
BRANCH  37  38
ATOM     38  N   UNL     1       4.686   2.621  -6.569  1.00  0.00    -0.352 N 
ATOM     39  C   UNL     1       6.053   2.557  -6.769  1.00  0.00     0.251 C 
ATOM     40  H   UNL     1       4.136   2.461  -7.370  1.00  0.00     0.163 HD
ATOM     41  O   UNL     1       6.499   2.338  -7.891  1.00  0.00    -0.269 OA
BRANCH  39  42
ATOM     42  C   UNL     1       6.976   2.600  -5.606  1.00  0.00     0.039 A 
ATOM     43  C   UNL     1       7.995   1.641  -5.555  1.00  0.00     0.014 A 
ATOM     44  C   UNL     1       6.722   3.402  -4.497  1.00  0.00     0.014 A 
ATOM     45  C   UNL     1       8.548   1.297  -4.326  1.00  0.00     0.010 A 
ATOM     46  C   UNL     1       7.198   3.005  -3.263  1.00  0.00     0.010 A 
ATOM     47  C   UNL     1       8.043   1.896  -3.175  1.00  0.00    -0.014 A 
BRANCH  47  48
ATOM     48  C   UNL     1       8.213   1.320  -1.849  1.00  0.00     0.031 A 
ATOM     49  C   UNL     1       9.159   1.906  -0.883  1.00  0.00     0.074 A 
ATOM     50  C   UNL     1       7.453   0.257  -1.494  1.00  0.00     0.049 A 
ATOM     51  N   UNL     1       9.635   1.256   0.125  1.00  0.00    -0.248 NA
ATOM     52  C   UNL     1       9.720   3.247  -1.015  1.00  0.00     0.031 C 
ATOM     53  C   UNL     1       7.262  -0.296  -0.157  1.00  0.00     0.029 A 
ATOM     54  N   UNL     1       6.873  -0.691  -2.349  1.00  0.00    -0.354 N 
ATOM     55  C   UNL     1      10.285   2.159   0.928  1.00  0.00     0.074 A 
ATOM     56  C   UNL     1      10.451   3.328   0.104  1.00  0.00     0.031 C 
ATOM     57  C   UNL     1       6.881  -1.578  -0.268  1.00  0.00     0.029 A 
ATOM     58  C   UNL     1       6.958  -1.928  -1.675  1.00  0.00     0.049 A 
ATOM     59  H   UNL     1       6.486  -0.528  -3.239  1.00  0.00     0.167 HD
ATOM     60  C   UNL     1      10.458   1.850   2.243  1.00  0.00     0.037 A 
ATOM     61  C   UNL     1       7.676  -2.972  -2.181  1.00  0.00     0.037 A 
ATOM     62  C   UNL     1      10.187   0.431   2.489  1.00  0.00     0.049 A 
ATOM     63  C   UNL     1       8.774  -3.470  -1.271  1.00  0.00     0.074 A 
ATOM     64  C   UNL     1       9.169  -0.251   3.132  1.00  0.00     0.029 A 
ATOM     65  N   UNL     1      10.946  -0.528   1.824  1.00  0.00    -0.354 N 
ATOM     66  N   UNL     1       9.246  -2.792  -0.262  1.00  0.00    -0.248 NA
ATOM     67  C   UNL     1       9.451  -4.752  -1.443  1.00  0.00     0.031 C 
ATOM     68  C   UNL     1       9.279  -1.625   2.784  1.00  0.00     0.029 A 
ATOM     69  C   UNL     1      10.388  -1.781   1.969  1.00  0.00     0.049 A 
ATOM     70  H   UNL     1      11.770  -0.338   1.319  1.00  0.00     0.167 HD
ATOM     71  C   UNL     1      10.285  -3.480   0.313  1.00  0.00     0.074 A 
ATOM     72  C   UNL     1      10.348  -4.718  -0.441  1.00  0.00     0.031 C 
ATOM     73  C   UNL     1      11.007  -2.945   1.344  1.00  0.00     0.037 A 
BRANCH  60  74
ATOM     74  C   UNL     1      10.668   2.851   3.364  1.00  0.00     0.057 A 
ATOM     75  C   UNL     1      10.841   2.399   4.690  1.00  0.00     0.134 A 
ATOM     76  C   UNL     1      10.573   4.253   3.247  1.00  0.00     0.134 A 
ATOM     77  F   UNL     1      10.949   1.094   4.977  1.00  0.00    -0.206 F 
ATOM     78  C   UNL     1      10.886   3.263   5.796  1.00  0.00     0.040 A 
ATOM     79  C   UNL     1      10.669   5.128   4.339  1.00  0.00     0.040 A 
ATOM     80  F   UNL     1      10.321   4.866   2.088  1.00  0.00    -0.206 F 
ATOM     81  C   UNL     1      10.808   4.635   5.623  1.00  0.00     0.006 A 
ENDBRANCH  60  74
BRANCH  61  82
ATOM     82  C   UNL     1       7.723  -2.991  -3.666  1.00  0.00     0.057 A 
ATOM     83  C   UNL     1       6.525  -3.190  -4.374  1.00  0.00     0.134 A 
ATOM     84  C   UNL     1       8.801  -2.456  -4.375  1.00  0.00     0.134 A 
ATOM     85  F   UNL     1       5.449  -3.697  -3.749  1.00  0.00    -0.206 F 
ATOM     86  C   UNL     1       6.370  -2.771  -5.697  1.00  0.00     0.040 A 
ATOM     87  C   UNL     1       8.662  -2.043  -5.706  1.00  0.00     0.040 A 
ATOM     88  F   UNL     1       9.969  -2.214  -3.763  1.00  0.00    -0.206 F 
ATOM     89  C   UNL     1       7.434  -2.164  -6.357  1.00  0.00     0.006 A 
ENDBRANCH  61  82
BRANCH  73  90
ATOM     90  C   UNL     1      12.315  -3.466   1.912  1.00  0.00     0.057 A 
ATOM     91  C   UNL     1      13.213  -4.306   1.236  1.00  0.00     0.134 A 
ATOM     92  C   UNL     1      12.785  -2.994   3.163  1.00  0.00     0.134 A 
ATOM     93  F   UNL     1      12.974  -4.744  -0.005  1.00  0.00    -0.206 F 
ATOM     94  C   UNL     1      14.449  -4.692   1.782  1.00  0.00     0.040 A 
ATOM     95  C   UNL     1      14.038  -3.326   3.690  1.00  0.00     0.040 A 
ATOM     96  F   UNL     1      12.059  -2.164   3.926  1.00  0.00    -0.206 F 
ATOM     97  C   UNL     1      14.872  -4.192   3.006  1.00  0.00     0.006 A 
ENDBRANCH  73  90
ENDBRANCH  47  48
ENDBRANCH  39  42
ENDBRANCH  37  38
ENDBRANCH  36  37
ENDBRANCH  35  36
ENDBRANCH  34  35
ENDBRANCH   1  34
TORSDOF 17
