REMARK SMILES Cc1ccc(-c2cc(C(=O)NCCCCCCNC(=O)c3ccc(-c4c5nc(c(-c6c(F)cccc6F)c6ccc([nH]6)c(-c6c(F)cccc6F)c6nc(c(-c7c(F)cccc7F)c7ccc4[nH]7)C=C6)C=C5)cc3)c3c(-c4cccc([N+](=O)[O-])c4)[nH]nc3n2)cc1
REMARK SMILES IDX 14 1 13 2 12 3 11 4 9 5 10 6 8 8 6 9 7 10 89 11 88 12 75 13
REMARK SMILES IDX 87 14 76 15 86 16 5 18 1 19 2 20 3 21 91 22 4 23 90 24 77 25
REMARK SMILES IDX 78 26 85 27 79 28 81 29 80 30 82 31 83 32 84 33 15 34 16 35
REMARK SMILES IDX 17 36 18 37 19 38 20 40 21 41 22 42 74 43 23 44 73 45 24 46
REMARK SMILES IDX 25 47 26 48 67 49 27 50 72 51 66 52 68 53 28 54 71 55 65 56
REMARK SMILES IDX 64 57 29 59 55 60 38 61 54 62 39 63 42 64 53 65 69 66 40 67
REMARK SMILES IDX 41 68 52 70 70 71 43 72 30 73 31 74 36 75 32 76 33 77 35 78
REMARK SMILES IDX 37 79 34 80 56 81 57 82 62 83 58 84 59 85 61 86 63 87 60 88
REMARK SMILES IDX 44 89 45 90 50 91 46 92 47 93 49 94 51 95 48 96
REMARK H PARENT 11 7 86 17 18 39 68 58 42 69
REMARK Flexibility Score: inf
ROOT
ATOM      1  C   UNL     1      -3.707   2.152  -5.932  1.00  0.00     0.002 C 
ENDROOT
BRANCH   1   2
ATOM      2  C   UNL     1      -3.224   1.613  -4.574  1.00  0.00     0.021 C 
BRANCH   2   3
ATOM      3  C   UNL     1      -3.738   2.399  -3.368  1.00  0.00     0.116 C 
BRANCH   3   4
ATOM      4  N   UNL     1      -5.141   2.147  -3.137  1.00  0.00    -0.352 N 
ATOM      5  C   UNL     1      -5.885   1.467  -2.215  1.00  0.00     0.252 C 
ATOM      6  O   UNL     1      -7.085   1.705  -2.305  1.00  0.00    -0.269 OA
ATOM      7  H   UNL     1      -5.707   2.576  -3.820  1.00  0.00     0.163 HD
BRANCH   5   8
ATOM      8  C   UNL     1      -5.342   0.585  -1.150  1.00  0.00     0.055 A 
ATOM      9  C   UNL     1      -3.424  -0.316   0.154  1.00  0.00     0.074 A 
ATOM     10  C   UNL     1      -3.985   0.275  -1.008  1.00  0.00     0.043 A 
ATOM     11  N   UNL     1      -4.121  -0.805   1.208  1.00  0.00    -0.226 NA
ATOM     12  C   UNL     1      -5.463  -0.672   1.050  1.00  0.00     0.182 A 
ATOM     13  C   UNL     1      -6.059  -0.003  -0.084  1.00  0.00     0.059 A 
ATOM     14  N   UNL     1      -6.381  -1.111   1.909  1.00  0.00    -0.154 NA
ATOM     15  C   UNL     1      -7.426  -0.127   0.126  1.00  0.00     0.076 A 
ATOM     16  N   UNL     1      -7.542  -0.772   1.334  1.00  0.00    -0.275 N 
ATOM     17  H   UNL     1      -8.415  -0.970   1.746  1.00  0.00     0.190 HD
BRANCH   9  18
ATOM     18  C   UNL     1      -1.956  -0.300   0.280  1.00  0.00     0.000 A 
ATOM     19  C   UNL     1       2.363  -0.133   0.082  1.00  0.00     0.044 C 
ATOM     20  C   UNL     1       0.868  -0.183   0.198  1.00  0.00    -0.051 A 
ATOM     21  C   UNL     1       0.202  -1.416   0.242  1.00  0.00     0.004 A 
ATOM     22  C   UNL     1       0.119   0.993   0.246  1.00  0.00     0.004 A 
ATOM     23  C   UNL     1      -1.197  -1.474   0.290  1.00  0.00     0.010 A 
ATOM     24  C   UNL     1      -1.275   0.933   0.291  1.00  0.00     0.010 A 
ENDBRANCH   9  18
BRANCH  15  25
ATOM     25  C   UNL     1      -8.610   0.208  -0.654  1.00  0.00     0.007 A 
ATOM     26  C   UNL     1      -9.459   1.244  -0.240  1.00  0.00     0.011 A 
ATOM     27  C   UNL     1      -8.835  -0.422  -1.886  1.00  0.00     0.096 A 
ATOM     28  C   UNL     1     -10.489   1.692  -1.072  1.00  0.00     0.008 A 
ATOM     29  C   UNL     1      -9.841   0.063  -2.733  1.00  0.00     0.270 A 
ATOM     30  C   UNL     1     -10.674   1.115  -2.329  1.00  0.00     0.085 A 
BRANCH  29  31
ATOM     31  N   UNL     1      -9.969  -0.485  -4.088  1.00  0.00     0.062 N 
ATOM     32  O   UNL     1     -10.841  -0.003  -4.826  1.00  0.00    -0.258 OA
ATOM     33  O   UNL     1      -9.203  -1.403  -4.417  1.00  0.00    -0.258 OA
ENDBRANCH  29  31
ENDBRANCH  15  25
ENDBRANCH   5   8
ENDBRANCH   3   4
ENDBRANCH   2   3
ENDBRANCH   1   2
BRANCH   1  34
ATOM     34  C   UNL     1      -3.550   3.666  -6.158  1.00  0.00     0.002 C 
BRANCH  34  35
ATOM     35  C   UNL     1      -2.204   4.269  -5.747  1.00  0.00     0.021 C 
BRANCH  35  36
ATOM     36  C   UNL     1      -1.050   3.885  -6.656  1.00  0.00     0.116 C 
BRANCH  36  37
ATOM     37  N   UNL     1      -0.762   4.880  -7.678  1.00  0.00    -0.352 N 
ATOM     38  C   UNL     1       0.189   4.875  -8.687  1.00  0.00     0.251 C 
ATOM     39  H   UNL     1      -1.331   5.683  -7.648  1.00  0.00     0.163 HD
ATOM     40  O   UNL     1       0.315   5.843  -9.409  1.00  0.00    -0.269 OA
BRANCH  38  41
ATOM     41  C   UNL     1       0.925   3.617  -8.988  1.00  0.00     0.039 A 
ATOM     42  C   UNL     1       1.002   3.241 -10.335  1.00  0.00     0.014 A 
ATOM     43  C   UNL     1       1.267   2.714  -7.989  1.00  0.00     0.014 A 
ATOM     44  C   UNL     1       1.122   1.895 -10.658  1.00  0.00     0.010 A 
ATOM     45  C   UNL     1       1.270   1.371  -8.296  1.00  0.00     0.010 A 
ATOM     46  C   UNL     1       1.113   0.964  -9.624  1.00  0.00    -0.014 A 
BRANCH  46  47
ATOM     47  C   UNL     1       0.821  -0.448  -9.822  1.00  0.00     0.031 A 
ATOM     48  C   UNL     1       1.896  -1.447  -9.693  1.00  0.00     0.074 A 
ATOM     49  C   UNL     1      -0.465  -0.829  -9.990  1.00  0.00     0.049 A 
ATOM     50  N   UNL     1       1.823  -2.658 -10.127  1.00  0.00    -0.248 NA
ATOM     51  C   UNL     1       3.184  -1.129  -9.093  1.00  0.00     0.031 C 
ATOM     52  C   UNL     1      -1.020  -2.174  -9.869  1.00  0.00     0.029 A 
ATOM     53  N   UNL     1      -1.512  -0.067 -10.528  1.00  0.00    -0.354 N 
ATOM     54  C   UNL     1       2.909  -3.348  -9.638  1.00  0.00     0.074 A 
ATOM     55  C   UNL     1       3.757  -2.335  -9.057  1.00  0.00     0.031 C 
ATOM     56  C   UNL     1      -2.172  -2.230 -10.557  1.00  0.00     0.029 A 
ATOM     57  C   UNL     1      -2.299  -0.972 -11.273  1.00  0.00     0.049 A 
ATOM     58  H   UNL     1      -1.665   0.899 -10.411  1.00  0.00     0.167 HD
ATOM     59  C   UNL     1       2.889  -4.713  -9.671  1.00  0.00     0.037 A 
ATOM     60  C   UNL     1      -2.419  -0.862 -12.628  1.00  0.00     0.037 A 
ATOM     61  C   UNL     1       1.717  -5.195 -10.403  1.00  0.00     0.049 A 
ATOM     62  C   UNL     1      -1.960  -2.090 -13.379  1.00  0.00     0.074 A 
ATOM     63  C   UNL     1       0.472  -5.647  -9.993  1.00  0.00     0.029 A 
ATOM     64  N   UNL     1       1.615  -4.948 -11.768  1.00  0.00    -0.354 N 
ATOM     65  N   UNL     1      -1.124  -2.969 -12.899  1.00  0.00    -0.248 NA
ATOM     66  C   UNL     1      -2.398  -2.416 -14.733  1.00  0.00     0.031 C 
ATOM     67  C   UNL     1      -0.397  -5.618 -11.112  1.00  0.00     0.029 A 
ATOM     68  C   UNL     1       0.325  -5.170 -12.206  1.00  0.00     0.049 A 
ATOM     69  H   UNL     1       2.360  -4.656 -12.342  1.00  0.00     0.167 HD
ATOM     70  C   UNL     1      -0.897  -3.945 -13.836  1.00  0.00     0.074 A 
ATOM     71  C   UNL     1      -1.731  -3.562 -14.960  1.00  0.00     0.031 C 
ATOM     72  C   UNL     1      -0.034  -4.979 -13.604  1.00  0.00     0.037 A 
BRANCH  59  73
ATOM     73  C   UNL     1       3.751  -5.598  -8.793  1.00  0.00     0.057 A 
ATOM     74  C   UNL     1       3.298  -6.871  -8.390  1.00  0.00     0.134 A 
ATOM     75  C   UNL     1       4.997  -5.239  -8.249  1.00  0.00     0.134 A 
ATOM     76  F   UNL     1       2.189  -7.421  -8.900  1.00  0.00    -0.206 F 
ATOM     77  C   UNL     1       3.961  -7.655  -7.434  1.00  0.00     0.040 A 
ATOM     78  C   UNL     1       5.645  -5.988  -7.254  1.00  0.00     0.040 A 
ATOM     79  F   UNL     1       5.684  -4.184  -8.696  1.00  0.00    -0.206 F 
ATOM     80  C   UNL     1       5.119  -7.196  -6.830  1.00  0.00     0.006 A 
ENDBRANCH  59  73
BRANCH  60  81
ATOM     81  C   UNL     1      -2.291   0.535 -13.121  1.00  0.00     0.057 A 
ATOM     82  C   UNL     1      -3.245   1.484 -12.712  1.00  0.00     0.134 A 
ATOM     83  C   UNL     1      -1.092   1.024 -13.645  1.00  0.00     0.134 A 
ATOM     84  F   UNL     1      -4.420   1.082 -12.201  1.00  0.00    -0.206 F 
ATOM     85  C   UNL     1      -2.971   2.854 -12.708  1.00  0.00     0.040 A 
ATOM     86  C   UNL     1      -0.812   2.397 -13.661  1.00  0.00     0.040 A 
ATOM     87  F   UNL     1      -0.125   0.184 -14.040  1.00  0.00    -0.206 F 
ATOM     88  C   UNL     1      -1.735   3.311 -13.153  1.00  0.00     0.006 A 
ENDBRANCH  60  81
BRANCH  72  89
ATOM     89  C   UNL     1       0.492  -5.960 -14.628  1.00  0.00     0.057 A 
ATOM     90  C   UNL     1       0.596  -5.696 -16.001  1.00  0.00     0.134 A 
ATOM     91  C   UNL     1       1.072  -7.184 -14.215  1.00  0.00     0.134 A 
ATOM     92  F   UNL     1       0.198  -4.531 -16.527  1.00  0.00    -0.206 F 
ATOM     93  C   UNL     1       1.179  -6.600 -16.902  1.00  0.00     0.040 A 
ATOM     94  C   UNL     1       1.706  -8.066 -15.095  1.00  0.00     0.040 A 
ATOM     95  F   UNL     1       1.075  -7.567 -12.929  1.00  0.00    -0.206 F 
ATOM     96  C   UNL     1       1.748  -7.783 -16.449  1.00  0.00     0.006 A 
ENDBRANCH  72  89
ENDBRANCH  46  47
ENDBRANCH  38  41
ENDBRANCH  36  37
ENDBRANCH  35  36
ENDBRANCH  34  35
ENDBRANCH   1  34
TORSDOF 16
