REMARK SMILES CC(C)C[C@H](CNC(=O)/C=C/c1ccc(Br)o1)C(=O)NCCCCCCNC(=O)c1ccc(-c2c3nc(c(-c4c(F)cccc4F)c4ccc([nH]4)c(-c4c(F)cccc4F)c4nc(c(-c5c(F)cccc5F)c5ccc2[nH]5)C=C4)C=C3)cc1
REMARK SMILES IDX 22 1 21 2 20 3 18 4 19 5 5 7 4 8 2 9 1 10 3 11 6 12 7 13
REMARK SMILES IDX 8 14 9 16 10 17 11 18 12 19 13 20 17 21 14 22 15 23 16 24
REMARK SMILES IDX 23 25 24 26 25 27 26 28 27 29 28 30 29 32 30 33 31 34 83 35
REMARK SMILES IDX 32 36 82 37 33 38 34 39 35 40 76 41 36 42 81 43 75 44 77 45
REMARK SMILES IDX 37 46 80 47 74 48 73 49 38 51 64 52 47 53 63 54 48 55 51 56
REMARK SMILES IDX 62 57 78 58 49 59 50 60 61 62 79 63 52 64 39 65 40 66 45 67
REMARK SMILES IDX 41 68 42 69 44 70 46 71 43 72 65 73 66 74 71 75 67 76 68 77
REMARK SMILES IDX 70 78 72 79 69 80 53 81 54 82 59 83 55 84 56 85 58 86 60 87
REMARK SMILES IDX 57 88
REMARK H PARENT 20 6 7 15 27 31 77 50 51 61
REMARK Flexibility Score: inf
ROOT
ATOM      1  C   UNL     1      -3.670   3.090   2.597  1.00  0.00     0.021 C 
ENDROOT
BRANCH   1   2
ATOM      2  C   UNL     1      -3.171   1.766   3.171  1.00  0.00     0.116 C 
BRANCH   2   3
ATOM      3  N   UNL     1      -3.640   0.644   2.381  1.00  0.00    -0.356 N 
ATOM      4  C   UNL     1      -2.970  -0.305   1.677  1.00  0.00     0.224 C 
ATOM      5  O   UNL     1      -3.644  -1.139   1.068  1.00  0.00    -0.275 OA
ATOM      6  H   UNL     1      -4.620   0.554   2.350  1.00  0.00     0.163 HD
BRANCH   4   7
ATOM      7  C   UNL     1      -1.448  -0.368   1.639  1.00  0.00     0.098 C 
BRANCH   7   8
ATOM      8  C   UNL     1      -0.860  -0.712   3.023  1.00  0.00     0.018 C 
BRANCH   8   9
ATOM      9  C   UNL     1      -0.896  -2.220   3.354  1.00  0.00    -0.017 C 
ATOM     10  C   UNL     1       0.058  -3.022   2.466  1.00  0.00     0.007 C 
ATOM     11  C   UNL     1      -0.525  -2.435   4.824  1.00  0.00     0.007 C 
ENDBRANCH   8   9
ENDBRANCH   7   8
BRANCH   7  12
ATOM     12  C   UNL     1      -0.861   0.901   1.011  1.00  0.00     0.129 C 
BRANCH  12  13
ATOM     13  N   UNL     1       0.492   0.687   0.514  1.00  0.00    -0.352 N 
ATOM     14  C   UNL     1       1.001   0.751  -0.743  1.00  0.00     0.244 C 
ATOM     15  H   UNL     1       1.151   0.457   1.209  1.00  0.00     0.163 HD
ATOM     16  O   UNL     1       2.160   0.400  -0.949  1.00  0.00    -0.270 OA
BRANCH  14  17
ATOM     17  C   UNL     1       0.163   1.174  -1.882  1.00  0.00     0.075 C 
ATOM     18  C   UNL     1      -0.548   2.310  -1.879  1.00  0.00     0.053 C 
BRANCH  18  19
ATOM     19  C   UNL     1      -1.301   2.745  -3.004  1.00  0.00     0.128 A 
ATOM     20  C   UNL     1      -1.494   2.180  -4.262  1.00  0.00     0.051 A 
ATOM     21  O   UNL     1      -2.013   3.926  -2.976  1.00  0.00    -0.450 OA
ATOM     22  C   UNL     1      -2.324   3.049  -5.012  1.00  0.00     0.059 A 
ATOM     23  C   UNL     1      -2.613   4.099  -4.179  1.00  0.00     0.169 A 
ATOM     24  Br  UNL     1      -3.673   5.567  -4.628  1.00  0.00    -0.008 Br
ENDBRANCH  18  19
ENDBRANCH  14  17
ENDBRANCH  12  13
ENDBRANCH   7  12
ENDBRANCH   4   7
ENDBRANCH   2   3
ENDBRANCH   1   2
BRANCH   1  25
ATOM     25  C   UNL     1      -5.180   3.303   2.756  1.00  0.00     0.002 C 
BRANCH  25  26
ATOM     26  C   UNL     1      -5.702   3.184   4.193  1.00  0.00     0.002 C 
BRANCH  26  27
ATOM     27  C   UNL     1      -4.982   4.066   5.216  1.00  0.00     0.021 C 
BRANCH  27  28
ATOM     28  C   UNL     1      -5.032   5.556   4.906  1.00  0.00     0.116 C 
BRANCH  28  29
ATOM     29  N   UNL     1      -6.391   6.069   4.926  1.00  0.00    -0.352 N 
ATOM     30  C   UNL     1      -6.897   7.154   5.595  1.00  0.00     0.251 C 
ATOM     31  H   UNL     1      -7.041   5.566   4.383  1.00  0.00     0.163 HD
ATOM     32  O   UNL     1      -8.108   7.327   5.666  1.00  0.00    -0.269 OA
BRANCH  30  33
ATOM     33  C   UNL     1      -5.974   8.111   6.242  1.00  0.00     0.039 A 
ATOM     34  C   UNL     1      -6.284   8.589   7.517  1.00  0.00     0.014 A 
ATOM     35  C   UNL     1      -4.823   8.554   5.585  1.00  0.00     0.014 A 
ATOM     36  C   UNL     1      -5.420   9.485   8.148  1.00  0.00     0.010 A 
ATOM     37  C   UNL     1      -3.924   9.386   6.245  1.00  0.00     0.010 A 
ATOM     38  C   UNL     1      -4.223   9.876   7.525  1.00  0.00    -0.014 A 
BRANCH  38  39
ATOM     39  C   UNL     1      -3.296  10.834   8.177  1.00  0.00     0.031 A 
ATOM     40  C   UNL     1      -3.045  12.178   7.546  1.00  0.00     0.074 A 
ATOM     41  C   UNL     1      -2.651  10.485   9.307  1.00  0.00     0.049 A 
ATOM     42  N   UNL     1      -2.218  13.124   7.914  1.00  0.00    -0.248 NA
ATOM     43  C   UNL     1      -3.806  12.489   6.324  1.00  0.00     0.031 C 
ATOM     44  C   UNL     1      -2.780   9.199   9.995  1.00  0.00     0.029 A 
ATOM     45  N   UNL     1      -1.749  11.181  10.072  1.00  0.00    -0.354 N 
ATOM     46  C   UNL     1      -2.358  14.134   6.971  1.00  0.00     0.074 A 
ATOM     47  C   UNL     1      -3.296  13.662   5.977  1.00  0.00     0.031 C 
ATOM     48  C   UNL     1      -1.999   9.204  11.088  1.00  0.00     0.029 A 
ATOM     49  C   UNL     1      -1.288  10.477  11.159  1.00  0.00     0.049 A 
ATOM     50  H   UNL     1      -1.460  12.098   9.863  1.00  0.00     0.167 HD
ATOM     51  C   UNL     1      -1.783  15.360   6.950  1.00  0.00     0.037 A 
ATOM     52  C   UNL     1      -0.387  10.818  12.099  1.00  0.00     0.037 A 
ATOM     53  C   UNL     1      -0.865  15.838   7.949  1.00  0.00     0.049 A 
ATOM     54  C   UNL     1       0.248  12.182  12.044  1.00  0.00     0.074 A 
ATOM     55  C   UNL     1      -0.237  17.069   8.027  1.00  0.00     0.029 A 
ATOM     56  N   UNL     1      -0.451  15.107   9.052  1.00  0.00    -0.354 N 
ATOM     57  N   UNL     1       0.073  13.143  11.169  1.00  0.00    -0.248 NA
ATOM     58  C   UNL     1       1.195  12.516  13.117  1.00  0.00     0.031 C 
ATOM     59  C   UNL     1       0.581  17.072   9.161  1.00  0.00     0.029 A 
ATOM     60  C   UNL     1       0.424  15.861   9.815  1.00  0.00     0.049 A 
ATOM     61  H   UNL     1      -0.736  14.188   9.261  1.00  0.00     0.167 HD
ATOM     62  C   UNL     1       0.853  14.205  11.608  1.00  0.00     0.074 A 
ATOM     63  C   UNL     1       1.492  13.775  12.834  1.00  0.00     0.031 C 
ATOM     64  C   UNL     1       1.026  15.427  11.049  1.00  0.00     0.037 A 
BRANCH  51  65
ATOM     65  C   UNL     1      -2.149  16.280   5.822  1.00  0.00     0.057 A 
ATOM     66  C   UNL     1      -3.423  16.858   5.733  1.00  0.00     0.134 A 
ATOM     67  C   UNL     1      -1.211  16.632   4.844  1.00  0.00     0.134 A 
ATOM     68  F   UNL     1      -4.373  16.552   6.630  1.00  0.00    -0.206 F 
ATOM     69  C   UNL     1      -3.756  17.738   4.702  1.00  0.00     0.040 A 
ATOM     70  C   UNL     1      -1.523  17.532   3.824  1.00  0.00     0.040 A 
ATOM     71  F   UNL     1       0.028  16.119   4.873  1.00  0.00    -0.206 F 
ATOM     72  C   UNL     1      -2.801  18.085   3.749  1.00  0.00     0.006 A 
ENDBRANCH  51  65
BRANCH  52  73
ATOM     73  C   UNL     1      -0.031   9.866  13.183  1.00  0.00     0.057 A 
ATOM     74  C   UNL     1      -0.370  10.124  14.517  1.00  0.00     0.134 A 
ATOM     75  C   UNL     1       0.698   8.700  12.919  1.00  0.00     0.134 A 
ATOM     76  F   UNL     1      -1.053  11.233  14.837  1.00  0.00    -0.206 F 
ATOM     77  C   UNL     1       0.035   9.280  15.552  1.00  0.00     0.040 A 
ATOM     78  C   UNL     1       1.083   7.831  13.941  1.00  0.00     0.040 A 
ATOM     79  F   UNL     1       1.045   8.387  11.662  1.00  0.00    -0.206 F 
ATOM     80  C   UNL     1       0.764   8.128  15.264  1.00  0.00     0.006 A 
ENDBRANCH  52  73
BRANCH  64  81
ATOM     81  C   UNL     1       1.885  16.409  11.791  1.00  0.00     0.057 A 
ATOM     82  C   UNL     1       3.275  16.265  11.881  1.00  0.00     0.134 A 
ATOM     83  C   UNL     1       1.310  17.533  12.398  1.00  0.00     0.134 A 
ATOM     84  F   UNL     1       3.886  15.205  11.332  1.00  0.00    -0.206 F 
ATOM     85  C   UNL     1       4.059  17.190  12.573  1.00  0.00     0.040 A 
ATOM     86  C   UNL     1       2.087  18.480  13.067  1.00  0.00     0.040 A 
ATOM     87  F   UNL     1      -0.015  17.737  12.340  1.00  0.00    -0.206 F 
ATOM     88  C   UNL     1       3.465  18.304  13.163  1.00  0.00     0.006 A 
ENDBRANCH  64  81
ENDBRANCH  38  39
ENDBRANCH  30  33
ENDBRANCH  28  29
ENDBRANCH  27  28
ENDBRANCH  26  27
ENDBRANCH  25  26
ENDBRANCH   1  25
TORSDOF 19
