REMARK SMILES O=C(C[C@@H]1CN(c2nc3ccccc3s2)CCO1)NCCCCCCNC(=O)c1ccc(-c2c3nc(c(-c4c(F)cccc4F)c4ccc([nH]4)c(-c4c(F)cccc4F)c4nc(c(-c5c(F)cccc5F)c5ccc2[nH]5)C=C4)C=C3)cc1
REMARK SMILES IDX 22 1 21 2 20 3 19 4 1 5 2 6 3 8 4 9 5 10 18 11 6 12 17 13
REMARK SMILES IDX 16 14 7 15 8 16 15 17 9 18 14 19 10 20 13 21 11 22 12 23
REMARK SMILES IDX 23 24 24 25 25 26 26 27 27 28 28 30 29 31 30 32 82 33 31 34
REMARK SMILES IDX 81 35 32 36 33 37 34 38 75 39 35 40 80 41 74 42 76 43 36 44
REMARK SMILES IDX 79 45 73 46 72 47 37 49 63 50 46 51 62 52 47 53 50 54 61 55
REMARK SMILES IDX 77 56 48 57 49 58 60 60 78 61 51 62 38 63 39 64 44 65 40 66
REMARK SMILES IDX 41 67 43 68 45 69 42 70 64 71 65 72 70 73 66 74 67 75 69 76
REMARK SMILES IDX 71 77 68 78 52 79 53 80 58 81 54 82 55 83 57 84 59 85 56 86
REMARK H PARENT 19 7 26 29 76 48 50 59
REMARK Flexibility Score: inf
ROOT
ATOM      1  C   UNL     1       4.227   3.474  -1.514  1.00  0.00     0.002 C 
ENDROOT
BRANCH   1   2
ATOM      2  C   UNL     1       2.726   3.274  -1.266  1.00  0.00     0.021 C 
BRANCH   2   3
ATOM      3  C   UNL     1       2.215   1.873  -1.597  1.00  0.00     0.116 C 
BRANCH   3   4
ATOM      4  N   UNL     1       2.873   0.878  -0.778  1.00  0.00    -0.356 N 
ATOM      5  O   UNL     1       0.973   0.014   0.187  1.00  0.00    -0.275 OA
ATOM      6  C   UNL     1       2.194   0.045   0.077  1.00  0.00     0.222 C 
ATOM      7  H   UNL     1       3.852   0.794  -0.837  1.00  0.00     0.163 HD
BRANCH   6   8
ATOM      8  C   UNL     1       3.096  -0.832   0.909  1.00  0.00     0.133 C 
BRANCH   8   9
ATOM      9  C   UNL     1       3.850  -1.820   0.021  1.00  0.00     0.147 C 
ATOM     10  C   UNL     1       3.576  -3.262   0.478  1.00  0.00     0.151 C 
ATOM     11  O   UNL     1       5.266  -1.513   0.103  1.00  0.00    -0.374 OA
ATOM     12  N   UNL     1       4.396  -4.165  -0.313  1.00  0.00    -0.343 N 
ATOM     13  C   UNL     1       6.050  -2.430  -0.692  1.00  0.00     0.182 C 
ATOM     14  C   UNL     1       5.826  -3.902  -0.289  1.00  0.00     0.147 C 
BRANCH  12  15
ATOM     15  C   UNL     1       3.864  -5.174  -1.034  1.00  0.00     0.186 A 
ATOM     16  N   UNL     1       4.240  -6.426  -0.932  1.00  0.00    -0.220 NA
ATOM     17  S   UNL     1       2.627  -4.882  -2.204  1.00  0.00    -0.097 S 
ATOM     18  C   UNL     1       3.420  -7.237  -1.700  1.00  0.00     0.084 A 
ATOM     19  C   UNL     1       2.498  -6.566  -2.501  1.00  0.00     0.056 A 
ATOM     20  C   UNL     1       3.437  -8.646  -1.729  1.00  0.00     0.030 A 
ATOM     21  C   UNL     1       1.625  -7.244  -3.367  1.00  0.00     0.021 A 
ATOM     22  C   UNL     1       2.548  -9.336  -2.560  1.00  0.00     0.002 A 
ATOM     23  C   UNL     1       1.662  -8.641  -3.378  1.00  0.00     0.002 A 
ENDBRANCH  12  15
ENDBRANCH   8   9
ENDBRANCH   6   8
ENDBRANCH   3   4
ENDBRANCH   2   3
ENDBRANCH   1   2
BRANCH   1  24
ATOM     24  C   UNL     1       4.688   3.231  -2.955  1.00  0.00     0.002 C 
BRANCH  24  25
ATOM     25  C   UNL     1       3.997   4.098  -4.009  1.00  0.00     0.021 C 
BRANCH  25  26
ATOM     26  C   UNL     1       4.130   5.602  -3.788  1.00  0.00     0.116 C 
BRANCH  26  27
ATOM     27  N   UNL     1       5.512   6.054  -3.861  1.00  0.00    -0.352 N 
ATOM     28  C   UNL     1       6.070   7.035  -4.644  1.00  0.00     0.251 C 
ATOM     29  H   UNL     1       6.138   5.589  -3.261  1.00  0.00     0.163 HD
ATOM     30  O   UNL     1       7.290   7.163  -4.698  1.00  0.00    -0.269 OA
BRANCH  28  31
ATOM     31  C   UNL     1       5.202   7.919  -5.449  1.00  0.00     0.039 A 
ATOM     32  C   UNL     1       5.537   8.159  -6.784  1.00  0.00     0.014 A 
ATOM     33  C   UNL     1       4.056   8.498  -4.897  1.00  0.00     0.014 A 
ATOM     34  C   UNL     1       4.678   8.911  -7.588  1.00  0.00     0.010 A 
ATOM     35  C   UNL     1       3.164   9.184  -5.717  1.00  0.00     0.010 A 
ATOM     36  C   UNL     1       3.460   9.387  -7.074  1.00  0.00    -0.014 A 
BRANCH  36  37
ATOM     37  C   UNL     1       2.465  10.056  -7.950  1.00  0.00     0.031 A 
ATOM     38  C   UNL     1       2.071  11.485  -7.711  1.00  0.00     0.074 A 
ATOM     39  C   UNL     1       1.856   9.344  -8.918  1.00  0.00     0.049 A 
ATOM     40  N   UNL     1       1.167  12.207  -8.323  1.00  0.00    -0.248 NA
ATOM     41  C   UNL     1       2.766  12.187  -6.622  1.00  0.00     0.031 C 
ATOM     42  C   UNL     1       2.111   7.934  -9.217  1.00  0.00     0.029 A 
ATOM     43  N   UNL     1       0.882   9.703  -9.817  1.00  0.00    -0.354 N 
ATOM     44  C   UNL     1       1.182  13.444  -7.694  1.00  0.00     0.074 A 
ATOM     45  C   UNL     1       2.141  13.355  -6.613  1.00  0.00     0.031 C 
ATOM     46  C   UNL     1       1.323   7.550 -10.233  1.00  0.00     0.029 A 
ATOM     47  C   UNL     1       0.477   8.672 -10.629  1.00  0.00     0.049 A 
ATOM     48  H   UNL     1       0.510  10.613  -9.874  1.00  0.00     0.167 HD
ATOM     49  C   UNL     1       0.478  14.560  -8.002  1.00  0.00     0.037 A 
ATOM     50  C   UNL     1      -0.481   8.625 -11.573  1.00  0.00     0.037 A 
ATOM     51  C   UNL     1      -0.479  14.643  -9.076  1.00  0.00     0.049 A 
ATOM     52  C   UNL     1      -1.274   9.864 -11.879  1.00  0.00     0.074 A 
ATOM     53  C   UNL     1      -1.205  15.742  -9.502  1.00  0.00     0.029 A 
ATOM     54  N   UNL     1      -0.856  13.580  -9.884  1.00  0.00    -0.354 N 
ATOM     55  N   UNL     1      -1.194  11.051 -11.329  1.00  0.00    -0.248 NA
ATOM     56  C   UNL     1      -2.285   9.759 -12.940  1.00  0.00     0.031 C 
ATOM     57  C   UNL     1      -2.062  15.330 -10.528  1.00  0.00     0.029 A 
ATOM     58  C   UNL     1      -1.829  13.988 -10.783  1.00  0.00     0.049 A 
ATOM     59  H   UNL     1      -0.486  12.669  -9.828  1.00  0.00     0.167 HD
ATOM     60  C   UNL     1      -2.132  11.839 -11.984  1.00  0.00     0.074 A 
ATOM     61  C   UNL     1      -2.753  10.999 -12.988  1.00  0.00     0.031 C 
ATOM     62  C   UNL     1      -2.449  13.140 -11.771  1.00  0.00     0.037 A 
BRANCH  49  63
ATOM     63  C   UNL     1       0.716  15.779  -7.155  1.00  0.00     0.057 A 
ATOM     64  C   UNL     1       1.936  16.470  -7.178  1.00  0.00     0.134 A 
ATOM     65  C   UNL     1      -0.288  16.276  -6.314  1.00  0.00     0.134 A 
ATOM     66  F   UNL     1       2.944  16.044  -7.955  1.00  0.00    -0.206 F 
ATOM     67  C   UNL     1       2.162  17.583  -6.367  1.00  0.00     0.040 A 
ATOM     68  C   UNL     1      -0.085  17.408  -5.522  1.00  0.00     0.040 A 
ATOM     69  F   UNL     1      -1.484  15.672  -6.248  1.00  0.00    -0.206 F 
ATOM     70  C   UNL     1       1.148  18.058  -5.539  1.00  0.00     0.006 A 
ENDBRANCH  49  63
BRANCH  50  71
ATOM     71  C   UNL     1      -0.739   7.352 -12.294  1.00  0.00     0.057 A 
ATOM     72  C   UNL     1      -0.399   7.199 -13.642  1.00  0.00     0.134 A 
ATOM     73  C   UNL     1      -1.310   6.251 -11.643  1.00  0.00     0.134 A 
ATOM     74  F   UNL     1       0.135   8.223 -14.324  1.00  0.00    -0.206 F 
ATOM     75  C   UNL     1      -0.627   6.001 -14.322  1.00  0.00     0.040 A 
ATOM     76  C   UNL     1      -1.519   5.039 -12.302  1.00  0.00     0.040 A 
ATOM     77  F   UNL     1      -1.649   6.331 -10.348  1.00  0.00    -0.206 F 
ATOM     78  C   UNL     1      -1.181   4.914 -13.648  1.00  0.00     0.006 A 
ENDBRANCH  50  71
BRANCH  62  79
ATOM     79  C   UNL     1      -3.509  13.741 -12.649  1.00  0.00     0.057 A 
ATOM     80  C   UNL     1      -4.861  13.396 -12.520  1.00  0.00     0.134 A 
ATOM     81  C   UNL     1      -3.179  14.709 -13.607  1.00  0.00     0.134 A 
ATOM     82  F   UNL     1      -5.242  12.465 -11.632  1.00  0.00    -0.206 F 
ATOM     83  C   UNL     1      -5.843  13.976 -13.325  1.00  0.00     0.040 A 
ATOM     84  C   UNL     1      -4.156  15.317 -14.398  1.00  0.00     0.040 A 
ATOM     85  F   UNL     1      -1.905  15.092 -13.779  1.00  0.00    -0.206 F 
ATOM     86  C   UNL     1      -5.492  14.947 -14.261  1.00  0.00     0.006 A 
ENDBRANCH  62  79
ENDBRANCH  36  37
ENDBRANCH  28  31
ENDBRANCH  26  27
ENDBRANCH  25  26
ENDBRANCH  24  25
ENDBRANCH   1  24
TORSDOF 15
