REMARK SMILES O=C(NCCCCCCNC(=O)c1[nH]ncc1C[NH+]1CCC([N@H+]2CCC[C@@H](C(=O)N3CCCC3)C2)CC1)c1ccc(-c2c3nc(c(-c4c(F)cccc4F)c4ccc([nH]4)c(-c4c(F)cccc4F)c4nc(c(-c5c(F)cccc5F)c5ccc2[nH]5)C=C4)C=C3)cc1
REMARK SMILES IDX 7 1 6 2 5 3 4 4 3 5 1 6 2 7 38 9 39 10 91 11 40 12 90 13
REMARK SMILES IDX 41 14 42 15 43 16 84 17 44 18 89 19 83 20 85 21 45 22 88 23
REMARK SMILES IDX 82 24 81 25 46 27 72 28 55 29 71 30 56 31 59 32 70 33 86 34
REMARK SMILES IDX 57 35 58 36 69 38 87 39 60 40 47 41 48 42 53 43 49 44 50 45
REMARK SMILES IDX 52 46 54 47 51 48 73 49 74 50 79 51 75 52 76 53 78 54 80 55
REMARK SMILES IDX 77 56 61 57 62 58 67 59 63 60 64 61 66 62 68 63 65 64 8 65
REMARK SMILES IDX 9 66 10 67 11 68 12 70 13 71 14 72 17 73 15 74 16 76 18 77
REMARK SMILES IDX 19 78 20 79 37 80 21 82 36 83 22 84 23 85 24 86 35 87 25 89
REMARK SMILES IDX 27 90 26 91 28 92 29 93 30 94 31 95 34 96 32 97 33 98
REMARK H PARENT 3 8 85 26 59 37 10 69 14 75 19 81 23 88
REMARK Flexibility Score: inf
ROOT
ATOM      1  C   UNL     1       4.586  -3.049   3.147  1.00  0.00     0.002 C 
ENDROOT
BRANCH   1   2
ATOM      2  C   UNL     1       4.175  -1.626   3.533  1.00  0.00     0.002 C 
BRANCH   2   3
ATOM      3  C   UNL     1       4.701  -0.500   2.639  1.00  0.00     0.021 C 
BRANCH   3   4
ATOM      4  C   UNL     1       4.443  -0.662   1.144  1.00  0.00     0.116 C 
BRANCH   4   5
ATOM      5  N   UNL     1       3.031  -0.751   0.824  1.00  0.00    -0.352 N 
ATOM      6  O   UNL     1       1.071  -0.166  -0.112  1.00  0.00    -0.269 OA
ATOM      7  C   UNL     1       2.291  -0.033  -0.079  1.00  0.00     0.251 C 
ATOM      8  H   UNL     1       2.530  -1.429   1.332  1.00  0.00     0.163 HD
BRANCH   7   9
ATOM      9  C   UNL     1       2.947   0.923  -0.997  1.00  0.00     0.039 A 
ATOM     10  C   UNL     1       4.096   0.577  -1.717  1.00  0.00     0.014 A 
ATOM     11  C   UNL     1       2.362   2.180  -1.174  1.00  0.00     0.014 A 
ATOM     12  C   UNL     1       4.712   1.519  -2.539  1.00  0.00     0.010 A 
ATOM     13  C   UNL     1       2.950   3.105  -2.037  1.00  0.00     0.010 A 
ATOM     14  C   UNL     1       4.140   2.788  -2.712  1.00  0.00    -0.014 A 
BRANCH  14  15
ATOM     15  C   UNL     1       4.750   3.773  -3.637  1.00  0.00     0.031 A 
ATOM     16  C   UNL     1       5.370   5.034  -3.112  1.00  0.00     0.074 A 
ATOM     17  C   UNL     1       4.696   3.547  -4.962  1.00  0.00     0.049 A 
ATOM     18  N   UNL     1       5.858   6.051  -3.775  1.00  0.00    -0.248 NA
ATOM     19  C   UNL     1       5.442   5.176  -1.650  1.00  0.00     0.031 C 
ATOM     20  C   UNL     1       4.106   2.364  -5.592  1.00  0.00     0.029 A 
ATOM     21  N   UNL     1       5.124   4.311  -6.018  1.00  0.00    -0.354 N 
ATOM     22  C   UNL     1       6.273   6.965  -2.815  1.00  0.00     0.074 A 
ATOM     23  C   UNL     1       5.967   6.387  -1.523  1.00  0.00     0.031 C 
ATOM     24  C   UNL     1       4.208   2.482  -6.924  1.00  0.00     0.029 A 
ATOM     25  C   UNL     1       4.826   3.766  -7.241  1.00  0.00     0.049 A 
ATOM     26  H   UNL     1       5.599   5.166  -5.908  1.00  0.00     0.167 HD
ATOM     27  C   UNL     1       6.856   8.174  -2.997  1.00  0.00     0.037 A 
ATOM     28  C   UNL     1       5.001   4.256  -8.482  1.00  0.00     0.037 A 
ATOM     29  C   UNL     1       7.173   8.738  -4.283  1.00  0.00     0.049 A 
ATOM     30  C   UNL     1       5.633   5.604  -8.660  1.00  0.00     0.074 A 
ATOM     31  C   UNL     1       7.813   9.932  -4.568  1.00  0.00     0.029 A 
ATOM     32  N   UNL     1       6.864   8.149  -5.500  1.00  0.00    -0.354 N 
ATOM     33  N   UNL     1       6.056   6.441  -7.745  1.00  0.00    -0.248 NA
ATOM     34  C   UNL     1       5.811   6.078 -10.040  1.00  0.00     0.031 C 
ATOM     35  C   UNL     1       7.862  10.082  -5.959  1.00  0.00     0.029 A 
ATOM     36  C   UNL     1       7.282   8.965  -6.539  1.00  0.00     0.049 A 
ATOM     37  H   UNL     1       6.415   7.280  -5.610  1.00  0.00     0.167 HD
ATOM     38  C   UNL     1       6.563   7.534  -8.434  1.00  0.00     0.074 A 
ATOM     39  C   UNL     1       6.401   7.250  -9.846  1.00  0.00     0.031 C 
ATOM     40  C   UNL     1       7.115   8.667  -7.939  1.00  0.00     0.037 A 
BRANCH  27  41
ATOM     41  C   UNL     1       7.170   8.978  -1.772  1.00  0.00     0.057 A 
ATOM     42  C   UNL     1       8.238   8.651  -0.927  1.00  0.00     0.134 A 
ATOM     43  C   UNL     1       6.409  10.107  -1.447  1.00  0.00     0.134 A 
ATOM     44  F   UNL     1       8.997   7.574  -1.176  1.00  0.00    -0.206 F 
ATOM     45  C   UNL     1       8.524   9.408   0.211  1.00  0.00     0.040 A 
ATOM     46  C   UNL     1       6.697  10.883  -0.323  1.00  0.00     0.040 A 
ATOM     47  F   UNL     1       5.374  10.476  -2.218  1.00  0.00    -0.206 F 
ATOM     48  C   UNL     1       7.755  10.530   0.513  1.00  0.00     0.006 A 
ENDBRANCH  27  41
BRANCH  28  49
ATOM     49  C   UNL     1       4.553   3.455  -9.644  1.00  0.00     0.057 A 
ATOM     50  C   UNL     1       5.471   2.778 -10.451  1.00  0.00     0.134 A 
ATOM     51  C   UNL     1       3.192   3.303  -9.938  1.00  0.00     0.134 A 
ATOM     52  F   UNL     1       6.787   2.898 -10.224  1.00  0.00    -0.206 F 
ATOM     53  C   UNL     1       5.052   1.972 -11.511  1.00  0.00     0.040 A 
ATOM     54  C   UNL     1       2.759   2.487 -10.982  1.00  0.00     0.040 A 
ATOM     55  F   UNL     1       2.266   3.922  -9.192  1.00  0.00    -0.206 F 
ATOM     56  C   UNL     1       3.692   1.819 -11.773  1.00  0.00     0.006 A 
ENDBRANCH  28  49
BRANCH  40  57
ATOM     57  C   UNL     1       7.607   9.678  -8.929  1.00  0.00     0.057 A 
ATOM     58  C   UNL     1       6.728  10.536  -9.599  1.00  0.00     0.134 A 
ATOM     59  C   UNL     1       8.977   9.827  -9.173  1.00  0.00     0.134 A 
ATOM     60  F   UNL     1       5.403  10.431  -9.416  1.00  0.00    -0.206 F 
ATOM     61  C   UNL     1       7.196  11.507 -10.486  1.00  0.00     0.040 A 
ATOM     62  C   UNL     1       9.458  10.805 -10.044  1.00  0.00     0.040 A 
ATOM     63  F   UNL     1       9.869   9.036  -8.557  1.00  0.00    -0.206 F 
ATOM     64  C   UNL     1       8.566  11.647 -10.705  1.00  0.00     0.006 A 
ENDBRANCH  40  57
ENDBRANCH  14  15
ENDBRANCH   7   9
ENDBRANCH   4   5
ENDBRANCH   3   4
ENDBRANCH   2   3
ENDBRANCH   1   2
BRANCH   1  65
ATOM     65  C   UNL     1       6.085  -3.295   2.950  1.00  0.00     0.021 C 
BRANCH  65  66
ATOM     66  C   UNL     1       6.985  -2.845   4.096  1.00  0.00     0.116 C 
BRANCH  66  67
ATOM     67  N   UNL     1       6.731  -3.562   5.331  1.00  0.00    -0.351 N 
ATOM     68  C   UNL     1       7.622  -4.162   6.181  1.00  0.00     0.269 C 
ATOM     69  H   UNL     1       5.785  -3.626   5.596  1.00  0.00     0.163 HD
ATOM     70  O   UNL     1       7.179  -4.883   7.075  1.00  0.00    -0.268 OA
BRANCH  68  71
ATOM     71  C   UNL     1       9.031  -4.001   5.962  1.00  0.00     0.131 A 
ATOM     72  N   UNL     1       9.872  -5.082   5.981  1.00  0.00    -0.272 N 
ATOM     73  C   UNL     1       9.855  -2.894   5.774  1.00  0.00     0.057 A 
ATOM     74  N   UNL     1      11.138  -4.792   5.646  1.00  0.00    -0.183 NA
ATOM     75  H   UNL     1       9.575  -5.990   6.218  1.00  0.00     0.190 HD
ATOM     76  C   UNL     1      11.128  -3.464   5.527  1.00  0.00     0.145 A 
BRANCH  73  77
ATOM     77  C   UNL     1       9.496  -1.444   5.774  1.00  0.00     0.303 C 
BRANCH  77  78
ATOM     78  N   UNL     1      10.027  -0.674   6.901  1.00  0.00    -0.331 N 
ATOM     79  C   UNL     1       9.601  -1.170   8.207  1.00  0.00     0.268 C 
ATOM     80  C   UNL     1      11.465  -0.415   6.843  1.00  0.00     0.268 C 
ATOM     81  H   UNL     1       9.591   0.242   6.788  1.00  0.00     0.348 HD
ATOM     82  C   UNL     1       9.948  -0.166   9.308  1.00  0.00     0.126 C 
ATOM     83  C   UNL     1      11.861   0.631   7.887  1.00  0.00     0.126 C 
ATOM     84  C   UNL     1      11.453   0.174   9.299  1.00  0.00     0.195 C 
BRANCH  84  85
ATOM     85  N   UNL     1      11.917   1.102  10.365  1.00  0.00    -0.331 N 
ATOM     86  C   UNL     1      11.441   2.484  10.227  1.00  0.00     0.262 C 
ATOM     87  C   UNL     1      11.582   0.573  11.701  1.00  0.00     0.275 C 
ATOM     88  H   UNL     1      12.930   1.149  10.253  1.00  0.00     0.348 HD
ATOM     89  C   UNL     1      12.049   3.375  11.312  1.00  0.00     0.062 C 
ATOM     90  C   UNL     1      12.144   1.379  12.866  1.00  0.00     0.134 C 
ATOM     91  C   UNL     1      11.740   2.855  12.710  1.00  0.00     0.025 C 
BRANCH  90  92
ATOM     92  C   UNL     1      11.710   0.941  14.274  1.00  0.00     0.231 C 
ATOM     93  O   UNL     1      12.331   1.376  15.251  1.00  0.00    -0.274 OA
ATOM     94  N   UNL     1      10.494   0.315  14.449  1.00  0.00    -0.342 N 
ATOM     95  C   UNL     1      10.082  -0.981  13.937  1.00  0.00     0.119 C 
ATOM     96  C   UNL     1       9.666   0.656  15.594  1.00  0.00     0.119 C 
ATOM     97  C   UNL     1       8.582  -0.956  14.151  1.00  0.00     0.023 C 
ATOM     98  C   UNL     1       8.448  -0.263  15.504  1.00  0.00     0.023 C 
ENDBRANCH  90  92
ENDBRANCH  84  85
ENDBRANCH  77  78
ENDBRANCH  73  77
ENDBRANCH  68  71
ENDBRANCH  66  67
ENDBRANCH  65  66
ENDBRANCH   1  65
TORSDOF 17
