REMARK SMILES O=C1[NH+]=C(Nc2ccc(C(=O)NCCCCCCNC(=O)c3ccc(-c4c5nc(c(-c6c(F)cccc6F)c6ccc([nH]6)c(-c6c(F)cccc6F)c6nc(c(-c7c(F)cccc7F)c7ccc4[nH]7)C=C6)C=C5)cc3)c(O)c2)S/C1=C\c1ccc[nH]1
REMARK SMILES IDX 15 1 14 2 13 3 12 4 10 5 11 6 9 8 6 9 7 10 78 11 8 12 76 13
REMARK SMILES IDX 5 14 1 15 2 16 3 17 80 18 4 19 79 21 81 22 82 24 83 25 86 26
REMARK SMILES IDX 84 27 85 28 77 30 16 32 17 33 18 34 19 35 20 36 21 38 22 39
REMARK SMILES IDX 23 40 75 41 24 42 74 43 25 44 26 45 27 46 68 47 28 48 73 49
REMARK SMILES IDX 67 50 69 51 29 52 72 53 66 54 65 55 30 57 56 58 39 59 55 60
REMARK SMILES IDX 40 61 43 62 54 63 70 64 41 65 42 66 53 68 71 69 44 70 31 71
REMARK SMILES IDX 32 72 37 73 33 74 34 75 36 76 38 77 35 78 57 79 58 80 63 81
REMARK SMILES IDX 59 82 60 83 62 84 64 85 61 86 45 87 46 88 51 89 47 90 48 91
REMARK SMILES IDX 50 92 52 93 49 94
REMARK H PARENT 12 7 3 20 5 23 86 29 77 31 19 37 69 56 43 67
REMARK Flexibility Score: inf
ROOT
ATOM      1  C   UNL     1      -1.518  10.228  -3.535  1.00  0.00     0.002 C 
ENDROOT
BRANCH   1   2
ATOM      2  C   UNL     1      -1.327   8.709  -3.478  1.00  0.00     0.021 C 
BRANCH   2   3
ATOM      3  C   UNL     1      -0.383   8.182  -2.401  1.00  0.00     0.116 C 
BRANCH   3   4
ATOM      4  N   UNL     1      -0.774   8.521  -1.045  1.00  0.00    -0.352 N 
ATOM      5  C   UNL     1      -0.605   7.827   0.129  1.00  0.00     0.255 C 
ATOM      6  O   UNL     1      -1.046   8.309   1.170  1.00  0.00    -0.269 OA
ATOM      7  H   UNL     1      -1.235   9.386  -0.951  1.00  0.00     0.163 HD
BRANCH   5   8
ATOM      8  C   UNL     1       0.047   6.494   0.171  1.00  0.00     0.081 A 
ATOM      9  C   UNL     1       1.021   3.839   0.245  1.00  0.00     0.129 A 
ATOM     10  C   UNL     1      -0.088   4.215   1.008  1.00  0.00     0.053 A 
ATOM     11  C   UNL     1       1.673   4.823  -0.508  1.00  0.00     0.098 A 
ATOM     12  C   UNL     1      -0.568   5.528   0.978  1.00  0.00     0.022 A 
ATOM     13  C   UNL     1       1.215   6.143  -0.512  1.00  0.00     0.132 A 
BRANCH   9  14
ATOM     14  N   UNL     1       1.446   2.510   0.147  1.00  0.00    -0.234 N 
ATOM     15  O   UNL     1      -2.279  -0.291  -0.045  1.00  0.00    -0.240 OA
ATOM     16  C   UNL     1      -1.100   0.029   0.042  1.00  0.00     0.346 C 
ATOM     17  N   UNL     1      -0.637   1.323   0.107  1.00  0.00    -0.199 N 
ATOM     18  C   UNL     1       0.015  -0.959   0.077  1.00  0.00     0.111 C 
ATOM     19  C   UNL     1       0.650   1.404   0.143  1.00  0.00     0.322 C 
ATOM     20  H   UNL     1      -1.230   2.109   0.125  1.00  0.00     0.316 HD
ATOM     21  S   UNL     1       1.514  -0.117   0.135  1.00  0.00     0.006 SA
ATOM     22  C   UNL     1      -0.200  -2.281   0.039  1.00  0.00     0.050 C 
ATOM     23  H   UNL     1       2.417   2.358   0.074  1.00  0.00     0.313 HD
BRANCH  22  24
ATOM     24  C   UNL     1       0.848  -3.226   0.136  1.00  0.00     0.039 A 
ATOM     25  C   UNL     1       1.850  -3.447   1.060  1.00  0.00     0.027 A 
ATOM     26  N   UNL     1       0.981  -4.172  -0.851  1.00  0.00    -0.362 N 
ATOM     27  C   UNL     1       2.632  -4.529   0.596  1.00  0.00     0.020 A 
ATOM     28  C   UNL     1       2.080  -4.952  -0.592  1.00  0.00     0.083 A 
ATOM     29  H   UNL     1       0.381  -4.274  -1.625  1.00  0.00     0.166 HD
ENDBRANCH  22  24
ENDBRANCH   9  14
BRANCH  13  30
ATOM     30  O   UNL     1       2.003   7.035  -1.185  1.00  0.00    -0.507 OA
ATOM     31  H   UNL     1       1.758   7.938  -1.229  1.00  0.00     0.293 HD
ENDBRANCH  13  30
ENDBRANCH   5   8
ENDBRANCH   3   4
ENDBRANCH   2   3
ENDBRANCH   1   2
BRANCH   1  32
ATOM     32  C   UNL     1      -0.248  11.084  -3.566  1.00  0.00     0.002 C 
BRANCH  32  33
ATOM     33  C   UNL     1       0.779  10.742  -4.646  1.00  0.00     0.021 C 
BRANCH  33  34
ATOM     34  C   UNL     1       0.245  10.661  -6.071  1.00  0.00     0.116 C 
BRANCH  34  35
ATOM     35  N   UNL     1      -0.357  11.903  -6.524  1.00  0.00    -0.352 N 
ATOM     36  C   UNL     1      -0.102  12.641  -7.654  1.00  0.00     0.251 C 
ATOM     37  H   UNL     1      -1.052  12.272  -5.932  1.00  0.00     0.163 HD
ATOM     38  O   UNL     1      -0.617  13.745  -7.798  1.00  0.00    -0.269 OA
BRANCH  36  39
ATOM     39  C   UNL     1       0.824  12.122  -8.685  1.00  0.00     0.039 A 
ATOM     40  C   UNL     1       1.795  12.979  -9.207  1.00  0.00     0.014 A 
ATOM     41  C   UNL     1       0.743  10.800  -9.131  1.00  0.00     0.014 A 
ATOM     42  C   UNL     1       2.736  12.490 -10.116  1.00  0.00     0.010 A 
ATOM     43  C   UNL     1       1.726  10.294  -9.979  1.00  0.00     0.010 A 
ATOM     44  C   UNL     1       2.738  11.131 -10.473  1.00  0.00    -0.014 A 
BRANCH  44  45
ATOM     45  C   UNL     1       3.810  10.565 -11.332  1.00  0.00     0.031 A 
ATOM     46  C   UNL     1       3.480   9.975 -12.675  1.00  0.00     0.074 A 
ATOM     47  C   UNL     1       5.076  10.523 -10.871  1.00  0.00     0.049 A 
ATOM     48  N   UNL     1       4.269   9.373 -13.529  1.00  0.00    -0.248 NA
ATOM     49  C   UNL     1       2.075  10.050 -13.105  1.00  0.00     0.031 C 
ATOM     50  C   UNL     1       5.518  11.025  -9.568  1.00  0.00     0.029 A 
ATOM     51  N   UNL     1       6.222  10.025 -11.438  1.00  0.00    -0.354 N 
ATOM     52  C   UNL     1       3.458   8.992 -14.591  1.00  0.00     0.074 A 
ATOM     53  C   UNL     1       2.107   9.383 -14.250  1.00  0.00     0.031 C 
ATOM     54  C   UNL     1       6.840  10.829  -9.445  1.00  0.00     0.029 A 
ATOM     55  C   UNL     1       7.332  10.145 -10.636  1.00  0.00     0.049 A 
ATOM     56  H   UNL     1       6.247   9.620 -12.335  1.00  0.00     0.167 HD
ATOM     57  C   UNL     1       3.811   8.391 -15.752  1.00  0.00     0.037 A 
ATOM     58  C   UNL     1       8.600   9.735 -10.830  1.00  0.00     0.037 A 
ATOM     59  C   UNL     1       5.159   8.014 -16.091  1.00  0.00     0.049 A 
ATOM     60  C   UNL     1       8.957   9.035 -12.112  1.00  0.00     0.074 A 
ATOM     61  C   UNL     1       5.625   7.451 -17.266  1.00  0.00     0.029 A 
ATOM     62  N   UNL     1       6.255   8.150 -15.252  1.00  0.00    -0.354 N 
ATOM     63  N   UNL     1       8.194   8.748 -13.138  1.00  0.00    -0.248 NA
ATOM     64  C   UNL     1      10.354   8.602 -12.265  1.00  0.00     0.031 C 
ATOM     65  C   UNL     1       6.991   7.190 -17.115  1.00  0.00     0.029 A 
ATOM     66  C   UNL     1       7.389   7.649 -15.870  1.00  0.00     0.049 A 
ATOM     67  H   UNL     1       6.231   8.545 -14.350  1.00  0.00     0.167 HD
ATOM     68  C   UNL     1       9.020   8.128 -14.067  1.00  0.00     0.074 A 
ATOM     69  C   UNL     1      10.348   8.097 -13.490  1.00  0.00     0.031 C 
ATOM     70  C   UNL     1       8.707   7.627 -15.287  1.00  0.00     0.037 A 
BRANCH  57  71
ATOM     71  C   UNL     1       2.722   8.096 -16.744  1.00  0.00     0.057 A 
ATOM     72  C   UNL     1       2.062   9.115 -17.443  1.00  0.00     0.134 A 
ATOM     73  C   UNL     1       2.364   6.774 -17.041  1.00  0.00     0.134 A 
ATOM     74  F   UNL     1       2.349  10.403 -17.202  1.00  0.00    -0.206 F 
ATOM     75  C   UNL     1       1.068   8.832 -18.383  1.00  0.00     0.040 A 
ATOM     76  C   UNL     1       1.394   6.478 -18.000  1.00  0.00     0.040 A 
ATOM     77  F   UNL     1       2.962   5.749 -16.415  1.00  0.00    -0.206 F 
ATOM     78  C   UNL     1       0.738   7.509 -18.669  1.00  0.00     0.006 A 
ENDBRANCH  57  71
BRANCH  58  79
ATOM     79  C   UNL     1       9.630   9.973  -9.785  1.00  0.00     0.057 A 
ATOM     80  C   UNL     1      10.696  10.853 -10.005  1.00  0.00     0.134 A 
ATOM     81  C   UNL     1       9.587   9.312  -8.551  1.00  0.00     0.134 A 
ATOM     82  F   UNL     1      10.804  11.502 -11.174  1.00  0.00    -0.206 F 
ATOM     83  C   UNL     1      11.694  11.049  -9.049  1.00  0.00     0.040 A 
ATOM     84  C   UNL     1      10.561   9.522  -7.573  1.00  0.00     0.040 A 
ATOM     85  F   UNL     1       8.589   8.461  -8.272  1.00  0.00    -0.206 F 
ATOM     86  C   UNL     1      11.625  10.385  -7.826  1.00  0.00     0.006 A 
ENDBRANCH  58  79
BRANCH  70  87
ATOM     87  C   UNL     1       9.823   7.031 -16.096  1.00  0.00     0.057 A 
ATOM     88  C   UNL     1      10.422   5.813 -15.749  1.00  0.00     0.134 A 
ATOM     89  C   UNL     1      10.273   7.662 -17.263  1.00  0.00     0.134 A 
ATOM     90  F   UNL     1      10.047   5.163 -14.636  1.00  0.00    -0.206 F 
ATOM     91  C   UNL     1      11.443   5.256 -16.521  1.00  0.00     0.040 A 
ATOM     92  C   UNL     1      11.271   7.099 -18.060  1.00  0.00     0.040 A 
ATOM     93  F   UNL     1       9.737   8.826 -17.659  1.00  0.00    -0.206 F 
ATOM     94  C   UNL     1      11.863   5.895 -17.686  1.00  0.00     0.006 A 
ENDBRANCH  70  87
ENDBRANCH  44  45
ENDBRANCH  36  39
ENDBRANCH  34  35
ENDBRANCH  33  34
ENDBRANCH  32  33
ENDBRANCH   1  32
TORSDOF 16
