REMARK SMILES CC[C@](C)(NC(=O)N[C@@H]1C[C@@H]1C)C(=O)NCCCCCCNC(=O)c1ccc(-c2c3nc(c(-c4c(F)cccc4F)c4ccc([nH]4)c(-c4c(F)cccc4F)c4nc(c(-c5c(F)cccc5F)c5ccc2[nH]5)C=C4)C=C3)cc1
REMARK SMILES IDX 18 1 17 2 16 3 15 4 13 5 14 6 3 8 4 9 2 10 1 11 5 12 6 13
REMARK SMILES IDX 7 15 8 16 9 18 10 19 11 20 12 21 19 22 20 23 21 24 22 25
REMARK SMILES IDX 23 26 24 28 25 29 26 30 78 31 27 32 77 33 28 34 29 35 30 36
REMARK SMILES IDX 71 37 31 38 76 39 70 40 72 41 32 42 75 43 69 44 68 45 33 47
REMARK SMILES IDX 59 48 42 49 58 50 43 51 46 52 57 53 73 54 44 55 45 56 56 58
REMARK SMILES IDX 74 59 47 60 34 61 35 62 40 63 36 64 37 65 39 66 41 67 38 68
REMARK SMILES IDX 60 69 61 70 66 71 62 72 63 73 65 74 67 75 64 76 48 77 49 78
REMARK SMILES IDX 54 79 50 80 51 81 53 82 55 83 52 84
REMARK H PARENT 15 7 5 14 8 17 22 27 72 46 46 57
REMARK Flexibility Score: inf
ROOT
ATOM      1  C   UNL     1       3.947  -2.980  -5.749  1.00  0.00     0.002 C 
ENDROOT
BRANCH   1   2
ATOM      2  C   UNL     1       2.426  -2.984  -5.644  1.00  0.00     0.021 C 
BRANCH   2   3
ATOM      3  C   UNL     1       1.802  -3.367  -4.298  1.00  0.00     0.116 C 
BRANCH   3   4
ATOM      4  N   UNL     1       2.467  -2.914  -3.081  1.00  0.00    -0.354 N 
ATOM      5  C   UNL     1       2.141  -1.978  -2.131  1.00  0.00     0.245 C 
ATOM      6  O   UNL     1       2.706  -2.075  -1.036  1.00  0.00    -0.272 OA
ATOM      7  H   UNL     1       3.321  -3.372  -2.905  1.00  0.00     0.163 HD
BRANCH   5   8
ATOM      8  C   UNL     1       1.003  -0.944  -2.355  1.00  0.00     0.117 C 
ATOM      9  C   UNL     1       0.969   0.237  -1.368  1.00  0.00     0.045 C 
BRANCH   8  10
ATOM     10  C   UNL     1      -0.341  -1.738  -2.176  1.00  0.00     0.035 C 
ATOM     11  C   UNL     1      -0.752  -2.001  -0.724  1.00  0.00     0.007 C 
ENDBRANCH   8  10
BRANCH   8  12
ATOM     12  N   UNL     1       1.111  -0.412  -3.725  1.00  0.00    -0.324 N 
ATOM     13  C   UNL     1       2.112   0.124  -4.445  1.00  0.00     0.315 C 
ATOM     14  H   UNL     1       0.263  -0.460  -4.223  1.00  0.00     0.166 HD
ATOM     15  O   UNL     1       1.822   0.533  -5.575  1.00  0.00    -0.249 OA
ATOM     16  N   UNL     1       3.414   0.157  -4.082  1.00  0.00    -0.335 N 
ATOM     17  H   UNL     1       4.030   0.130  -4.849  1.00  0.00     0.165 HD
BRANCH  16  18
ATOM     18  C   UNL     1       4.086   0.221  -2.823  1.00  0.00     0.087 C 
ATOM     19  C   UNL     1       5.524   0.704  -2.826  1.00  0.00     0.030 C 
ATOM     20  C   UNL     1       5.205  -0.656  -2.293  1.00  0.00     0.010 C 
ATOM     21  C   UNL     1       5.849  -1.826  -2.942  1.00  0.00     0.010 C 
ENDBRANCH  16  18
ENDBRANCH   8  12
ENDBRANCH   5   8
ENDBRANCH   3   4
ENDBRANCH   2   3
ENDBRANCH   1   2
BRANCH   1  22
ATOM     22  C   UNL     1       4.655  -4.274  -5.349  1.00  0.00     0.002 C 
BRANCH  22  23
ATOM     23  C   UNL     1       4.212  -5.511  -6.122  1.00  0.00     0.021 C 
BRANCH  23  24
ATOM     24  C   UNL     1       4.416  -5.418  -7.625  1.00  0.00     0.116 C 
BRANCH  24  25
ATOM     25  N   UNL     1       5.821  -5.452  -8.009  1.00  0.00    -0.352 N 
ATOM     26  C   UNL     1       6.409  -6.223  -8.988  1.00  0.00     0.251 C 
ATOM     27  H   UNL     1       6.421  -4.852  -7.510  1.00  0.00     0.163 HD
ATOM     28  O   UNL     1       7.621  -6.264  -9.128  1.00  0.00    -0.269 OA
BRANCH  26  29
ATOM     29  C   UNL     1       5.526  -7.036  -9.849  1.00  0.00     0.039 A 
ATOM     30  C   UNL     1       5.728  -8.415  -9.930  1.00  0.00     0.014 A 
ATOM     31  C   UNL     1       4.436  -6.435 -10.484  1.00  0.00     0.014 A 
ATOM     32  C   UNL     1       4.787  -9.207 -10.592  1.00  0.00     0.010 A 
ATOM     33  C   UNL     1       3.460  -7.233 -11.066  1.00  0.00     0.010 A 
ATOM     34  C   UNL     1       3.627  -8.627 -11.130  1.00  0.00    -0.014 A 
BRANCH  34  35
ATOM     35  C   UNL     1       2.576  -9.441 -11.793  1.00  0.00     0.031 A 
ATOM     36  C   UNL     1       2.259  -9.190 -13.242  1.00  0.00     0.074 A 
ATOM     37  C   UNL     1       1.849 -10.326 -11.082  1.00  0.00     0.049 A 
ATOM     38  N   UNL     1       1.287  -9.671 -13.973  1.00  0.00    -0.248 NA
ATOM     39  C   UNL     1       3.129  -8.238 -13.954  1.00  0.00     0.031 C 
ATOM     40  C   UNL     1       2.025 -10.627  -9.659  1.00  0.00     0.029 A 
ATOM     41  N   UNL     1       0.798 -11.125 -11.460  1.00  0.00    -0.354 N 
ATOM     42  C   UNL     1       1.405  -9.052 -15.211  1.00  0.00     0.074 A 
ATOM     43  C   UNL     1       2.514  -8.129 -15.122  1.00  0.00     0.031 C 
ATOM     44  C   UNL     1       1.125 -11.554  -9.290  1.00  0.00     0.029 A 
ATOM     45  C   UNL     1       0.283 -11.884 -10.436  1.00  0.00     0.049 A 
ATOM     46  H   UNL     1       0.445 -11.151 -12.379  1.00  0.00     0.167 HD
ATOM     47  C   UNL     1       0.671  -9.252 -16.329  1.00  0.00     0.037 A 
ATOM     48  C   UNL     1      -0.758 -12.739 -10.423  1.00  0.00     0.037 A 
ATOM     49  C   UNL     1      -0.388 -10.219 -16.434  1.00  0.00     0.049 A 
ATOM     50  C   UNL     1      -1.538 -12.964 -11.691  1.00  0.00     0.074 A 
ATOM     51  C   UNL     1      -1.134 -10.559 -17.549  1.00  0.00     0.029 A 
ATOM     52  N   UNL     1      -0.840 -11.008 -15.389  1.00  0.00    -0.354 N 
ATOM     53  N   UNL     1      -1.369 -12.423 -12.873  1.00  0.00    -0.248 NA
ATOM     54  C   UNL     1      -2.652 -13.922 -11.625  1.00  0.00     0.031 C 
ATOM     55  C   UNL     1      -2.063 -11.531 -17.169  1.00  0.00     0.029 A 
ATOM     56  C   UNL     1      -1.866 -11.825 -15.829  1.00  0.00     0.049 A 
ATOM     57  H   UNL     1      -0.485 -10.989 -14.471  1.00  0.00     0.167 HD
ATOM     58  C   UNL     1      -2.325 -13.003 -13.697  1.00  0.00     0.074 A 
ATOM     59  C   UNL     1      -3.067 -13.942 -12.884  1.00  0.00     0.031 C 
ATOM     60  C   UNL     1      -2.567 -12.779 -15.011  1.00  0.00     0.037 A 
BRANCH  47  61
ATOM     61  C   UNL     1       0.994  -8.424 -17.536  1.00  0.00     0.057 A 
ATOM     62  C   UNL     1       2.160  -8.630 -18.284  1.00  0.00     0.134 A 
ATOM     63  C   UNL     1       0.099  -7.446 -17.989  1.00  0.00     0.134 A 
ATOM     64  F   UNL     1       3.064  -9.542 -17.895  1.00  0.00    -0.206 F 
ATOM     65  C   UNL     1       2.434  -7.882 -19.429  1.00  0.00     0.040 A 
ATOM     66  C   UNL     1       0.349  -6.709 -19.148  1.00  0.00     0.040 A 
ATOM     67  F   UNL     1      -1.038  -7.201 -17.321  1.00  0.00    -0.206 F 
ATOM     68  C   UNL     1       1.522  -6.924 -19.869  1.00  0.00     0.006 A 
ENDBRANCH  47  61
BRANCH  48  69
ATOM     69  C   UNL     1      -1.126 -13.466  -9.180  1.00  0.00     0.057 A 
ATOM     70  C   UNL     1      -0.951 -14.851  -9.076  1.00  0.00     0.134 A 
ATOM     71  C   UNL     1      -1.703 -12.807  -8.088  1.00  0.00     0.134 A 
ATOM     72  F   UNL     1      -0.422 -15.542 -10.098  1.00  0.00    -0.206 F 
ATOM     73  C   UNL     1      -1.365 -15.561  -7.948  1.00  0.00     0.040 A 
ATOM     74  C   UNL     1      -2.098 -13.500  -6.941  1.00  0.00     0.040 A 
ATOM     75  F   UNL     1      -1.892 -11.480  -8.119  1.00  0.00    -0.206 F 
ATOM     76  C   UNL     1      -1.940 -14.883  -6.875  1.00  0.00     0.006 A 
ENDBRANCH  48  69
BRANCH  60  77
ATOM     77  C   UNL     1      -3.634 -13.602 -15.669  1.00  0.00     0.057 A 
ATOM     78  C   UNL     1      -4.995 -13.370 -15.441  1.00  0.00     0.134 A 
ATOM     79  C   UNL     1      -3.289 -14.597 -16.593  1.00  0.00     0.134 A 
ATOM     80  F   UNL     1      -5.387 -12.438 -14.559  1.00  0.00    -0.206 F 
ATOM     81  C   UNL     1      -5.978 -14.110 -16.099  1.00  0.00     0.040 A 
ATOM     82  C   UNL     1      -4.263 -15.325 -17.276  1.00  0.00     0.040 A 
ATOM     83  F   UNL     1      -2.002 -14.860 -16.863  1.00  0.00    -0.206 F 
ATOM     84  C   UNL     1      -5.613 -15.085 -17.026  1.00  0.00     0.006 A 
ENDBRANCH  60  77
ENDBRANCH  34  35
ENDBRANCH  26  29
ENDBRANCH  24  25
ENDBRANCH  23  24
ENDBRANCH  22  23
ENDBRANCH   1  22
TORSDOF 16
