REMARK SMILES O=C(NCCCCCCNC(=O)c1ccc(F)cc1NC(=O)[C@H]1CCS(=O)(=O)C1)c1ccc(-c2c3nc(c(-c4c(F)cccc4F)c4ccc([nH]4)c(-c4c(F)cccc4F)c4nc(c(-c5c(F)cccc5F)c5ccc2[nH]5)C=C4)C=C3)cc1
REMARK SMILES IDX 6 1 5 2 4 3 3 4 1 5 2 6 30 8 31 9 83 10 32 11 82 12 33 13
REMARK SMILES IDX 34 14 35 15 76 16 36 17 81 18 75 19 77 20 37 21 80 22 74 23
REMARK SMILES IDX 73 24 38 26 64 27 47 28 63 29 48 30 51 31 62 32 78 33 49 34
REMARK SMILES IDX 50 35 61 37 79 38 52 39 39 40 40 41 45 42 41 43 42 44 44 45
REMARK SMILES IDX 46 46 43 47 65 48 66 49 71 50 67 51 68 52 70 53 72 54 69 55
REMARK SMILES IDX 53 56 54 57 59 58 55 59 56 60 58 61 60 62 57 63 7 64 8 65
REMARK SMILES IDX 9 66 10 67 11 68 12 70 13 71 14 72 19 73 15 74 18 75 16 76
REMARK SMILES IDX 17 77 20 78 21 79 22 81 23 82 24 83 29 84 25 85 26 86 27 87
REMARK SMILES IDX 28 88
REMARK H PARENT 3 7 77 25 51 36 10 69 20 80
REMARK Flexibility Score: inf
ROOT
ATOM      1  C   UNL     1      18.131  -9.703  11.680  1.00  0.00     0.002 C 
ENDROOT
BRANCH   1   2
ATOM      2  C   UNL     1      19.117 -10.809  11.303  1.00  0.00     0.021 C 
BRANCH   2   3
ATOM      3  C   UNL     1      20.462 -10.309  10.790  1.00  0.00     0.116 C 
BRANCH   3   4
ATOM      4  N   UNL     1      21.162  -9.513  11.783  1.00  0.00    -0.352 N 
ATOM      5  O   UNL     1      22.745  -9.068  13.326  1.00  0.00    -0.269 OA
ATOM      6  C   UNL     1      22.389  -9.726  12.355  1.00  0.00     0.251 C 
ATOM      7  H   UNL     1      20.688  -8.707  12.089  1.00  0.00     0.163 HD
BRANCH   6   8
ATOM      8  C   UNL     1      23.276 -10.770  11.804  1.00  0.00     0.039 A 
ATOM      9  C   UNL     1      23.484 -10.875  10.425  1.00  0.00     0.014 A 
ATOM     10  C   UNL     1      23.915 -11.644  12.685  1.00  0.00     0.014 A 
ATOM     11  C   UNL     1      24.239 -11.927   9.918  1.00  0.00     0.010 A 
ATOM     12  C   UNL     1      24.735 -12.651  12.179  1.00  0.00     0.010 A 
ATOM     13  C   UNL     1      24.885 -12.814  10.792  1.00  0.00    -0.014 A 
BRANCH  13  14
ATOM     14  C   UNL     1      25.771 -13.877  10.262  1.00  0.00     0.031 A 
ATOM     15  C   UNL     1      25.441 -15.324  10.473  1.00  0.00     0.074 A 
ATOM     16  C   UNL     1      26.903 -13.524   9.625  1.00  0.00     0.049 A 
ATOM     17  N   UNL     1      26.152 -16.383  10.181  1.00  0.00    -0.248 NA
ATOM     18  C   UNL     1      24.147 -15.624  11.105  1.00  0.00     0.031 C 
ATOM     19  C   UNL     1      27.320 -12.147   9.353  1.00  0.00     0.029 A 
ATOM     20  N   UNL     1      27.915 -14.289   9.104  1.00  0.00    -0.354 N 
ATOM     21  C   UNL     1      25.407 -17.471  10.614  1.00  0.00     0.074 A 
ATOM     22  C   UNL     1      24.198 -16.944  11.211  1.00  0.00     0.031 C 
ATOM     23  C   UNL     1      28.492 -12.165   8.704  1.00  0.00     0.029 A 
ATOM     24  C   UNL     1      28.943 -13.546   8.578  1.00  0.00     0.049 A 
ATOM     25  H   UNL     1      27.905 -15.273   9.107  1.00  0.00     0.167 HD
ATOM     26  C   UNL     1      25.710 -18.787  10.518  1.00  0.00     0.037 A 
ATOM     27  C   UNL     1      30.135 -13.928   8.083  1.00  0.00     0.037 A 
ATOM     28  C   UNL     1      26.916 -19.293   9.915  1.00  0.00     0.049 A 
ATOM     29  C   UNL     1      30.478 -15.387   8.040  1.00  0.00     0.074 A 
ATOM     30  C   UNL     1      27.295 -20.611   9.730  1.00  0.00     0.029 A 
ATOM     31  N   UNL     1      27.944 -18.507   9.414  1.00  0.00    -0.354 N 
ATOM     32  N   UNL     1      29.756 -16.411   8.428  1.00  0.00    -0.248 NA
ATOM     33  C   UNL     1      31.795 -15.750   7.501  1.00  0.00     0.031 C 
ATOM     34  C   UNL     1      28.579 -20.622   9.182  1.00  0.00     0.029 A 
ATOM     35  C   UNL     1      28.972 -19.312   8.954  1.00  0.00     0.049 A 
ATOM     36  H   UNL     1      27.942 -17.523   9.389  1.00  0.00     0.167 HD
ATOM     37  C   UNL     1      30.516 -17.539   8.155  1.00  0.00     0.074 A 
ATOM     38  C   UNL     1      31.758 -17.075   7.571  1.00  0.00     0.031 C 
ATOM     39  C   UNL     1      30.202 -18.841   8.364  1.00  0.00     0.037 A 
BRANCH  26  40
ATOM     40  C   UNL     1      24.739 -19.775  11.100  1.00  0.00     0.057 A 
ATOM     41  C   UNL     1      25.094 -20.547  12.215  1.00  0.00     0.134 A 
ATOM     42  C   UNL     1      23.480 -20.007  10.533  1.00  0.00     0.134 A 
ATOM     43  F   UNL     1      26.289 -20.385  12.804  1.00  0.00    -0.206 F 
ATOM     44  C   UNL     1      24.236 -21.514  12.740  1.00  0.00     0.040 A 
ATOM     45  C   UNL     1      22.599 -20.950  11.068  1.00  0.00     0.040 A 
ATOM     46  F   UNL     1      23.071 -19.299   9.469  1.00  0.00    -0.206 F 
ATOM     47  C   UNL     1      22.981 -21.713  12.170  1.00  0.00     0.006 A 
ENDBRANCH  26  40
BRANCH  27  48
ATOM     48  C   UNL     1      31.070 -12.887   7.590  1.00  0.00     0.057 A 
ATOM     49  C   UNL     1      31.689 -11.987   8.467  1.00  0.00     0.134 A 
ATOM     50  C   UNL     1      31.284 -12.707   6.220  1.00  0.00     0.134 A 
ATOM     51  F   UNL     1      31.509 -12.099   9.791  1.00  0.00    -0.206 F 
ATOM     52  C   UNL     1      32.459 -10.922   7.997  1.00  0.00     0.040 A 
ATOM     53  C   UNL     1      32.072 -11.661   5.737  1.00  0.00     0.040 A 
ATOM     54  F   UNL     1      30.726 -13.543   5.333  1.00  0.00    -0.206 F 
ATOM     55  C   UNL     1      32.651 -10.756   6.627  1.00  0.00     0.006 A 
ENDBRANCH  27  48
BRANCH  39  56
ATOM     56  C   UNL     1      31.190 -19.884   7.932  1.00  0.00     0.057 A 
ATOM     57  C   UNL     1      30.895 -20.731   6.854  1.00  0.00     0.134 A 
ATOM     58  C   UNL     1      32.356 -20.144   8.661  1.00  0.00     0.134 A 
ATOM     59  F   UNL     1      29.787 -20.540   6.122  1.00  0.00    -0.206 F 
ATOM     60  C   UNL     1      31.706 -21.821   6.539  1.00  0.00     0.040 A 
ATOM     61  C   UNL     1      33.190 -21.217   8.339  1.00  0.00     0.040 A 
ATOM     62  F   UNL     1      32.700 -19.364   9.696  1.00  0.00    -0.206 F 
ATOM     63  C   UNL     1      32.856 -22.069   7.286  1.00  0.00     0.006 A 
ENDBRANCH  39  56
ENDBRANCH  13  14
ENDBRANCH   6   8
ENDBRANCH   3   4
ENDBRANCH   2   3
ENDBRANCH   1   2
BRANCH   1  64
ATOM     64  C   UNL     1      17.873  -8.665  10.584  1.00  0.00     0.002 C 
BRANCH  64  65
ATOM     65  C   UNL     1      17.432  -9.238   9.233  1.00  0.00     0.021 C 
BRANCH  65  66
ATOM     66  C   UNL     1      16.189 -10.120   9.290  1.00  0.00     0.116 C 
BRANCH  66  67
ATOM     67  N   UNL     1      15.024  -9.363   9.706  1.00  0.00    -0.352 N 
ATOM     68  C   UNL     1      13.802  -9.261   9.098  1.00  0.00     0.253 C 
ATOM     69  H   UNL     1      15.127  -8.850  10.540  1.00  0.00     0.163 HD
ATOM     70  O   UNL     1      13.057  -8.329   9.390  1.00  0.00    -0.269 OA
BRANCH  68  71
ATOM     71  C   UNL     1      13.346 -10.268   8.106  1.00  0.00     0.063 A 
ATOM     72  C   UNL     1      13.628 -11.627   8.337  1.00  0.00     0.019 A 
ATOM     73  C   UNL     1      12.566  -9.882   6.988  1.00  0.00     0.056 A 
ATOM     74  C   UNL     1      13.175 -12.594   7.447  1.00  0.00     0.040 A 
ATOM     75  C   UNL     1      11.944 -10.883   6.256  1.00  0.00     0.066 A 
ATOM     76  C   UNL     1      12.307 -12.215   6.438  1.00  0.00     0.125 A 
ATOM     77  F   UNL     1      11.820 -13.142   5.606  1.00  0.00    -0.207 F 
BRANCH  73  78
ATOM     78  N   UNL     1      12.487  -8.522   6.632  1.00  0.00    -0.325 N 
ATOM     79  C   UNL     1      12.234  -7.831   5.488  1.00  0.00     0.228 C 
ATOM     80  H   UNL     1      12.656  -7.926   7.397  1.00  0.00     0.169 HD
ATOM     81  O   UNL     1      12.327  -6.599   5.592  1.00  0.00    -0.274 OA
BRANCH  79  82
ATOM     82  C   UNL     1      11.818  -8.423   4.135  1.00  0.00     0.095 C 
ATOM     83  C   UNL     1      11.997  -7.328   3.040  1.00  0.00     0.030 C 
ATOM     84  C   UNL     1      12.605  -9.590   3.547  1.00  0.00     0.150 C 
ATOM     85  C   UNL     1      11.703  -7.941   1.678  1.00  0.00     0.138 C 
ATOM     86  S   UNL     1      12.107  -9.662   1.837  1.00  0.00     0.151 S 
ATOM     87  O   UNL     1      10.873 -10.423   1.764  1.00  0.00    -0.229 OA
ATOM     88  O   UNL     1      13.261  -9.979   1.030  1.00  0.00    -0.229 OA
ENDBRANCH  79  82
ENDBRANCH  73  78
ENDBRANCH  68  71
ENDBRANCH  66  67
ENDBRANCH  65  66
ENDBRANCH  64  65
ENDBRANCH   1  64
TORSDOF 15
