REMARK SMILES Cc1nn(Cc2ccc(Cl)cc2Cl)c(C)c1NC(=O)c1c(C(=O)NCCCCCCNC(=O)c2ccc(-c3c4nc(c(-c5c(F)cccc5F)c5ccc([nH]5)c(-c5c(F)cccc5F)c5nc(c(-c6c(F)cccc6F)c6ccc3[nH]6)C=C5)C=C4)cc2)cnn1C
REMARK SMILES IDX 26 1 25 2 24 3 22 4 23 5 21 7 20 8 90 9 88 10 89 11 91 12
REMARK SMILES IDX 18 13 17 14 19 16 16 17 1 18 2 19 3 20 4 21 14 22 15 23 5 24
REMARK SMILES IDX 6 25 7 26 12 27 8 28 11 29 13 30 9 31 10 32 27 33 28 34
REMARK SMILES IDX 29 35 30 36 31 37 32 38 33 40 34 41 35 42 87 43 36 44 86 45
REMARK SMILES IDX 37 46 38 47 39 48 80 49 40 50 85 51 79 52 81 53 41 54 84 55
REMARK SMILES IDX 78 56 77 57 42 59 68 60 51 61 67 62 52 63 55 64 66 65 82 66
REMARK SMILES IDX 53 67 54 68 65 70 83 71 56 72 43 73 44 74 49 75 45 76 46 77
REMARK SMILES IDX 48 78 50 79 47 80 69 81 70 82 75 83 71 84 72 85 74 86 76 87
REMARK SMILES IDX 73 88 57 89 58 90 63 91 59 92 60 93 62 94 64 95 61 96
REMARK H PARENT 24 6 17 15 31 39 81 58 55 69
REMARK Flexibility Score: inf
ROOT
ATOM      1  C   UNL     1      -1.835  -6.933   0.536  1.00  0.00     0.021 C 
ENDROOT
BRANCH   1   2
ATOM      2  C   UNL     1      -2.891  -6.050  -0.148  1.00  0.00     0.116 C 
BRANCH   2   3
ATOM      3  N   UNL     1      -2.856  -4.641   0.215  1.00  0.00    -0.352 N 
ATOM      4  C   UNL     1      -3.149  -3.494  -0.495  1.00  0.00     0.255 C 
ATOM      5  O   UNL     1      -3.134  -2.432   0.127  1.00  0.00    -0.269 OA
ATOM      6  H   UNL     1      -2.568  -4.474   1.141  1.00  0.00     0.163 HD
BRANCH   4   7
ATOM      7  C   UNL     1      -3.433  -3.534  -1.920  1.00  0.00     0.090 A 
ATOM      8  C   UNL     1      -3.181  -2.510  -2.843  1.00  0.00     0.138 A 
ATOM      9  N   UNL     1      -3.611  -2.997  -4.057  1.00  0.00    -0.262 N 
ATOM     10  C   UNL     1      -4.081  -4.527  -2.690  1.00  0.00     0.149 A 
ATOM     11  N   UNL     1      -4.138  -4.234  -3.987  1.00  0.00    -0.180 NA
ATOM     12  C   UNL     1      -3.408  -2.423  -5.370  1.00  0.00     0.174 C 
BRANCH   8  13
ATOM     13  C   UNL     1      -2.658  -1.170  -2.677  1.00  0.00     0.274 C 
ATOM     14  N   UNL     1      -1.471  -0.912  -2.028  1.00  0.00    -0.317 N 
ATOM     15  H   UNL     1      -1.333   0.035  -1.799  1.00  0.00     0.170 HD
ATOM     16  O   UNL     1      -3.277  -0.194  -3.108  1.00  0.00    -0.267 OA
BRANCH  14  17
ATOM     17  C   UNL     1      -0.443  -1.746  -1.641  1.00  0.00     0.085 A 
ATOM     18  C   UNL     1       0.842  -0.190   0.038  1.00  0.00     0.071 C 
ATOM     19  C   UNL     1       0.562  -1.464  -0.669  1.00  0.00     0.083 A 
ATOM     20  N   UNL     1       1.286  -2.555  -0.381  1.00  0.00    -0.175 NA
ATOM     21  N   UNL     1       0.767  -3.495  -1.193  1.00  0.00    -0.263 N 
ATOM     22  C   UNL     1      -0.065  -2.967  -2.153  1.00  0.00     0.060 A 
ATOM     23  C   UNL     1      -0.386  -3.697  -3.397  1.00  0.00     0.069 C 
BRANCH  21  24
ATOM     24  C   UNL     1       0.744  -4.891  -0.761  1.00  0.00     0.181 C 
BRANCH  24  25
ATOM     25  C   UNL     1       1.683  -5.784  -1.519  1.00  0.00    -0.008 A 
ATOM     26  C   UNL     1       3.053  -5.682  -1.239  1.00  0.00     0.009 A 
ATOM     27  C   UNL     1       1.266  -6.724  -2.481  1.00  0.00     0.047 A 
ATOM     28  C   UNL     1       3.975  -6.451  -1.944  1.00  0.00     0.021 A 
ATOM     29  C   UNL     1       2.196  -7.465  -3.208  1.00  0.00     0.041 A 
ATOM     30  Cl  UNL     1      -0.391  -7.075  -2.813  1.00  0.00    -0.084 Cl
ATOM     31  C   UNL     1       3.548  -7.322  -2.941  1.00  0.00     0.042 A 
ATOM     32  Cl  UNL     1       4.668  -8.238  -3.866  1.00  0.00    -0.084 Cl
ENDBRANCH  24  25
ENDBRANCH  21  24
ENDBRANCH  14  17
ENDBRANCH   8  13
ENDBRANCH   4   7
ENDBRANCH   2   3
ENDBRANCH   1   2
BRANCH   1  33
ATOM     33  C   UNL     1      -1.680  -6.790   2.047  1.00  0.00     0.002 C 
BRANCH  33  34
ATOM     34  C   UNL     1      -2.873  -7.284   2.864  1.00  0.00     0.002 C 
BRANCH  34  35
ATOM     35  C   UNL     1      -3.348  -8.711   2.553  1.00  0.00     0.021 C 
BRANCH  35  36
ATOM     36  C   UNL     1      -2.284  -9.786   2.744  1.00  0.00     0.116 C 
BRANCH  36  37
ATOM     37  N   UNL     1      -1.960 -10.008   4.149  1.00  0.00    -0.352 N 
ATOM     38  C   UNL     1      -1.069 -10.927   4.674  1.00  0.00     0.251 C 
ATOM     39  H   UNL     1      -2.431  -9.438   4.800  1.00  0.00     0.163 HD
ATOM     40  O   UNL     1      -1.164 -11.319   5.823  1.00  0.00    -0.269 OA
BRANCH  38  41
ATOM     41  C   UNL     1       0.027 -11.403   3.811  1.00  0.00     0.039 A 
ATOM     42  C   UNL     1       0.428 -12.742   3.806  1.00  0.00     0.014 A 
ATOM     43  C   UNL     1       0.657 -10.463   2.999  1.00  0.00     0.014 A 
ATOM     44  C   UNL     1       1.433 -13.140   2.927  1.00  0.00     0.010 A 
ATOM     45  C   UNL     1       1.543 -10.878   2.041  1.00  0.00     0.010 A 
ATOM     46  C   UNL     1       1.980 -12.199   2.041  1.00  0.00    -0.014 A 
BRANCH  46  47
ATOM     47  C   UNL     1       2.942 -12.581   1.014  1.00  0.00     0.031 A 
ATOM     48  C   UNL     1       2.451 -13.610   0.054  1.00  0.00     0.074 A 
ATOM     49  C   UNL     1       4.073 -11.870   0.807  1.00  0.00     0.049 A 
ATOM     50  N   UNL     1       2.919 -14.799  -0.136  1.00  0.00    -0.248 NA
ATOM     51  C   UNL     1       1.212 -13.335  -0.692  1.00  0.00     0.031 C 
ATOM     52  C   UNL     1       4.540 -10.676   1.517  1.00  0.00     0.029 A 
ATOM     53  N   UNL     1       5.015 -12.018  -0.163  1.00  0.00    -0.354 N 
ATOM     54  C   UNL     1       2.160 -15.354  -1.166  1.00  0.00     0.074 A 
ATOM     55  C   UNL     1       1.026 -14.486  -1.342  1.00  0.00     0.031 C 
ATOM     56  C   UNL     1       5.555 -10.104   0.833  1.00  0.00     0.029 A 
ATOM     57  C   UNL     1       5.907 -10.947  -0.294  1.00  0.00     0.049 A 
ATOM     58  H   UNL     1       5.065 -12.819  -0.732  1.00  0.00     0.167 HD
ATOM     59  C   UNL     1       2.652 -16.358  -1.945  1.00  0.00     0.037 A 
ATOM     60  C   UNL     1       6.842 -10.795  -1.274  1.00  0.00     0.037 A 
ATOM     61  C   UNL     1       3.807 -16.968  -1.335  1.00  0.00     0.049 A 
ATOM     62  C   UNL     1       7.018 -12.151  -1.867  1.00  0.00     0.074 A 
ATOM     63  C   UNL     1       4.037 -17.623  -0.141  1.00  0.00     0.029 A 
ATOM     64  N   UNL     1       5.045 -16.599  -1.803  1.00  0.00    -0.354 N 
ATOM     65  N   UNL     1       7.638 -13.121  -1.254  1.00  0.00    -0.248 NA
ATOM     66  C   UNL     1       6.119 -12.563  -2.939  1.00  0.00     0.031 C 
ATOM     67  C   UNL     1       5.316 -17.161   0.287  1.00  0.00     0.029 A 
ATOM     68  C   UNL     1       5.821 -16.323  -0.707  1.00  0.00     0.049 A 
ATOM     69  H   UNL     1       5.322 -16.544  -2.746  1.00  0.00     0.167 HD
ATOM     70  C   UNL     1       6.905 -14.257  -1.559  1.00  0.00     0.074 A 
ATOM     71  C   UNL     1       6.036 -13.870  -2.670  1.00  0.00     0.031 C 
ATOM     72  C   UNL     1       6.848 -15.311  -0.692  1.00  0.00     0.037 A 
BRANCH  59  73
ATOM     73  C   UNL     1       2.340 -16.546  -3.410  1.00  0.00     0.057 A 
ATOM     74  C   UNL     1       2.818 -17.694  -4.071  1.00  0.00     0.134 A 
ATOM     75  C   UNL     1       1.864 -15.525  -4.257  1.00  0.00     0.134 A 
ATOM     76  F   UNL     1       3.304 -18.736  -3.378  1.00  0.00    -0.206 F 
ATOM     77  C   UNL     1       2.901 -17.779  -5.466  1.00  0.00     0.040 A 
ATOM     78  C   UNL     1       1.893 -15.622  -5.651  1.00  0.00     0.040 A 
ATOM     79  F   UNL     1       1.443 -14.343  -3.793  1.00  0.00    -0.206 F 
ATOM     80  C   UNL     1       2.446 -16.735  -6.261  1.00  0.00     0.006 A 
ENDBRANCH  59  73
BRANCH  60  81
ATOM     81  C   UNL     1       7.536  -9.606  -1.851  1.00  0.00     0.057 A 
ATOM     82  C   UNL     1       8.414  -9.762  -2.943  1.00  0.00     0.134 A 
ATOM     83  C   UNL     1       7.207  -8.276  -1.552  1.00  0.00     0.134 A 
ATOM     84  F   UNL     1       8.839 -10.979  -3.317  1.00  0.00    -0.206 F 
ATOM     85  C   UNL     1       8.839  -8.691  -3.743  1.00  0.00     0.040 A 
ATOM     86  C   UNL     1       7.642  -7.191  -2.333  1.00  0.00     0.040 A 
ATOM     87  F   UNL     1       6.372  -7.967  -0.553  1.00  0.00    -0.206 F 
ATOM     88  C   UNL     1       8.425  -7.399  -3.458  1.00  0.00     0.006 A 
ENDBRANCH  60  81
BRANCH  72  89
ATOM     89  C   UNL     1       7.755 -15.285   0.508  1.00  0.00     0.057 A 
ATOM     90  C   UNL     1       7.692 -14.313   1.520  1.00  0.00     0.134 A 
ATOM     91  C   UNL     1       8.608 -16.369   0.729  1.00  0.00     0.134 A 
ATOM     92  F   UNL     1       6.830 -13.293   1.450  1.00  0.00    -0.206 F 
ATOM     93  C   UNL     1       8.475 -14.395   2.675  1.00  0.00     0.040 A 
ATOM     94  C   UNL     1       9.369 -16.482   1.895  1.00  0.00     0.040 A 
ATOM     95  F   UNL     1       8.678 -17.368  -0.165  1.00  0.00    -0.206 F 
ATOM     96  C   UNL     1       9.313 -15.488   2.868  1.00  0.00     0.006 A 
ENDBRANCH  72  89
ENDBRANCH  46  47
ENDBRANCH  38  41
ENDBRANCH  36  37
ENDBRANCH  35  36
ENDBRANCH  34  35
ENDBRANCH  33  34
ENDBRANCH   1  33
TORSDOF 17
