REMARK SMILES CC(C)COc1cccc(C(=O)Nc2ccc(O)c(C(=O)NCCCCCCNC(=O)c3ccc(-c4c5nc(c(-c6c(F)cccc6F)c6ccc([nH]6)c(-c6c(F)cccc6F)c6nc(c(-c7c(F)cccc7F)c7ccc4[nH]7)C=C6)C=C5)cc3)c2)c1
REMARK SMILES IDX 24 1 23 2 22 3 20 4 21 5 19 7 14 8 15 9 86 10 16 11 17 12
REMARK SMILES IDX 13 13 11 14 12 15 10 17 6 18 7 19 87 20 8 21 9 22 5 23 4 24
REMARK SMILES IDX 2 25 1 26 3 27 18 28 25 30 26 31 27 32 28 33 29 34 30 35
REMARK SMILES IDX 31 37 32 38 33 39 85 40 34 41 84 42 35 43 36 44 37 45 78 46
REMARK SMILES IDX 38 47 83 48 77 49 79 50 39 51 82 52 76 53 75 54 40 56 66 57
REMARK SMILES IDX 49 58 65 59 50 60 53 61 64 62 80 63 51 64 52 65 63 67 81 68
REMARK SMILES IDX 54 69 41 70 42 71 47 72 43 73 44 74 46 75 48 76 45 77 67 78
REMARK SMILES IDX 68 79 73 80 69 81 70 82 72 83 74 84 71 85 55 86 56 87 61 88
REMARK SMILES IDX 57 89 58 90 60 91 62 92 59 93
REMARK H PARENT 22 6 13 16 18 29 29 36 79 55 53 66
REMARK Flexibility Score: inf
ROOT
ATOM      1  C   UNL     1       0.796   1.206  -5.139  1.00  0.00     0.021 C 
ENDROOT
BRANCH   1   2
ATOM      2  C   UNL     1       0.150   0.446  -3.984  1.00  0.00     0.116 C 
BRANCH   2   3
ATOM      3  N   UNL     1       0.538  -0.947  -4.021  1.00  0.00    -0.352 N 
ATOM      4  C   UNL     1       1.491  -1.680  -3.369  1.00  0.00     0.255 C 
ATOM      5  O   UNL     1       1.567  -2.877  -3.666  1.00  0.00    -0.269 OA
ATOM      6  H   UNL     1       0.002  -1.482  -4.650  1.00  0.00     0.163 HD
BRANCH   4   7
ATOM      7  C   UNL     1       2.371  -1.174  -2.272  1.00  0.00     0.083 A 
ATOM      8  C   UNL     1       3.205   0.580  -0.801  1.00  0.00     0.042 A 
ATOM      9  C   UNL     1       3.804  -0.371   0.024  1.00  0.00     0.030 A 
ATOM     10  C   UNL     1       2.607   0.181  -2.004  1.00  0.00     0.043 A 
ATOM     11  C   UNL     1       3.673  -1.725  -0.277  1.00  0.00     0.049 A 
ATOM     12  C   UNL     1       2.936  -2.120  -1.392  1.00  0.00     0.128 A 
BRANCH   8  13
ATOM     13  N   UNL     1       3.176   1.910  -0.351  1.00  0.00    -0.322 N 
ATOM     14  C   UNL     1       2.206   2.898  -0.426  1.00  0.00     0.255 C 
ATOM     15  O   UNL     1       2.554   4.061  -0.210  1.00  0.00    -0.269 OA
ATOM     16  H   UNL     1       4.002   2.195   0.104  1.00  0.00     0.170 HD
BRANCH  14  17
ATOM     17  C   UNL     1       0.738   2.627  -0.602  1.00  0.00     0.043 A 
ATOM     18  C   UNL     1      -1.189   1.127  -0.685  1.00  0.00     0.120 A 
ATOM     19  C   UNL     1      -2.038   2.198  -0.922  1.00  0.00     0.046 A 
ATOM     20  C   UNL     1       0.174   1.357  -0.502  1.00  0.00     0.060 A 
ATOM     21  C   UNL     1      -1.517   3.494  -0.947  1.00  0.00     0.005 A 
ATOM     22  C   UNL     1      -0.138   3.705  -0.798  1.00  0.00     0.014 A 
BRANCH  18  23
ATOM     23  O   UNL     1      -1.659  -0.146  -0.860  1.00  0.00    -0.493 OA
BRANCH  23  24
ATOM     24  C   UNL     1      -1.692  -0.974   0.318  1.00  0.00     0.232 C 
BRANCH  24  25
ATOM     25  C   UNL     1      -0.334  -1.622   0.663  1.00  0.00     0.020 C 
ATOM     26  C   UNL     1       0.280  -0.976   1.912  1.00  0.00     0.011 C 
ATOM     27  C   UNL     1      -0.448  -3.127   0.908  1.00  0.00     0.011 C 
ENDBRANCH  24  25
ENDBRANCH  23  24
ENDBRANCH  18  23
ENDBRANCH  14  17
ENDBRANCH   8  13
BRANCH  12  28
ATOM     28  O   UNL     1       2.777  -3.476  -1.532  1.00  0.00    -0.507 OA
ATOM     29  H   UNL     1       3.175  -4.060  -0.917  1.00  0.00     0.293 HD
ENDBRANCH  12  28
ENDBRANCH   4   7
ENDBRANCH   2   3
ENDBRANCH   1   2
BRANCH   1  30
ATOM     30  C   UNL     1      -0.113   1.270  -6.369  1.00  0.00     0.002 C 
BRANCH  30  31
ATOM     31  C   UNL     1      -1.405   2.071  -6.157  1.00  0.00     0.002 C 
BRANCH  31  32
ATOM     32  C   UNL     1      -1.207   3.497  -5.635  1.00  0.00     0.021 C 
BRANCH  32  33
ATOM     33  C   UNL     1      -0.278   4.357  -6.484  1.00  0.00     0.116 C 
BRANCH  33  34
ATOM     34  N   UNL     1      -0.746   4.468  -7.855  1.00  0.00    -0.352 N 
ATOM     35  C   UNL     1      -0.900   5.583  -8.630  1.00  0.00     0.251 C 
ATOM     36  H   UNL     1      -0.987   3.617  -8.288  1.00  0.00     0.163 HD
ATOM     37  O   UNL     1      -1.499   5.509  -9.705  1.00  0.00    -0.269 OA
BRANCH  35  38
ATOM     38  C   UNL     1      -0.356   6.878  -8.182  1.00  0.00     0.039 A 
ATOM     39  C   UNL     1      -1.129   8.029  -8.353  1.00  0.00     0.014 A 
ATOM     40  C   UNL     1       0.930   6.965  -7.637  1.00  0.00     0.014 A 
ATOM     41  C   UNL     1      -0.623   9.267  -7.958  1.00  0.00     0.010 A 
ATOM     42  C   UNL     1       1.407   8.190  -7.183  1.00  0.00     0.010 A 
ATOM     43  C   UNL     1       0.645   9.354  -7.362  1.00  0.00    -0.014 A 
BRANCH  43  44
ATOM     44  C   UNL     1       1.216  10.665  -6.972  1.00  0.00     0.031 A 
ATOM     45  C   UNL     1       2.426  11.194  -7.690  1.00  0.00     0.074 A 
ATOM     46  C   UNL     1       0.676  11.354  -5.949  1.00  0.00     0.049 A 
ATOM     47  N   UNL     1       3.112  12.285  -7.464  1.00  0.00    -0.248 NA
ATOM     48  C   UNL     1       2.951  10.373  -8.794  1.00  0.00     0.031 C 
ATOM     49  C   UNL     1      -0.473  10.923  -5.151  1.00  0.00     0.029 A 
ATOM     50  N   UNL     1       1.030  12.559  -5.401  1.00  0.00    -0.354 N 
ATOM     51  C   UNL     1       4.157  12.270  -8.380  1.00  0.00     0.074 A 
ATOM     52  C   UNL     1       4.045  11.039  -9.131  1.00  0.00     0.031 C 
ATOM     53  C   UNL     1      -0.741  11.861  -4.228  1.00  0.00     0.029 A 
ATOM     54  C   UNL     1       0.234  12.941  -4.349  1.00  0.00     0.049 A 
ATOM     55  H   UNL     1       1.784  13.100  -5.729  1.00  0.00     0.167 HD
ATOM     56  C   UNL     1       5.109  13.208  -8.592  1.00  0.00     0.037 A 
ATOM     57  C   UNL     1       0.288  14.038  -3.571  1.00  0.00     0.037 A 
ATOM     58  C   UNL     1       5.196  14.447  -7.866  1.00  0.00     0.049 A 
ATOM     59  C   UNL     1       1.347  15.072  -3.836  1.00  0.00     0.074 A 
ATOM     60  C   UNL     1       6.089  15.489  -8.040  1.00  0.00     0.029 A 
ATOM     61  N   UNL     1       4.351  14.811  -6.828  1.00  0.00    -0.354 N 
ATOM     62  N   UNL     1       2.293  15.073  -4.744  1.00  0.00    -0.248 NA
ATOM     63  C   UNL     1       1.338  16.263  -2.976  1.00  0.00     0.031 C 
ATOM     64  C   UNL     1       5.804  16.471  -7.084  1.00  0.00     0.029 A 
ATOM     65  C   UNL     1       4.708  16.058  -6.344  1.00  0.00     0.049 A 
ATOM     66  H   UNL     1       3.607  14.264  -6.486  1.00  0.00     0.167 HD
ATOM     67  C   UNL     1       2.972  16.274  -4.585  1.00  0.00     0.074 A 
ATOM     68  C   UNL     1       2.321  16.981  -3.500  1.00  0.00     0.031 C 
ATOM     69  C   UNL     1       4.037  16.750  -5.274  1.00  0.00     0.037 A 
BRANCH  56  70
ATOM     70  C   UNL     1       6.128  12.929  -9.658  1.00  0.00     0.057 A 
ATOM     71  C   UNL     1       5.796  12.943 -11.019  1.00  0.00     0.134 A 
ATOM     72  C   UNL     1       7.462  12.666  -9.322  1.00  0.00     0.134 A 
ATOM     73  F   UNL     1       4.533  13.174 -11.408  1.00  0.00    -0.206 F 
ATOM     74  C   UNL     1       6.747  12.677 -12.006  1.00  0.00     0.040 A 
ATOM     75  C   UNL     1       8.428  12.426 -10.301  1.00  0.00     0.040 A 
ATOM     76  F   UNL     1       7.850  12.643  -8.038  1.00  0.00    -0.206 F 
ATOM     77  C   UNL     1       8.069  12.424 -11.648  1.00  0.00     0.006 A 
ENDBRANCH  56  70
BRANCH  57  78
ATOM     78  C   UNL     1      -0.709  14.232  -2.490  1.00  0.00     0.057 A 
ATOM     79  C   UNL     1      -1.705  15.209  -2.595  1.00  0.00     0.134 A 
ATOM     80  C   UNL     1      -0.689  13.453  -1.327  1.00  0.00     0.134 A 
ATOM     81  F   UNL     1      -1.764  15.997  -3.679  1.00  0.00    -0.206 F 
ATOM     82  C   UNL     1      -2.633  15.421  -1.575  1.00  0.00     0.040 A 
ATOM     83  C   UNL     1      -1.625  13.638  -0.308  1.00  0.00     0.040 A 
ATOM     84  F   UNL     1       0.235  12.494  -1.170  1.00  0.00    -0.206 F 
ATOM     85  C   UNL     1      -2.596  14.631  -0.428  1.00  0.00     0.006 A 
ENDBRANCH  57  78
BRANCH  69  86
ATOM     86  C   UNL     1       4.536  18.116  -4.907  1.00  0.00     0.057 A 
ATOM     87  C   UNL     1       5.248  18.351  -3.725  1.00  0.00     0.134 A 
ATOM     88  C   UNL     1       4.333  19.201  -5.769  1.00  0.00     0.134 A 
ATOM     89  F   UNL     1       5.463  17.355  -2.852  1.00  0.00    -0.206 F 
ATOM     90  C   UNL     1       5.724  19.622  -3.403  1.00  0.00     0.040 A 
ATOM     91  C   UNL     1       4.826  20.471  -5.470  1.00  0.00     0.040 A 
ATOM     92  F   UNL     1       3.666  19.040  -6.922  1.00  0.00    -0.206 F 
ATOM     93  C   UNL     1       5.519  20.686  -4.280  1.00  0.00     0.006 A 
ENDBRANCH  69  86
ENDBRANCH  43  44
ENDBRANCH  35  38
ENDBRANCH  33  34
ENDBRANCH  32  33
ENDBRANCH  31  32
ENDBRANCH  30  31
ENDBRANCH   1  30
TORSDOF 19
