REMARK SMILES Cc1c(CC(=O)NCCCCCCNC(=O)c2ccc(-c3c4nc(c(-c5c(F)cccc5F)c5ccc([nH]5)c(-c5c(F)cccc5F)c5nc(c(-c6c(F)cccc6F)c6ccc3[nH]6)C=C5)C=C4)cc2)cc(-c2ccccc2)cc1-c1ccccc1
REMARK SMILES IDX 10 1 9 2 8 3 7 4 5 5 6 6 4 8 3 9 1 10 2 11 80 12 71 13 79 14
REMARK SMILES IDX 72 15 81 16 82 17 86 18 83 19 85 20 84 21 73 22 74 23 78 24
REMARK SMILES IDX 75 25 77 26 76 27 11 28 12 29 13 30 14 31 15 32 16 34 17 35
REMARK SMILES IDX 18 36 70 37 19 38 69 39 20 40 21 41 22 42 63 43 23 44 68 45
REMARK SMILES IDX 62 46 64 47 24 48 67 49 61 50 60 51 25 53 51 54 34 55 50 56
REMARK SMILES IDX 35 57 38 58 49 59 65 60 36 61 37 62 48 64 66 65 39 66 26 67
REMARK SMILES IDX 27 68 32 69 28 70 29 71 31 72 33 73 30 74 52 75 53 76 58 77
REMARK SMILES IDX 54 78 55 79 57 80 59 81 56 82 40 83 41 84 46 85 42 86 43 87
REMARK SMILES IDX 45 88 47 89 44 90
REMARK H PARENT 7 7 14 33 64 52 38 63
REMARK Flexibility Score: inf
ROOT
ATOM      1  C   UNL     1       0.403  -1.431   5.093  1.00  0.00     0.002 C 
ENDROOT
BRANCH   1   2
ATOM      2  C   UNL     1       0.646  -0.967   3.650  1.00  0.00     0.021 C 
BRANCH   2   3
ATOM      3  C   UNL     1       1.531  -1.893   2.814  1.00  0.00     0.116 C 
BRANCH   3   4
ATOM      4  N   UNL     1       0.823  -3.059   2.333  1.00  0.00    -0.356 N 
ATOM      5  C   UNL     1       0.545  -3.424   1.046  1.00  0.00     0.224 C 
ATOM      6  O   UNL     1      -0.044  -4.490   0.857  1.00  0.00    -0.275 OA
ATOM      7  H   UNL     1       0.497  -3.675   3.029  1.00  0.00     0.163 HD
BRANCH   5   8
ATOM      8  C   UNL     1       0.995  -2.551  -0.122  1.00  0.00     0.135 C 
BRANCH   8   9
ATOM      9  C   UNL     1       0.323  -1.189  -0.173  1.00  0.00    -0.035 A 
ATOM     10  C   UNL     1       2.540   0.046  -0.399  1.00  0.00     0.045 C 
ATOM     11  C   UNL     1       1.034   0.038  -0.249  1.00  0.00    -0.040 A 
ATOM     12  C   UNL     1       0.308   1.260  -0.237  1.00  0.00    -0.015 A 
ATOM     13  C   UNL     1      -1.086  -1.173  -0.149  1.00  0.00     0.013 A 
ATOM     14  C   UNL     1      -1.102   1.220  -0.190  1.00  0.00     0.017 A 
ATOM     15  C   UNL     1      -1.817   0.017  -0.160  1.00  0.00    -0.017 A 
BRANCH  12  16
ATOM     16  C   UNL     1       0.958   2.586  -0.237  1.00  0.00    -0.018 A 
ATOM     17  C   UNL     1       0.823   3.442   0.871  1.00  0.00     0.009 A 
ATOM     18  C   UNL     1       1.718   3.034  -1.329  1.00  0.00     0.009 A 
ATOM     19  C   UNL     1       1.441   4.694   0.894  1.00  0.00     0.001 A 
ATOM     20  C   UNL     1       2.349   4.281  -1.300  1.00  0.00     0.001 A 
ATOM     21  C   UNL     1       2.210   5.109  -0.189  1.00  0.00     0.000 A 
ENDBRANCH  12  16
BRANCH  15  22
ATOM     22  C   UNL     1      -3.287  -0.003  -0.156  1.00  0.00    -0.018 A 
ATOM     23  C   UNL     1      -4.002  -0.679   0.847  1.00  0.00     0.009 A 
ATOM     24  C   UNL     1      -4.017   0.633  -1.174  1.00  0.00     0.009 A 
ATOM     25  C   UNL     1      -5.399  -0.724   0.829  1.00  0.00     0.001 A 
ATOM     26  C   UNL     1      -5.413   0.586  -1.195  1.00  0.00     0.001 A 
ATOM     27  C   UNL     1      -6.103  -0.093  -0.194  1.00  0.00     0.000 A 
ENDBRANCH  15  22
ENDBRANCH   8   9
ENDBRANCH   5   8
ENDBRANCH   3   4
ENDBRANCH   2   3
ENDBRANCH   1   2
BRANCH   1  28
ATOM     28  C   UNL     1       1.648  -1.810   5.914  1.00  0.00     0.002 C 
BRANCH  28  29
ATOM     29  C   UNL     1       2.829  -0.836   5.848  1.00  0.00     0.021 C 
BRANCH  29  30
ATOM     30  C   UNL     1       2.584   0.491   6.555  1.00  0.00     0.116 C 
BRANCH  30  31
ATOM     31  N   UNL     1       3.181   0.571   7.882  1.00  0.00    -0.352 N 
ATOM     32  C   UNL     1       3.028   1.540   8.858  1.00  0.00     0.251 C 
ATOM     33  H   UNL     1       3.781  -0.173   8.118  1.00  0.00     0.163 HD
ATOM     34  O   UNL     1       3.635   1.446   9.915  1.00  0.00    -0.269 OA
BRANCH  32  35
ATOM     35  C   UNL     1       2.022   2.615   8.670  1.00  0.00     0.039 A 
ATOM     36  C   UNL     1       1.155   2.882   9.736  1.00  0.00     0.014 A 
ATOM     37  C   UNL     1       1.802   3.199   7.425  1.00  0.00     0.014 A 
ATOM     38  C   UNL     1      -0.059   3.515   9.485  1.00  0.00     0.010 A 
ATOM     39  C   UNL     1       0.565   3.754   7.154  1.00  0.00     0.010 A 
ATOM     40  C   UNL     1      -0.390   3.841   8.170  1.00  0.00    -0.014 A 
BRANCH  40  41
ATOM     41  C   UNL     1      -1.760   4.126   7.758  1.00  0.00     0.031 A 
ATOM     42  C   UNL     1      -2.213   5.509   7.529  1.00  0.00     0.074 A 
ATOM     43  C   UNL     1      -2.615   3.096   7.574  1.00  0.00     0.049 A 
ATOM     44  N   UNL     1      -3.424   5.916   7.720  1.00  0.00    -0.248 NA
ATOM     45  C   UNL     1      -1.307   6.563   7.091  1.00  0.00     0.031 C 
ATOM     46  C   UNL     1      -3.947   3.144   6.981  1.00  0.00     0.029 A 
ATOM     47  N   UNL     1      -2.511   1.802   8.102  1.00  0.00    -0.354 N 
ATOM     48  C   UNL     1      -3.523   7.187   7.201  1.00  0.00     0.074 A 
ATOM     49  C   UNL     1      -2.165   7.566   6.877  1.00  0.00     0.031 C 
ATOM     50  C   UNL     1      -4.642   2.072   7.395  1.00  0.00     0.029 A 
ATOM     51  C   UNL     1      -3.825   1.379   8.378  1.00  0.00     0.049 A 
ATOM     52  H   UNL     1      -1.683   1.291   8.250  1.00  0.00     0.167 HD
ATOM     53  C   UNL     1      -4.753   7.732   6.968  1.00  0.00     0.037 A 
ATOM     54  C   UNL     1      -4.221   1.074   9.647  1.00  0.00     0.037 A 
ATOM     55  C   UNL     1      -5.824   6.817   7.351  1.00  0.00     0.049 A 
ATOM     56  C   UNL     1      -5.361   1.923  10.155  1.00  0.00     0.074 A 
ATOM     57  C   UNL     1      -6.559   5.901   6.615  1.00  0.00     0.029 A 
ATOM     58  N   UNL     1      -6.054   6.524   8.690  1.00  0.00    -0.354 N 
ATOM     59  N   UNL     1      -5.703   3.068   9.632  1.00  0.00    -0.248 NA
ATOM     60  C   UNL     1      -6.170   1.575  11.321  1.00  0.00     0.031 C 
ATOM     61  C   UNL     1      -7.189   5.014   7.518  1.00  0.00     0.029 A 
ATOM     62  C   UNL     1      -6.854   5.402   8.804  1.00  0.00     0.049 A 
ATOM     63  H   UNL     1      -5.699   7.041   9.449  1.00  0.00     0.167 HD
ATOM     64  C   UNL     1      -6.706   3.624  10.381  1.00  0.00     0.074 A 
ATOM     65  C   UNL     1      -6.983   2.641  11.410  1.00  0.00     0.031 C 
ATOM     66  C   UNL     1      -7.213   4.860  10.103  1.00  0.00     0.037 A 
BRANCH  53  67
ATOM     67  C   UNL     1      -4.960   8.942   6.084  1.00  0.00     0.057 A 
ATOM     68  C   UNL     1      -6.094   9.054   5.254  1.00  0.00     0.134 A 
ATOM     69  C   UNL     1      -4.047  10.002   5.960  1.00  0.00     0.134 A 
ATOM     70  F   UNL     1      -7.122   8.201   5.343  1.00  0.00    -0.206 F 
ATOM     71  C   UNL     1      -6.231  10.052   4.280  1.00  0.00     0.040 A 
ATOM     72  C   UNL     1      -4.143  10.977   4.956  1.00  0.00     0.040 A 
ATOM     73  F   UNL     1      -3.043  10.160   6.835  1.00  0.00    -0.206 F 
ATOM     74  C   UNL     1      -5.230  10.992   4.095  1.00  0.00     0.006 A 
ENDBRANCH  53  67
BRANCH  54  75
ATOM     75  C   UNL     1      -3.132   0.539  10.504  1.00  0.00     0.057 A 
ATOM     76  C   UNL     1      -2.555  -0.700  10.176  1.00  0.00     0.134 A 
ATOM     77  C   UNL     1      -2.429   1.354  11.396  1.00  0.00     0.134 A 
ATOM     78  F   UNL     1      -3.179  -1.529   9.324  1.00  0.00    -0.206 F 
ATOM     79  C   UNL     1      -1.288  -1.068  10.633  1.00  0.00     0.040 A 
ATOM     80  C   UNL     1      -1.163   0.991  11.868  1.00  0.00     0.040 A 
ATOM     81  F   UNL     1      -2.904   2.559  11.740  1.00  0.00    -0.206 F 
ATOM     82  C   UNL     1      -0.574  -0.205  11.458  1.00  0.00     0.006 A 
ENDBRANCH  54  75
BRANCH  66  83
ATOM     83  C   UNL     1      -8.165   5.621  10.983  1.00  0.00     0.057 A 
ATOM     84  C   UNL     1      -8.142   5.571  12.384  1.00  0.00     0.134 A 
ATOM     85  C   UNL     1      -9.061   6.557  10.425  1.00  0.00     0.134 A 
ATOM     86  F   UNL     1      -7.264   4.800  13.041  1.00  0.00    -0.206 F 
ATOM     87  C   UNL     1      -8.993   6.353  13.175  1.00  0.00     0.040 A 
ATOM     88  C   UNL     1      -9.881   7.377  11.205  1.00  0.00     0.040 A 
ATOM     89  F   UNL     1      -9.164   6.725   9.098  1.00  0.00    -0.206 F 
ATOM     90  C   UNL     1      -9.859   7.267  12.587  1.00  0.00     0.006 A 
ENDBRANCH  66  83
ENDBRANCH  40  41
ENDBRANCH  32  35
ENDBRANCH  30  31
ENDBRANCH  29  30
ENDBRANCH  28  29
ENDBRANCH   1  28
TORSDOF 16
