REMARK SMILES O=C(Cn1c2ccccc2c(=O)c2ccccc21)N[C@@H](Cc1ccccc1)C(=O)NCCCCCCNC(=O)c1ccc(-c2c3nc(c(-c4c(F)cccc4F)c4ccc([nH]4)c(-c4c(F)cccc4F)c4nc(c(-c5c(F)cccc5F)c5ccc2[nH]5)C=C4)C=C3)cc1
REMARK SMILES IDX 33 1 32 2 31 3 30 4 28 5 29 6 20 8 19 9 1 10 2 11 3 13 4 14
REMARK SMILES IDX 5 15 18 16 6 17 10 18 13 19 17 20 7 21 9 22 11 23 14 24
REMARK SMILES IDX 16 25 8 26 12 27 15 28 21 29 22 30 23 31 27 32 24 33 26 34
REMARK SMILES IDX 25 35 34 36 35 37 36 38 37 39 38 40 39 42 40 43 41 44 93 45
REMARK SMILES IDX 42 46 92 47 43 48 44 49 45 50 86 51 46 52 91 53 85 54 87 55
REMARK SMILES IDX 47 56 90 57 84 58 83 59 48 61 74 62 57 63 73 64 58 65 61 66
REMARK SMILES IDX 72 67 88 68 59 69 60 70 71 72 89 73 62 74 49 75 50 76 55 77
REMARK SMILES IDX 51 78 52 79 54 80 56 81 53 82 75 83 76 84 81 85 77 86 78 87
REMARK SMILES IDX 80 88 82 89 79 90 63 91 64 92 69 93 65 94 66 95 68 96 70 97
REMARK SMILES IDX 67 98
REMARK H PARENT 30 7 19 12 37 41 87 60 61 71
REMARK Flexibility Score: inf
ROOT
ATOM      1  C   UNL     1       6.888  -4.521   0.075  1.00  0.00     0.002 C 
ENDROOT
BRANCH   1   2
ATOM      2  C   UNL     1       6.347  -3.103  -0.129  1.00  0.00     0.021 C 
BRANCH   2   3
ATOM      3  C   UNL     1       5.379  -2.948  -1.292  1.00  0.00     0.116 C 
BRANCH   3   4
ATOM      4  N   UNL     1       4.087  -3.552  -1.054  1.00  0.00    -0.354 N 
ATOM      5  C   UNL     1       2.847  -3.162  -1.472  1.00  0.00     0.242 C 
ATOM      6  O   UNL     1       1.987  -4.046  -1.562  1.00  0.00    -0.273 OA
ATOM      7  H   UNL     1       4.103  -4.370  -0.507  1.00  0.00     0.163 HD
BRANCH   5   8
ATOM      8  C   UNL     1       2.525  -1.715  -1.906  1.00  0.00     0.175 C 
BRANCH   8   9
ATOM      9  N   UNL     1       3.093  -0.705  -1.001  1.00  0.00    -0.342 N 
ATOM     10  O   UNL     1       1.102   0.348  -0.595  1.00  0.00    -0.273 OA
ATOM     11  C   UNL     1       2.281   0.156  -0.297  1.00  0.00     0.240 C 
ATOM     12  H   UNL     1       4.070  -0.644  -0.896  1.00  0.00     0.164 HD
BRANCH  11  13
ATOM     13  C   UNL     1       2.934   0.911   0.861  1.00  0.00     0.222 C 
BRANCH  13  14
ATOM     14  N   UNL     1       3.736   0.137   1.857  1.00  0.00    -0.331 N 
ATOM     15  C   UNL     1       4.691   0.903   2.596  1.00  0.00     0.053 A 
ATOM     16  C   UNL     1       3.469  -1.208   2.201  1.00  0.00     0.053 A 
ATOM     17  C   UNL     1       4.782   2.308   2.545  1.00  0.00     0.027 A 
ATOM     18  C   UNL     1       5.585   0.257   3.470  1.00  0.00     0.046 A 
ATOM     19  C   UNL     1       4.391  -1.922   2.996  1.00  0.00     0.046 A 
ATOM     20  C   UNL     1       2.328  -1.925   1.812  1.00  0.00     0.027 A 
ATOM     21  C   UNL     1       5.712   3.019   3.319  1.00  0.00     0.002 A 
ATOM     22  C   UNL     1       6.514   0.963   4.253  1.00  0.00     0.014 A 
ATOM     23  C   UNL     1       5.541  -1.211   3.585  1.00  0.00     0.197 A 
ATOM     24  C   UNL     1       4.258  -3.296   3.263  1.00  0.00     0.014 A 
ATOM     25  C   UNL     1       2.193  -3.301   2.060  1.00  0.00     0.002 A 
ATOM     26  C   UNL     1       6.575   2.348   4.176  1.00  0.00     0.001 A 
ATOM     27  O   UNL     1       6.425  -1.820   4.179  1.00  0.00    -0.288 OA
ATOM     28  C   UNL     1       3.168  -3.993   2.765  1.00  0.00     0.001 A 
ENDBRANCH  13  14
ENDBRANCH  11  13
ENDBRANCH   8   9
BRANCH   8  29
ATOM     29  C   UNL     1       2.709  -1.446  -3.412  1.00  0.00     0.070 C 
BRANCH  29  30
ATOM     30  C   UNL     1       4.097  -1.606  -3.979  1.00  0.00    -0.045 A 
ATOM     31  C   UNL     1       5.015  -0.548  -3.933  1.00  0.00     0.004 A 
ATOM     32  C   UNL     1       4.496  -2.828  -4.545  1.00  0.00     0.004 A 
ATOM     33  C   UNL     1       6.319  -0.724  -4.402  1.00  0.00     0.000 A 
ATOM     34  C   UNL     1       5.800  -3.000  -5.013  1.00  0.00     0.000 A 
ATOM     35  C   UNL     1       6.713  -1.951  -4.933  1.00  0.00     0.000 A 
ENDBRANCH  29  30
ENDBRANCH   8  29
ENDBRANCH   5   8
ENDBRANCH   3   4
ENDBRANCH   2   3
ENDBRANCH   1   2
BRANCH   1  36
ATOM     36  C   UNL     1       7.525  -5.179  -1.155  1.00  0.00     0.002 C 
BRANCH  36  37
ATOM     37  C   UNL     1       8.537  -4.329  -1.927  1.00  0.00     0.021 C 
BRANCH  37  38
ATOM     38  C   UNL     1       9.695  -3.780  -1.105  1.00  0.00     0.116 C 
BRANCH  38  39
ATOM     39  N   UNL     1      10.574  -4.817  -0.595  1.00  0.00    -0.352 N 
ATOM     40  C   UNL     1      11.949  -4.879  -0.627  1.00  0.00     0.251 C 
ATOM     41  H   UNL     1      10.125  -5.581  -0.167  1.00  0.00     0.163 HD
ATOM     42  O   UNL     1      12.535  -5.883  -0.247  1.00  0.00    -0.269 OA
BRANCH  40  43
ATOM     43  C   UNL     1      12.714  -3.738  -1.179  1.00  0.00     0.039 A 
ATOM     44  C   UNL     1      12.436  -2.425  -0.787  1.00  0.00     0.014 A 
ATOM     45  C   UNL     1      13.691  -3.992  -2.144  1.00  0.00     0.014 A 
ATOM     46  C   UNL     1      13.011  -1.363  -1.481  1.00  0.00     0.010 A 
ATOM     47  C   UNL     1      14.319  -2.924  -2.790  1.00  0.00     0.010 A 
ATOM     48  C   UNL     1      13.941  -1.602  -2.504  1.00  0.00    -0.014 A 
BRANCH  48  49
ATOM     49  C   UNL     1      14.470  -0.475  -3.316  1.00  0.00     0.031 A 
ATOM     50  C   UNL     1      14.139  -0.384  -4.784  1.00  0.00     0.074 A 
ATOM     51  C   UNL     1      15.227   0.477  -2.739  1.00  0.00     0.049 A 
ATOM     52  N   UNL     1      14.574   0.465  -5.681  1.00  0.00    -0.248 NA
ATOM     53  C   UNL     1      13.195  -1.382  -5.314  1.00  0.00     0.031 C 
ATOM     54  C   UNL     1      15.594   0.524  -1.323  1.00  0.00     0.029 A 
ATOM     55  N   UNL     1      15.825   1.589  -3.276  1.00  0.00    -0.354 N 
ATOM     56  C   UNL     1      13.987   0.084  -6.882  1.00  0.00     0.074 A 
ATOM     57  C   UNL     1      13.174  -1.080  -6.605  1.00  0.00     0.031 C 
ATOM     58  C   UNL     1      16.338   1.619  -1.100  1.00  0.00     0.029 A 
ATOM     59  C   UNL     1      16.551   2.315  -2.364  1.00  0.00     0.049 A 
ATOM     60  H   UNL     1      15.740   1.843  -4.224  1.00  0.00     0.167 HD
ATOM     61  C   UNL     1      14.110   0.657  -8.103  1.00  0.00     0.037 A 
ATOM     62  C   UNL     1      17.329   3.401  -2.535  1.00  0.00     0.037 A 
ATOM     63  C   UNL     1      14.892   1.835  -8.373  1.00  0.00     0.049 A 
ATOM     64  C   UNL     1      17.486   3.987  -3.910  1.00  0.00     0.074 A 
ATOM     65  C   UNL     1      15.062   2.501  -9.575  1.00  0.00     0.029 A 
ATOM     66  N   UNL     1      15.630   2.525  -7.425  1.00  0.00    -0.354 N 
ATOM     67  N   UNL     1      16.928   3.615  -5.036  1.00  0.00    -0.248 NA
ATOM     68  C   UNL     1      18.391   5.138  -4.039  1.00  0.00     0.031 C 
ATOM     69  C   UNL     1      15.929   3.577  -9.360  1.00  0.00     0.029 A 
ATOM     70  C   UNL     1      16.268   3.602  -8.017  1.00  0.00     0.049 A 
ATOM     71  H   UNL     1      15.692   2.285  -6.472  1.00  0.00     0.167 HD
ATOM     72  C   UNL     1      17.393   4.499  -6.000  1.00  0.00     0.074 A 
ATOM     73  C   UNL     1      18.270   5.433  -5.326  1.00  0.00     0.031 C 
ATOM     74  C   UNL     1      17.119   4.534  -7.326  1.00  0.00     0.037 A 
BRANCH  61  75
ATOM     75  C   UNL     1      13.395   0.009  -9.251  1.00  0.00     0.057 A 
ATOM     76  C   UNL     1      14.112  -0.684 -10.235  1.00  0.00     0.134 A 
ATOM     77  C   UNL     1      12.008   0.115  -9.415  1.00  0.00     0.134 A 
ATOM     78  F   UNL     1      15.443  -0.817 -10.141  1.00  0.00    -0.206 F 
ATOM     79  C   UNL     1      13.475  -1.245 -11.344  1.00  0.00     0.040 A 
ATOM     80  C   UNL     1      11.358  -0.459 -10.509  1.00  0.00     0.040 A 
ATOM     81  F   UNL     1      11.263   0.754  -8.500  1.00  0.00    -0.206 F 
ATOM     82  C   UNL     1      12.093  -1.135 -11.481  1.00  0.00     0.006 A 
ENDBRANCH  61  75
BRANCH  62  83
ATOM     83  C   UNL     1      18.048   3.991  -1.379  1.00  0.00     0.057 A 
ATOM     84  C   UNL     1      19.118   3.324  -0.769  1.00  0.00     0.134 A 
ATOM     85  C   UNL     1      17.701   5.250  -0.876  1.00  0.00     0.134 A 
ATOM     86  F   UNL     1      19.497   2.114  -1.204  1.00  0.00    -0.206 F 
ATOM     87  C   UNL     1      19.813   3.885   0.302  1.00  0.00     0.040 A 
ATOM     88  C   UNL     1      18.405   5.835   0.177  1.00  0.00     0.040 A 
ATOM     89  F   UNL     1      16.699   5.946  -1.434  1.00  0.00    -0.206 F 
ATOM     90  C   UNL     1      19.463   5.149   0.772  1.00  0.00     0.006 A 
ENDBRANCH  62  83
BRANCH  74  91
ATOM     91  C   UNL     1      17.731   5.645  -8.123  1.00  0.00     0.057 A 
ATOM     92  C   UNL     1      16.946   6.714  -8.571  1.00  0.00     0.134 A 
ATOM     93  C   UNL     1      19.084   5.637  -8.482  1.00  0.00     0.134 A 
ATOM     94  F   UNL     1      15.641   6.776  -8.266  1.00  0.00    -0.206 F 
ATOM     95  C   UNL     1      17.484   7.735  -9.354  1.00  0.00     0.040 A 
ATOM     96  C   UNL     1      19.639   6.664  -9.246  1.00  0.00     0.040 A 
ATOM     97  F   UNL     1      19.891   4.647  -8.070  1.00  0.00    -0.206 F 
ATOM     98  C   UNL     1      18.836   7.713  -9.691  1.00  0.00     0.006 A 
ENDBRANCH  74  91
ENDBRANCH  48  49
ENDBRANCH  40  43
ENDBRANCH  38  39
ENDBRANCH  37  38
ENDBRANCH  36  37
ENDBRANCH   1  36
TORSDOF 18
