REMARK SMILES O=C(CNC(=O)CNC(=O)OCc1ccccc1)NCCCCCCNC(=O)c1ccc(-c2c3nc(c(-c4c(F)cccc4F)c4ccc([nH]4)c(-c4c(F)cccc4F)c4nc(c(-c5c(F)cccc5F)c5ccc2[nH]5)C=C4)C=C3)cc1
REMARK SMILES IDX 20 1 19 2 1 3 2 4 3 6 4 7 5 8 6 10 7 11 8 12 9 13 10 15
REMARK SMILES IDX 11 16 12 17 13 18 14 19 18 20 15 21 17 22 16 23 21 24 22 25
REMARK SMILES IDX 23 26 24 27 25 28 26 29 27 30 28 32 29 33 30 34 82 35 31 36
REMARK SMILES IDX 81 37 32 38 33 39 34 40 75 41 35 42 80 43 74 44 76 45 36 46
REMARK SMILES IDX 79 47 73 48 72 49 37 51 63 52 46 53 62 54 47 55 50 56 61 57
REMARK SMILES IDX 77 58 48 59 49 60 60 62 78 63 51 64 38 65 39 66 44 67 40 68
REMARK SMILES IDX 41 69 43 70 45 71 42 72 64 73 65 74 70 75 66 76 67 77 69 78
REMARK SMILES IDX 71 79 68 80 52 81 53 82 58 83 54 84 55 85 57 86 59 87 56 88
REMARK H PARENT 19 5 4 9 8 14 26 31 76 50 50 61
REMARK Flexibility Score: inf
ROOT
ATOM      1  C   UNL     1       2.216   2.081   0.776  1.00  0.00     0.116 C 
ENDROOT
BRANCH   1   2
ATOM      2  N   UNL     1       2.792   0.960   0.058  1.00  0.00    -0.355 N 
ATOM      3  O   UNL     1       1.072  -0.504   0.467  1.00  0.00    -0.273 OA
ATOM      4  C   UNL     1       2.145  -0.249  -0.075  1.00  0.00     0.239 C 
ATOM      5  H   UNL     1       3.682   1.067  -0.351  1.00  0.00     0.163 HD
BRANCH   4   6
ATOM      6  C   UNL     1       2.893  -1.315  -0.891  1.00  0.00     0.216 C 
BRANCH   6   7
ATOM      7  N   UNL     1       3.981  -0.797  -1.712  1.00  0.00    -0.346 N 
ATOM      8  C   UNL     1       5.326  -0.993  -1.586  1.00  0.00     0.239 C 
ATOM      9  H   UNL     1       3.707  -0.225  -2.464  1.00  0.00     0.164 HD
ATOM     10  O   UNL     1       6.074  -0.422  -2.381  1.00  0.00    -0.273 OA
BRANCH   8  11
ATOM     11  C   UNL     1       5.877  -1.823  -0.426  1.00  0.00     0.219 C 
BRANCH  11  12
ATOM     12  N   UNL     1       5.756  -1.023   0.775  1.00  0.00    -0.312 N 
ATOM     13  C   UNL     1       5.085  -1.352   1.909  1.00  0.00     0.407 C 
ATOM     14  H   UNL     1       6.209  -0.149   0.769  1.00  0.00     0.167 HD
ATOM     15  O   UNL     1       4.806  -0.488   2.730  1.00  0.00    -0.225 OA
BRANCH  13  16
ATOM     16  O   UNL     1       4.753  -2.660   1.988  1.00  0.00    -0.445 OA
BRANCH  16  17
ATOM     17  C   UNL     1       3.914  -3.017   3.100  1.00  0.00     0.270 C 
BRANCH  17  18
ATOM     18  C   UNL     1       4.673  -3.175   4.398  1.00  0.00    -0.011 A 
ATOM     19  C   UNL     1       5.226  -4.408   4.769  1.00  0.00     0.007 A 
ATOM     20  C   UNL     1       4.834  -2.081   5.261  1.00  0.00     0.007 A 
ATOM     21  C   UNL     1       5.917  -4.538   5.978  1.00  0.00     0.000 A 
ATOM     22  C   UNL     1       5.542  -2.206   6.456  1.00  0.00     0.000 A 
ATOM     23  C   UNL     1       6.080  -3.437   6.817  1.00  0.00     0.000 A 
ENDBRANCH  17  18
ENDBRANCH  16  17
ENDBRANCH  13  16
ENDBRANCH  11  12
ENDBRANCH   8  11
ENDBRANCH   6   7
ENDBRANCH   4   6
ENDBRANCH   1   2
BRANCH   1  24
ATOM     24  C   UNL     1       2.771   2.241   2.191  1.00  0.00     0.021 C 
BRANCH  24  25
ATOM     25  C   UNL     1       4.260   2.600   2.267  1.00  0.00     0.002 C 
BRANCH  25  26
ATOM     26  C   UNL     1       4.681   3.900   1.579  1.00  0.00     0.002 C 
BRANCH  26  27
ATOM     27  C   UNL     1       3.970   5.167   2.054  1.00  0.00     0.021 C 
BRANCH  27  28
ATOM     28  C   UNL     1       4.096   5.476   3.544  1.00  0.00     0.116 C 
BRANCH  28  29
ATOM     29  N   UNL     1       5.471   5.701   3.963  1.00  0.00    -0.352 N 
ATOM     30  C   UNL     1       6.027   6.750   4.654  1.00  0.00     0.251 C 
ATOM     31  H   UNL     1       6.102   4.989   3.713  1.00  0.00     0.163 HD
ATOM     32  O   UNL     1       7.246   6.812   4.793  1.00  0.00    -0.269 OA
BRANCH  30  33
ATOM     33  C   UNL     1       5.177   7.828   5.210  1.00  0.00     0.039 A 
ATOM     34  C   UNL     1       5.600   9.154   5.069  1.00  0.00     0.014 A 
ATOM     35  C   UNL     1       3.985   7.546   5.884  1.00  0.00     0.014 A 
ATOM     36  C   UNL     1       4.795  10.196   5.535  1.00  0.00     0.010 A 
ATOM     37  C   UNL     1       3.152   8.588   6.291  1.00  0.00     0.010 A 
ATOM     38  C   UNL     1       3.546   9.923   6.115  1.00  0.00    -0.014 A 
BRANCH  38  39
ATOM     39  C   UNL     1       2.631  11.025   6.513  1.00  0.00     0.031 A 
ATOM     40  C   UNL     1       2.281  11.250   7.956  1.00  0.00     0.074 A 
ATOM     41  C   UNL     1       2.065  11.789   5.559  1.00  0.00     0.049 A 
ATOM     42  N   UNL     1       1.475  12.139   8.481  1.00  0.00    -0.248 NA
ATOM     43  C   UNL     1       2.897  10.344   8.936  1.00  0.00     0.031 C 
ATOM     44  C   UNL     1       2.279  11.641   4.118  1.00  0.00     0.029 A 
ATOM     45  N   UNL     1       1.187  12.839   5.658  1.00  0.00    -0.354 N 
ATOM     46  C   UNL     1       1.475  11.890   9.848  1.00  0.00     0.074 A 
ATOM     47  C   UNL     1       2.327  10.740  10.065  1.00  0.00     0.031 C 
ATOM     48  C   UNL     1       1.574  12.582   3.470  1.00  0.00     0.029 A 
ATOM     49  C   UNL     1       0.836  13.380   4.445  1.00  0.00     0.049 A 
ATOM     50  H   UNL     1       0.841  13.174   6.517  1.00  0.00     0.167 HD
ATOM     51  C   UNL     1       0.840  12.569  10.833  1.00  0.00     0.037 A 
ATOM     52  C   UNL     1       0.014  14.403   4.149  1.00  0.00     0.037 A 
ATOM     53  C   UNL     1       0.013  13.729  10.621  1.00  0.00     0.049 A 
ATOM     54  C   UNL     1      -0.674  15.144   5.259  1.00  0.00     0.074 A 
ATOM     55  C   UNL     1      -0.608  14.530  11.564  1.00  0.00     0.029 A 
ATOM     56  N   UNL     1      -0.313  14.250   9.378  1.00  0.00    -0.354 N 
ATOM     57  N   UNL     1      -0.604  14.945   6.552  1.00  0.00    -0.248 NA
ATOM     58  C   UNL     1      -1.553  16.255   4.867  1.00  0.00     0.031 C 
ATOM     59  C   UNL     1      -1.341  15.513  10.889  1.00  0.00     0.029 A 
ATOM     60  C   UNL     1      -1.146  15.347   9.528  1.00  0.00     0.049 A 
ATOM     61  H   UNL     1       0.001  13.893   8.516  1.00  0.00     0.167 HD
ATOM     62  C   UNL     1      -1.411  15.915   7.130  1.00  0.00     0.074 A 
ATOM     63  C   UNL     1      -1.950  16.712   6.047  1.00  0.00     0.031 C 
ATOM     64  C   UNL     1      -1.680  16.127   8.442  1.00  0.00     0.037 A 
BRANCH  51  65
ATOM     65  C   UNL     1       1.019  12.070  12.237  1.00  0.00     0.057 A 
ATOM     66  C   UNL     1       2.231  12.217  12.923  1.00  0.00     0.134 A 
ATOM     67  C   UNL     1      -0.039  11.456  12.918  1.00  0.00     0.134 A 
ATOM     68  F   UNL     1       3.287  12.787  12.323  1.00  0.00    -0.206 F 
ATOM     69  C   UNL     1       2.394  11.745  14.227  1.00  0.00     0.040 A 
ATOM     70  C   UNL     1       0.104  11.002  14.230  1.00  0.00     0.040 A 
ATOM     71  F   UNL     1      -1.229  11.289  12.322  1.00  0.00    -0.206 F 
ATOM     72  C   UNL     1       1.327  11.140  14.886  1.00  0.00     0.006 A 
ENDBRANCH  51  65
BRANCH  52  73
ATOM     73  C   UNL     1      -0.175  14.811   2.736  1.00  0.00     0.057 A 
ATOM     74  C   UNL     1       0.400  15.990   2.248  1.00  0.00     0.134 A 
ATOM     75  C   UNL     1      -0.919  14.034   1.841  1.00  0.00     0.134 A 
ATOM     76  F   UNL     1       1.107  16.784   3.065  1.00  0.00    -0.206 F 
ATOM     77  C   UNL     1       0.233  16.389   0.921  1.00  0.00     0.040 A 
ATOM     78  C   UNL     1      -1.078  14.410   0.507  1.00  0.00     0.040 A 
ATOM     79  F   UNL     1      -1.489  12.890   2.249  1.00  0.00    -0.206 F 
ATOM     80  C   UNL     1      -0.504  15.594   0.045  1.00  0.00     0.006 A 
ENDBRANCH  52  73
BRANCH  64  81
ATOM     81  C   UNL     1      -2.586  17.276   8.774  1.00  0.00     0.057 A 
ATOM     82  C   UNL     1      -3.966  17.215   8.544  1.00  0.00     0.134 A 
ATOM     83  C   UNL     1      -2.075  18.444   9.352  1.00  0.00     0.134 A 
ATOM     84  F   UNL     1      -4.514  16.129   7.979  1.00  0.00    -0.206 F 
ATOM     85  C   UNL     1      -4.804  18.286   8.858  1.00  0.00     0.040 A 
ATOM     86  C   UNL     1      -2.906  19.513   9.691  1.00  0.00     0.040 A 
ATOM     87  F   UNL     1      -0.763  18.563   9.604  1.00  0.00    -0.206 F 
ATOM     88  C   UNL     1      -4.274  19.438   9.438  1.00  0.00     0.006 A 
ENDBRANCH  64  81
ENDBRANCH  38  39
ENDBRANCH  30  33
ENDBRANCH  28  29
ENDBRANCH  27  28
ENDBRANCH  26  27
ENDBRANCH  25  26
ENDBRANCH  24  25
ENDBRANCH   1  24
TORSDOF 19
