REMARK SMILES CC1=C(C)C[C@@H](C(=O)NCCCCCCNC(=O)c2ccc(-c3c4nc(c(-c5c(F)cccc5F)c5ccc([nH]5)c(-c5c(F)cccc5F)c5nc(c(-c6c(F)cccc6F)c6ccc3[nH]6)C=C5)C=C4)cc2)[C@@H](C(=O)N2CCN(c3cccc(C(F)(F)F)c3)CC2)C1
REMARK SMILES IDX 12 1 11 2 10 3 9 4 7 5 8 6 6 8 1 9 2 10 3 11 92 12 4 13 5 14
REMARK SMILES IDX 73 15 74 16 75 17 76 18 77 19 91 20 78 21 90 22 79 23 80 24
REMARK SMILES IDX 81 25 89 26 82 27 84 28 83 29 85 30 86 31 87 32 88 33 13 34
REMARK SMILES IDX 14 35 15 36 16 37 17 38 18 40 19 41 20 42 72 43 21 44 71 45
REMARK SMILES IDX 22 46 23 47 24 48 65 49 25 50 70 51 64 52 66 53 26 54 69 55
REMARK SMILES IDX 63 56 62 57 27 59 53 60 36 61 52 62 37 63 40 64 51 65 67 66
REMARK SMILES IDX 38 67 39 68 50 70 68 71 41 72 28 73 29 74 34 75 30 76 31 77
REMARK SMILES IDX 33 78 35 79 32 80 54 81 55 82 60 83 56 84 57 85 59 86 61 87
REMARK SMILES IDX 58 88 42 89 43 90 48 91 44 92 45 93 47 94 49 95 46 96
REMARK H PARENT 9 7 16 39 66 58 40 69
REMARK Flexibility Score: inf
ROOT
ATOM      1  C   UNL     1      -5.397  -3.142   0.577  1.00  0.00     0.002 C 
ENDROOT
BRANCH   1   2
ATOM      2  C   UNL     1      -4.255  -2.217  -0.682  1.00  0.00     0.021 C 
BRANCH   2   3
ATOM      3  C   UNL     1      -2.134  -2.378  -0.527  1.00  0.00     0.116 C 
BRANCH   3   4
ATOM      4  N   UNL     1      -1.234  -3.739  -0.831  1.00  0.00    -0.356 N 
ATOM      5  C   UNL     1      -0.530  -4.208  -1.895  1.00  0.00     0.224 C 
ATOM      6  O   UNL     1      -0.509  -5.428  -2.072  1.00  0.00    -0.275 OA
ATOM      7  H   UNL     1      -1.202  -4.350  -0.060  1.00  0.00     0.163 HD
BRANCH   5   8
ATOM      8  C   UNL     1       0.392  -3.305  -2.628  1.00  0.00     0.095 C 
ATOM      9  C   UNL     1       1.110   0.370  -0.284  1.00  0.00     0.039 C 
ATOM     10  C   UNL     1       0.974  -0.879  -1.113  1.00  0.00    -0.074 C 
ATOM     11  C   UNL     1       1.490  -2.050  -0.690  1.00  0.00    -0.074 C 
ATOM     12  C   UNL     1       0.323  -0.748  -2.490  1.00  0.00     0.045 C 
ATOM     13  C   UNL     1       2.051  -2.326   0.685  1.00  0.00     0.039 C 
ATOM     14  C   UNL     1       1.569  -3.205  -1.646  1.00  0.00     0.045 C 
ATOM     15  C   UNL     1      -0.266  -2.029  -3.161  1.00  0.00     0.095 C 
BRANCH  15  16
ATOM     16  C   UNL     1      -1.819  -2.313  -3.498  1.00  0.00     0.226 C 
ATOM     17  O   UNL     1      -2.101  -2.817  -4.590  1.00  0.00    -0.275 OA
ATOM     18  N   UNL     1      -2.821  -2.231  -2.515  1.00  0.00    -0.339 N 
ATOM     19  C   UNL     1      -3.359  -3.778  -1.638  1.00  0.00     0.141 C 
ATOM     20  C   UNL     1      -3.046  -0.637  -1.822  1.00  0.00     0.141 C 
ATOM     21  C   UNL     1      -3.335  -3.645   0.371  1.00  0.00     0.138 C 
ATOM     22  C   UNL     1      -2.899  -0.435   0.028  1.00  0.00     0.138 C 
ATOM     23  N   UNL     1      -3.571  -1.811   1.095  1.00  0.00    -0.368 N 
BRANCH  23  24
ATOM     24  C   UNL     1      -5.168  -1.213   1.809  1.00  0.00     0.037 A 
ATOM     25  C   UNL     1      -5.525  -1.540   3.644  1.00  0.00     0.026 A 
ATOM     26  C   UNL     1      -4.921   0.396   1.279  1.00  0.00     0.039 A 
ATOM     27  C   UNL     1      -5.126  -0.247   4.867  1.00  0.00     0.003 A 
ATOM     28  C   UNL     1      -4.749   1.720   2.358  1.00  0.00     0.058 A 
ATOM     29  C   UNL     1      -4.626   1.369   4.152  1.00  0.00     0.013 A 
BRANCH  28  30
ATOM     30  C   UNL     1      -6.229   2.332   1.491  1.00  0.00     0.416 C 
ATOM     31  F   UNL     1      -6.982   1.330   0.897  1.00  0.00    -0.166 F 
ATOM     32  F   UNL     1      -7.218   3.046   2.096  1.00  0.00    -0.166 F 
ATOM     33  F   UNL     1      -5.811   3.106   0.445  1.00  0.00    -0.166 F 
ENDBRANCH  28  30
ENDBRANCH  23  24
ENDBRANCH  15  16
ENDBRANCH   5   8
ENDBRANCH   3   4
ENDBRANCH   2   3
ENDBRANCH   1   2
BRANCH   1  34
ATOM     34  C   UNL     1      -4.682  -3.480   2.322  1.00  0.00     0.002 C 
BRANCH  34  35
ATOM     35  C   UNL     1      -3.561  -2.273   3.249  1.00  0.00     0.021 C 
BRANCH  35  36
ATOM     36  C   UNL     1      -3.981  -0.362   3.188  1.00  0.00     0.116 C 
BRANCH  36  37
ATOM     37  N   UNL     1      -5.970   0.275   3.143  1.00  0.00    -0.352 N 
ATOM     38  C   UNL     1      -7.063   1.059   3.985  1.00  0.00     0.251 C 
ATOM     39  H   UNL     1      -6.375  -0.016   2.294  1.00  0.00     0.163 HD
ATOM     40  O   UNL     1      -8.221   0.642   3.907  1.00  0.00    -0.269 OA
BRANCH  38  41
ATOM     41  C   UNL     1      -6.822   2.371   4.834  1.00  0.00     0.039 A 
ATOM     42  C   UNL     1      -6.999   2.487   6.219  1.00  0.00     0.014 A 
ATOM     43  C   UNL     1      -6.201   3.474   4.233  1.00  0.00     0.014 A 
ATOM     44  C   UNL     1      -6.509   3.643   6.911  1.00  0.00     0.010 A 
ATOM     45  C   UNL     1      -5.546   4.462   4.898  1.00  0.00     0.010 A 
ATOM     46  C   UNL     1      -5.782   4.634   6.231  1.00  0.00    -0.014 A 
BRANCH  46  47
ATOM     47  C   UNL     1      -5.209   5.919   6.664  1.00  0.00     0.031 A 
ATOM     48  C   UNL     1      -5.667   7.182   5.935  1.00  0.00     0.074 A 
ATOM     49  C   UNL     1      -4.033   5.895   7.317  1.00  0.00     0.049 A 
ATOM     50  N   UNL     1      -5.179   8.393   5.983  1.00  0.00    -0.248 NA
ATOM     51  C   UNL     1      -6.740   7.030   4.918  1.00  0.00     0.031 C 
ATOM     52  C   UNL     1      -3.332   4.689   7.770  1.00  0.00     0.029 A 
ATOM     53  N   UNL     1      -3.197   6.916   7.669  1.00  0.00    -0.354 N 
ATOM     54  C   UNL     1      -5.896   9.122   5.037  1.00  0.00     0.074 A 
ATOM     55  C   UNL     1      -6.706   8.195   4.294  1.00  0.00     0.031 C 
ATOM     56  C   UNL     1      -2.210   5.051   8.415  1.00  0.00     0.029 A 
ATOM     57  C   UNL     1      -2.117   6.506   8.411  1.00  0.00     0.049 A 
ATOM     58  H   UNL     1      -3.353   7.855   7.415  1.00  0.00     0.167 HD
ATOM     59  C   UNL     1      -5.948  10.464   4.872  1.00  0.00     0.037 A 
ATOM     60  C   UNL     1      -1.205   7.252   9.059  1.00  0.00     0.037 A 
ATOM     61  C   UNL     1      -5.146  11.354   5.659  1.00  0.00     0.049 A 
ATOM     62  C   UNL     1      -1.354   8.749   8.986  1.00  0.00     0.074 A 
ATOM     63  C   UNL     1      -5.166  12.733   5.717  1.00  0.00     0.029 A 
ATOM     64  N   UNL     1      -4.167  10.921   6.544  1.00  0.00    -0.354 N 
ATOM     65  N   UNL     1      -2.188   9.466   8.267  1.00  0.00    -0.248 NA
ATOM     66  C   UNL     1      -0.468   9.541   9.845  1.00  0.00     0.031 C 
ATOM     67  C   UNL     1      -4.171  13.135   6.615  1.00  0.00     0.029 A 
ATOM     68  C   UNL     1      -3.573  12.004   7.155  1.00  0.00     0.049 A 
ATOM     69  H   UNL     1      -3.932   9.980   6.710  1.00  0.00     0.167 HD
ATOM     70  C   UNL     1      -1.962  10.789   8.623  1.00  0.00     0.074 A 
ATOM     71  C   UNL     1      -0.922  10.767   9.634  1.00  0.00     0.031 C 
ATOM     72  C   UNL     1      -2.551  11.923   8.167  1.00  0.00     0.037 A 
BRANCH  59  73
ATOM     73  C   UNL     1      -6.958  11.020   3.903  1.00  0.00     0.057 A 
ATOM     74  C   UNL     1      -8.338  10.831   4.096  1.00  0.00     0.134 A 
ATOM     75  C   UNL     1      -6.572  11.771   2.787  1.00  0.00     0.134 A 
ATOM     76  F   UNL     1      -8.788  10.118   5.141  1.00  0.00    -0.206 F 
ATOM     77  C   UNL     1      -9.286  11.331   3.202  1.00  0.00     0.040 A 
ATOM     78  C   UNL     1      -7.514  12.308   1.903  1.00  0.00     0.040 A 
ATOM     79  F   UNL     1      -5.275  12.000   2.534  1.00  0.00    -0.206 F 
ATOM     80  C   UNL     1      -8.874  12.081   2.105  1.00  0.00     0.006 A 
ENDBRANCH  59  73
BRANCH  60  81
ATOM     81  C   UNL     1      -0.205   6.611   9.950  1.00  0.00     0.057 A 
ATOM     82  C   UNL     1      -0.311   6.729  11.343  1.00  0.00     0.134 A 
ATOM     83  C   UNL     1       0.869   5.866   9.453  1.00  0.00     0.134 A 
ATOM     84  F   UNL     1      -1.324   7.422  11.885  1.00  0.00    -0.206 F 
ATOM     85  C   UNL     1       0.637   6.177  12.205  1.00  0.00     0.040 A 
ATOM     86  C   UNL     1       1.812   5.283  10.305  1.00  0.00     0.040 A 
ATOM     87  F   UNL     1       1.012   5.681   8.132  1.00  0.00    -0.206 F 
ATOM     88  C   UNL     1       1.705   5.451  11.685  1.00  0.00     0.006 A 
ENDBRANCH  60  81
BRANCH  72  89
ATOM     89  C   UNL     1      -2.118  13.210   8.797  1.00  0.00     0.057 A 
ATOM     90  C   UNL     1      -0.848  13.753   8.574  1.00  0.00     0.134 A 
ATOM     91  C   UNL     1      -3.004  13.931   9.607  1.00  0.00     0.134 A 
ATOM     92  F   UNL     1       0.046  13.104   7.811  1.00  0.00    -0.206 F 
ATOM     93  C   UNL     1      -0.458  14.951   9.170  1.00  0.00     0.040 A 
ATOM     94  C   UNL     1      -2.639  15.149  10.177  1.00  0.00     0.040 A 
ATOM     95  F   UNL     1      -4.243  13.472   9.843  1.00  0.00    -0.206 F 
ATOM     96  C   UNL     1      -1.358  15.655   9.968  1.00  0.00     0.006 A 
ENDBRANCH  72  89
ENDBRANCH  46  47
ENDBRANCH  38  41
ENDBRANCH  36  37
ENDBRANCH  35  36
ENDBRANCH  34  35
ENDBRANCH   1  34
TORSDOF 16
