REMARK SMILES O=C(NCCCCCCNC(=O)[C@H]1CN(S(=O)(=O)c2ccc(Cl)nc2)c2ccccc21)c1ccc(-c2c3nc(c(-c4c(F)cccc4F)c4ccc([nH]4)c(-c4c(F)cccc4F)c4nc(c(-c5c(F)cccc5F)c5ccc2[nH]5)C=C4)C=C3)cc1
REMARK SMILES IDX 6 1 5 2 4 3 3 4 1 5 2 6 32 8 33 9 85 10 34 11 84 12 35 13
REMARK SMILES IDX 36 14 37 15 78 16 38 17 83 18 77 19 79 20 39 21 82 22 76 23
REMARK SMILES IDX 75 24 40 26 66 27 49 28 65 29 50 30 53 31 64 32 80 33 51 34
REMARK SMILES IDX 52 35 63 37 81 38 54 39 41 40 42 41 47 42 43 43 44 44 46 45
REMARK SMILES IDX 48 46 45 47 67 48 68 49 73 50 69 51 70 52 72 53 74 54 71 55
REMARK SMILES IDX 55 56 56 57 61 58 57 59 58 60 60 61 62 62 59 63 7 64 8 65
REMARK SMILES IDX 9 66 10 67 11 68 12 70 13 71 14 72 31 73 15 74 26 75 30 76
REMARK SMILES IDX 27 77 29 78 28 79 16 80 17 81 18 82 19 83 20 84 25 85 21 86
REMARK SMILES IDX 24 87 22 88 23 89
REMARK H PARENT 3 7 79 25 53 36 10 69
REMARK Flexibility Score: inf
ROOT
ATOM      1  C   UNL     1       4.270   2.137  -3.170  1.00  0.00     0.002 C 
ENDROOT
BRANCH   1   2
ATOM      2  C   UNL     1       4.690   0.828  -2.508  1.00  0.00     0.021 C 
BRANCH   2   3
ATOM      3  C   UNL     1       4.443   0.787  -1.010  1.00  0.00     0.116 C 
BRANCH   3   4
ATOM      4  N   UNL     1       3.027   0.780  -0.673  1.00  0.00    -0.352 N 
ATOM      5  O   UNL     1       1.118  -0.075   0.192  1.00  0.00    -0.269 OA
ATOM      6  C   UNL     1       2.341  -0.106   0.124  1.00  0.00     0.251 C 
ATOM      7  H   UNL     1       2.490   1.505  -1.067  1.00  0.00     0.163 HD
BRANCH   6   8
ATOM      8  C   UNL     1       3.105  -1.119   0.883  1.00  0.00     0.039 A 
ATOM      9  C   UNL     1       4.268  -0.745   1.556  1.00  0.00     0.014 A 
ATOM     10  C   UNL     1       2.688  -2.452   0.881  1.00  0.00     0.014 A 
ATOM     11  C   UNL     1       5.106  -1.723   2.066  1.00  0.00     0.010 A 
ATOM     12  C   UNL     1       3.473  -3.423   1.513  1.00  0.00     0.010 A 
ATOM     13  C   UNL     1       4.704  -3.070   2.087  1.00  0.00    -0.014 A 
BRANCH  13  14
ATOM     14  C   UNL     1       5.561  -4.043   2.810  1.00  0.00     0.031 A 
ATOM     15  C   UNL     1       6.213  -5.204   2.114  1.00  0.00     0.074 A 
ATOM     16  C   UNL     1       5.800  -3.814   4.117  1.00  0.00     0.049 A 
ATOM     17  N   UNL     1       7.043  -6.091   2.604  1.00  0.00    -0.248 NA
ATOM     18  C   UNL     1       5.894  -5.406   0.692  1.00  0.00     0.031 C 
ATOM     19  C   UNL     1       5.201  -2.729   4.903  1.00  0.00     0.029 A 
ATOM     20  N   UNL     1       6.629  -4.445   5.007  1.00  0.00    -0.354 N 
ATOM     21  C   UNL     1       7.342  -6.957   1.560  1.00  0.00     0.074 A 
ATOM     22  C   UNL     1       6.576  -6.511   0.415  1.00  0.00     0.031 C 
ATOM     23  C   UNL     1       5.733  -2.728   6.131  1.00  0.00     0.029 A 
ATOM     24  C   UNL     1       6.641  -3.859   6.250  1.00  0.00     0.049 A 
ATOM     25  H   UNL     1       7.163  -5.239   4.779  1.00  0.00     0.167 HD
ATOM     26  C   UNL     1       8.185  -8.018   1.558  1.00  0.00     0.037 A 
ATOM     27  C   UNL     1       7.291  -4.206   7.375  1.00  0.00     0.037 A 
ATOM     28  C   UNL     1       8.941  -8.457   2.706  1.00  0.00     0.049 A 
ATOM     29  C   UNL     1       8.191  -5.404   7.345  1.00  0.00     0.074 A 
ATOM     30  C   UNL     1       9.829  -9.516   2.801  1.00  0.00     0.029 A 
ATOM     31  N   UNL     1       8.897  -7.864   3.960  1.00  0.00    -0.354 N 
ATOM     32  N   UNL     1       8.484  -6.193   6.340  1.00  0.00    -0.248 NA
ATOM     33  C   UNL     1       8.851  -5.761   8.607  1.00  0.00     0.031 C 
ATOM     34  C   UNL     1      10.283  -9.592   4.122  1.00  0.00     0.029 A 
ATOM     35  C   UNL     1       9.726  -8.546   4.838  1.00  0.00     0.049 A 
ATOM     36  H   UNL     1       8.356  -7.074   4.192  1.00  0.00     0.167 HD
ATOM     37  C   UNL     1       9.370  -7.134   6.845  1.00  0.00     0.074 A 
ATOM     38  C   UNL     1       9.597  -6.790   8.234  1.00  0.00     0.031 C 
ATOM     39  C   UNL     1       9.936  -8.195   6.219  1.00  0.00     0.037 A 
BRANCH  26  40
ATOM     40  C   UNL     1       8.339  -8.791   0.278  1.00  0.00     0.057 A 
ATOM     41  C   UNL     1       9.024  -8.264  -0.825  1.00  0.00     0.134 A 
ATOM     42  C   UNL     1       7.866 -10.106   0.172  1.00  0.00     0.134 A 
ATOM     43  F   UNL     1       9.496  -7.008  -0.795  1.00  0.00    -0.206 F 
ATOM     44  C   UNL     1       9.222  -9.011  -1.989  1.00  0.00     0.040 A 
ATOM     45  C   UNL     1       8.079 -10.871  -0.976  1.00  0.00     0.040 A 
ATOM     46  F   UNL     1       7.209 -10.677   1.193  1.00  0.00    -0.206 F 
ATOM     47  C   UNL     1       8.757 -10.322  -2.063  1.00  0.00     0.006 A 
ENDBRANCH  26  40
BRANCH  27  48
ATOM     48  C   UNL     1       7.082  -3.431   8.624  1.00  0.00     0.057 A 
ATOM     49  C   UNL     1       8.119  -2.705   9.218  1.00  0.00     0.134 A 
ATOM     50  C   UNL     1       5.835  -3.414   9.264  1.00  0.00     0.134 A 
ATOM     51  F   UNL     1       9.339  -2.691   8.661  1.00  0.00    -0.206 F 
ATOM     52  C   UNL     1       7.935  -2.017  10.418  1.00  0.00     0.040 A 
ATOM     53  C   UNL     1       5.626  -2.700  10.443  1.00  0.00     0.040 A 
ATOM     54  F   UNL     1       4.795  -4.079   8.740  1.00  0.00    -0.206 F 
ATOM     55  C   UNL     1       6.683  -2.009  11.031  1.00  0.00     0.006 A 
ENDBRANCH  27  48
BRANCH  39  56
ATOM     56  C   UNL     1      10.872  -9.036   7.037  1.00  0.00     0.057 A 
ATOM     57  C   UNL     1      10.416  -9.844   8.088  1.00  0.00     0.134 A 
ATOM     58  C   UNL     1      12.249  -9.028   6.780  1.00  0.00     0.134 A 
ATOM     59  F   UNL     1       9.111  -9.883   8.398  1.00  0.00    -0.206 F 
ATOM     60  C   UNL     1      11.299 -10.580   8.879  1.00  0.00     0.040 A 
ATOM     61  C   UNL     1      13.138  -9.787   7.542  1.00  0.00     0.040 A 
ATOM     62  F   UNL     1      12.752  -8.284   5.784  1.00  0.00    -0.206 F 
ATOM     63  C   UNL     1      12.665 -10.555   8.604  1.00  0.00     0.006 A 
ENDBRANCH  39  56
ENDBRANCH  13  14
ENDBRANCH   6   8
ENDBRANCH   3   4
ENDBRANCH   2   3
ENDBRANCH   1   2
BRANCH   1  64
ATOM     64  C   UNL     1       4.935   3.388  -2.587  1.00  0.00     0.002 C 
BRANCH  64  65
ATOM     65  C   UNL     1       6.471   3.353  -2.556  1.00  0.00     0.021 C 
BRANCH  65  66
ATOM     66  C   UNL     1       7.107   3.083  -3.918  1.00  0.00     0.116 C 
BRANCH  66  67
ATOM     67  N   UNL     1       6.737   4.124  -4.856  1.00  0.00    -0.356 N 
ATOM     68  C   UNL     1       7.516   5.071  -5.453  1.00  0.00     0.229 C 
ATOM     69  H   UNL     1       5.784   4.151  -5.098  1.00  0.00     0.163 HD
ATOM     70  O   UNL     1       6.947   5.984  -6.049  1.00  0.00    -0.274 OA
BRANCH  68  71
ATOM     71  C   UNL     1       9.022   4.903  -5.396  1.00  0.00     0.131 C 
ATOM     72  C   UNL     1       9.409   3.864  -6.456  1.00  0.00     0.154 C 
ATOM     73  C   UNL     1       9.788   6.107  -5.854  1.00  0.00    -0.009 A 
ATOM     74  N   UNL     1       9.885   4.646  -7.664  1.00  0.00    -0.265 N 
ATOM     75  C   UNL     1      10.249   5.943  -7.162  1.00  0.00     0.056 A 
ATOM     76  C   UNL     1       9.944   7.300  -5.157  1.00  0.00     0.007 A 
ATOM     77  C   UNL     1      10.744   7.042  -7.839  1.00  0.00     0.027 A 
ATOM     78  C   UNL     1      10.537   8.374  -5.813  1.00  0.00     0.000 A 
ATOM     79  C   UNL     1      10.917   8.251  -7.153  1.00  0.00     0.002 A 
BRANCH  74  80
ATOM     80  S   UNL     1      10.898   3.698  -8.645  1.00  0.00     0.265 S 
ATOM     81  O   UNL     1      12.040   3.293  -7.845  1.00  0.00    -0.201 OA
ATOM     82  O   UNL     1      10.064   2.687  -9.260  1.00  0.00    -0.201 OA
BRANCH  80  83
ATOM     83  C   UNL     1      11.506   4.727  -9.925  1.00  0.00     0.106 A 
ATOM     84  C   UNL     1      12.774   5.304  -9.818  1.00  0.00     0.027 A 
ATOM     85  C   UNL     1      10.761   4.937 -11.070  1.00  0.00     0.135 A 
ATOM     86  C   UNL     1      13.223   6.136 -10.836  1.00  0.00     0.042 A 
ATOM     87  N   UNL     1      11.182   5.740 -12.079  1.00  0.00    -0.243 NA
ATOM     88  C   UNL     1      12.394   6.321 -11.931  1.00  0.00     0.129 A 
ATOM     89  Cl  UNL     1      12.860   7.360 -13.211  1.00  0.00    -0.062 Cl
ENDBRANCH  80  83
ENDBRANCH  74  80
ENDBRANCH  68  71
ENDBRANCH  66  67
ENDBRANCH  65  66
ENDBRANCH  64  65
ENDBRANCH   1  64
TORSDOF 15
