REMARK SMILES O=C(CCc1cccnc1)Nc1cccc(F)c1C(=O)NCCCCCCNC(=O)c1ccc(-c2c3nc(c(-c4c(F)cccc4F)c4ccc([nH]4)c(-c4c(F)cccc4F)c4nc(c(-c5c(F)cccc5F)c5ccc2[nH]5)C=C4)C=C3)cc1
REMARK SMILES IDX 23 1 22 2 21 3 19 4 20 5 18 7 12 8 13 9 14 10 16 11 15 12
REMARK SMILES IDX 17 13 11 14 1 15 2 16 3 18 4 19 5 20 6 21 10 22 7 23 9 24
REMARK SMILES IDX 8 25 24 26 25 27 26 28 27 29 28 30 29 31 30 33 31 34 32 35
REMARK SMILES IDX 84 36 33 37 83 38 34 39 35 40 36 41 77 42 37 43 82 44 76 45
REMARK SMILES IDX 78 46 38 47 81 48 75 49 74 50 39 52 65 53 48 54 64 55 49 56
REMARK SMILES IDX 52 57 63 58 79 59 50 60 51 61 62 63 80 64 53 65 40 66 41 67
REMARK SMILES IDX 46 68 42 69 43 70 45 71 47 72 44 73 66 74 67 75 72 76 68 77
REMARK SMILES IDX 69 78 71 79 73 80 70 81 54 82 55 83 60 84 56 85 57 86 59 87
REMARK SMILES IDX 61 88 58 89
REMARK H PARENT 21 6 11 17 28 32 78 51 52 62
REMARK Flexibility Score: inf
ROOT
ATOM      1  C   UNL     1       5.118  -1.097   6.975  1.00  0.00     0.021 C 
ENDROOT
BRANCH   1   2
ATOM      2  C   UNL     1       3.803  -0.697   6.307  1.00  0.00     0.116 C 
BRANCH   2   3
ATOM      3  N   UNL     1       3.937   0.183   5.161  1.00  0.00    -0.352 N 
ATOM      4  C   UNL     1       3.181   0.309   4.014  1.00  0.00     0.256 C 
ATOM      5  O   UNL     1       3.476   1.229   3.247  1.00  0.00    -0.269 OA
ATOM      6  H   UNL     1       4.704   0.799   5.210  1.00  0.00     0.163 HD
BRANCH   4   7
ATOM      7  C   UNL     1       2.099  -0.637   3.608  1.00  0.00     0.099 A 
ATOM      8  C   UNL     1       1.853  -0.895   2.233  1.00  0.00     0.056 A 
ATOM      9  C   UNL     1       0.932  -1.899   1.880  1.00  0.00     0.027 A 
ATOM     10  C   UNL     1       0.194  -2.578   2.846  1.00  0.00     0.005 A 
ATOM     11  C   UNL     1       1.249  -1.239   4.542  1.00  0.00     0.138 A 
ATOM     12  C   UNL     1       0.327  -2.220   4.177  1.00  0.00     0.040 A 
ATOM     13  F   UNL     1       1.237  -0.856   5.827  1.00  0.00    -0.206 F 
BRANCH   8  14
ATOM     14  N   UNL     1       2.519  -0.153   1.216  1.00  0.00    -0.325 N 
ATOM     15  O   UNL     1       0.968  -0.325  -0.490  1.00  0.00    -0.275 OA
ATOM     16  C   UNL     1       2.082   0.012  -0.083  1.00  0.00     0.224 C 
ATOM     17  H   UNL     1       3.369   0.281   1.461  1.00  0.00     0.169 HD
BRANCH  16  18
ATOM     18  C   UNL     1       3.079   0.567  -1.094  1.00  0.00     0.105 C 
BRANCH  18  19
ATOM     19  C   UNL     1       4.066   1.637  -0.641  1.00  0.00     0.047 C 
BRANCH  19  20
ATOM     20  C   UNL     1       5.202   1.202   0.249  1.00  0.00    -0.029 A 
ATOM     21  C   UNL     1       5.805   2.141   1.093  1.00  0.00     0.007 A 
ATOM     22  C   UNL     1       5.698  -0.099   0.299  1.00  0.00     0.114 A 
ATOM     23  C   UNL     1       6.800   1.743   1.979  1.00  0.00     0.020 A 
ATOM     24  N   UNL     1       6.660  -0.515   1.152  1.00  0.00    -0.264 NA
ATOM     25  C   UNL     1       7.178   0.413   1.982  1.00  0.00     0.111 A 
ENDBRANCH  19  20
ENDBRANCH  18  19
ENDBRANCH  16  18
ENDBRANCH   8  14
ENDBRANCH   4   7
ENDBRANCH   2   3
ENDBRANCH   1   2
BRANCH   1  26
ATOM     26  C   UNL     1       5.999   0.022   7.536  1.00  0.00     0.002 C 
BRANCH  26  27
ATOM     27  C   UNL     1       5.341   1.030   8.479  1.00  0.00     0.002 C 
BRANCH  27  28
ATOM     28  C   UNL     1       4.546   0.461   9.656  1.00  0.00     0.021 C 
BRANCH  28  29
ATOM     29  C   UNL     1       5.284  -0.529  10.550  1.00  0.00     0.116 C 
BRANCH  29  30
ATOM     30  N   UNL     1       6.435   0.052  11.217  1.00  0.00    -0.352 N 
ATOM     31  C   UNL     1       6.789   0.020  12.544  1.00  0.00     0.251 C 
ATOM     32  H   UNL     1       7.055   0.542  10.630  1.00  0.00     0.163 HD
ATOM     33  O   UNL     1       7.736   0.693  12.938  1.00  0.00    -0.269 OA
BRANCH  31  34
ATOM     34  C   UNL     1       6.026  -0.805  13.511  1.00  0.00     0.039 A 
ATOM     35  C   UNL     1       5.759  -0.277  14.778  1.00  0.00     0.014 A 
ATOM     36  C   UNL     1       5.611  -2.103  13.199  1.00  0.00     0.014 A 
ATOM     37  C   UNL     1       5.047  -1.032  15.713  1.00  0.00     0.010 A 
ATOM     38  C   UNL     1       4.833  -2.824  14.103  1.00  0.00     0.010 A 
ATOM     39  C   UNL     1       4.561  -2.306  15.378  1.00  0.00    -0.014 A 
BRANCH  39  40
ATOM     40  C   UNL     1       3.807  -3.123  16.365  1.00  0.00     0.031 A 
ATOM     41  C   UNL     1       4.377  -4.426  16.860  1.00  0.00     0.074 A 
ATOM     42  C   UNL     1       2.599  -2.711  16.796  1.00  0.00     0.049 A 
ATOM     43  N   UNL     1       3.859  -5.291  17.695  1.00  0.00    -0.248 NA
ATOM     44  C   UNL     1       5.691  -4.821  16.329  1.00  0.00     0.031 C 
ATOM     45  C   UNL     1       1.920  -1.488  16.366  1.00  0.00     0.029 A 
ATOM     46  N   UNL     1       1.728  -3.276  17.695  1.00  0.00    -0.354 N 
ATOM     47  C   UNL     1       4.777  -6.331  17.780  1.00  0.00     0.074 A 
ATOM     48  C   UNL     1       5.854  -6.021  16.867  1.00  0.00     0.031 C 
ATOM     49  C   UNL     1       0.756  -1.376  17.026  1.00  0.00     0.029 A 
ATOM     50  C   UNL     1       0.589  -2.535  17.899  1.00  0.00     0.049 A 
ATOM     51  H   UNL     1       1.903  -4.131  18.150  1.00  0.00     0.167 HD
ATOM     52  C   UNL     1       4.741  -7.429  18.570  1.00  0.00     0.037 A 
ATOM     53  C   UNL     1      -0.469  -2.760  18.703  1.00  0.00     0.037 A 
ATOM     54  C   UNL     1       3.683  -7.722  19.500  1.00  0.00     0.049 A 
ATOM     55  C   UNL     1      -0.485  -3.987  19.572  1.00  0.00     0.074 A 
ATOM     56  C   UNL     1       3.574  -8.792  20.371  1.00  0.00     0.029 A 
ATOM     57  N   UNL     1       2.553  -6.939  19.684  1.00  0.00    -0.354 N 
ATOM     58  N   UNL     1       0.409  -4.940  19.673  1.00  0.00    -0.248 NA
ATOM     59  C   UNL     1      -1.651  -4.164  20.450  1.00  0.00     0.031 C 
ATOM     60  C   UNL     1       2.359  -8.681  21.052  1.00  0.00     0.029 A 
ATOM     61  C   UNL     1       1.738  -7.509  20.648  1.00  0.00     0.049 A 
ATOM     62  H   UNL     1       2.359  -6.103  19.202  1.00  0.00     0.167 HD
ATOM     63  C   UNL     1      -0.066  -5.808  20.647  1.00  0.00     0.074 A 
ATOM     64  C   UNL     1      -1.325  -5.265  21.113  1.00  0.00     0.031 C 
ATOM     65  C   UNL     1       0.495  -6.950  21.116  1.00  0.00     0.037 A 
BRANCH  52  66
ATOM     66  C   UNL     1       5.890  -8.393  18.480  1.00  0.00     0.057 A 
ATOM     67  C   UNL     1       5.707  -9.682  17.962  1.00  0.00     0.134 A 
ATOM     68  C   UNL     1       7.165  -8.067  18.963  1.00  0.00     0.134 A 
ATOM     69  F   UNL     1       4.511 -10.063  17.488  1.00  0.00    -0.206 F 
ATOM     70  C   UNL     1       6.745 -10.614  17.940  1.00  0.00     0.040 A 
ATOM     71  C   UNL     1       8.219  -8.981  18.919  1.00  0.00     0.040 A 
ATOM     72  F   UNL     1       7.412  -6.846  19.460  1.00  0.00    -0.206 F 
ATOM     73  C   UNL     1       8.007 -10.264  18.416  1.00  0.00     0.006 A 
ENDBRANCH  52  66
BRANCH  53  74
ATOM     74  C   UNL     1      -1.575  -1.770  18.758  1.00  0.00     0.057 A 
ATOM     75  C   UNL     1      -2.448  -1.583  17.680  1.00  0.00     0.134 A 
ATOM     76  C   UNL     1      -1.769  -0.968  19.889  1.00  0.00     0.134 A 
ATOM     77  F   UNL     1      -2.310  -2.314  16.563  1.00  0.00    -0.206 F 
ATOM     78  C   UNL     1      -3.463  -0.626  17.718  1.00  0.00     0.040 A 
ATOM     79  C   UNL     1      -2.796  -0.025  19.951  1.00  0.00     0.040 A 
ATOM     80  F   UNL     1      -0.976  -1.112  20.962  1.00  0.00    -0.206 F 
ATOM     81  C   UNL     1      -3.642   0.153  18.859  1.00  0.00     0.006 A 
ENDBRANCH  53  74
BRANCH  65  82
ATOM     82  C   UNL     1      -0.216  -7.673  22.224  1.00  0.00     0.057 A 
ATOM     83  C   UNL     1       0.342  -7.724  23.508  1.00  0.00     0.134 A 
ATOM     84  C   UNL     1      -1.409  -8.373  22.010  1.00  0.00     0.134 A 
ATOM     85  F   UNL     1       1.491  -7.085  23.778  1.00  0.00    -0.206 F 
ATOM     86  C   UNL     1      -0.254  -8.455  24.536  1.00  0.00     0.040 A 
ATOM     87  C   UNL     1      -2.031  -9.084  23.038  1.00  0.00     0.040 A 
ATOM     88  F   UNL     1      -2.000  -8.359  20.805  1.00  0.00    -0.206 F 
ATOM     89  C   UNL     1      -1.448  -9.133  24.303  1.00  0.00     0.006 A 
ENDBRANCH  65  82
ENDBRANCH  39  40
ENDBRANCH  31  34
ENDBRANCH  29  30
ENDBRANCH  28  29
ENDBRANCH  27  28
ENDBRANCH  26  27
ENDBRANCH   1  26
TORSDOF 17
