REMARK SMILES O=C(CCC/[NH+]=C1/CCCc2ccccc2N1)NCCCCCCNC(=O)c1ccc(-c2c3nc(c(-c4c(F)cccc4F)c4ccc([nH]4)c(-c4c(F)cccc4F)c4nc(c(-c5c(F)cccc5F)c5ccc2[nH]5)C=C4)C=C3)cc1
REMARK SMILES IDX 20 1 19 2 18 3 1 4 2 5 3 7 4 8 5 9 6 10 7 11 17 13 8 15 9 16
REMARK SMILES IDX 16 18 11 19 15 20 12 21 14 22 13 23 10 24 21 26 22 27 23 28
REMARK SMILES IDX 24 29 25 30 26 31 27 33 28 34 29 35 81 36 30 37 80 38 31 39
REMARK SMILES IDX 32 40 33 41 74 42 34 43 79 44 73 45 75 46 35 47 78 48 72 49
REMARK SMILES IDX 71 50 36 52 62 53 45 54 61 55 46 56 49 57 60 58 76 59 47 60
REMARK SMILES IDX 48 61 59 63 77 64 50 65 37 66 38 67 43 68 39 69 40 70 42 71
REMARK SMILES IDX 44 72 41 73 63 74 64 75 69 76 65 77 66 78 68 79 70 80 67 81
REMARK SMILES IDX 51 82 52 83 57 84 53 85 54 86 56 87 58 88 55 89
REMARK H PARENT 18 6 6 12 17 14 25 32 75 51 49 62
REMARK Flexibility Score: 90.00
ROOT
ATOM      1  C   UNL     1       2.916  -1.277   2.970  1.00  0.00     0.021 C 
ENDROOT
BRANCH   1   2
ATOM      2  C   UNL     1       2.484   0.150   2.633  1.00  0.00     0.116 C 
BRANCH   2   3
ATOM      3  N   UNL     1       2.887   0.516   1.294  1.00  0.00    -0.356 N 
ATOM      4  O   UNL     1       1.550   2.356   1.077  1.00  0.00    -0.275 OA
ATOM      5  C   UNL     1       2.397   1.598   0.613  1.00  0.00     0.220 C 
ATOM      6  H   UNL     1       3.556  -0.048   0.843  1.00  0.00     0.163 HD
BRANCH   5   7
ATOM      7  C   UNL     1       2.870   1.716  -0.827  1.00  0.00     0.104 C 
BRANCH   7   8
ATOM      8  C   UNL     1       4.371   1.813  -1.073  1.00  0.00     0.056 C 
BRANCH   8   9
ATOM      9  C   UNL     1       5.319   0.876  -0.346  1.00  0.00     0.234 C 
BRANCH   9  10
ATOM     10  N   UNL     1       5.351  -0.524  -0.700  1.00  0.00    -0.278 N 
ATOM     11  C   UNL     1       4.562  -1.477  -0.994  1.00  0.00     0.247 C 
ATOM     12  H   UNL     1       6.283  -0.842  -0.720  1.00  0.00     0.304 HD
ATOM     13  N   UNL     1       3.201  -1.452  -1.182  1.00  0.00    -0.245 N 
ATOM     14  H   UNL     1       2.876  -0.797  -1.841  1.00  0.00     0.312 HD
BRANCH  11  15
ATOM     15  C   UNL     1       5.306  -2.789  -1.234  1.00  0.00     0.128 C 
BRANCH  15  16
ATOM     16  C   UNL     1       4.829  -3.952  -0.386  1.00  0.00     0.018 CG0
ATOM     17  G   UNL     1       3.457  -4.428  -0.823  1.00  0.00     0.000 G0
ENDBRANCH  15  16
ENDBRANCH  11  15
BRANCH  13  18
ATOM     18  C   UNL     1       2.203  -2.237  -0.562  1.00  0.00     0.127 A 
ATOM     19  C   UNL     1       2.350  -3.594  -0.242  1.00  0.00    -0.001 A 
ATOM     20  C   UNL     1       1.018  -1.595  -0.145  1.00  0.00     0.052 A 
ATOM     21  C   UNL     1       1.391  -4.235   0.571  1.00  0.00     0.008 A 
ATOM     22  C   UNL     1       0.080  -2.232   0.675  1.00  0.00     0.004 A 
ATOM     23  C   UNL     1       0.280  -3.550   1.054  1.00  0.00     0.001 A 
BRANCH  19  24
ATOM     24  C   UNL     1       3.457  -4.428  -0.823  1.00  0.00     0.040 CG0
ATOM     25  G   UNL     1       4.829  -3.952  -0.386  1.00  0.00     0.000 G0
ENDBRANCH  19  24
ENDBRANCH  13  18
ENDBRANCH   9  10
ENDBRANCH   8   9
ENDBRANCH   7   8
ENDBRANCH   5   7
ENDBRANCH   2   3
ENDBRANCH   1   2
BRANCH   1  26
ATOM     26  C   UNL     1       4.426  -1.474   3.142  1.00  0.00     0.002 C 
BRANCH  26  27
ATOM     27  C   UNL     1       5.016  -0.809   4.386  1.00  0.00     0.002 C 
BRANCH  27  28
ATOM     28  C   UNL     1       4.323  -1.184   5.697  1.00  0.00     0.021 C 
BRANCH  28  29
ATOM     29  C   UNL     1       4.316  -2.680   5.994  1.00  0.00     0.116 C 
BRANCH  29  30
ATOM     30  N   UNL     1       5.641  -3.176   6.337  1.00  0.00    -0.352 N 
ATOM     31  C   UNL     1       6.106  -3.662   7.539  1.00  0.00     0.251 C 
ATOM     32  H   UNL     1       6.299  -3.161   5.604  1.00  0.00     0.163 HD
ATOM     33  O   UNL     1       7.300  -3.831   7.724  1.00  0.00    -0.269 OA
BRANCH  31  34
ATOM     34  C   UNL     1       5.137  -3.954   8.619  1.00  0.00     0.039 A 
ATOM     35  C   UNL     1       3.962  -4.653   8.338  1.00  0.00     0.014 A 
ATOM     36  C   UNL     1       5.393  -3.497   9.914  1.00  0.00     0.014 A 
ATOM     37  C   UNL     1       2.963  -4.728   9.300  1.00  0.00     0.010 A 
ATOM     38  C   UNL     1       4.423  -3.662  10.908  1.00  0.00     0.010 A 
ATOM     39  C   UNL     1       3.177  -4.230  10.595  1.00  0.00    -0.014 A 
BRANCH  39  40
ATOM     40  C   UNL     1       2.077  -4.299  11.594  1.00  0.00     0.031 A 
ATOM     41  C   UNL     1       1.472  -3.043  12.163  1.00  0.00     0.074 A 
ATOM     42  C   UNL     1       1.578  -5.501  11.943  1.00  0.00     0.049 A 
ATOM     43  N   UNL     1       0.500  -2.914  13.033  1.00  0.00    -0.248 NA
ATOM     44  C   UNL     1       2.031  -1.764  11.700  1.00  0.00     0.031 C 
ATOM     45  C   UNL     1       2.065  -6.792  11.450  1.00  0.00     0.029 A 
ATOM     46  N   UNL     1       0.540  -5.834  12.774  1.00  0.00    -0.354 N 
ATOM     47  C   UNL     1       0.341  -1.547  13.229  1.00  0.00     0.074 A 
ATOM     48  C   UNL     1       1.344  -0.888  12.419  1.00  0.00     0.031 C 
ATOM     49  C   UNL     1       1.296  -7.771  11.950  1.00  0.00     0.029 A 
ATOM     50  C   UNL     1       0.311  -7.186  12.851  1.00  0.00     0.049 A 
ATOM     51  H   UNL     1       0.009  -5.168  13.268  1.00  0.00     0.167 HD
ATOM     52  C   UNL     1      -0.567  -0.897  13.998  1.00  0.00     0.037 A 
ATOM     53  C   UNL     1      -0.577  -7.881  13.585  1.00  0.00     0.037 A 
ATOM     54  C   UNL     1      -1.567  -1.553  14.803  1.00  0.00     0.049 A 
ATOM     55  C   UNL     1      -1.519  -7.139  14.489  1.00  0.00     0.074 A 
ATOM     56  C   UNL     1      -2.535  -0.984  15.612  1.00  0.00     0.029 A 
ATOM     57  N   UNL     1      -1.724  -2.928  14.903  1.00  0.00    -0.354 N 
ATOM     58  N   UNL     1      -1.664  -5.847  14.654  1.00  0.00    -0.248 NA
ATOM     59  C   UNL     1      -2.417  -7.957  15.316  1.00  0.00     0.031 C 
ATOM     60  C   UNL     1      -3.244  -2.014  16.241  1.00  0.00     0.029 A 
ATOM     61  C   UNL     1      -2.755  -3.226  15.780  1.00  0.00     0.049 A 
ATOM     62  H   UNL     1      -1.181  -3.595  14.422  1.00  0.00     0.167 HD
ATOM     63  C   UNL     1      -2.682  -5.696  15.586  1.00  0.00     0.074 A 
ATOM     64  C   UNL     1      -3.135  -7.028  15.929  1.00  0.00     0.031 C 
ATOM     65  C   UNL     1      -3.194  -4.557  16.115  1.00  0.00     0.037 A 
BRANCH  52  66
ATOM     66  C   UNL     1      -0.503   0.605  14.023  1.00  0.00     0.057 A 
ATOM     67  C   UNL     1      -0.099   1.286  15.178  1.00  0.00     0.134 A 
ATOM     68  C   UNL     1      -0.860   1.381  12.911  1.00  0.00     0.134 A 
ATOM     69  F   UNL     1       0.248   0.608  16.283  1.00  0.00    -0.206 F 
ATOM     70  C   UNL     1      -0.047   2.680  15.226  1.00  0.00     0.040 A 
ATOM     71  C   UNL     1      -0.785   2.775  12.938  1.00  0.00     0.040 A 
ATOM     72  F   UNL     1      -1.247   0.794  11.768  1.00  0.00    -0.206 F 
ATOM     73  C   UNL     1      -0.382   3.429  14.100  1.00  0.00     0.006 A 
ENDBRANCH  52  66
BRANCH  53  74
ATOM     74  C   UNL     1      -0.603  -9.364  13.517  1.00  0.00     0.057 A 
ATOM     75  C   UNL     1       0.459 -10.135  14.008  1.00  0.00     0.134 A 
ATOM     76  C   UNL     1      -1.703 -10.047  12.986  1.00  0.00     0.134 A 
ATOM     77  F   UNL     1       1.545  -9.541  14.525  1.00  0.00    -0.206 F 
ATOM     78  C   UNL     1       0.430 -11.529  13.969  1.00  0.00     0.040 A 
ATOM     79  C   UNL     1      -1.758 -11.442  12.970  1.00  0.00     0.040 A 
ATOM     80  F   UNL     1      -2.759  -9.366  12.517  1.00  0.00    -0.206 F 
ATOM     81  C   UNL     1      -0.686 -12.186  13.459  1.00  0.00     0.006 A 
ENDBRANCH  53  74
BRANCH  65  82
ATOM     82  C   UNL     1      -4.322  -4.711  17.093  1.00  0.00     0.057 A 
ATOM     83  C   UNL     1      -5.623  -4.322  16.748  1.00  0.00     0.134 A 
ATOM     84  C   UNL     1      -4.126  -5.240  18.376  1.00  0.00     0.134 A 
ATOM     85  F   UNL     1      -5.881  -3.801  15.539  1.00  0.00    -0.206 F 
ATOM     86  C   UNL     1      -6.687  -4.458  17.641  1.00  0.00     0.040 A 
ATOM     87  C   UNL     1      -5.188  -5.410  19.266  1.00  0.00     0.040 A 
ATOM     88  F   UNL     1      -2.908  -5.648  18.764  1.00  0.00    -0.206 F 
ATOM     89  C   UNL     1      -6.472  -5.014  18.900  1.00  0.00     0.006 A 
ENDBRANCH  65  82
ENDBRANCH  39  40
ENDBRANCH  31  34
ENDBRANCH  29  30
ENDBRANCH  28  29
ENDBRANCH  27  28
ENDBRANCH  26  27
ENDBRANCH   1  26
TORSDOF 16
