REMARK SMILES CC(C)c1cc(OCC(=O)NCCCCCCNC(=O)c2ccc(-c3c4nc(c(-c5c(F)cccc5F)c5ccc([nH]5)c(-c5c(F)cccc5F)c5nc(c(-c6c(F)cccc6F)c6ccc3[nH]6)C=C5)C=C4)cc2)nc(Nc2ccc(F)cc2F)n1
REMARK SMILES IDX 13 1 12 2 11 3 9 4 10 5 8 7 7 8 6 9 4 10 5 11 86 12 76 13
REMARK SMILES IDX 75 14 2 15 1 16 3 17 77 18 78 20 79 21 84 22 80 23 83 24
REMARK SMILES IDX 85 25 81 26 82 27 14 28 15 29 16 30 17 31 18 32 19 33 20 35
REMARK SMILES IDX 21 36 22 37 74 38 23 39 73 40 24 41 25 42 26 43 67 44 27 45
REMARK SMILES IDX 72 46 66 47 68 48 28 49 71 50 65 51 64 52 29 54 55 55 38 56
REMARK SMILES IDX 54 57 39 58 42 59 53 60 69 61 40 62 41 63 52 65 70 66 43 67
REMARK SMILES IDX 30 68 31 69 36 70 32 71 33 72 35 73 37 74 34 75 56 76 57 77
REMARK SMILES IDX 62 78 58 79 59 80 61 81 63 82 60 83 44 84 45 85 50 86 46 87
REMARK SMILES IDX 47 88 49 89 51 90 48 91
REMARK H PARENT 11 6 77 19 18 34 68 53 42 64
REMARK Flexibility Score: inf
ROOT
ATOM      1  C   UNL     1      -4.366  -0.832  -3.654  1.00  0.00     0.021 C 
ENDROOT
BRANCH   1   2
ATOM      2  C   UNL     1      -4.328  -2.134  -2.856  1.00  0.00     0.116 C 
BRANCH   2   3
ATOM      3  N   UNL     1      -2.972  -2.543  -2.555  1.00  0.00    -0.353 N 
ATOM      4  C   UNL     1      -2.358  -2.609  -1.341  1.00  0.00     0.258 C 
ATOM      5  O   UNL     1      -1.186  -2.984  -1.285  1.00  0.00    -0.271 OA
ATOM      6  H   UNL     1      -2.422  -2.808  -3.327  1.00  0.00     0.163 HD
BRANCH   4   7
ATOM      7  C   UNL     1      -3.137  -2.238  -0.071  1.00  0.00     0.331 C 
BRANCH   7   8
ATOM      8  O   UNL     1      -3.711  -0.945  -0.009  1.00  0.00    -0.467 OA
BRANCH   8   9
ATOM      9  C   UNL     1      -2.878   0.138  -0.025  1.00  0.00     0.218 A 
ATOM     10  C   UNL     1      -0.826   1.270  -0.109  1.00  0.00     0.052 A 
ATOM     11  C   UNL     1      -1.503   0.076  -0.011  1.00  0.00     0.092 A 
ATOM     12  N   UNL     1      -1.490   2.439  -0.158  1.00  0.00    -0.217 NA
ATOM     13  C   UNL     1      -2.830   2.423  -0.137  1.00  0.00     0.230 A 
ATOM     14  N   UNL     1      -3.552   1.299  -0.066  1.00  0.00    -0.177 NA
BRANCH  10  15
ATOM     15  C   UNL     1       0.686   1.370  -0.177  1.00  0.00     0.032 C 
ATOM     16  C   UNL     1       1.446   0.074   0.123  1.00  0.00     0.014 C 
ATOM     17  C   UNL     1       1.106   1.905  -1.550  1.00  0.00     0.014 C 
ENDBRANCH  10  15
BRANCH  13  18
ATOM     18  N   UNL     1      -3.532   3.623  -0.082  1.00  0.00    -0.322 N 
ATOM     19  H   UNL     1      -4.502   3.549   0.071  1.00  0.00     0.170 HD
BRANCH  18  20
ATOM     20  C   UNL     1      -3.032   4.923  -0.217  1.00  0.00     0.077 A 
ATOM     21  C   UNL     1      -3.350   5.885   0.753  1.00  0.00     0.032 A 
ATOM     22  C   UNL     1      -2.126   5.282  -1.232  1.00  0.00     0.149 A 
ATOM     23  C   UNL     1      -2.767   7.154   0.713  1.00  0.00     0.041 A 
ATOM     24  C   UNL     1      -1.554   6.549  -1.288  1.00  0.00     0.080 A 
ATOM     25  F   UNL     1      -1.831   4.416  -2.214  1.00  0.00    -0.205 F 
ATOM     26  C   UNL     1      -1.874   7.472  -0.306  1.00  0.00     0.126 A 
ATOM     27  F   UNL     1      -1.314   8.688  -0.335  1.00  0.00    -0.207 F 
ENDBRANCH  18  20
ENDBRANCH  13  18
ENDBRANCH   8   9
ENDBRANCH   7   8
ENDBRANCH   4   7
ENDBRANCH   2   3
ENDBRANCH   1   2
BRANCH   1  28
ATOM     28  C   UNL     1      -3.696  -0.906  -5.034  1.00  0.00     0.002 C 
BRANCH  28  29
ATOM     29  C   UNL     1      -4.191  -2.030  -5.951  1.00  0.00     0.002 C 
BRANCH  29  30
ATOM     30  C   UNL     1      -5.702  -2.069  -6.182  1.00  0.00     0.021 C 
BRANCH  30  31
ATOM     31  C   UNL     1      -6.290  -0.801  -6.791  1.00  0.00     0.116 C 
BRANCH  31  32
ATOM     32  N   UNL     1      -5.798  -0.554  -8.137  1.00  0.00    -0.352 N 
ATOM     33  C   UNL     1      -6.502  -0.332  -9.293  1.00  0.00     0.251 C 
ATOM     34  H   UNL     1      -4.818  -0.546  -8.233  1.00  0.00     0.163 HD
ATOM     35  O   UNL     1      -5.921  -0.320 -10.378  1.00  0.00    -0.269 OA
BRANCH  33  36
ATOM     36  C   UNL     1      -7.966  -0.131  -9.243  1.00  0.00     0.039 A 
ATOM     37  C   UNL     1      -8.770  -0.784 -10.180  1.00  0.00     0.014 A 
ATOM     38  C   UNL     1      -8.546   0.702  -8.282  1.00  0.00     0.014 A 
ATOM     39  C   UNL     1     -10.159  -0.654 -10.113  1.00  0.00     0.010 A 
ATOM     40  C   UNL     1      -9.932   0.770  -8.169  1.00  0.00     0.010 A 
ATOM     41  C   UNL     1     -10.754   0.095  -9.084  1.00  0.00    -0.014 A 
BRANCH  41  42
ATOM     42  C   UNL     1     -12.230   0.180  -8.948  1.00  0.00     0.031 A 
ATOM     43  C   UNL     1     -12.932   1.502  -9.094  1.00  0.00     0.074 A 
ATOM     44  C   UNL     1     -12.934  -0.925  -8.632  1.00  0.00     0.049 A 
ATOM     45  N   UNL     1     -14.202   1.785  -8.949  1.00  0.00    -0.248 NA
ATOM     46  C   UNL     1     -12.092   2.666  -9.421  1.00  0.00     0.031 C 
ATOM     47  C   UNL     1     -12.368  -2.258  -8.420  1.00  0.00     0.029 A 
ATOM     48  N   UNL     1     -14.280  -1.100  -8.423  1.00  0.00    -0.354 N 
ATOM     49  C   UNL     1     -14.310   3.155  -9.152  1.00  0.00     0.074 A 
ATOM     50  C   UNL     1     -12.971   3.656  -9.378  1.00  0.00     0.031 C 
ATOM     51  C   UNL     1     -13.360  -3.118  -8.137  1.00  0.00     0.029 A 
ATOM     52  C   UNL     1     -14.625  -2.391  -8.105  1.00  0.00     0.049 A 
ATOM     53  H   UNL     1     -14.936  -0.369  -8.494  1.00  0.00     0.167 HD
ATOM     54  C   UNL     1     -15.425   3.924  -9.169  1.00  0.00     0.037 A 
ATOM     55  C   UNL     1     -15.825  -2.928  -7.813  1.00  0.00     0.037 A 
ATOM     56  C   UNL     1     -16.758   3.420  -8.966  1.00  0.00     0.049 A 
ATOM     57  C   UNL     1     -17.046  -2.049  -7.823  1.00  0.00     0.074 A 
ATOM     58  C   UNL     1     -17.958   4.107  -9.030  1.00  0.00     0.029 A 
ATOM     59  N   UNL     1     -17.067   2.104  -8.656  1.00  0.00    -0.354 N 
ATOM     60  N   UNL     1     -17.142  -0.769  -8.089  1.00  0.00    -0.248 NA
ATOM     61  C   UNL     1     -18.327  -2.692  -7.497  1.00  0.00     0.031 C 
ATOM     62  C   UNL     1     -18.988   3.220  -8.705  1.00  0.00     0.029 A 
ATOM     63  C   UNL     1     -18.437   1.966  -8.496  1.00  0.00     0.049 A 
ATOM     64  H   UNL     1     -16.411   1.376  -8.562  1.00  0.00     0.167 HD
ATOM     65  C   UNL     1     -18.493  -0.461  -7.995  1.00  0.00     0.074 A 
ATOM     66  C   UNL     1     -19.180  -1.691  -7.660  1.00  0.00     0.031 C 
ATOM     67  C   UNL     1     -19.109   0.734  -8.171  1.00  0.00     0.037 A 
BRANCH  54  68
ATOM     68  C   UNL     1     -15.252   5.396  -9.414  1.00  0.00     0.057 A 
ATOM     69  C   UNL     1     -14.861   5.899 -10.662  1.00  0.00     0.134 A 
ATOM     70  C   UNL     1     -15.518   6.325  -8.400  1.00  0.00     0.134 A 
ATOM     71  F   UNL     1     -14.580   5.063 -11.674  1.00  0.00    -0.206 F 
ATOM     72  C   UNL     1     -14.716   7.269 -10.885  1.00  0.00     0.040 A 
ATOM     73  C   UNL     1     -15.406   7.699  -8.619  1.00  0.00     0.040 A 
ATOM     74  F   UNL     1     -15.904   5.914  -7.182  1.00  0.00    -0.206 F 
ATOM     75  C   UNL     1     -14.997   8.174  -9.863  1.00  0.00     0.006 A 
ENDBRANCH  54  68
BRANCH  55  76
ATOM     76  C   UNL     1     -15.940  -4.377  -7.503  1.00  0.00     0.057 A 
ATOM     77  C   UNL     1     -16.592  -5.252  -8.380  1.00  0.00     0.134 A 
ATOM     78  C   UNL     1     -15.421  -4.918  -6.321  1.00  0.00     0.134 A 
ATOM     79  F   UNL     1     -17.128  -4.790  -9.520  1.00  0.00    -0.206 F 
ATOM     80  C   UNL     1     -16.745  -6.607  -8.082  1.00  0.00     0.040 A 
ATOM     81  C   UNL     1     -15.542  -6.276  -6.024  1.00  0.00     0.040 A 
ATOM     82  F   UNL     1     -14.778  -4.135  -5.442  1.00  0.00    -0.206 F 
ATOM     83  C   UNL     1     -16.215  -7.123  -6.902  1.00  0.00     0.006 A 
ENDBRANCH  55  76
BRANCH  67  84
ATOM     84  C   UNL     1     -20.605   0.761  -8.047  1.00  0.00     0.057 A 
ATOM     85  C   UNL     1     -21.251   0.620  -6.812  1.00  0.00     0.134 A 
ATOM     86  C   UNL     1     -21.408   0.971  -9.176  1.00  0.00     0.134 A 
ATOM     87  F   UNL     1     -20.541   0.404  -5.695  1.00  0.00    -0.206 F 
ATOM     88  C   UNL     1     -22.642   0.661  -6.708  1.00  0.00     0.040 A 
ATOM     89  C   UNL     1     -22.798   1.044  -9.081  1.00  0.00     0.040 A 
ATOM     90  F   UNL     1     -20.854   1.123 -10.388  1.00  0.00    -0.206 F 
ATOM     91  C   UNL     1     -23.419   0.881  -7.844  1.00  0.00     0.006 A 
ENDBRANCH  67  84
ENDBRANCH  41  42
ENDBRANCH  33  36
ENDBRANCH  31  32
ENDBRANCH  30  31
ENDBRANCH  29  30
ENDBRANCH  28  29
ENDBRANCH   1  28
TORSDOF 18
