REMARK SMILES O=C(NCCCCCCNC(=O)[C@H](NC(=O)c1ccc(Br)nc1)c1ccccc1)c1ccc(-c2c3nc(c(-c4c(F)cccc4F)c4ccc([nH]4)c(-c4c(F)cccc4F)c4nc(c(-c5c(F)cccc5F)c5ccc2[nH]5)C=C4)C=C3)cc1
REMARK SMILES IDX 6 1 5 2 4 3 3 4 1 5 2 6 30 8 31 9 83 10 32 11 82 12 33 13
REMARK SMILES IDX 34 14 35 15 76 16 36 17 81 18 75 19 77 20 37 21 80 22 74 23
REMARK SMILES IDX 73 24 38 26 64 27 47 28 63 29 48 30 51 31 62 32 78 33 49 34
REMARK SMILES IDX 50 35 61 37 79 38 52 39 39 40 40 41 45 42 41 43 42 44 44 45
REMARK SMILES IDX 46 46 43 47 65 48 66 49 71 50 67 51 68 52 70 53 72 54 69 55
REMARK SMILES IDX 53 56 54 57 59 58 55 59 56 60 58 61 60 62 57 63 7 64 8 65
REMARK SMILES IDX 9 66 10 67 11 68 12 70 13 71 24 72 25 73 29 74 26 75 28 76
REMARK SMILES IDX 27 77 14 78 15 79 16 81 17 82 18 83 23 84 19 85 22 86 20 87
REMARK SMILES IDX 21 88
REMARK H PARENT 3 7 77 25 51 36 10 69 14 80
REMARK Flexibility Score: inf
ROOT
ATOM      1  C   UNL     1       6.700   8.165  -3.176  1.00  0.00     0.002 C 
ENDROOT
BRANCH   1   2
ATOM      2  C   UNL     1       5.607   9.156  -3.549  1.00  0.00     0.021 C 
BRANCH   2   3
ATOM      3  C   UNL     1       4.218   8.809  -3.034  1.00  0.00     0.116 C 
BRANCH   3   4
ATOM      4  N   UNL     1       4.024   9.084  -1.615  1.00  0.00    -0.352 N 
ATOM      5  O   UNL     1       2.955  10.020   0.167  1.00  0.00    -0.269 OA
ATOM      6  C   UNL     1       2.974   9.764  -1.032  1.00  0.00     0.251 C 
ATOM      7  H   UNL     1       4.720   8.747  -1.005  1.00  0.00     0.163 HD
BRANCH   6   8
ATOM      8  C   UNL     1       1.875  10.215  -1.910  1.00  0.00     0.039 A 
ATOM      9  C   UNL     1       1.267   9.290  -2.759  1.00  0.00     0.014 A 
ATOM     10  C   UNL     1       1.562  11.574  -1.992  1.00  0.00     0.014 A 
ATOM     11  C   UNL     1       0.493   9.749  -3.814  1.00  0.00     0.010 A 
ATOM     12  C   UNL     1       0.690  12.020  -2.991  1.00  0.00     0.010 A 
ATOM     13  C   UNL     1       0.183  11.117  -3.938  1.00  0.00    -0.014 A 
BRANCH  13  14
ATOM     14  C   UNL     1      -0.728  11.537  -5.034  1.00  0.00     0.031 A 
ATOM     15  C   UNL     1      -0.283  12.460  -6.136  1.00  0.00     0.074 A 
ATOM     16  C   UNL     1      -1.964  10.998  -5.061  1.00  0.00     0.049 A 
ATOM     17  N   UNL     1      -0.951  12.858  -7.191  1.00  0.00    -0.248 NA
ATOM     18  C   UNL     1       1.075  13.016  -6.046  1.00  0.00     0.031 C 
ATOM     19  C   UNL     1      -2.510  10.107  -4.034  1.00  0.00     0.029 A 
ATOM     20  N   UNL     1      -2.963  11.081  -5.993  1.00  0.00    -0.354 N 
ATOM     21  C   UNL     1      -0.107  13.722  -7.879  1.00  0.00     0.074 A 
ATOM     22  C   UNL     1       1.118  13.807  -7.111  1.00  0.00     0.031 C 
ATOM     23  C   UNL     1      -3.711   9.665  -4.428  1.00  0.00     0.029 A 
ATOM     24  C   UNL     1      -4.054  10.302  -5.692  1.00  0.00     0.049 A 
ATOM     25  H   UNL     1      -2.906  11.643  -6.800  1.00  0.00     0.167 HD
ATOM     26  C   UNL     1      -0.335  14.377  -9.043  1.00  0.00     0.037 A 
ATOM     27  C   UNL     1      -5.214  10.129  -6.348  1.00  0.00     0.037 A 
ATOM     28  C   UNL     1      -1.555  14.279  -9.807  1.00  0.00     0.049 A 
ATOM     29  C   UNL     1      -5.432  10.859  -7.637  1.00  0.00     0.074 A 
ATOM     30  C   UNL     1      -1.881  14.902 -11.000  1.00  0.00     0.029 A 
ATOM     31  N   UNL     1      -2.650  13.503  -9.454  1.00  0.00    -0.354 N 
ATOM     32  N   UNL     1      -4.620  11.670  -8.271  1.00  0.00    -0.248 NA
ATOM     33  C   UNL     1      -6.727  10.658  -8.298  1.00  0.00     0.031 C 
ATOM     34  C   UNL     1      -3.183  14.529 -11.351  1.00  0.00     0.029 A 
ATOM     35  C   UNL     1      -3.654  13.639 -10.400  1.00  0.00     0.049 A 
ATOM     36  H   UNL     1      -2.705  12.938  -8.649  1.00  0.00     0.167 HD
ATOM     37  C   UNL     1      -5.308  12.082  -9.403  1.00  0.00     0.074 A 
ATOM     38  C   UNL     1      -6.585  11.397  -9.389  1.00  0.00     0.031 C 
ATOM     39  C   UNL     1      -4.923  12.961 -10.360  1.00  0.00     0.037 A 
BRANCH  26  40
ATOM     40  C   UNL     1       0.751  15.274  -9.569  1.00  0.00     0.057 A 
ATOM     41  C   UNL     1       1.919  14.760 -10.146  1.00  0.00     0.134 A 
ATOM     42  C   UNL     1       0.594  16.667  -9.565  1.00  0.00     0.134 A 
ATOM     43  F   UNL     1       2.137  13.436 -10.175  1.00  0.00    -0.206 F 
ATOM     44  C   UNL     1       2.896  15.598 -10.690  1.00  0.00     0.040 A 
ATOM     45  C   UNL     1       1.554  17.514 -10.124  1.00  0.00     0.040 A 
ATOM     46  F   UNL     1      -0.504  17.227  -9.036  1.00  0.00    -0.206 F 
ATOM     47  C   UNL     1       2.710  16.979 -10.687  1.00  0.00     0.006 A 
ENDBRANCH  26  40
BRANCH  27  48
ATOM     48  C   UNL     1      -6.257   9.244  -5.774  1.00  0.00     0.057 A 
ATOM     49  C   UNL     1      -6.600   8.031  -6.382  1.00  0.00     0.134 A 
ATOM     50  C   UNL     1      -6.920   9.582  -4.588  1.00  0.00     0.134 A 
ATOM     51  F   UNL     1      -6.011   7.659  -7.528  1.00  0.00    -0.206 F 
ATOM     52  C   UNL     1      -7.573   7.193  -5.837  1.00  0.00     0.040 A 
ATOM     53  C   UNL     1      -7.871   8.739  -4.014  1.00  0.00     0.040 A 
ATOM     54  F   UNL     1      -6.627  10.726  -3.951  1.00  0.00    -0.206 F 
ATOM     55  C   UNL     1      -8.205   7.543  -4.644  1.00  0.00     0.006 A 
ENDBRANCH  27  48
BRANCH  39  56
ATOM     56  C   UNL     1      -5.905  13.216 -11.464  1.00  0.00     0.057 A 
ATOM     57  C   UNL     1      -7.073  13.960 -11.249  1.00  0.00     0.134 A 
ATOM     58  C   UNL     1      -5.689  12.703 -12.748  1.00  0.00     0.134 A 
ATOM     59  F   UNL     1      -7.345  14.463 -10.036  1.00  0.00    -0.206 F 
ATOM     60  C   UNL     1      -8.009  14.156 -12.266  1.00  0.00     0.040 A 
ATOM     61  C   UNL     1      -6.605  12.914 -13.779  1.00  0.00     0.040 A 
ATOM     62  F   UNL     1      -4.587  11.987 -13.020  1.00  0.00    -0.206 F 
ATOM     63  C   UNL     1      -7.774  13.633 -13.536  1.00  0.00     0.006 A 
ENDBRANCH  39  56
ENDBRANCH  13  14
ENDBRANCH   6   8
ENDBRANCH   3   4
ENDBRANCH   2   3
ENDBRANCH   1   2
BRANCH   1  64
ATOM     64  C   UNL     1       6.437   6.716  -3.576  1.00  0.00     0.002 C 
BRANCH  64  65
ATOM     65  C   UNL     1       6.174   6.421  -5.054  1.00  0.00     0.021 C 
BRANCH  65  66
ATOM     66  C   UNL     1       7.338   6.592  -6.035  1.00  0.00     0.116 C 
BRANCH  66  67
ATOM     67  N   UNL     1       8.660   6.134  -5.634  1.00  0.00    -0.354 N 
ATOM     68  C   UNL     1       9.288   4.919  -5.778  1.00  0.00     0.247 C 
ATOM     69  H   UNL     1       9.202   6.817  -5.178  1.00  0.00     0.163 HD
ATOM     70  O   UNL     1      10.521   4.969  -5.794  1.00  0.00    -0.272 OA
BRANCH  68  71
ATOM     71  C   UNL     1       8.475   3.616  -5.961  1.00  0.00     0.202 C 
BRANCH  71  72
ATOM     72  C   UNL     1       9.171   2.251  -6.099  1.00  0.00    -0.016 A 
ATOM     73  C   UNL     1       8.381   1.075  -6.051  1.00  0.00     0.006 A 
ATOM     74  C   UNL     1      10.533   2.078  -6.382  1.00  0.00     0.006 A 
ATOM     75  C   UNL     1       8.928  -0.200  -6.221  1.00  0.00     0.000 A 
ATOM     76  C   UNL     1      11.084   0.799  -6.557  1.00  0.00     0.000 A 
ATOM     77  C   UNL     1      10.285  -0.338  -6.471  1.00  0.00     0.000 A 
ENDBRANCH  71  72
BRANCH  71  78
ATOM     78  N   UNL     1       7.333   3.510  -5.045  1.00  0.00    -0.336 N 
ATOM     79  C   UNL     1       7.182   3.218  -3.716  1.00  0.00     0.253 C 
ATOM     80  H   UNL     1       6.474   3.690  -5.490  1.00  0.00     0.165 HD
ATOM     81  O   UNL     1       6.114   2.661  -3.438  1.00  0.00    -0.269 OA
BRANCH  79  82
ATOM     82  C   UNL     1       8.065   3.619  -2.584  1.00  0.00     0.058 A 
ATOM     83  C   UNL     1       9.127   4.518  -2.611  1.00  0.00     0.018 A 
ATOM     84  C   UNL     1       7.628   3.249  -1.310  1.00  0.00     0.126 A 
ATOM     85  C   UNL     1       9.614   5.086  -1.426  1.00  0.00     0.037 A 
ATOM     86  N   UNL     1       8.100   3.752  -0.137  1.00  0.00    -0.249 NA
ATOM     87  C   UNL     1       9.060   4.690  -0.223  1.00  0.00     0.106 A 
ATOM     88  Br  UNL     1       9.609   5.553   1.371  1.00  0.00    -0.029 Br
ENDBRANCH  79  82
ENDBRANCH  71  78
ENDBRANCH  68  71
ENDBRANCH  66  67
ENDBRANCH  65  66
ENDBRANCH  64  65
ENDBRANCH   1  64
TORSDOF 16
