REMARK SMILES O=C(NCCCCCCNC(=O)c1ccc2c(c1)[C@@H]1C=CC[C@@H]1[C@H](c1ccncc1)N2)c1ccc(-c2c3nc(c(-c4c(F)cccc4F)c4ccc([nH]4)c(-c4c(F)cccc4F)c4nc(c(-c5c(F)cccc5F)c5ccc2[nH]5)C=C4)C=C3)cc1
REMARK SMILES IDX 6 1 5 2 4 3 3 4 1 5 2 6 32 8 33 9 85 10 34 11 84 12 35 13
REMARK SMILES IDX 36 14 37 15 78 16 38 17 83 18 77 19 79 20 39 21 82 22 76 23
REMARK SMILES IDX 75 24 40 26 66 27 49 28 65 29 50 30 53 31 64 32 80 33 51 34
REMARK SMILES IDX 52 35 63 37 81 38 54 39 41 40 42 41 47 42 43 43 44 44 46 45
REMARK SMILES IDX 48 46 45 47 67 48 68 49 73 50 69 51 70 52 72 53 74 54 71 55
REMARK SMILES IDX 55 56 56 57 61 58 57 59 58 60 60 61 62 62 59 63 7 64 8 65
REMARK SMILES IDX 9 66 10 67 11 68 12 70 13 71 14 72 18 73 15 74 17 75 16 76
REMARK SMILES IDX 19 77 31 78 20 79 23 80 24 81 21 83 22 84 25 85 26 86 30 87
REMARK SMILES IDX 27 88 29 89 28 90
REMARK H PARENT 3 7 79 25 53 36 10 69 31 82
REMARK Flexibility Score: inf
ROOT
ATOM      1  C   UNL     1       4.122   3.615  -1.360  1.00  0.00     0.002 C 
ENDROOT
BRANCH   1   2
ATOM      2  C   UNL     1       4.599   2.174  -1.537  1.00  0.00     0.021 C 
BRANCH   2   3
ATOM      3  C   UNL     1       4.351   1.262  -0.342  1.00  0.00     0.116 C 
BRANCH   3   4
ATOM      4  N   UNL     1       2.937   1.069  -0.068  1.00  0.00    -0.352 N 
ATOM      5  O   UNL     1       1.004  -0.078   0.134  1.00  0.00    -0.269 OA
ATOM      6  C   UNL     1       2.229  -0.101   0.054  1.00  0.00     0.251 C 
ATOM      7  H   UNL     1       2.413   1.895   0.047  1.00  0.00     0.163 HD
BRANCH   6   8
ATOM      8  C   UNL     1       2.943  -1.395   0.065  1.00  0.00     0.039 A 
ATOM      9  C   UNL     1       4.096  -1.568   0.835  1.00  0.00     0.014 A 
ATOM     10  C   UNL     1       2.443  -2.455  -0.698  1.00  0.00     0.014 A 
ATOM     11  C   UNL     1       4.819  -2.752   0.741  1.00  0.00     0.010 A 
ATOM     12  C   UNL     1       3.127  -3.674  -0.726  1.00  0.00     0.010 A 
ATOM     13  C   UNL     1       4.333  -3.824  -0.025  1.00  0.00    -0.014 A 
BRANCH  13  14
ATOM     14  C   UNL     1       5.066  -5.115  -0.016  1.00  0.00     0.031 A 
ATOM     15  C   UNL     1       5.708  -5.658  -1.261  1.00  0.00     0.074 A 
ATOM     16  C   UNL     1       5.160  -5.791   1.145  1.00  0.00     0.049 A 
ATOM     17  N   UNL     1       6.389  -6.765  -1.419  1.00  0.00    -0.248 NA
ATOM     18  C   UNL     1       5.565  -4.862  -2.489  1.00  0.00     0.031 C 
ATOM     19  C   UNL     1       4.564  -5.369   2.415  1.00  0.00     0.029 A 
ATOM     20  N   UNL     1       5.798  -6.964   1.453  1.00  0.00    -0.354 N 
ATOM     21  C   UNL     1       6.742  -6.809  -2.761  1.00  0.00     0.074 A 
ATOM     22  C   UNL     1       6.178  -5.628  -3.382  1.00  0.00     0.031 C 
ATOM     23  C   UNL     1       4.898  -6.246   3.372  1.00  0.00     0.029 A 
ATOM     24  C   UNL     1       5.677  -7.323   2.773  1.00  0.00     0.049 A 
ATOM     25  H   UNL     1       6.295  -7.498   0.791  1.00  0.00     0.167 HD
ATOM     26  C   UNL     1       7.474  -7.745  -3.412  1.00  0.00     0.037 A 
ATOM     27  C   UNL     1       6.127  -8.408   3.428  1.00  0.00     0.037 A 
ATOM     28  C   UNL     1       8.040  -8.913  -2.785  1.00  0.00     0.049 A 
ATOM     29  C   UNL     1       6.912  -9.441   2.676  1.00  0.00     0.074 A 
ATOM     30  C   UNL     1       8.827  -9.901  -3.354  1.00  0.00     0.029 A 
ATOM     31  N   UNL     1       7.875  -9.254  -1.451  1.00  0.00    -0.354 N 
ATOM     32  N   UNL     1       7.269  -9.449   1.415  1.00  0.00    -0.248 NA
ATOM     33  C   UNL     1       7.354 -10.617   3.436  1.00  0.00     0.031 C 
ATOM     34  C   UNL     1       9.100 -10.862  -2.374  1.00  0.00     0.029 A 
ATOM     35  C   UNL     1       8.525 -10.449  -1.184  1.00  0.00     0.049 A 
ATOM     36  H   UNL     1       7.370  -8.726  -0.791  1.00  0.00     0.167 HD
ATOM     37  C   UNL     1       7.992 -10.619   1.233  1.00  0.00     0.074 A 
ATOM     38  C   UNL     1       8.039 -11.285   2.518  1.00  0.00     0.031 C 
ATOM     39  C   UNL     1       8.564 -11.099   0.102  1.00  0.00     0.037 A 
BRANCH  26  40
ATOM     40  C   UNL     1       7.696  -7.558  -4.885  1.00  0.00     0.057 A 
ATOM     41  C   UNL     1       8.561  -6.576  -5.386  1.00  0.00     0.134 A 
ATOM     42  C   UNL     1       7.079  -8.408  -5.813  1.00  0.00     0.134 A 
ATOM     43  F   UNL     1       9.176  -5.723  -4.553  1.00  0.00    -0.206 F 
ATOM     44  C   UNL     1       8.791  -6.435  -6.756  1.00  0.00     0.040 A 
ATOM     45  C   UNL     1       7.319  -8.291  -7.184  1.00  0.00     0.040 A 
ATOM     46  F   UNL     1       6.245  -9.374  -5.402  1.00  0.00    -0.206 F 
ATOM     47  C   UNL     1       8.175  -7.300  -7.659  1.00  0.00     0.006 A 
ENDBRANCH  26  40
BRANCH  27  48
ATOM     48  C   UNL     1       5.837  -8.568   4.874  1.00  0.00     0.057 A 
ATOM     49  C   UNL     1       6.851  -8.472   5.832  1.00  0.00     0.134 A 
ATOM     50  C   UNL     1       4.535  -8.809   5.332  1.00  0.00     0.134 A 
ATOM     51  F   UNL     1       8.120  -8.259   5.453  1.00  0.00    -0.206 F 
ATOM     52  C   UNL     1       6.586  -8.623   7.194  1.00  0.00     0.040 A 
ATOM     53  C   UNL     1       4.251  -8.934   6.692  1.00  0.00     0.040 A 
ATOM     54  F   UNL     1       3.518  -8.902   4.464  1.00  0.00    -0.206 F 
ATOM     55  C   UNL     1       5.280  -8.848   7.627  1.00  0.00     0.006 A 
ENDBRANCH  27  48
BRANCH  39  56
ATOM     56  C   UNL     1       9.314 -12.392   0.216  1.00  0.00     0.057 A 
ATOM     57  C   UNL     1       8.654 -13.617   0.373  1.00  0.00     0.134 A 
ATOM     58  C   UNL     1      10.713 -12.413   0.143  1.00  0.00     0.134 A 
ATOM     59  F   UNL     1       7.317 -13.662   0.466  1.00  0.00    -0.206 F 
ATOM     60  C   UNL     1       9.361 -14.816   0.479  1.00  0.00     0.040 A 
ATOM     61  C   UNL     1      11.428 -13.608   0.222  1.00  0.00     0.040 A 
ATOM     62  F   UNL     1      11.404 -11.274  -0.014  1.00  0.00    -0.206 F 
ATOM     63  C   UNL     1      10.752 -14.814   0.397  1.00  0.00     0.006 A 
ENDBRANCH  39  56
ENDBRANCH  13  14
ENDBRANCH   6   8
ENDBRANCH   3   4
ENDBRANCH   2   3
ENDBRANCH   1   2
BRANCH   1  64
ATOM     64  C   UNL     1       4.661   4.342  -0.124  1.00  0.00     0.002 C 
BRANCH  64  65
ATOM     65  C   UNL     1       6.184   4.336   0.037  1.00  0.00     0.021 C 
BRANCH  65  66
ATOM     66  C   UNL     1       6.966   4.873  -1.158  1.00  0.00     0.116 C 
BRANCH  66  67
ATOM     67  N   UNL     1       6.663   6.267  -1.433  1.00  0.00    -0.352 N 
ATOM     68  C   UNL     1       7.522   7.333  -1.538  1.00  0.00     0.251 C 
ATOM     69  H   UNL     1       5.710   6.477  -1.562  1.00  0.00     0.163 HD
ATOM     70  O   UNL     1       7.088   8.478  -1.604  1.00  0.00    -0.269 OA
BRANCH  68  71
ATOM     71  C   UNL     1       8.980   7.095  -1.557  1.00  0.00     0.040 A 
ATOM     72  C   UNL     1       9.796   7.809  -0.684  1.00  0.00     0.016 A 
ATOM     73  C   UNL     1       9.536   6.155  -2.427  1.00  0.00     0.020 A 
ATOM     74  C   UNL     1      11.169   7.556  -0.667  1.00  0.00     0.027 A 
ATOM     75  C   UNL     1      10.905   5.851  -2.362  1.00  0.00    -0.017 A 
ATOM     76  C   UNL     1      11.742   6.600  -1.519  1.00  0.00     0.038 A 
ATOM     77  C   UNL     1      11.453   4.712  -3.192  1.00  0.00     0.049 C 
ATOM     78  N   UNL     1      13.108   6.355  -1.445  1.00  0.00    -0.378 N 
ATOM     79  C   UNL     1      10.770   3.398  -2.892  1.00  0.00    -0.023 C 
ATOM     80  C   UNL     1      12.913   4.351  -2.869  1.00  0.00     0.031 C 
ATOM     81  C   UNL     1      13.748   5.579  -2.499  1.00  0.00     0.114 C 
ATOM     82  H   UNL     1      13.636   6.703  -0.691  1.00  0.00     0.161 HD
ATOM     83  C   UNL     1      11.526   2.599  -2.129  1.00  0.00    -0.030 C 
ATOM     84  C   UNL     1      12.838   3.242  -1.805  1.00  0.00     0.034 C 
BRANCH  81  85
ATOM     85  C   UNL     1      15.184   5.211  -2.151  1.00  0.00    -0.022 A 
ATOM     86  C   UNL     1      16.023   4.704  -3.155  1.00  0.00     0.026 A 
ATOM     87  C   UNL     1      15.719   5.334  -0.863  1.00  0.00     0.026 A 
ATOM     88  C   UNL     1      17.326   4.356  -2.836  1.00  0.00     0.111 A 
ATOM     89  C   UNL     1      17.042   4.975  -0.647  1.00  0.00     0.111 A 
ATOM     90  N   UNL     1      17.857   4.488  -1.605  1.00  0.00    -0.265 NA
ENDBRANCH  81  85
ENDBRANCH  68  71
ENDBRANCH  66  67
ENDBRANCH  65  66
ENDBRANCH  64  65
ENDBRANCH   1  64
TORSDOF 14
