REMARK SMILES CC(C)(C)c1cc2c(cc1Cl)C=C(C(=O)NCCCCCCNC(=O)c1ccc(-c3c4nc(c(-c5c(F)cccc5F)c5ccc([nH]5)c(-c5c(F)cccc5F)c5nc(c(-c6c(F)cccc6F)c6ccc3[nH]6)C=C5)C=C4)cc1)[C@H](C(F)(F)F)O2
REMARK SMILES IDX 20 1 19 2 18 3 17 4 16 5 14 6 15 7 13 9 5 10 6 11 10 12 7 13
REMARK SMILES IDX 9 14 11 15 8 16 85 17 12 18 80 19 2 20 1 21 3 22 4 23 81 24
REMARK SMILES IDX 82 25 83 26 84 27 21 28 22 29 23 30 24 31 25 33 26 34 27 35
REMARK SMILES IDX 79 36 28 37 78 38 29 39 30 40 31 41 72 42 32 43 77 44 71 45
REMARK SMILES IDX 73 46 33 47 76 48 70 49 69 50 34 52 60 53 43 54 59 55 44 56
REMARK SMILES IDX 47 57 58 58 74 59 45 60 46 61 57 63 75 64 48 65 35 66 36 67
REMARK SMILES IDX 41 68 37 69 38 70 40 71 42 72 39 73 61 74 62 75 67 76 63 77
REMARK SMILES IDX 64 78 66 79 68 80 65 81 49 82 50 83 55 84 51 85 52 86 54 87
REMARK SMILES IDX 56 88 53 89
REMARK H PARENT 16 8 23 32 73 51 47 62
REMARK Flexibility Score: inf
ROOT
ATOM      1  C   UNL     1       5.870  -5.824  10.819  1.00  0.00     0.002 C 
ENDROOT
BRANCH   1   2
ATOM      2  C   UNL     1       4.356  -5.771  10.587  1.00  0.00     0.002 C 
BRANCH   2   3
ATOM      3  C   UNL     1       3.869  -4.673   9.638  1.00  0.00     0.021 C 
BRANCH   3   4
ATOM      4  C   UNL     1       4.460  -4.741   8.231  1.00  0.00     0.116 C 
BRANCH   4   5
ATOM      5  N   UNL     1       3.750  -5.689   7.391  1.00  0.00    -0.352 N 
ATOM      6  C   UNL     1       2.989  -5.661   6.272  1.00  0.00     0.251 C 
ATOM      7  O   UNL     1       2.598  -6.766   5.881  1.00  0.00    -0.270 OA
ATOM      8  H   UNL     1       3.851  -6.609   7.729  1.00  0.00     0.163 HD
BRANCH   6   9
ATOM      9  C   UNL     1       2.608  -4.435   5.505  1.00  0.00     0.067 C 
ATOM     10  C   UNL     1       0.740  -1.216   2.030  1.00  0.00    -0.020 A 
ATOM     11  C   UNL     1       1.578  -1.119   3.161  1.00  0.00     0.053 A 
ATOM     12  C   UNL     1       0.337  -2.526   1.673  1.00  0.00     0.045 A 
ATOM     13  C   UNL     1       1.960  -2.236   3.905  1.00  0.00     0.128 A 
ATOM     14  C   UNL     1       0.739  -3.650   2.422  1.00  0.00     0.032 A 
ATOM     15  Cl  UNL     1      -0.656  -2.899   0.306  1.00  0.00    -0.084 Cl
ATOM     16  C   UNL     1       1.546  -3.508   3.547  1.00  0.00     0.019 A 
ATOM     17  O   UNL     1       2.784  -1.997   4.965  1.00  0.00    -0.475 OA
ATOM     18  C   UNL     1       1.986  -4.653   4.331  1.00  0.00     0.025 C 
ATOM     19  C   UNL     1       2.833  -3.029   5.986  1.00  0.00     0.314 C 
BRANCH  10  20
ATOM     20  C   UNL     1       0.326   0.075   1.282  1.00  0.00    -0.012 C 
ATOM     21  C   UNL     1       0.879   0.073  -0.159  1.00  0.00     0.016 C 
ATOM     22  C   UNL     1       0.877   1.376   1.936  1.00  0.00     0.016 C 
ATOM     23  C   UNL     1      -1.209   0.246   1.279  1.00  0.00     0.016 C 
ENDBRANCH  10  20
BRANCH  19  24
ATOM     24  C   UNL     1       1.912  -2.631   7.153  1.00  0.00     0.429 C 
ATOM     25  F   UNL     1       1.538  -3.686   7.910  1.00  0.00    -0.167 F 
ATOM     26  F   UNL     1       2.550  -1.767   7.983  1.00  0.00    -0.167 F 
ATOM     27  F   UNL     1       0.775  -2.026   6.738  1.00  0.00    -0.167 F 
ENDBRANCH  19  24
ENDBRANCH   6   9
ENDBRANCH   4   5
ENDBRANCH   3   4
ENDBRANCH   2   3
ENDBRANCH   1   2
BRANCH   1  28
ATOM     28  C   UNL     1       6.535  -4.489  11.160  1.00  0.00     0.021 C 
BRANCH  28  29
ATOM     29  C   UNL     1       5.958  -3.773  12.376  1.00  0.00     0.116 C 
BRANCH  29  30
ATOM     30  N   UNL     1       6.164  -4.512  13.611  1.00  0.00    -0.352 N 
ATOM     31  C   UNL     1       6.728  -4.088  14.790  1.00  0.00     0.251 C 
ATOM     32  H   UNL     1       5.856  -5.448  13.601  1.00  0.00     0.163 HD
ATOM     33  O   UNL     1       6.965  -4.887  15.691  1.00  0.00    -0.269 OA
BRANCH  31  34
ATOM     34  C   UNL     1       7.081  -2.663  14.954  1.00  0.00     0.039 A 
ATOM     35  C   UNL     1       6.170  -1.661  14.609  1.00  0.00     0.014 A 
ATOM     36  C   UNL     1       8.352  -2.327  15.428  1.00  0.00     0.014 A 
ATOM     37  C   UNL     1       6.585  -0.334  14.584  1.00  0.00     0.010 A 
ATOM     38  C   UNL     1       8.741  -0.985  15.476  1.00  0.00     0.010 A 
ATOM     39  C   UNL     1       7.877   0.018  15.007  1.00  0.00    -0.014 A 
BRANCH  39  40
ATOM     40  C   UNL     1       8.308   1.438  14.932  1.00  0.00     0.031 A 
ATOM     41  C   UNL     1       9.406   1.859  13.992  1.00  0.00     0.074 A 
ATOM     42  C   UNL     1       7.667   2.361  15.674  1.00  0.00     0.049 A 
ATOM     43  N   UNL     1       9.901   3.053  13.781  1.00  0.00    -0.248 NA
ATOM     44  C   UNL     1      10.032   0.801  13.182  1.00  0.00     0.031 C 
ATOM     45  C   UNL     1       6.580   2.081  16.614  1.00  0.00     0.029 A 
ATOM     46  N   UNL     1       7.820   3.722  15.738  1.00  0.00    -0.354 N 
ATOM     47  C   UNL     1      10.903   2.889  12.832  1.00  0.00     0.074 A 
ATOM     48  C   UNL     1      10.967   1.476  12.528  1.00  0.00     0.031 C 
ATOM     49  C   UNL     1       6.132   3.239  17.123  1.00  0.00     0.029 A 
ATOM     50  C   UNL     1       6.936   4.333  16.593  1.00  0.00     0.049 A 
ATOM     51  H   UNL     1       8.498   4.214  15.220  1.00  0.00     0.167 HD
ATOM     52  C   UNL     1      11.688   3.831  12.256  1.00  0.00     0.037 A 
ATOM     53  C   UNL     1       6.799   5.630  16.923  1.00  0.00     0.037 A 
ATOM     54  C   UNL     1      11.614   5.240  12.546  1.00  0.00     0.049 A 
ATOM     55  C   UNL     1       7.719   6.645  16.309  1.00  0.00     0.074 A 
ATOM     56  C   UNL     1      12.353   6.275  11.999  1.00  0.00     0.029 A 
ATOM     57  N   UNL     1      10.747   5.812  13.464  1.00  0.00    -0.354 N 
ATOM     58  N   UNL     1       8.654   6.475  15.407  1.00  0.00    -0.248 NA
ATOM     59  C   UNL     1       7.571   8.031  16.771  1.00  0.00     0.031 C 
ATOM     60  C   UNL     1      11.958   7.469  12.614  1.00  0.00     0.029 A 
ATOM     61  C   UNL     1      10.947   7.182  13.516  1.00  0.00     0.049 A 
ATOM     62  H   UNL     1      10.086   5.317  14.001  1.00  0.00     0.167 HD
ATOM     63  C   UNL     1       9.201   7.731  15.188  1.00  0.00     0.074 A 
ATOM     64  C   UNL     1       8.473   8.658  16.030  1.00  0.00     0.031 C 
ATOM     65  C   UNL     1      10.220   8.087  14.368  1.00  0.00     0.037 A 
BRANCH  52  66
ATOM     66  C   UNL     1      12.711   3.364  11.262  1.00  0.00     0.057 A 
ATOM     67  C   UNL     1      14.075   3.375  11.580  1.00  0.00     0.134 A 
ATOM     68  C   UNL     1      12.350   2.931   9.979  1.00  0.00     0.134 A 
ATOM     69  F   UNL     1      14.489   3.783  12.789  1.00  0.00    -0.206 F 
ATOM     70  C   UNL     1      15.043   2.973  10.658  1.00  0.00     0.040 A 
ATOM     71  C   UNL     1      13.308   2.506   9.056  1.00  0.00     0.040 A 
ATOM     72  F   UNL     1      11.060   2.883   9.616  1.00  0.00    -0.206 F 
ATOM     73  C   UNL     1      14.660   2.531   9.393  1.00  0.00     0.006 A 
ENDBRANCH  52  66
BRANCH  53  74
ATOM     74  C   UNL     1       5.760   6.044  17.898  1.00  0.00     0.057 A 
ATOM     75  C   UNL     1       5.857   5.708  19.253  1.00  0.00     0.134 A 
ATOM     76  C   UNL     1       4.654   6.802  17.497  1.00  0.00     0.134 A 
ATOM     77  F   UNL     1       6.893   4.981  19.698  1.00  0.00    -0.206 F 
ATOM     78  C   UNL     1       4.888   6.104  20.175  1.00  0.00     0.040 A 
ATOM     79  C   UNL     1       3.690   7.226  18.413  1.00  0.00     0.040 A 
ATOM     80  F   UNL     1       4.518   7.171  16.215  1.00  0.00    -0.206 F 
ATOM     81  C   UNL     1       3.804   6.873  19.756  1.00  0.00     0.006 A 
ENDBRANCH  53  74
BRANCH  65  82
ATOM     82  C   UNL     1      10.590   9.539  14.344  1.00  0.00     0.057 A 
ATOM     83  C   UNL     1      10.264  10.344  13.247  1.00  0.00     0.134 A 
ATOM     84  C   UNL     1      11.272  10.140  15.411  1.00  0.00     0.134 A 
ATOM     85  F   UNL     1       9.615   9.829  12.192  1.00  0.00    -0.206 F 
ATOM     86  C   UNL     1      10.598  11.699  13.212  1.00  0.00     0.040 A 
ATOM     87  C   UNL     1      11.591  11.498  15.398  1.00  0.00     0.040 A 
ATOM     88  F   UNL     1      11.596   9.425  16.498  1.00  0.00    -0.206 F 
ATOM     89  C   UNL     1      11.257  12.280  14.294  1.00  0.00     0.006 A 
ENDBRANCH  65  82
ENDBRANCH  39  40
ENDBRANCH  31  34
ENDBRANCH  29  30
ENDBRANCH  28  29
ENDBRANCH   1  28
TORSDOF 15
