REMARK SMILES C[N@H+]1CCCN(C(=O)N[C@@H]2CCCCC[C@@H]2C(=O)NCCCCCCNC(=O)c2ccc(-c3c4nc(c(-c5c(F)cccc5F)c5ccc([nH]5)c(-c5c(F)cccc5F)c5nc(c(-c6c(F)cccc6F)c6ccc3[nH]6)C=C5)C=C4)cc2)CC1
REMARK SMILES IDX 20 1 19 2 17 3 18 4 16 6 10 8 9 9 7 10 8 11 6 13 83 14 84 15
REMARK SMILES IDX 2 16 1 17 3 19 5 21 4 22 11 24 12 25 13 26 14 27 15 28 21 30
REMARK SMILES IDX 22 31 23 32 24 33 25 34 26 35 27 36 28 38 29 39 30 40 82 41
REMARK SMILES IDX 31 42 81 43 32 44 33 45 34 46 75 47 35 48 80 49 74 50 76 51
REMARK SMILES IDX 36 52 79 53 73 54 72 55 37 57 63 58 46 59 62 60 47 61 50 62
REMARK SMILES IDX 61 63 77 64 48 65 49 66 60 68 78 69 51 70 38 71 39 72 44 73
REMARK SMILES IDX 40 74 41 75 43 76 45 77 42 78 64 79 65 80 70 81 66 82 67 83
REMARK SMILES IDX 69 84 71 85 68 86 52 87 53 88 58 89 54 90 55 91 57 92 59 93
REMARK SMILES IDX 56 94
REMARK H PARENT 19 5 9 12 2 18 26 37 76 56 50 67
REMARK Flexibility Score: 180.00
ROOT
ATOM      1  C   UNL     1      -3.055  -7.282   4.727  1.00  0.00     0.116 C 
ENDROOT
BRANCH   1   2
ATOM      2  N   UNL     1      -2.726  -6.738   3.420  1.00  0.00    -0.356 N 
ATOM      3  C   UNL     1      -1.726  -5.895   3.034  1.00  0.00     0.225 C 
ATOM      4  O   UNL     1      -1.808  -5.368   1.924  1.00  0.00    -0.275 OA
ATOM      5  H   UNL     1      -3.324  -7.026   2.693  1.00  0.00     0.163 HD
BRANCH   3   6
ATOM      6  C   UNL     1      -0.503  -5.727   3.927  1.00  0.00     0.101 CG1
ATOM      7  G   UNL     1       0.594  -6.692   3.419  1.00  0.00     0.000 G1
BRANCH   6   8
ATOM      8  C   UNL     1      -0.143  -4.239   4.197  1.00  0.00     0.096 C 
BRANCH   8   9
ATOM      9  N   UNL     1      -1.390  -3.401   4.394  1.00  0.00    -0.334 N 
ATOM     10  C   UNL     1      -1.976  -2.200   4.179  1.00  0.00     0.317 C 
ATOM     11  O   UNL     1      -3.005  -2.022   4.846  1.00  0.00    -0.249 OA
ATOM     12  H   UNL     1      -2.041  -3.960   4.878  1.00  0.00     0.165 HD
BRANCH  10  13
ATOM     13  N   UNL     1      -1.534  -1.246   3.299  1.00  0.00    -0.319 N 
BRANCH  13  14
ATOM     14  C   UNL     1      -0.625  -1.549   2.231  1.00  0.00     0.182 C 
BRANCH  14  15
ATOM     15  C   UNL     1      -0.634  -0.794   0.910  1.00  0.00     0.283 C 
BRANCH  15  16
ATOM     16  N   UNL     1       0.026   0.512   1.012  1.00  0.00    -0.336 N 
ATOM     17  C   UNL     1       0.587   0.885  -0.288  1.00  0.00     0.332 C 
ATOM     18  H   UNL     1       0.800   0.454   1.672  1.00  0.00     0.347 HD
BRANCH  16  19
ATOM     19  C   UNL     1      -0.888   1.518   1.549  1.00  0.00     0.263 CG0
ATOM     20  G   UNL     1      -1.288   1.270   3.012  1.00  0.00     0.000 G0
ENDBRANCH  16  19
ENDBRANCH  15  16
ENDBRANCH  14  15
ENDBRANCH  13  14
BRANCH  13  21
ATOM     21  C   UNL     1      -2.199   0.062   3.264  1.00  0.00     0.127 C 
BRANCH  21  22
ATOM     22  C   UNL     1      -1.288   1.270   3.012  1.00  0.00     0.083 CG0
ATOM     23  G   UNL     1      -0.888   1.518   1.549  1.00  0.00     0.000 G0
ENDBRANCH  21  22
ENDBRANCH  13  21
ENDBRANCH  10  13
ENDBRANCH   8   9
BRANCH   8  24
ATOM     24  C   UNL     1       0.985  -3.646   3.368  1.00  0.00     0.026 C 
BRANCH  24  25
ATOM     25  C   UNL     1       2.288  -4.399   3.174  1.00  0.00     0.002 C 
BRANCH  25  26
ATOM     26  C   UNL     1       2.208  -5.301   1.947  1.00  0.00     0.000 C 
BRANCH  26  27
ATOM     27  C   UNL     1       1.170  -6.414   2.028  1.00  0.00     0.001 C 
BRANCH  27  28
ATOM     28  C   UNL     1       0.594  -6.692   3.419  1.00  0.00     0.015 CG1
ATOM     29  G   UNL     1      -0.503  -5.727   3.927  1.00  0.00     0.000 G1
ENDBRANCH  27  28
ENDBRANCH  26  27
ENDBRANCH  25  26
ENDBRANCH  24  25
ENDBRANCH   8  24
ENDBRANCH   6   8
ENDBRANCH   3   6
ENDBRANCH   1   2
BRANCH   1  30
ATOM     30  C   UNL     1      -4.365  -6.682   5.241  1.00  0.00     0.021 C 
BRANCH  30  31
ATOM     31  C   UNL     1      -5.589  -7.021   4.380  1.00  0.00     0.002 C 
BRANCH  31  32
ATOM     32  C   UNL     1      -5.805  -8.516   4.123  1.00  0.00     0.002 C 
BRANCH  32  33
ATOM     33  C   UNL     1      -5.856  -9.383   5.381  1.00  0.00     0.021 C 
BRANCH  33  34
ATOM     34  C   UNL     1      -6.923  -8.967   6.383  1.00  0.00     0.116 C 
BRANCH  34  35
ATOM     35  N   UNL     1      -8.265  -9.115   5.844  1.00  0.00    -0.352 N 
ATOM     36  C   UNL     1      -9.337  -9.789   6.377  1.00  0.00     0.251 C 
ATOM     37  H   UNL     1      -8.427  -8.672   4.980  1.00  0.00     0.163 HD
ATOM     38  O   UNL     1     -10.341  -9.993   5.709  1.00  0.00    -0.269 OA
BRANCH  36  39
ATOM     39  C   UNL     1      -9.253 -10.286   7.766  1.00  0.00     0.039 A 
ATOM     40  C   UNL     1      -9.665 -11.591   8.046  1.00  0.00     0.014 A 
ATOM     41  C   UNL     1      -8.754  -9.467   8.782  1.00  0.00     0.014 A 
ATOM     42  C   UNL     1      -9.523 -12.093   9.340  1.00  0.00     0.010 A 
ATOM     43  C   UNL     1      -8.534  -9.997  10.047  1.00  0.00     0.010 A 
ATOM     44  C   UNL     1      -8.928 -11.310  10.343  1.00  0.00    -0.014 A 
BRANCH  44  45
ATOM     45  C   UNL     1      -8.727 -11.835  11.716  1.00  0.00     0.031 A 
ATOM     46  C   UNL     1      -9.433 -11.189  12.875  1.00  0.00     0.074 A 
ATOM     47  C   UNL     1      -7.865 -12.846  11.927  1.00  0.00     0.049 A 
ATOM     48  N   UNL     1      -9.344 -11.456  14.153  1.00  0.00    -0.248 NA
ATOM     49  C   UNL     1     -10.336 -10.072  12.556  1.00  0.00     0.031 C 
ATOM     50  C   UNL     1      -7.096 -13.535  10.890  1.00  0.00     0.029 A 
ATOM     51  N   UNL     1      -7.488 -13.469  13.090  1.00  0.00    -0.354 N 
ATOM     52  C   UNL     1     -10.166 -10.535  14.788  1.00  0.00     0.074 A 
ATOM     53  C   UNL     1     -10.690  -9.659  13.763  1.00  0.00     0.031 C 
ATOM     54  C   UNL     1      -6.369 -14.510  11.458  1.00  0.00     0.029 A 
ATOM     55  C   UNL     1      -6.585 -14.486  12.901  1.00  0.00     0.049 A 
ATOM     56  H   UNL     1      -7.832 -13.211  13.975  1.00  0.00     0.167 HD
ATOM     57  C   UNL     1     -10.480 -10.442  16.103  1.00  0.00     0.037 A 
ATOM     58  C   UNL     1      -5.999 -15.306  13.793  1.00  0.00     0.037 A 
ATOM     59  C   UNL     1      -9.961 -11.321  17.118  1.00  0.00     0.049 A 
ATOM     60  C   UNL     1      -6.324 -15.155  15.253  1.00  0.00     0.074 A 
ATOM     61  C   UNL     1     -10.250 -11.344  18.470  1.00  0.00     0.029 A 
ATOM     62  N   UNL     1      -9.034 -12.328  16.889  1.00  0.00    -0.354 N 
ATOM     63  N   UNL     1      -7.152 -14.322  15.836  1.00  0.00    -0.248 NA
ATOM     64  C   UNL     1      -5.631 -16.061  16.180  1.00  0.00     0.031 C 
ATOM     65  C   UNL     1      -9.454 -12.326  19.070  1.00  0.00     0.029 A 
ATOM     66  C   UNL     1      -8.716 -12.959  18.081  1.00  0.00     0.049 A 
ATOM     67  H   UNL     1      -8.658 -12.561  16.010  1.00  0.00     0.167 HD
ATOM     68  C   UNL     1      -7.110 -14.628  17.190  1.00  0.00     0.074 A 
ATOM     69  C   UNL     1      -6.177 -15.726  17.340  1.00  0.00     0.031 C 
ATOM     70  C   UNL     1      -7.789 -14.056  18.215  1.00  0.00     0.037 A 
BRANCH  57  71
ATOM     71  C   UNL     1     -11.418  -9.337  16.505  1.00  0.00     0.057 A 
ATOM     72  C   UNL     1     -12.760  -9.317  16.099  1.00  0.00     0.134 A 
ATOM     73  C   UNL     1     -10.970  -8.271  17.294  1.00  0.00     0.134 A 
ATOM     74  F   UNL     1     -13.254 -10.301  15.332  1.00  0.00    -0.206 F 
ATOM     75  C   UNL     1     -13.606  -8.253  16.419  1.00  0.00     0.040 A 
ATOM     76  C   UNL     1     -11.816  -7.219  17.651  1.00  0.00     0.040 A 
ATOM     77  F   UNL     1      -9.701  -8.228  17.728  1.00  0.00    -0.206 F 
ATOM     78  C   UNL     1     -13.134  -7.200  17.200  1.00  0.00     0.006 A 
ENDBRANCH  57  71
BRANCH  58  79
ATOM     79  C   UNL     1      -5.082 -16.375  13.324  1.00  0.00     0.057 A 
ATOM     80  C   UNL     1      -5.460 -17.721  13.393  1.00  0.00     0.134 A 
ATOM     81  C   UNL     1      -3.821 -16.086  12.790  1.00  0.00     0.134 A 
ATOM     82  F   UNL     1      -6.649 -18.061  13.911  1.00  0.00    -0.206 F 
ATOM     83  C   UNL     1      -4.614 -18.742  12.960  1.00  0.00     0.040 A 
ATOM     84  C   UNL     1      -2.974 -17.096  12.329  1.00  0.00     0.040 A 
ATOM     85  F   UNL     1      -3.402 -14.816  12.688  1.00  0.00    -0.206 F 
ATOM     86  C   UNL     1      -3.368 -18.429  12.419  1.00  0.00     0.006 A 
ENDBRANCH  58  79
BRANCH  70  87
ATOM     87  C   UNL     1      -7.585 -14.635  19.586  1.00  0.00     0.057 A 
ATOM     88  C   UNL     1      -6.389 -14.469  20.296  1.00  0.00     0.134 A 
ATOM     89  C   UNL     1      -8.621 -15.334  20.221  1.00  0.00     0.134 A 
ATOM     90  F   UNL     1      -5.353 -13.822  19.741  1.00  0.00    -0.206 F 
ATOM     91  C   UNL     1      -6.223 -14.997  21.578  1.00  0.00     0.040 A 
ATOM     92  C   UNL     1      -8.477 -15.839  21.514  1.00  0.00     0.040 A 
ATOM     93  F   UNL     1      -9.796 -15.523  19.602  1.00  0.00    -0.206 F 
ATOM     94  C   UNL     1      -7.272 -15.677  22.193  1.00  0.00     0.006 A 
ENDBRANCH  70  87
ENDBRANCH  44  45
ENDBRANCH  36  39
ENDBRANCH  34  35
ENDBRANCH  33  34
ENDBRANCH  32  33
ENDBRANCH  31  32
ENDBRANCH  30  31
ENDBRANCH   1  30
TORSDOF 15
