REMARK SMILES O=C(NCCCCCCNC(=O)c1ccc(CSc2ccc(Cl)cn2)nc1)c1ccc(-c2c3nc(c(-c4c(F)cccc4F)c4ccc([nH]4)c(-c4c(F)cccc4F)c4nc(c(-c5c(F)cccc5F)c5ccc2[nH]5)C=C4)C=C3)cc1
REMARK SMILES IDX 7 1 6 2 5 3 4 4 3 5 1 6 2 7 28 9 29 10 81 11 30 12 80 13
REMARK SMILES IDX 31 14 32 15 33 16 74 17 34 18 79 19 73 20 75 21 35 22 78 23
REMARK SMILES IDX 72 24 71 25 36 27 62 28 45 29 61 30 46 31 49 32 60 33 76 34
REMARK SMILES IDX 47 35 48 36 59 38 77 39 50 40 37 41 38 42 43 43 39 44 40 45
REMARK SMILES IDX 42 46 44 47 41 48 63 49 64 50 69 51 65 52 66 53 68 54 70 55
REMARK SMILES IDX 67 56 51 57 52 58 57 59 53 60 54 61 56 62 58 63 55 64 8 65
REMARK SMILES IDX 9 66 10 67 11 68 12 70 13 71 14 72 27 73 15 74 26 75 16 76
REMARK SMILES IDX 17 77 18 78 19 79 20 80 25 81 21 82 24 83 22 84 23 85
REMARK H PARENT 3 8 75 26 49 37 10 69
REMARK Flexibility Score: inf
ROOT
ATOM      1  C   UNL     1       4.644   2.522   3.568  1.00  0.00     0.002 C 
ENDROOT
BRANCH   1   2
ATOM      2  C   UNL     1       4.133   3.160   2.272  1.00  0.00     0.002 C 
BRANCH   2   3
ATOM      3  C   UNL     1       4.632   2.503   0.986  1.00  0.00     0.021 C 
BRANCH   3   4
ATOM      4  C   UNL     1       4.361   1.009   0.900  1.00  0.00     0.116 C 
BRANCH   4   5
ATOM      5  N   UNL     1       2.939   0.714   0.868  1.00  0.00    -0.352 N 
ATOM      6  O   UNL     1       1.008   0.007  -0.064  1.00  0.00    -0.269 OA
ATOM      7  C   UNL     1       2.235   0.006  -0.071  1.00  0.00     0.251 C 
ATOM      8  H   UNL     1       2.412   1.069   1.620  1.00  0.00     0.163 HD
BRANCH   7   9
ATOM      9  C   UNL     1       2.971  -0.755  -1.100  1.00  0.00     0.039 A 
ATOM     10  C   UNL     1       4.059  -1.556  -0.740  1.00  0.00     0.014 A 
ATOM     11  C   UNL     1       2.557  -0.680  -2.432  1.00  0.00     0.014 A 
ATOM     12  C   UNL     1       4.796  -2.203  -1.722  1.00  0.00     0.010 A 
ATOM     13  C   UNL     1       3.246  -1.403  -3.408  1.00  0.00     0.010 A 
ATOM     14  C   UNL     1       4.371  -2.167  -3.059  1.00  0.00    -0.014 A 
BRANCH  14  15
ATOM     15  C   UNL     1       5.024  -3.056  -4.049  1.00  0.00     0.031 A 
ATOM     16  C   UNL     1       5.780  -2.505  -5.220  1.00  0.00     0.074 A 
ATOM     17  C   UNL     1       4.894  -4.387  -3.880  1.00  0.00     0.049 A 
ATOM     18  N   UNL     1       6.360  -3.153  -6.198  1.00  0.00    -0.248 NA
ATOM     19  C   UNL     1       5.901  -1.042  -5.315  1.00  0.00     0.031 C 
ATOM     20  C   UNL     1       4.160  -5.028  -2.783  1.00  0.00     0.029 A 
ATOM     21  N   UNL     1       5.361  -5.440  -4.622  1.00  0.00    -0.354 N 
ATOM     22  C   UNL     1       6.892  -2.183  -7.037  1.00  0.00     0.074 A 
ATOM     23  C   UNL     1       6.561  -0.898  -6.458  1.00  0.00     0.031 C 
ATOM     24  C   UNL     1       4.241  -6.359  -2.915  1.00  0.00     0.029 A 
ATOM     25  C   UNL     1       4.964  -6.665  -4.141  1.00  0.00     0.049 A 
ATOM     26  H   UNL     1       5.925  -5.330  -5.421  1.00  0.00     0.167 HD
ATOM     27  C   UNL     1       7.590  -2.360  -8.183  1.00  0.00     0.037 A 
ATOM     28  C   UNL     1       5.122  -7.898  -4.654  1.00  0.00     0.037 A 
ATOM     29  C   UNL     1       7.925  -3.649  -8.736  1.00  0.00     0.049 A 
ATOM     30  C   UNL     1       5.862  -8.052  -5.950  1.00  0.00     0.074 A 
ATOM     31  C   UNL     1       8.699  -3.931  -9.848  1.00  0.00     0.029 A 
ATOM     32  N   UNL     1       7.490  -4.865  -8.232  1.00  0.00    -0.354 N 
ATOM     33  N   UNL     1       6.433  -7.130  -6.687  1.00  0.00    -0.248 NA
ATOM     34  C   UNL     1       5.973  -9.412  -6.492  1.00  0.00     0.031 C 
ATOM     35  C   UNL     1       8.675  -5.313 -10.058  1.00  0.00     0.029 A 
ATOM     36  C   UNL     1       7.936  -5.897  -9.042  1.00  0.00     0.049 A 
ATOM     37  H   UNL     1       6.946  -4.979  -7.420  1.00  0.00     0.167 HD
ATOM     38  C   UNL     1       6.979  -7.799  -7.773  1.00  0.00     0.074 A 
ATOM     39  C   UNL     1       6.698  -9.207  -7.582  1.00  0.00     0.031 C 
ATOM     40  C   UNL     1       7.645  -7.293  -8.838  1.00  0.00     0.037 A 
BRANCH  27  41
ATOM     41  C   UNL     1       8.028  -1.145  -8.947  1.00  0.00     0.057 A 
ATOM     42  C   UNL     1       9.078  -0.329  -8.511  1.00  0.00     0.134 A 
ATOM     43  C   UNL     1       7.456  -0.852 -10.194  1.00  0.00     0.134 A 
ATOM     44  F   UNL     1       9.665  -0.550  -7.325  1.00  0.00    -0.206 F 
ATOM     45  C   UNL     1       9.543   0.737  -9.286  1.00  0.00     0.040 A 
ATOM     46  C   UNL     1       7.926   0.197 -10.986  1.00  0.00     0.040 A 
ATOM     47  F   UNL     1       6.452  -1.599 -10.674  1.00  0.00    -0.206 F 
ATOM     48  C   UNL     1       8.974   0.995 -10.532  1.00  0.00     0.006 A 
ENDBRANCH  27  41
BRANCH  28  49
ATOM     49  C   UNL     1       4.521  -9.072  -3.972  1.00  0.00     0.057 A 
ATOM     50  C   UNL     1       5.316 -10.079  -3.416  1.00  0.00     0.134 A 
ATOM     51  C   UNL     1       3.130  -9.225  -3.881  1.00  0.00     0.134 A 
ATOM     52  F   UNL     1       6.653  -9.997  -3.484  1.00  0.00    -0.206 F 
ATOM     53  C   UNL     1       4.753 -11.209  -2.820  1.00  0.00     0.040 A 
ATOM     54  C   UNL     1       2.554 -10.332  -3.258  1.00  0.00     0.040 A 
ATOM     55  F   UNL     1       2.311  -8.291  -4.385  1.00  0.00    -0.206 F 
ATOM     56  C   UNL     1       3.368 -11.335  -2.737  1.00  0.00     0.006 A 
ENDBRANCH  28  49
BRANCH  40  57
ATOM     57  C   UNL     1       8.124  -8.268  -9.871  1.00  0.00     0.057 A 
ATOM     58  C   UNL     1       7.236  -8.907 -10.746  1.00  0.00     0.134 A 
ATOM     59  C   UNL     1       9.490  -8.538 -10.022  1.00  0.00     0.134 A 
ATOM     60  F   UNL     1       5.913  -8.704 -10.640  1.00  0.00    -0.206 F 
ATOM     61  C   UNL     1       7.688  -9.792 -11.724  1.00  0.00     0.040 A 
ATOM     62  C   UNL     1       9.957  -9.399 -11.016  1.00  0.00     0.040 A 
ATOM     63  F   UNL     1      10.393  -7.954  -9.220  1.00  0.00    -0.206 F 
ATOM     64  C   UNL     1       9.054 -10.032 -11.867  1.00  0.00     0.006 A 
ENDBRANCH  40  57
ENDBRANCH  14  15
ENDBRANCH   7   9
ENDBRANCH   4   5
ENDBRANCH   3   4
ENDBRANCH   2   3
ENDBRANCH   1   2
BRANCH   1  65
ATOM     65  C   UNL     1       6.163   2.370   3.661  1.00  0.00     0.021 C 
BRANCH  65  66
ATOM     66  C   UNL     1       6.940   3.661   3.443  1.00  0.00     0.116 C 
BRANCH  66  67
ATOM     67  N   UNL     1       6.653   4.647   4.471  1.00  0.00    -0.352 N 
ATOM     68  C   UNL     1       7.518   5.258   5.340  1.00  0.00     0.252 C 
ATOM     69  H   UNL     1       5.708   4.912   4.554  1.00  0.00     0.163 HD
ATOM     70  O   UNL     1       7.089   5.904   6.294  1.00  0.00    -0.269 OA
BRANCH  68  71
ATOM     71  C   UNL     1       8.967   5.143   5.127  1.00  0.00     0.058 A 
ATOM     72  C   UNL     1       9.535   5.301   3.865  1.00  0.00     0.017 A 
ATOM     73  C   UNL     1       9.803   4.891   6.200  1.00  0.00     0.125 A 
ATOM     74  C   UNL     1      10.903   5.125   3.713  1.00  0.00     0.025 A 
ATOM     75  N   UNL     1      11.149   4.768   6.082  1.00  0.00    -0.260 NA
ATOM     76  C   UNL     1      11.689   4.914   4.846  1.00  0.00     0.051 A 
BRANCH  76  77
ATOM     77  C   UNL     1      13.194   4.878   4.708  1.00  0.00     0.132 C 
BRANCH  77  78
ATOM     78  S   UNL     1      14.101   6.111   5.702  1.00  0.00    -0.100 SA
BRANCH  78  79
ATOM     79  C   UNL     1      13.579   7.710   5.120  1.00  0.00     0.096 A 
ATOM     80  C   UNL     1      12.732   7.959   4.046  1.00  0.00     0.037 A 
ATOM     81  N   UNL     1      14.109   8.735   5.831  1.00  0.00    -0.248 NA
ATOM     82  C   UNL     1      12.357   9.270   3.736  1.00  0.00     0.025 A 
ATOM     83  C   UNL     1      13.761  10.003   5.495  1.00  0.00     0.132 A 
ATOM     84  C   UNL     1      12.885  10.315   4.474  1.00  0.00     0.059 A 
ATOM     85  Cl  UNL     1      12.474  11.938   4.111  1.00  0.00    -0.083 Cl
ENDBRANCH  78  79
ENDBRANCH  77  78
ENDBRANCH  76  77
ENDBRANCH  68  71
ENDBRANCH  66  67
ENDBRANCH  65  66
ENDBRANCH   1  65
TORSDOF 16
