REMARK SMILES Cc1cc(C)n(C)c(=O)c1C(=O)N1CCC2(CC1)C[NH2+][C@@H](C(=O)NCCCCCCNC(=O)c1ccc(-c3c4nc(c(-c5c(F)cccc5F)c5ccc([nH]5)c(-c5c(F)cccc5F)c5nc(c(-c6c(F)cccc6F)c6ccc3[nH]6)C=C5)C=C4)cc1)C2
REMARK SMILES IDX 28 1 27 2 26 3 25 4 24 5 22 6 23 7 21 9 11 10 12 11 13 12
REMARK SMILES IDX 14 13 18 14 15 15 17 16 16 17 19 18 88 19 20 20 10 23 1 24
REMARK SMILES IDX 2 25 3 26 4 27 8 28 5 29 6 30 9 31 7 32 29 33 30 34 31 35
REMARK SMILES IDX 32 36 33 38 34 39 35 40 87 41 36 42 86 43 37 44 38 45 39 46
REMARK SMILES IDX 80 47 40 48 85 49 79 50 81 51 41 52 84 53 78 54 77 55 42 57
REMARK SMILES IDX 68 58 51 59 67 60 52 61 55 62 66 63 82 64 53 65 54 66 65 68
REMARK SMILES IDX 83 69 56 70 43 71 44 72 49 73 45 74 46 75 48 76 50 77 47 78
REMARK SMILES IDX 69 79 70 80 75 81 71 82 72 83 74 84 76 85 73 86 57 87 58 88
REMARK SMILES IDX 63 89 59 90 60 91 62 92 64 93 61 94
REMARK H PARENT 24 8 20 21 20 22 31 37 81 56 55 67
REMARK Flexibility Score: inf
ROOT
ATOM      1  C   UNL     1       5.878   6.652   2.072  1.00  0.00     0.002 C 
ENDROOT
BRANCH   1   2
ATOM      2  C   UNL     1       4.793   6.818   1.004  1.00  0.00     0.002 C 
BRANCH   2   3
ATOM      3  C   UNL     1       3.852   5.620   0.866  1.00  0.00     0.021 C 
BRANCH   3   4
ATOM      4  C   UNL     1       3.136   5.256   2.164  1.00  0.00     0.116 C 
BRANCH   4   5
ATOM      5  N   UNL     1       2.200   6.293   2.556  1.00  0.00    -0.351 N 
ATOM      6  C   UNL     1       0.844   6.235   2.692  1.00  0.00     0.278 C 
ATOM      7  O   UNL     1       0.250   7.264   3.028  1.00  0.00    -0.268 OA
ATOM      8  H   UNL     1       2.604   7.169   2.754  1.00  0.00     0.163 HD
BRANCH   6   9
ATOM      9  C   UNL     1       0.070   4.941   2.417  1.00  0.00     0.273 C 
ATOM     10  C   UNL     1      -0.633   0.327  -2.229  1.00  0.00     0.259 C 
ATOM     11  O   UNL     1      -1.651   0.401  -2.924  1.00  0.00    -0.269 OA
ATOM     12  N   UNL     1      -0.265   1.422  -1.460  1.00  0.00    -0.338 N 
ATOM     13  C   UNL     1      -1.320   2.334  -1.052  1.00  0.00     0.120 C 
ATOM     14  C   UNL     1       1.080   1.925  -1.230  1.00  0.00     0.120 C 
ATOM     15  C   UNL     1      -1.284   2.428   0.461  1.00  0.00     0.034 C 
ATOM     16  C   UNL     1       1.307   2.392   0.220  1.00  0.00     0.034 C 
ATOM     17  C   UNL     1       0.067   2.959   0.988  1.00  0.00     0.029 C 
ATOM     18  C   UNL     1       0.142   2.618   2.500  1.00  0.00     0.268 C 
ATOM     19  C   UNL     1       0.073   4.508   0.955  1.00  0.00     0.088 C 
ATOM     20  N   UNL     1       0.653   3.807   3.158  1.00  0.00    -0.336 N 
ATOM     21  H   UNL     1       1.671   3.834   3.108  1.00  0.00     0.346 HD
ATOM     22  H   UNL     1       0.405   3.831   4.147  1.00  0.00     0.346 HD
BRANCH  10  23
ATOM     23  C   UNL     1       0.063  -1.011  -2.100  1.00  0.00     0.108 A 
ATOM     24  C   UNL     1       0.779  -0.852   0.366  1.00  0.00     0.045 C 
ATOM     25  C   UNL     1       0.623  -1.506  -0.970  1.00  0.00    -0.031 A 
ATOM     26  C   UNL     1       1.053  -2.889  -0.897  1.00  0.00     0.026 A 
ATOM     27  C   UNL     1       0.714  -3.789  -1.826  1.00  0.00     0.018 A 
ATOM     28  C   UNL     1      -0.131  -1.991  -3.250  1.00  0.00     0.263 A 
ATOM     29  C   UNL     1       1.054  -5.234  -1.585  1.00  0.00     0.064 C 
ATOM     30  N   UNL     1       0.077  -3.357  -2.980  1.00  0.00    -0.315 N 
ATOM     31  O   UNL     1      -0.460  -1.596  -4.368  1.00  0.00    -0.268 OA
ATOM     32  C   UNL     1      -0.343  -4.316  -3.994  1.00  0.00     0.153 C 
ENDBRANCH  10  23
ENDBRANCH   6   9
ENDBRANCH   4   5
ENDBRANCH   3   4
ENDBRANCH   2   3
ENDBRANCH   1   2
BRANCH   1  33
ATOM     33  C   UNL     1       6.761   5.414   1.899  1.00  0.00     0.021 C 
BRANCH  33  34
ATOM     34  C   UNL     1       7.495   5.355   0.565  1.00  0.00     0.116 C 
BRANCH  34  35
ATOM     35  N   UNL     1       8.408   6.476   0.400  1.00  0.00    -0.352 N 
ATOM     36  C   UNL     1       9.757   6.465   0.146  1.00  0.00     0.251 C 
ATOM     37  H   UNL     1       8.000   7.368   0.481  1.00  0.00     0.163 HD
ATOM     38  O   UNL     1      10.419   7.489   0.249  1.00  0.00    -0.269 OA
BRANCH  36  39
ATOM     39  C   UNL     1      10.407   5.196  -0.235  1.00  0.00     0.039 A 
ATOM     40  C   UNL     1      11.602   4.834   0.389  1.00  0.00     0.014 A 
ATOM     41  C   UNL     1       9.828   4.364  -1.198  1.00  0.00     0.014 A 
ATOM     42  C   UNL     1      12.186   3.603   0.090  1.00  0.00     0.010 A 
ATOM     43  C   UNL     1      10.369   3.107  -1.438  1.00  0.00     0.010 A 
ATOM     44  C   UNL     1      11.555   2.716  -0.799  1.00  0.00    -0.014 A 
BRANCH  44  45
ATOM     45  C   UNL     1      12.121   1.374  -1.072  1.00  0.00     0.031 A 
ATOM     46  C   UNL     1      12.614   1.029  -2.447  1.00  0.00     0.074 A 
ATOM     47  C   UNL     1      12.144   0.451  -0.092  1.00  0.00     0.049 A 
ATOM     48  N   UNL     1      13.102  -0.102  -2.889  1.00  0.00    -0.248 NA
ATOM     49  C   UNL     1      12.528   2.087  -3.466  1.00  0.00     0.031 C 
ATOM     50  C   UNL     1      11.664   0.661   1.275  1.00  0.00     0.029 A 
ATOM     51  N   UNL     1      12.588  -0.846  -0.094  1.00  0.00    -0.354 N 
ATOM     52  C   UNL     1      13.383   0.110  -4.233  1.00  0.00     0.074 A 
ATOM     53  C   UNL     1      12.946   1.452  -4.551  1.00  0.00     0.031 C 
ATOM     54  C   UNL     1      11.876  -0.456   1.989  1.00  0.00     0.029 A 
ATOM     55  C   UNL     1      12.465  -1.472   1.122  1.00  0.00     0.049 A 
ATOM     56  H   UNL     1      12.960  -1.287  -0.892  1.00  0.00     0.167 HD
ATOM     57  C   UNL     1      13.979  -0.728  -5.113  1.00  0.00     0.037 A 
ATOM     58  C   UNL     1      12.791  -2.723   1.497  1.00  0.00     0.037 A 
ATOM     59  C   UNL     1      14.413  -2.061  -4.789  1.00  0.00     0.049 A 
ATOM     60  C   UNL     1      13.408  -3.654   0.491  1.00  0.00     0.074 A 
ATOM     61  C   UNL     1      15.051  -2.980  -5.603  1.00  0.00     0.029 A 
ATOM     62  N   UNL     1      14.249  -2.668  -3.552  1.00  0.00    -0.354 N 
ATOM     63  N   UNL     1      13.709  -3.428  -0.765  1.00  0.00    -0.248 NA
ATOM     64  C   UNL     1      13.733  -5.010   0.953  1.00  0.00     0.031 C 
ATOM     65  C   UNL     1      15.224  -4.161  -4.875  1.00  0.00     0.029 A 
ATOM     66  C   UNL     1      14.751  -3.958  -3.588  1.00  0.00     0.049 A 
ATOM     67  H   UNL     1      13.837  -2.243  -2.765  1.00  0.00     0.167 HD
ATOM     68  C   UNL     1      14.283  -4.601  -1.237  1.00  0.00     0.074 A 
ATOM     69  C   UNL     1      14.296  -5.534  -0.128  1.00  0.00     0.031 C 
ATOM     70  C   UNL     1      14.758  -4.878  -2.476  1.00  0.00     0.037 A 
BRANCH  57  71
ATOM     71  C   UNL     1      14.199  -0.220  -6.510  1.00  0.00     0.057 A 
ATOM     72  C   UNL     1      15.118   0.801  -6.787  1.00  0.00     0.134 A 
ATOM     73  C   UNL     1      13.511  -0.778  -7.595  1.00  0.00     0.134 A 
ATOM     74  F   UNL     1      15.801   1.389  -5.792  1.00  0.00    -0.206 F 
ATOM     75  C   UNL     1      15.325   1.268  -8.086  1.00  0.00     0.040 A 
ATOM     76  C   UNL     1      13.733  -0.342  -8.903  1.00  0.00     0.040 A 
ATOM     77  F   UNL     1      12.621  -1.764  -7.405  1.00  0.00    -0.206 F 
ATOM     78  C   UNL     1      14.636   0.690  -9.150  1.00  0.00     0.006 A 
ENDBRANCH  57  71
BRANCH  58  79
ATOM     79  C   UNL     1      12.584  -3.139   2.907  1.00  0.00     0.057 A 
ATOM     80  C   UNL     1      13.673  -3.321   3.767  1.00  0.00     0.134 A 
ATOM     81  C   UNL     1      11.302  -3.311   3.444  1.00  0.00     0.134 A 
ATOM     82  F   UNL     1      14.925  -3.186   3.308  1.00  0.00    -0.206 F 
ATOM     83  C   UNL     1      13.496  -3.658   5.110  1.00  0.00     0.040 A 
ATOM     84  C   UNL     1      11.110  -3.624   4.790  1.00  0.00     0.040 A 
ATOM     85  F   UNL     1      10.217  -3.142   2.674  1.00  0.00    -0.206 F 
ATOM     86  C   UNL     1      12.210  -3.800   5.627  1.00  0.00     0.006 A 
ENDBRANCH  58  79
BRANCH  70  87
ATOM     87  C   UNL     1      15.357  -6.236  -2.705  1.00  0.00     0.057 A 
ATOM     88  C   UNL     1      14.568  -7.390  -2.775  1.00  0.00     0.134 A 
ATOM     89  C   UNL     1      16.732  -6.378  -2.937  1.00  0.00     0.134 A 
ATOM     90  F   UNL     1      13.246  -7.325  -2.553  1.00  0.00    -0.206 F 
ATOM     91  C   UNL     1      15.126  -8.639  -3.055  1.00  0.00     0.040 A 
ATOM     92  C   UNL     1      17.297  -7.615  -3.247  1.00  0.00     0.040 A 
ATOM     93  F   UNL     1      17.544  -5.310  -2.896  1.00  0.00    -0.206 F 
ATOM     94  C   UNL     1      16.492  -8.752  -3.303  1.00  0.00     0.006 A 
ENDBRANCH  70  87
ENDBRANCH  44  45
ENDBRANCH  36  39
ENDBRANCH  34  35
ENDBRANCH  33  34
ENDBRANCH   1  33
TORSDOF 14
