REMARK SMILES CCc1cc(OC(F)(F)F)cc2c1O[C@@H](C(F)(F)F)C(C(=O)NCCCCCCNC(=O)c1ccc(-c3c4nc(c(-c5c(F)cccc5F)c5ccc([nH]5)c(-c5c(F)cccc5F)c5nc(c(-c6c(F)cccc6F)c6ccc3[nH]6)C=C5)C=C4)cc1)=C2
REMARK SMILES IDX 26 1 25 2 24 3 23 4 21 5 22 6 20 8 3 9 4 10 13 11 5 12 12 13
REMARK SMILES IDX 14 14 11 15 87 16 15 17 2 18 1 19 6 20 7 21 8 22 9 23 10 24
REMARK SMILES IDX 16 25 17 26 18 27 19 28 27 29 28 30 29 31 30 32 31 33 32 35
REMARK SMILES IDX 33 36 34 37 86 38 35 39 85 40 36 41 37 42 38 43 79 44 39 45
REMARK SMILES IDX 84 46 78 47 80 48 40 49 83 50 77 51 76 52 41 54 67 55 50 56
REMARK SMILES IDX 66 57 51 58 54 59 65 60 81 61 52 62 53 63 64 65 82 66 55 67
REMARK SMILES IDX 42 68 43 69 48 70 44 71 45 72 47 73 49 74 46 75 68 76 69 77
REMARK SMILES IDX 74 78 70 79 71 80 73 81 75 82 72 83 56 84 57 85 62 86 58 87
REMARK SMILES IDX 59 88 61 89 63 90 60 91
REMARK H PARENT 23 7 30 34 80 53 54 64
REMARK Flexibility Score: inf
ROOT
ATOM      1  C   UNL     1       2.704   4.919   8.339  1.00  0.00     0.002 C 
ENDROOT
BRANCH   1   2
ATOM      2  C   UNL     1       2.491   3.628   7.536  1.00  0.00     0.021 C 
BRANCH   2   3
ATOM      3  C   UNL     1       1.154   3.600   6.787  1.00  0.00     0.116 C 
BRANCH   3   4
ATOM      4  N   UNL     1       1.252   4.432   5.602  1.00  0.00    -0.352 N 
ATOM      5  C   UNL     1       1.581   4.155   4.315  1.00  0.00     0.251 C 
ATOM      6  O   UNL     1       1.832   5.095   3.566  1.00  0.00    -0.270 OA
ATOM      7  H   UNL     1       1.040   5.380   5.763  1.00  0.00     0.163 HD
BRANCH   5   8
ATOM      8  C   UNL     1       1.557   2.777   3.763  1.00  0.00     0.067 C 
ATOM      9  C   UNL     1       1.106  -1.014   2.002  1.00  0.00    -0.002 A 
ATOM     10  C   UNL     1       1.542  -2.149   2.713  1.00  0.00     0.054 A 
ATOM     11  C   UNL     1       1.248   0.249   2.597  1.00  0.00     0.131 A 
ATOM     12  C   UNL     1       2.126  -2.026   3.976  1.00  0.00     0.130 A 
ATOM     13  C   UNL     1       1.880   0.388   3.833  1.00  0.00     0.021 A 
ATOM     14  O   UNL     1       0.658   1.311   1.975  1.00  0.00    -0.475 OA
ATOM     15  C   UNL     1       2.313  -0.751   4.518  1.00  0.00     0.058 A 
ATOM     16  C   UNL     1       2.001   1.707   4.440  1.00  0.00     0.025 C 
ATOM     17  C   UNL     1       1.139   2.643   2.304  1.00  0.00     0.314 C 
BRANCH   9  18
ATOM     18  C   UNL     1       0.463  -1.198   0.642  1.00  0.00     0.036 C 
ATOM     19  C   UNL     1       1.080  -0.351  -0.466  1.00  0.00     0.009 C 
ENDBRANCH   9  18
BRANCH  12  20
ATOM     20  O   UNL     1       2.544  -3.045   4.783  1.00  0.00    -0.406 OA
BRANCH  20  21
ATOM     21  C   UNL     1       2.314  -4.375   4.348  1.00  0.00     0.573 C 
ATOM     22  F   UNL     1       1.001  -4.602   4.135  1.00  0.00    -0.132 F 
ATOM     23  F   UNL     1       3.009  -4.640   3.222  1.00  0.00    -0.132 F 
ATOM     24  F   UNL     1       2.735  -5.223   5.312  1.00  0.00    -0.132 F 
ENDBRANCH  20  21
ENDBRANCH  12  20
BRANCH  17  25
ATOM     25  C   UNL     1       0.077   3.639   1.780  1.00  0.00     0.429 C 
ATOM     26  F   UNL     1       0.610   4.818   1.391  1.00  0.00    -0.167 F 
ATOM     27  F   UNL     1      -0.544   3.143   0.675  1.00  0.00    -0.167 F 
ATOM     28  F   UNL     1      -0.892   3.888   2.691  1.00  0.00    -0.167 F 
ENDBRANCH  17  25
ENDBRANCH   5   8
ENDBRANCH   3   4
ENDBRANCH   2   3
ENDBRANCH   1   2
BRANCH   1  29
ATOM     29  C   UNL     1       1.722   5.117   9.500  1.00  0.00     0.002 C 
BRANCH  29  30
ATOM     30  C   UNL     1       1.685   3.970  10.515  1.00  0.00     0.021 C 
BRANCH  30  31
ATOM     31  C   UNL     1       3.014   3.705  11.215  1.00  0.00     0.116 C 
BRANCH  31  32
ATOM     32  N   UNL     1       3.421   4.830  12.039  1.00  0.00    -0.352 N 
ATOM     33  C   UNL     1       3.801   4.852  13.357  1.00  0.00     0.251 C 
ATOM     34  H   UNL     1       3.425   5.704  11.586  1.00  0.00     0.163 HD
ATOM     35  O   UNL     1       3.899   5.922  13.949  1.00  0.00    -0.269 OA
BRANCH  33  36
ATOM     36  C   UNL     1       4.083   3.588  14.070  1.00  0.00     0.039 A 
ATOM     37  C   UNL     1       3.616   3.439  15.378  1.00  0.00     0.014 A 
ATOM     38  C   UNL     1       4.835   2.571  13.472  1.00  0.00     0.014 A 
ATOM     39  C   UNL     1       3.869   2.255  16.072  1.00  0.00     0.010 A 
ATOM     40  C   UNL     1       5.029   1.365  14.141  1.00  0.00     0.010 A 
ATOM     41  C   UNL     1       4.559   1.200  15.451  1.00  0.00    -0.014 A 
BRANCH  41  42
ATOM     42  C   UNL     1       4.788  -0.076  16.173  1.00  0.00     0.031 A 
ATOM     43  C   UNL     1       6.180  -0.504  16.547  1.00  0.00     0.074 A 
ATOM     44  C   UNL     1       3.737  -0.866  16.465  1.00  0.00     0.049 A 
ATOM     45  N   UNL     1       6.568  -1.572  17.197  1.00  0.00    -0.248 NA
ATOM     46  C   UNL     1       7.282   0.368  16.114  1.00  0.00     0.031 C 
ATOM     47  C   UNL     1       2.346  -0.592  16.100  1.00  0.00     0.029 A 
ATOM     48  N   UNL     1       3.675  -2.059  17.139  1.00  0.00    -0.354 N 
ATOM     49  C   UNL     1       7.955  -1.504  17.244  1.00  0.00     0.074 A 
ATOM     50  C   UNL     1       8.344  -0.319  16.509  1.00  0.00     0.031 C 
ATOM     51  C   UNL     1       1.564  -1.569  16.584  1.00  0.00     0.029 A 
ATOM     52  C   UNL     1       2.398  -2.548  17.273  1.00  0.00     0.049 A 
ATOM     53  H   UNL     1       4.469  -2.520  17.494  1.00  0.00     0.167 HD
ATOM     54  C   UNL     1       8.824  -2.338  17.864  1.00  0.00     0.037 A 
ATOM     55  C   UNL     1       1.950  -3.655  17.894  1.00  0.00     0.037 A 
ATOM     56  C   UNL     1       8.433  -3.503  18.614  1.00  0.00     0.049 A 
ATOM     57  C   UNL     1       2.931  -4.546  18.603  1.00  0.00     0.074 A 
ATOM     58  C   UNL     1       9.232  -4.383  19.323  1.00  0.00     0.029 A 
ATOM     59  N   UNL     1       7.127  -3.949  18.752  1.00  0.00    -0.354 N 
ATOM     60  N   UNL     1       4.233  -4.428  18.702  1.00  0.00    -0.248 NA
ATOM     61  C   UNL     1       2.377  -5.714  19.301  1.00  0.00     0.031 C 
ATOM     62  C   UNL     1       8.413  -5.381  19.862  1.00  0.00     0.029 A 
ATOM     63  C   UNL     1       7.099  -5.098  19.526  1.00  0.00     0.049 A 
ATOM     64  H   UNL     1       6.336  -3.514  18.359  1.00  0.00     0.167 HD
ATOM     65  C   UNL     1       4.650  -5.488  19.497  1.00  0.00     0.074 A 
ATOM     66  C   UNL     1       3.460  -6.228  19.865  1.00  0.00     0.031 C 
ATOM     67  C   UNL     1       5.905  -5.818  19.888  1.00  0.00     0.037 A 
BRANCH  54  68
ATOM     68  C   UNL     1      10.286  -2.011  17.764  1.00  0.00     0.057 A 
ATOM     69  C   UNL     1      10.844  -0.913  18.433  1.00  0.00     0.134 A 
ATOM     70  C   UNL     1      11.152  -2.818  17.016  1.00  0.00     0.134 A 
ATOM     71  F   UNL     1      10.067  -0.092  19.156  1.00  0.00    -0.206 F 
ATOM     72  C   UNL     1      12.204  -0.615  18.341  1.00  0.00     0.040 A 
ATOM     73  C   UNL     1      12.520  -2.545  16.938  1.00  0.00     0.040 A 
ATOM     74  F   UNL     1      10.687  -3.888  16.354  1.00  0.00    -0.206 F 
ATOM     75  C   UNL     1      13.048  -1.437  17.597  1.00  0.00     0.006 A 
ENDBRANCH  54  68
BRANCH  55  76
ATOM     76  C   UNL     1       0.497  -3.954  17.917  1.00  0.00     0.057 A 
ATOM     77  C   UNL     1      -0.246  -3.824  19.096  1.00  0.00     0.134 A 
ATOM     78  C   UNL     1      -0.182  -4.374  16.768  1.00  0.00     0.134 A 
ATOM     79  F   UNL     1       0.354  -3.440  20.233  1.00  0.00    -0.206 F 
ATOM     80  C   UNL     1      -1.609  -4.121  19.138  1.00  0.00     0.040 A 
ATOM     81  C   UNL     1      -1.550  -4.651  16.790  1.00  0.00     0.040 A 
ATOM     82  F   UNL     1       0.472  -4.506  15.605  1.00  0.00    -0.206 F 
ATOM     83  C   UNL     1      -2.265  -4.532  17.980  1.00  0.00     0.006 A 
ENDBRANCH  55  76
BRANCH  67  84
ATOM     84  C   UNL     1       6.046  -7.010  20.788  1.00  0.00     0.057 A 
ATOM     85  C   UNL     1       5.862  -8.317  20.321  1.00  0.00     0.134 A 
ATOM     86  C   UNL     1       6.384  -6.845  22.138  1.00  0.00     0.134 A 
ATOM     87  F   UNL     1       5.524  -8.541  19.043  1.00  0.00    -0.206 F 
ATOM     88  C   UNL     1       5.979  -9.418  21.172  1.00  0.00     0.040 A 
ATOM     89  C   UNL     1       6.530  -7.939  22.991  1.00  0.00     0.040 A 
ATOM     90  F   UNL     1       6.583  -5.620  22.646  1.00  0.00    -0.206 F 
ATOM     91  C   UNL     1       6.318  -9.230  22.511  1.00  0.00     0.006 A 
ENDBRANCH  67  84
ENDBRANCH  41  42
ENDBRANCH  33  36
ENDBRANCH  31  32
ENDBRANCH  30  31
ENDBRANCH  29  30
ENDBRANCH   1  29
TORSDOF 17
