REMARK SMILES O=C(NCCCCCCNC(=O)c1cc(NC(=S)NC(=O)c2ccccc2Cl)c(Cl)cc1Cl)c1ccc(-c2c3nc(c(-c4c(F)cccc4F)c4ccc([nH]4)c(-c4c(F)cccc4F)c4nc(c(-c5c(F)cccc5F)c5ccc2[nH]5)C=C4)C=C3)cc1
REMARK SMILES IDX 7 1 6 2 5 3 4 4 3 5 1 6 2 7 34 9 35 10 87 11 36 12 86 13
REMARK SMILES IDX 37 14 38 15 39 16 80 17 40 18 85 19 79 20 81 21 41 22 84 23
REMARK SMILES IDX 78 24 77 25 42 27 68 28 51 29 67 30 52 31 55 32 66 33 82 34
REMARK SMILES IDX 53 35 54 36 65 38 83 39 56 40 43 41 44 42 49 43 45 44 46 45
REMARK SMILES IDX 48 46 50 47 47 48 69 49 70 50 75 51 71 52 72 53 74 54 76 55
REMARK SMILES IDX 73 56 57 57 58 58 63 59 59 60 60 61 62 62 64 63 61 64 8 65
REMARK SMILES IDX 9 66 10 67 11 68 12 70 13 71 14 72 32 73 15 74 31 75 33 76
REMARK SMILES IDX 29 77 30 78 16 79 17 81 18 82 19 83 20 84 21 86 22 87 23 88
REMARK SMILES IDX 27 89 24 90 26 91 28 92 25 93
REMARK H PARENT 3 8 81 26 55 37 10 69 16 80 19 85
REMARK Flexibility Score: inf
ROOT
ATOM      1  C   UNL     1       4.340  -0.404  -4.502  1.00  0.00     0.002 C 
ENDROOT
BRANCH   1   2
ATOM      2  C   UNL     1       3.628  -1.510  -3.713  1.00  0.00     0.002 C 
BRANCH   2   3
ATOM      3  C   UNL     1       4.159  -1.800  -2.305  1.00  0.00     0.021 C 
BRANCH   3   4
ATOM      4  C   UNL     1       4.178  -0.613  -1.343  1.00  0.00     0.116 C 
BRANCH   4   5
ATOM      5  N   UNL     1       2.849  -0.118  -1.041  1.00  0.00    -0.352 N 
ATOM      6  O   UNL     1       1.099   0.516   0.218  1.00  0.00    -0.269 OA
ATOM      7  C   UNL     1       2.296   0.243   0.162  1.00  0.00     0.251 C 
ATOM      8  H   UNL     1       2.251  -0.028  -1.818  1.00  0.00     0.163 HD
BRANCH   7   9
ATOM      9  C   UNL     1       3.111   0.298   1.400  1.00  0.00     0.039 A 
ATOM     10  C   UNL     1       4.379   0.886   1.427  1.00  0.00     0.014 A 
ATOM     11  C   UNL     1       2.542  -0.179   2.587  1.00  0.00     0.014 A 
ATOM     12  C   UNL     1       5.099   0.938   2.623  1.00  0.00     0.010 A 
ATOM     13  C   UNL     1       3.248  -0.096   3.791  1.00  0.00     0.010 A 
ATOM     14  C   UNL     1       4.537   0.453   3.815  1.00  0.00    -0.014 A 
BRANCH  14  15
ATOM     15  C   UNL     1       5.278   0.589   5.092  1.00  0.00     0.031 A 
ATOM     16  C   UNL     1       5.923  -0.598   5.745  1.00  0.00     0.074 A 
ATOM     17  C   UNL     1       5.368   1.802   5.670  1.00  0.00     0.049 A 
ATOM     18  N   UNL     1       6.637  -0.646   6.841  1.00  0.00    -0.248 NA
ATOM     19  C   UNL     1       5.740  -1.899   5.085  1.00  0.00     0.031 C 
ATOM     20  C   UNL     1       4.759   3.029   5.155  1.00  0.00     0.029 A 
ATOM     21  N   UNL     1       6.014   2.201   6.812  1.00  0.00    -0.354 N 
ATOM     22  C   UNL     1       6.978  -1.980   7.013  1.00  0.00     0.074 A 
ATOM     23  C   UNL     1       6.386  -2.712   5.912  1.00  0.00     0.031 C 
ATOM     24  C   UNL     1       5.085   4.051   5.964  1.00  0.00     0.029 A 
ATOM     25  C   UNL     1       5.909   3.546   7.058  1.00  0.00     0.049 A 
ATOM     26  H   UNL     1       6.506   1.581   7.398  1.00  0.00     0.167 HD
ATOM     27  C   UNL     1       7.719  -2.544   7.997  1.00  0.00     0.037 A 
ATOM     28  C   UNL     1       6.423   4.293   8.052  1.00  0.00     0.037 A 
ATOM     29  C   UNL     1       8.326  -1.826   9.085  1.00  0.00     0.049 A 
ATOM     30  C   UNL     1       7.261   3.650   9.114  1.00  0.00     0.074 A 
ATOM     31  C   UNL     1       9.130  -2.315  10.101  1.00  0.00     0.029 A 
ATOM     32  N   UNL     1       8.194  -0.464   9.301  1.00  0.00    -0.354 N 
ATOM     33  N   UNL     1       7.607   2.393   9.239  1.00  0.00    -0.248 NA
ATOM     34  C   UNL     1       7.778   4.528  10.173  1.00  0.00     0.031 C 
ATOM     35  C   UNL     1       9.474  -1.248  10.941  1.00  0.00     0.029 A 
ATOM     36  C   UNL     1       8.892  -0.096  10.439  1.00  0.00     0.049 A 
ATOM     37  H   UNL     1       7.679   0.151   8.730  1.00  0.00     0.167 HD
ATOM     38  C   UNL     1       8.379   2.327  10.389  1.00  0.00     0.074 A 
ATOM     39  C   UNL     1       8.465   3.673  10.919  1.00  0.00     0.031 C 
ATOM     40  C   UNL     1       8.961   1.244  10.957  1.00  0.00     0.037 A 
BRANCH  27  41
ATOM     41  C   UNL     1       7.913  -4.026   7.940  1.00  0.00     0.057 A 
ATOM     42  C   UNL     1       8.900  -4.601   7.131  1.00  0.00     0.134 A 
ATOM     43  C   UNL     1       7.133  -4.880   8.727  1.00  0.00     0.134 A 
ATOM     44  F   UNL     1       9.670  -3.831   6.347  1.00  0.00    -0.206 F 
ATOM     45  C   UNL     1       9.101  -5.981   7.103  1.00  0.00     0.040 A 
ATOM     46  C   UNL     1       7.330  -6.262   8.713  1.00  0.00     0.040 A 
ATOM     47  F   UNL     1       6.171  -4.386   9.520  1.00  0.00    -0.206 F 
ATOM     48  C   UNL     1       8.317  -6.816   7.898  1.00  0.00     0.006 A 
ENDBRANCH  27  41
BRANCH  28  49
ATOM     49  C   UNL     1       6.172   5.751   8.069  1.00  0.00     0.057 A 
ATOM     50  C   UNL     1       7.133   6.647   7.592  1.00  0.00     0.134 A 
ATOM     51  C   UNL     1       4.963   6.274   8.536  1.00  0.00     0.134 A 
ATOM     52  F   UNL     1       8.314   6.197   7.145  1.00  0.00    -0.206 F 
ATOM     53  C   UNL     1       6.899   8.022   7.579  1.00  0.00     0.040 A 
ATOM     54  C   UNL     1       4.712   7.645   8.520  1.00  0.00     0.040 A 
ATOM     55  F   UNL     1       4.008   5.456   9.003  1.00  0.00    -0.206 F 
ATOM     56  C   UNL     1       5.683   8.524   8.040  1.00  0.00     0.006 A 
ENDBRANCH  28  49
BRANCH  40  57
ATOM     57  C   UNL     1       9.733   1.475  12.216  1.00  0.00     0.057 A 
ATOM     58  C   UNL     1       9.090   1.543  13.457  1.00  0.00     0.134 A 
ATOM     59  C   UNL     1      11.126   1.609  12.193  1.00  0.00     0.134 A 
ATOM     60  F   UNL     1       7.755   1.434  13.538  1.00  0.00    -0.206 F 
ATOM     61  C   UNL     1       9.808   1.746  14.636  1.00  0.00     0.040 A 
ATOM     62  C   UNL     1      11.855   1.805  13.366  1.00  0.00     0.040 A 
ATOM     63  F   UNL     1      11.795   1.556  11.032  1.00  0.00    -0.206 F 
ATOM     64  C   UNL     1      11.195   1.875  14.592  1.00  0.00     0.006 A 
ENDBRANCH  40  57
ENDBRANCH  14  15
ENDBRANCH   7   9
ENDBRANCH   4   5
ENDBRANCH   3   4
ENDBRANCH   2   3
ENDBRANCH   1   2
BRANCH   1  65
ATOM     65  C   UNL     1       5.868  -0.461  -4.501  1.00  0.00     0.021 C 
BRANCH  65  66
ATOM     66  C   UNL     1       6.444  -1.730  -5.122  1.00  0.00     0.116 C 
BRANCH  66  67
ATOM     67  N   UNL     1       6.891  -1.499  -6.496  1.00  0.00    -0.352 N 
ATOM     68  C   UNL     1       7.832  -2.256  -7.176  1.00  0.00     0.252 C 
ATOM     69  H   UNL     1       6.489  -0.741  -6.979  1.00  0.00     0.163 HD
ATOM     70  O   UNL     1       7.396  -3.082  -7.985  1.00  0.00    -0.269 OA
BRANCH  68  71
ATOM     71  C   UNL     1       9.595  -1.927  -7.138  1.00  0.00     0.060 A 
ATOM     72  C   UNL     1      10.903  -2.249  -5.579  1.00  0.00     0.043 A 
ATOM     73  C   UNL     1       9.522  -1.696  -8.391  1.00  0.00     0.055 A 
ATOM     74  C   UNL     1      11.979  -2.399  -4.873  1.00  0.00     0.060 A 
ATOM     75  C   UNL     1      10.633  -1.853  -7.755  1.00  0.00     0.044 A 
ATOM     76  Cl  UNL     1       9.087  -0.287  -9.246  1.00  0.00    -0.083 Cl
ATOM     77  C   UNL     1      11.852  -2.224  -6.143  1.00  0.00     0.066 A 
ATOM     78  Cl  UNL     1      14.003  -2.294  -6.241  1.00  0.00    -0.082 Cl
BRANCH  74  79
ATOM     79  N   UNL     1      12.112  -3.549  -4.059  1.00  0.00    -0.331 N 
ATOM     80  H   UNL     1      12.997  -3.590  -3.630  1.00  0.00     0.169 HD
BRANCH  79  81
ATOM     81  C   UNL     1      11.338  -4.611  -3.714  1.00  0.00     0.177 C 
ATOM     82  S   UNL     1      12.040  -5.762  -2.716  1.00  0.00    -0.040 S 
BRANCH  81  83
ATOM     83  N   UNL     1      10.005  -4.791  -4.012  1.00  0.00    -0.299 N 
ATOM     84  C   UNL     1       8.963  -4.193  -4.731  1.00  0.00     0.258 C 
ATOM     85  H   UNL     1       9.678  -5.611  -3.576  1.00  0.00     0.172 HD
ATOM     86  O   UNL     1       7.786  -4.425  -4.495  1.00  0.00    -0.269 OA
BRANCH  84  87
ATOM     87  C   UNL     1       9.354  -3.221  -5.758  1.00  0.00     0.058 A 
ATOM     88  C   UNL     1       9.366  -1.234  -5.410  1.00  0.00     0.015 A 
ATOM     89  C   UNL     1      10.734  -3.884  -6.990  1.00  0.00     0.053 A 
ATOM     90  C   UNL     1      10.817  -0.245  -6.297  1.00  0.00     0.001 A 
ATOM     91  C   UNL     1      12.174  -2.892  -7.879  1.00  0.00     0.021 A 
ATOM     92  Cl  UNL     1      10.799  -5.610  -7.232  1.00  0.00    -0.083 Cl
ATOM     93  C   UNL     1      12.227  -0.926  -7.481  1.00  0.00     0.002 A 
ENDBRANCH  84  87
ENDBRANCH  81  83
ENDBRANCH  79  81
ENDBRANCH  74  79
ENDBRANCH  68  71
ENDBRANCH  66  67
ENDBRANCH  65  66
ENDBRANCH   1  65
TORSDOF 17
