REMARK SMILES CC(=O)n1cc2c3c(cccc31)C(=O)C[C@@H]2C(=O)NCCCCCCNC(=O)c1ccc(-c2c3nc(c(-c4c(F)cccc4F)c4ccc([nH]4)c(-c4c(F)cccc4F)c4nc(c(-c5c(F)cccc5F)c5ccc2[nH]5)C=C4)C=C3)cc1
REMARK SMILES IDX 23 1 22 2 21 3 20 4 19 5 17 6 18 7 16 9 4 10 5 11 12 12 6 13
REMARK SMILES IDX 7 14 11 15 8 16 10 17 15 18 9 19 13 20 14 21 2 22 1 23 3 24
REMARK SMILES IDX 24 25 25 26 26 27 27 28 28 30 29 31 30 32 82 33 31 34 81 35
REMARK SMILES IDX 32 36 33 37 34 38 75 39 35 40 80 41 74 42 76 43 36 44 79 45
REMARK SMILES IDX 73 46 72 47 37 49 63 50 46 51 62 52 47 53 50 54 61 55 77 56
REMARK SMILES IDX 48 57 49 58 60 60 78 61 51 62 38 63 39 64 44 65 40 66 41 67
REMARK SMILES IDX 43 68 45 69 42 70 64 71 65 72 70 73 66 74 67 75 69 76 71 77
REMARK SMILES IDX 68 78 52 79 53 80 58 81 54 82 55 83 57 84 59 85 56 86
REMARK H PARENT 19 8 26 29 76 48 50 59
REMARK Flexibility Score: inf
ROOT
ATOM      1  C   UNL     1       4.959   2.099  -6.417  1.00  0.00     0.002 C 
ENDROOT
BRANCH   1   2
ATOM      2  C   UNL     1       5.195   3.600  -6.188  1.00  0.00     0.002 C 
BRANCH   2   3
ATOM      3  C   UNL     1       4.036   4.353  -5.530  1.00  0.00     0.021 C 
BRANCH   3   4
ATOM      4  C   UNL     1       3.568   3.747  -4.210  1.00  0.00     0.116 C 
BRANCH   4   5
ATOM      5  N   UNL     1       4.585   3.877  -3.181  1.00  0.00    -0.356 N 
ATOM      6  C   UNL     1       4.518   4.429  -1.935  1.00  0.00     0.228 C 
ATOM      7  O   UNL     1       5.545   4.424  -1.252  1.00  0.00    -0.274 OA
ATOM      8  H   UNL     1       5.465   3.506  -3.421  1.00  0.00     0.163 HD
BRANCH   6   9
ATOM      9  C   UNL     1       3.223   5.033  -1.393  1.00  0.00     0.118 C 
ATOM     10  N   UNL     1       0.787   2.191  -1.258  1.00  0.00    -0.287 N 
ATOM     11  C   UNL     1       2.063   2.694  -0.992  1.00  0.00     0.100 A 
ATOM     12  C   UNL     1       0.017   3.245  -1.762  1.00  0.00     0.057 A 
ATOM     13  C   UNL     1       2.119   4.017  -1.369  1.00  0.00    -0.008 A 
ATOM     14  C   UNL     1       0.832   4.366  -1.793  1.00  0.00     0.015 A 
ATOM     15  C   UNL     1      -1.327   3.347  -2.164  1.00  0.00     0.027 A 
ATOM     16  C   UNL     1       0.360   5.604  -2.223  1.00  0.00     0.027 A 
ATOM     17  C   UNL     1      -1.805   4.607  -2.568  1.00  0.00     0.003 A 
ATOM     18  C   UNL     1       2.847   6.326  -2.165  1.00  0.00     0.099 C 
ATOM     19  C   UNL     1      -0.976   5.732  -2.595  1.00  0.00     0.012 A 
ATOM     20  C   UNL     1       1.359   6.696  -2.253  1.00  0.00     0.164 C 
ATOM     21  O   UNL     1       0.989   7.852  -2.442  1.00  0.00    -0.294 OA
BRANCH  10  22
ATOM     22  C   UNL     1       0.343   0.870  -1.054  1.00  0.00     0.227 C 
ATOM     23  C   UNL     1       1.148   0.060  -0.087  1.00  0.00     0.115 C 
ATOM     24  O   UNL     1      -0.679   0.470  -1.610  1.00  0.00    -0.274 OA
ENDBRANCH  10  22
ENDBRANCH   6   9
ENDBRANCH   4   5
ENDBRANCH   3   4
ENDBRANCH   2   3
ENDBRANCH   1   2
BRANCH   1  25
ATOM     25  C   UNL     1       3.684   1.728  -7.188  1.00  0.00     0.021 C 
BRANCH  25  26
ATOM     26  C   UNL     1       3.670   2.256  -8.612  1.00  0.00     0.116 C 
BRANCH  26  27
ATOM     27  N   UNL     1       4.715   1.645  -9.428  1.00  0.00    -0.352 N 
ATOM     28  C   UNL     1       4.968   1.820 -10.770  1.00  0.00     0.251 C 
ATOM     29  H   UNL     1       5.318   1.027  -8.957  1.00  0.00     0.163 HD
ATOM     30  O   UNL     1       5.622   0.996 -11.396  1.00  0.00    -0.269 OA
BRANCH  28  31
ATOM     31  C   UNL     1       4.466   3.030 -11.441  1.00  0.00     0.039 A 
ATOM     32  C   UNL     1       4.048   2.991 -12.774  1.00  0.00     0.014 A 
ATOM     33  C   UNL     1       4.474   4.231 -10.730  1.00  0.00     0.014 A 
ATOM     34  C   UNL     1       3.618   4.169 -13.374  1.00  0.00     0.010 A 
ATOM     35  C   UNL     1       3.911   5.356 -11.267  1.00  0.00     0.010 A 
ATOM     36  C   UNL     1       3.563   5.343 -12.609  1.00  0.00    -0.014 A 
BRANCH  36  37
ATOM     37  C   UNL     1       3.065   6.584 -13.170  1.00  0.00     0.031 A 
ATOM     38  C   UNL     1       1.631   6.525 -13.534  1.00  0.00     0.074 A 
ATOM     39  C   UNL     1       3.784   7.725 -13.147  1.00  0.00     0.049 A 
ATOM     40  N   UNL     1       1.130   6.418 -14.718  1.00  0.00    -0.248 NA
ATOM     41  C   UNL     1       0.644   6.368 -12.453  1.00  0.00     0.031 C 
ATOM     42  C   UNL     1       5.083   7.969 -12.505  1.00  0.00     0.029 A 
ATOM     43  N   UNL     1       3.460   8.949 -13.643  1.00  0.00    -0.354 N 
ATOM     44  C   UNL     1      -0.250   6.438 -14.543  1.00  0.00     0.074 A 
ATOM     45  C   UNL     1      -0.477   6.169 -13.149  1.00  0.00     0.031 C 
ATOM     46  C   UNL     1       5.337   9.297 -12.479  1.00  0.00     0.029 A 
ATOM     47  C   UNL     1       4.311   9.977 -13.246  1.00  0.00     0.049 A 
ATOM     48  H   UNL     1       2.687   9.097 -14.235  1.00  0.00     0.167 HD
ATOM     49  C   UNL     1      -1.053   6.989 -15.495  1.00  0.00     0.037 A 
ATOM     50  C   UNL     1       4.173  11.294 -13.536  1.00  0.00     0.037 A 
ATOM     51  C   UNL     1      -0.308   7.197 -16.716  1.00  0.00     0.049 A 
ATOM     52  C   UNL     1       3.276  11.389 -14.709  1.00  0.00     0.074 A 
ATOM     53  C   UNL     1       0.291   6.401 -17.668  1.00  0.00     0.029 A 
ATOM     54  N   UNL     1       0.239   8.448 -16.843  1.00  0.00    -0.354 N 
ATOM     55  N   UNL     1       3.602  10.971 -15.899  1.00  0.00    -0.248 NA
ATOM     56  C   UNL     1       1.849  11.561 -14.480  1.00  0.00     0.031 C 
ATOM     57  C   UNL     1       1.433   7.134 -18.115  1.00  0.00     0.029 A 
ATOM     58  C   UNL     1       1.454   8.370 -17.466  1.00  0.00     0.049 A 
ATOM     59  H   UNL     1      -0.181   9.282 -16.531  1.00  0.00     0.167 HD
ATOM     60  C   UNL     1       2.439  10.412 -16.407  1.00  0.00     0.074 A 
ATOM     61  C   UNL     1       1.371  10.942 -15.563  1.00  0.00     0.031 C 
ATOM     62  C   UNL     1       2.502   9.349 -17.263  1.00  0.00     0.037 A 
BRANCH  49  63
ATOM     63  C   UNL     1      -2.305   7.800 -15.207  1.00  0.00     0.057 A 
ATOM     64  C   UNL     1      -2.633   8.375 -13.962  1.00  0.00     0.134 A 
ATOM     65  C   UNL     1      -3.039   8.304 -16.300  1.00  0.00     0.134 A 
ATOM     66  F   UNL     1      -2.012   8.050 -12.824  1.00  0.00    -0.206 F 
ATOM     67  C   UNL     1      -3.565   9.408 -13.823  1.00  0.00     0.040 A 
ATOM     68  C   UNL     1      -3.939   9.370 -16.178  1.00  0.00     0.040 A 
ATOM     69  F   UNL     1      -2.834   7.837 -17.541  1.00  0.00    -0.206 F 
ATOM     70  C   UNL     1      -4.193   9.938 -14.937  1.00  0.00     0.006 A 
ENDBRANCH  49  63
BRANCH  50  71
ATOM     71  C   UNL     1       4.558  12.476 -12.739  1.00  0.00     0.057 A 
ATOM     72  C   UNL     1       4.461  12.455 -11.337  1.00  0.00     0.134 A 
ATOM     73  C   UNL     1       4.753  13.734 -13.326  1.00  0.00     0.134 A 
ATOM     74  F   UNL     1       4.197  11.312 -10.685  1.00  0.00    -0.206 F 
ATOM     75  C   UNL     1       4.535  13.618 -10.563  1.00  0.00     0.040 A 
ATOM     76  C   UNL     1       4.831  14.908 -12.563  1.00  0.00     0.040 A 
ATOM     77  F   UNL     1       4.811  13.860 -14.659  1.00  0.00    -0.206 F 
ATOM     78  C   UNL     1       4.710  14.853 -11.177  1.00  0.00     0.006 A 
ENDBRANCH  50  71
BRANCH  62  79
ATOM     79  C   UNL     1       3.833   9.077 -17.910  1.00  0.00     0.057 A 
ATOM     80  C   UNL     1       3.927   9.172 -19.302  1.00  0.00     0.134 A 
ATOM     81  C   UNL     1       4.981   8.650 -17.226  1.00  0.00     0.134 A 
ATOM     82  F   UNL     1       2.855   9.524 -20.028  1.00  0.00    -0.206 F 
ATOM     83  C   UNL     1       5.108   8.873 -19.984  1.00  0.00     0.040 A 
ATOM     84  C   UNL     1       6.181   8.381 -17.893  1.00  0.00     0.040 A 
ATOM     85  F   UNL     1       4.965   8.444 -15.904  1.00  0.00    -0.206 F 
ATOM     86  C   UNL     1       6.245   8.490 -19.278  1.00  0.00     0.006 A 
ENDBRANCH  62  79
ENDBRANCH  36  37
ENDBRANCH  28  31
ENDBRANCH  26  27
ENDBRANCH  25  26
ENDBRANCH   1  25
TORSDOF 14
