REMARK SMILES CC1(C)S[C@H](c2ccc(-c3ccccc3)o2)[NH2+][C@H]1C(=O)NCCCCCCNC(=O)c1ccc(-c2c3nc(c(-c4c(F)cccc4F)c4ccc([nH]4)c(-c4c(F)cccc4F)c4nc(c(-c5c(F)cccc5F)c5ccc2[nH]5)C=C4)C=C3)cc1
REMARK SMILES IDX 24 1 23 2 22 3 21 4 19 5 20 6 18 8 1 9 2 10 3 11 4 12 5 13
REMARK SMILES IDX 17 14 6 17 7 18 16 19 8 20 9 21 10 22 11 23 15 24 12 25
REMARK SMILES IDX 14 26 13 27 25 28 26 29 27 30 28 31 29 32 30 34 31 35 32 36
REMARK SMILES IDX 84 37 33 38 83 39 34 40 35 41 36 42 77 43 37 44 82 45 76 46
REMARK SMILES IDX 78 47 38 48 81 49 75 50 74 51 39 53 65 54 48 55 64 56 49 57
REMARK SMILES IDX 52 58 63 59 79 60 50 61 51 62 62 64 80 65 53 66 40 67 41 68
REMARK SMILES IDX 46 69 42 70 43 71 45 72 47 73 44 74 66 75 67 76 72 77 68 78
REMARK SMILES IDX 69 79 71 80 73 81 70 82 54 83 55 84 60 85 56 86 57 87 59 88
REMARK SMILES IDX 61 89 58 90
REMARK H PARENT 21 7 17 15 17 16 28 33 78 52 52 63
REMARK Flexibility Score: inf
ROOT
ATOM      1  C   UNL     1       1.885   3.757   3.804  1.00  0.00     0.002 C 
ENDROOT
BRANCH   1   2
ATOM      2  C   UNL     1       1.494   2.421   3.170  1.00  0.00     0.021 C 
BRANCH   2   3
ATOM      3  C   UNL     1       0.260   2.474   2.267  1.00  0.00     0.116 C 
BRANCH   3   4
ATOM      4  N   UNL     1       0.587   3.002   0.955  1.00  0.00    -0.351 N 
ATOM      5  C   UNL     1       0.549   2.489  -0.306  1.00  0.00     0.279 C 
ATOM      6  O   UNL     1       1.061   3.196  -1.185  1.00  0.00    -0.268 OA
ATOM      7  H   UNL     1       0.905   3.933   0.983  1.00  0.00     0.163 HD
BRANCH   5   8
ATOM      8  C   UNL     1      -0.025   1.103  -0.680  1.00  0.00     0.289 C 
ATOM      9  C   UNL     1       1.737  -0.129   0.844  1.00  0.00     0.030 C 
ATOM     10  C   UNL     1       0.939  -0.083  -0.457  1.00  0.00     0.078 C 
ATOM     11  C   UNL     1       1.907  -0.232  -1.636  1.00  0.00     0.030 C 
ATOM     12  S   UNL     1      -0.177  -1.525  -0.415  1.00  0.00    -0.078 SA
ATOM     13  C   UNL     1      -1.699  -0.547  -0.285  1.00  0.00     0.311 C 
ATOM     14  N   UNL     1      -1.369   0.867  -0.103  1.00  0.00    -0.317 N 
ATOM     15  H   UNL     1      -1.364   1.096   0.891  1.00  0.00     0.348 HD
ATOM     16  H   UNL     1      -2.062   1.454  -0.568  1.00  0.00     0.348 HD
BRANCH  13  17
ATOM     17  C   UNL     1      -2.606  -0.868  -1.430  1.00  0.00     0.172 A 
ATOM     18  C   UNL     1      -3.367  -1.996  -1.677  1.00  0.00     0.054 A 
ATOM     19  O   UNL     1      -2.760   0.026  -2.458  1.00  0.00    -0.454 OA
ATOM     20  C   UNL     1      -4.035  -1.777  -2.898  1.00  0.00     0.051 A 
ATOM     21  C   UNL     1      -3.648  -0.529  -3.339  1.00  0.00     0.134 A 
BRANCH  21  22
ATOM     22  C   UNL     1      -4.015   0.254  -4.509  1.00  0.00     0.017 A 
ATOM     23  C   UNL     1      -3.054   0.938  -5.261  1.00  0.00     0.012 A 
ATOM     24  C   UNL     1      -5.352   0.278  -4.938  1.00  0.00     0.012 A 
ATOM     25  C   UNL     1      -3.419   1.613  -6.430  1.00  0.00     0.001 A 
ATOM     26  C   UNL     1      -5.719   0.962  -6.098  1.00  0.00     0.001 A 
ATOM     27  C   UNL     1      -4.750   1.623  -6.848  1.00  0.00     0.000 A 
ENDBRANCH  21  22
ENDBRANCH  13  17
ENDBRANCH   5   8
ENDBRANCH   3   4
ENDBRANCH   2   3
ENDBRANCH   1   2
BRANCH   1  28
ATOM     28  C   UNL     1       0.867   4.334   4.792  1.00  0.00     0.002 C 
BRANCH  28  29
ATOM     29  C   UNL     1       0.402   3.381   5.896  1.00  0.00     0.021 C 
BRANCH  29  30
ATOM     30  C   UNL     1       1.515   2.722   6.707  1.00  0.00     0.116 C 
BRANCH  30  31
ATOM     31  N   UNL     1       2.355   3.691   7.384  1.00  0.00    -0.352 N 
ATOM     32  C   UNL     1       2.728   3.759   8.701  1.00  0.00     0.251 C 
ATOM     33  H   UNL     1       2.712   4.408   6.811  1.00  0.00     0.163 HD
ATOM     34  O   UNL     1       3.310   4.753   9.121  1.00  0.00    -0.269 OA
BRANCH  32  35
ATOM     35  C   UNL     1       2.422   2.645   9.626  1.00  0.00     0.039 A 
ATOM     36  C   UNL     1       1.968   2.954  10.911  1.00  0.00     0.014 A 
ATOM     37  C   UNL     1       2.632   1.312   9.259  1.00  0.00     0.014 A 
ATOM     38  C   UNL     1       1.702   1.927  11.819  1.00  0.00     0.010 A 
ATOM     39  C   UNL     1       2.303   0.285  10.144  1.00  0.00     0.010 A 
ATOM     40  C   UNL     1       1.857   0.584  11.440  1.00  0.00    -0.014 A 
BRANCH  40  41
ATOM     41  C   UNL     1       1.600  -0.507  12.412  1.00  0.00     0.031 A 
ATOM     42  C   UNL     1       2.735  -1.362  12.906  1.00  0.00     0.074 A 
ATOM     43  C   UNL     1       0.345  -0.741  12.838  1.00  0.00     0.049 A 
ATOM     44  N   UNL     1       2.713  -2.354  13.761  1.00  0.00    -0.248 NA
ATOM     45  C   UNL     1       4.067  -1.083  12.347  1.00  0.00     0.031 C 
ATOM     46  C   UNL     1      -0.848  -0.016  12.397  1.00  0.00     0.029 A 
ATOM     47  N   UNL     1      -0.136  -1.655  13.741  1.00  0.00    -0.354 N 
ATOM     48  C   UNL     1       4.020  -2.821  13.832  1.00  0.00     0.074 A 
ATOM     49  C   UNL     1       4.798  -2.043  12.894  1.00  0.00     0.031 C 
ATOM     50  C   UNL     1      -1.919  -0.494  13.052  1.00  0.00     0.029 A 
ATOM     51  C   UNL     1      -1.492  -1.570  13.941  1.00  0.00     0.049 A 
ATOM     52  H   UNL     1       0.436  -2.311  14.202  1.00  0.00     0.167 HD
ATOM     53  C   UNL     1       4.532  -3.792  14.627  1.00  0.00     0.037 A 
ATOM     54  C   UNL     1      -2.298  -2.275  14.758  1.00  0.00     0.037 A 
ATOM     55  C   UNL     1       3.763  -4.544  15.583  1.00  0.00     0.049 A 
ATOM     56  C   UNL     1      -1.702  -3.329  15.648  1.00  0.00     0.074 A 
ATOM     57  C   UNL     1       4.199  -5.506  16.477  1.00  0.00     0.029 A 
ATOM     58  N   UNL     1       2.395  -4.414  15.771  1.00  0.00    -0.354 N 
ATOM     59  N   UNL     1      -0.453  -3.712  15.756  1.00  0.00    -0.248 NA
ATOM     60  C   UNL     1      -2.628  -4.040  16.541  1.00  0.00     0.031 C 
ATOM     61  C   UNL     1       3.089  -5.984  17.182  1.00  0.00     0.029 A 
ATOM     62  C   UNL     1       1.968  -5.290  16.755  1.00  0.00     0.049 A 
ATOM     63  H   UNL     1       1.814  -3.792  15.277  1.00  0.00     0.167 HD
ATOM     64  C   UNL     1      -0.438  -4.690  16.741  1.00  0.00     0.074 A 
ATOM     65  C   UNL     1      -1.801  -4.827  17.213  1.00  0.00     0.031 C 
ATOM     66  C   UNL     1       0.608  -5.413  17.212  1.00  0.00     0.037 A 
BRANCH  53  67
ATOM     67  C   UNL     1       5.998  -4.086  14.497  1.00  0.00     0.057 A 
ATOM     68  C   UNL     1       6.973  -3.187  14.951  1.00  0.00     0.134 A 
ATOM     69  C   UNL     1       6.441  -5.288  13.932  1.00  0.00     0.134 A 
ATOM     70  F   UNL     1       6.616  -2.012  15.490  1.00  0.00    -0.206 F 
ATOM     71  C   UNL     1       8.336  -3.461  14.822  1.00  0.00     0.040 A 
ATOM     72  C   UNL     1       7.801  -5.585  13.821  1.00  0.00     0.040 A 
ATOM     73  F   UNL     1       5.561  -6.194  13.481  1.00  0.00    -0.206 F 
ATOM     74  C   UNL     1       8.753  -4.666  14.261  1.00  0.00     0.006 A 
ENDBRANCH  53  67
BRANCH  54  75
ATOM     75  C   UNL     1      -3.751  -1.978  14.804  1.00  0.00     0.057 A 
ATOM     76  C   UNL     1      -4.324  -1.350  15.915  1.00  0.00     0.134 A 
ATOM     77  C   UNL     1      -4.601  -2.321  13.746  1.00  0.00     0.134 A 
ATOM     78  F   UNL     1      -3.562  -1.014  16.967  1.00  0.00    -0.206 F 
ATOM     79  C   UNL     1      -5.693  -1.091  15.984  1.00  0.00     0.040 A 
ATOM     80  C   UNL     1      -5.968  -2.048  13.791  1.00  0.00     0.040 A 
ATOM     81  F   UNL     1      -4.111  -2.918  12.650  1.00  0.00    -0.206 F 
ATOM     82  C   UNL     1      -6.519  -1.437  14.916  1.00  0.00     0.006 A 
ENDBRANCH  54  75
BRANCH  66  83
ATOM     83  C   UNL     1       0.317  -6.397  18.306  1.00  0.00     0.057 A 
ATOM     84  C   UNL     1      -0.374  -7.590  18.060  1.00  0.00     0.134 A 
ATOM     85  C   UNL     1       0.749  -6.156  19.616  1.00  0.00     0.134 A 
ATOM     86  F   UNL     1      -0.826  -7.873  16.828  1.00  0.00    -0.206 F 
ATOM     87  C   UNL     1      -0.651  -8.496  19.085  1.00  0.00     0.040 A 
ATOM     88  C   UNL     1       0.500  -7.066  20.644  1.00  0.00     0.040 A 
ATOM     89  F   UNL     1       1.423  -5.036  19.917  1.00  0.00    -0.206 F 
ATOM     90  C   UNL     1      -0.209  -8.237  20.381  1.00  0.00     0.006 A 
ENDBRANCH  66  83
ENDBRANCH  40  41
ENDBRANCH  32  35
ENDBRANCH  30  31
ENDBRANCH  29  30
ENDBRANCH  28  29
ENDBRANCH   1  28
TORSDOF 15
