REMARK SMILES Cc1c(NCc2ccccn2)cccc1C(=O)N1CCOC[C@@H]1CC(=O)NCCCCCCNC(=O)c1ccc(-c2c3nc(c(-c4c(F)cccc4F)c4ccc([nH]4)c(-c4c(F)cccc4F)c4nc(c(-c5c(F)cccc5F)c5ccc2[nH]5)C=C4)C=C3)cc1
REMARK SMILES IDX 28 1 27 2 25 3 26 4 24 6 23 7 18 8 19 9 20 10 22 11 21 12
REMARK SMILES IDX 16 13 17 14 15 15 1 16 2 17 3 18 12 19 14 20 13 21 4 22 5 24
REMARK SMILES IDX 6 25 7 26 11 27 8 28 10 29 9 30 29 31 30 32 31 33 32 34
REMARK SMILES IDX 33 35 34 36 35 37 36 39 37 40 38 41 90 42 39 43 89 44 40 45
REMARK SMILES IDX 41 46 42 47 83 48 43 49 88 50 82 51 84 52 44 53 87 54 81 55
REMARK SMILES IDX 80 56 45 58 71 59 54 60 70 61 55 62 58 63 69 64 85 65 56 66
REMARK SMILES IDX 57 67 68 69 86 70 59 71 46 72 47 73 52 74 48 75 49 76 51 77
REMARK SMILES IDX 53 78 50 79 72 80 73 81 78 82 74 83 75 84 77 85 79 86 76 87
REMARK SMILES IDX 60 88 61 89 66 90 62 91 63 92 65 93 67 94 64 95
REMARK H PARENT 27 5 4 23 34 38 84 57 58 68
REMARK Flexibility Score: inf
ROOT
ATOM      1  C   UNL     1       0.459   2.301   2.991  1.00  0.00     0.116 C 
ENDROOT
BRANCH   1   2
ATOM      2  N   UNL     1       1.417   3.006   3.802  1.00  0.00    -0.356 N 
ATOM      3  C   UNL     1       2.539   3.623   3.336  1.00  0.00     0.222 C 
ATOM      4  O   UNL     1       3.514   3.716   4.081  1.00  0.00    -0.275 OA
ATOM      5  H   UNL     1       1.248   3.046   4.771  1.00  0.00     0.163 HD
BRANCH   3   6
ATOM      6  C   UNL     1       2.529   4.247   1.955  1.00  0.00     0.127 C 
BRANCH   6   7
ATOM      7  C   UNL     1       3.270   3.546   0.806  1.00  0.00     0.120 C 
ATOM      8  N   UNL     1       2.501   2.704  -0.165  1.00  0.00    -0.331 N 
ATOM      9  C   UNL     1       3.359   2.390  -1.323  1.00  0.00     0.148 C 
ATOM     10  C   UNL     1       4.700   1.752  -0.906  1.00  0.00     0.181 C 
ATOM     11  C   UNL     1       4.506   2.737   1.256  1.00  0.00     0.185 C 
ATOM     12  O   UNL     1       5.366   2.494   0.124  1.00  0.00    -0.377 OA
BRANCH   8  13
ATOM     13  C   UNL     1       1.155   2.959  -0.440  1.00  0.00     0.254 C 
ATOM     14  O   UNL     1       0.710   4.096  -0.556  1.00  0.00    -0.269 OA
BRANCH  13  15
ATOM     15  C   UNL     1       0.172   1.817  -0.434  1.00  0.00     0.045 A 
ATOM     16  C   UNL     1       2.049  -0.379  -0.575  1.00  0.00     0.047 C 
ATOM     17  C   UNL     1       0.625   0.067  -0.453  1.00  0.00    -0.015 A 
ATOM     18  C   UNL     1      -0.650  -1.205  -0.267  1.00  0.00     0.038 A 
ATOM     19  C   UNL     1      -2.381  -0.747  -0.070  1.00  0.00     0.026 A 
ATOM     20  C   UNL     1      -1.571   2.288  -0.272  1.00  0.00     0.014 A 
ATOM     21  C   UNL     1      -2.846   1.007  -0.074  1.00  0.00     0.003 A 
BRANCH  18  22
ATOM     22  N   UNL     1      -0.283  -2.540  -0.316  1.00  0.00    -0.379 N 
ATOM     23  H   UNL     1       0.492  -2.855   0.203  1.00  0.00     0.160 HD
BRANCH  22  24
ATOM     24  C   UNL     1      -1.036  -3.477  -1.130  1.00  0.00     0.169 C 
BRANCH  24  25
ATOM     25  C   UNL     1      -0.293  -3.821  -2.418  1.00  0.00     0.059 A 
ATOM     26  C   UNL     1       1.364  -3.111  -2.770  1.00  0.00     0.026 A 
ATOM     27  N   UNL     1      -0.827  -5.371  -3.194  1.00  0.00    -0.259 NA
ATOM     28  C   UNL     1       2.519  -4.026  -3.868  1.00  0.00     0.004 A 
ATOM     29  C   UNL     1       0.281  -6.288  -4.279  1.00  0.00     0.111 A 
ATOM     30  C   UNL     1       1.972  -5.689  -4.592  1.00  0.00     0.020 A 
ENDBRANCH  24  25
ENDBRANCH  22  24
ENDBRANCH  18  22
ENDBRANCH  13  15
ENDBRANCH   8  13
ENDBRANCH   6   7
ENDBRANCH   3   6
ENDBRANCH   1   2
BRANCH   1  31
ATOM     31  C   UNL     1       1.081   0.972   2.559  1.00  0.00     0.021 C 
BRANCH  31  32
ATOM     32  C   UNL     1       0.121  -0.065   1.964  1.00  0.00     0.002 C 
BRANCH  32  33
ATOM     33  C   UNL     1      -0.997   0.539   0.826  1.00  0.00     0.002 C 
BRANCH  33  34
ATOM     34  C   UNL     1      -1.259   0.485  -1.343  1.00  0.00     0.021 C 
BRANCH  34  35
ATOM     35  C   UNL     1      -1.861  -0.613  -2.506  1.00  0.00     0.116 C 
BRANCH  35  36
ATOM     36  N   UNL     1      -3.291  -0.979  -2.631  1.00  0.00    -0.352 N 
ATOM     37  C   UNL     1      -3.962  -1.726  -3.597  1.00  0.00     0.251 C 
ATOM     38  H   UNL     1      -3.865  -0.636  -1.908  1.00  0.00     0.163 HD
ATOM     39  O   UNL     1      -5.124  -2.072  -3.395  1.00  0.00    -0.269 OA
BRANCH  37  40
ATOM     40  C   UNL     1      -3.245  -2.237  -4.803  1.00  0.00     0.039 A 
ATOM     41  C   UNL     1      -3.310  -3.616  -4.997  1.00  0.00     0.014 A 
ATOM     42  C   UNL     1      -2.124  -1.551  -5.222  1.00  0.00     0.014 A 
ATOM     43  C   UNL     1      -2.114  -4.311  -5.093  1.00  0.00     0.010 A 
ATOM     44  C   UNL     1      -0.927  -2.218  -5.051  1.00  0.00     0.010 A 
ATOM     45  C   UNL     1      -0.922  -3.611  -4.836  1.00  0.00    -0.014 A 
BRANCH  45  46
ATOM     46  C   UNL     1       0.526  -4.266  -4.317  1.00  0.00     0.031 A 
ATOM     47  C   UNL     1       1.302  -3.897  -5.957  1.00  0.00     0.074 A 
ATOM     48  C   UNL     1       1.186  -5.177  -2.812  1.00  0.00     0.049 A 
ATOM     49  N   UNL     1       2.540  -4.170  -6.251  1.00  0.00    -0.248 NA
ATOM     50  C   UNL     1       0.673  -3.357  -7.184  1.00  0.00     0.031 C 
ATOM     51  C   UNL     1       2.745  -5.701  -2.272  1.00  0.00     0.029 A 
ATOM     52  N   UNL     1       0.615  -5.901  -1.580  1.00  0.00    -0.354 N 
ATOM     53  C   UNL     1       2.869  -3.962  -7.537  1.00  0.00     0.074 A 
ATOM     54  C   UNL     1       1.696  -3.321  -8.065  1.00  0.00     0.031 C 
ATOM     55  C   UNL     1       2.669  -6.783  -1.486  1.00  0.00     0.029 A 
ATOM     56  C   UNL     1       1.290  -7.129  -1.408  1.00  0.00     0.049 A 
ATOM     57  H   UNL     1      -0.107  -5.562  -1.003  1.00  0.00     0.167 HD
ATOM     58  C   UNL     1       4.143  -4.329  -7.860  1.00  0.00     0.037 A 
ATOM     59  C   UNL     1       0.742  -8.302  -1.834  1.00  0.00     0.037 A 
ATOM     60  C   UNL     1       4.661  -5.378  -6.922  1.00  0.00     0.049 A 
ATOM     61  C   UNL     1       1.644  -8.933  -2.914  1.00  0.00     0.074 A 
ATOM     62  C   UNL     1       5.420  -5.326  -5.760  1.00  0.00     0.029 A 
ATOM     63  N   UNL     1       4.143  -6.687  -6.959  1.00  0.00    -0.354 N 
ATOM     64  N   UNL     1       2.370  -8.280  -3.801  1.00  0.00    -0.248 NA
ATOM     65  C   UNL     1       1.901 -10.364  -2.961  1.00  0.00     0.031 C 
ATOM     66  C   UNL     1       5.260  -6.558  -5.048  1.00  0.00     0.029 A 
ATOM     67  C   UNL     1       4.431  -7.400  -5.779  1.00  0.00     0.049 A 
ATOM     68  H   UNL     1       3.639  -7.059  -7.719  1.00  0.00     0.167 HD
ATOM     69  C   UNL     1       3.157  -9.146  -4.531  1.00  0.00     0.074 A 
ATOM     70  C   UNL     1       2.850 -10.435  -3.912  1.00  0.00     0.031 C 
ATOM     71  C   UNL     1       4.001  -8.805  -5.576  1.00  0.00     0.037 A 
BRANCH  58  72
ATOM     72  C   UNL     1       5.008  -3.490  -8.778  1.00  0.00     0.057 A 
ATOM     73  C   UNL     1       6.410  -3.474  -8.614  1.00  0.00     0.134 A 
ATOM     74  C   UNL     1       4.533  -2.567  -9.729  1.00  0.00     0.134 A 
ATOM     75  F   UNL     1       7.028  -4.309  -7.768  1.00  0.00    -0.206 F 
ATOM     76  C   UNL     1       7.253  -2.575  -9.287  1.00  0.00     0.040 A 
ATOM     77  C   UNL     1       5.362  -1.651 -10.396  1.00  0.00     0.040 A 
ATOM     78  F   UNL     1       3.244  -2.505 -10.073  1.00  0.00    -0.206 F 
ATOM     79  C   UNL     1       6.728  -1.644 -10.169  1.00  0.00     0.006 A 
ENDBRANCH  58  72
BRANCH  59  80
ATOM     80  C   UNL     1      -0.771  -8.278  -1.711  1.00  0.00     0.057 A 
ATOM     81  C   UNL     1      -1.327  -7.745  -0.515  1.00  0.00     0.134 A 
ATOM     82  C   UNL     1      -1.656  -8.368  -2.787  1.00  0.00     0.134 A 
ATOM     83  F   UNL     1      -0.584  -7.685   0.605  1.00  0.00    -0.206 F 
ATOM     84  C   UNL     1      -2.577  -7.114  -0.471  1.00  0.00     0.040 A 
ATOM     85  C   UNL     1      -2.924  -7.750  -2.752  1.00  0.00     0.040 A 
ATOM     86  F   UNL     1      -1.275  -8.948  -3.934  1.00  0.00    -0.206 F 
ATOM     87  C   UNL     1      -3.360  -7.068  -1.615  1.00  0.00     0.006 A 
ENDBRANCH  59  80
BRANCH  71  88
ATOM     88  C   UNL     1       4.623  -9.838  -6.503  1.00  0.00     0.057 A 
ATOM     89  C   UNL     1       4.045 -11.082  -6.798  1.00  0.00     0.134 A 
ATOM     90  C   UNL     1       5.784  -9.534  -7.251  1.00  0.00     0.134 A 
ATOM     91  F   UNL     1       2.857 -11.444  -6.297  1.00  0.00    -0.206 F 
ATOM     92  C   UNL     1       4.632 -11.996  -7.680  1.00  0.00     0.040 A 
ATOM     93  C   UNL     1       6.331 -10.403  -8.197  1.00  0.00     0.040 A 
ATOM     94  F   UNL     1       6.428  -8.365  -7.123  1.00  0.00    -0.206 F 
ATOM     95  C   UNL     1       5.772 -11.654  -8.394  1.00  0.00     0.006 A 
ENDBRANCH  71  88
ENDBRANCH  45  46
ENDBRANCH  37  40
ENDBRANCH  35  36
ENDBRANCH  34  35
ENDBRANCH  33  34
ENDBRANCH  32  33
ENDBRANCH  31  32
ENDBRANCH   1  31
TORSDOF 19
