REMARK SMILES CCC[C@]1(C(=O)NCCCCCCNC(=O)c2ccc(-c3c4nc(c(-c5c(F)cccc5F)c5ccc([nH]5)c(-c5c(F)cccc5F)c5nc(c(-c6c(F)cccc6F)c6ccc3[nH]6)C=C5)C=C4)cc2)CCN(c2cncc(C(=O)OC)n2)C1
REMARK SMILES IDX 10 1 9 2 8 3 7 4 5 5 6 6 4 8 71 9 84 10 72 11 73 12 3 13
REMARK SMILES IDX 2 14 1 15 74 16 75 17 83 18 76 19 78 20 77 21 79 22 80 23
REMARK SMILES IDX 81 24 82 25 11 26 12 27 13 28 14 29 15 30 16 32 17 33 18 34
REMARK SMILES IDX 70 35 19 36 69 37 20 38 21 39 22 40 63 41 23 42 68 43 62 44
REMARK SMILES IDX 64 45 24 46 67 47 61 48 60 49 25 51 51 52 34 53 50 54 35 55
REMARK SMILES IDX 38 56 49 57 65 58 36 59 37 60 48 62 66 63 39 64 26 65 27 66
REMARK SMILES IDX 32 67 28 68 29 69 31 70 33 71 30 72 52 73 53 74 58 75 54 76
REMARK SMILES IDX 55 77 57 78 59 79 56 80 40 81 41 82 46 83 42 84 43 85 45 86
REMARK SMILES IDX 47 87 44 88
REMARK H PARENT 7 7 14 31 64 50 38 61
REMARK Flexibility Score: inf
ROOT
ATOM      1  C   UNL     1       1.679  -2.820   6.276  1.00  0.00     0.002 C 
ENDROOT
BRANCH   1   2
ATOM      2  C   UNL     1       0.756  -3.457   5.232  1.00  0.00     0.021 C 
BRANCH   2   3
ATOM      3  C   UNL     1       0.179  -2.471   4.219  1.00  0.00     0.116 C 
BRANCH   3   4
ATOM      4  N   UNL     1       1.214  -1.952   3.347  1.00  0.00    -0.356 N 
ATOM      5  C   UNL     1       1.396  -2.015   2.002  1.00  0.00     0.228 C 
ATOM      6  O   UNL     1       2.494  -1.610   1.607  1.00  0.00    -0.274 OA
ATOM      7  H   UNL     1       1.923  -1.459   3.821  1.00  0.00     0.163 HD
BRANCH   5   8
ATOM      8  C   UNL     1       0.345  -2.590   1.027  1.00  0.00     0.068 C 
ATOM      9  C   UNL     1       0.169  -4.109   1.310  1.00  0.00     0.040 C 
ATOM     10  C   UNL     1      -1.063  -1.973   1.239  1.00  0.00     0.135 C 
ATOM     11  C   UNL     1      -1.331  -4.362   1.204  1.00  0.00     0.119 C 
ATOM     12  N   UNL     1      -1.897  -3.100   1.628  1.00  0.00    -0.354 N 
BRANCH   8  13
ATOM     13  C   UNL     1       0.837  -2.432  -0.447  1.00  0.00     0.018 C 
BRANCH  13  14
ATOM     14  C   UNL     1       0.647  -1.079  -1.153  1.00  0.00    -0.002 C 
ATOM     15  C   UNL     1       1.124   0.152  -0.403  1.00  0.00     0.004 C 
ENDBRANCH  13  14
ENDBRANCH   8  13
BRANCH  12  16
ATOM     16  C   UNL     1      -3.209  -2.949   1.994  1.00  0.00     0.148 A 
ATOM     17  C   UNL     1      -3.749  -3.736   3.022  1.00  0.00     0.157 A 
ATOM     18  N   UNL     1      -3.970  -1.996   1.411  1.00  0.00    -0.221 NA
ATOM     19  N   UNL     1      -5.008  -3.614   3.508  1.00  0.00    -0.258 NA
ATOM     20  C   UNL     1      -5.259  -1.895   1.853  1.00  0.00     0.169 A 
ATOM     21  C   UNL     1      -5.754  -2.672   2.891  1.00  0.00     0.147 A 
BRANCH  20  22
ATOM     22  C   UNL     1      -6.208  -0.968   1.186  1.00  0.00     0.358 C 
ATOM     23  O   UNL     1      -7.347  -0.775   1.597  1.00  0.00    -0.244 OA
BRANCH  22  24
ATOM     24  O   UNL     1      -5.679  -0.427   0.060  1.00  0.00    -0.464 OA
ATOM     25  C   UNL     1      -6.599   0.387  -0.670  1.00  0.00     0.282 C 
ENDBRANCH  22  24
ENDBRANCH  20  22
ENDBRANCH  12  16
ENDBRANCH   5   8
ENDBRANCH   3   4
ENDBRANCH   2   3
ENDBRANCH   1   2
BRANCH   1  26
ATOM     26  C   UNL     1       1.054  -1.672   7.074  1.00  0.00     0.002 C 
BRANCH  26  27
ATOM     27  C   UNL     1      -0.280  -2.003   7.746  1.00  0.00     0.021 C 
BRANCH  27  28
ATOM     28  C   UNL     1      -0.232  -3.197   8.691  1.00  0.00     0.116 C 
BRANCH  28  29
ATOM     29  N   UNL     1       0.660  -2.968   9.816  1.00  0.00    -0.352 N 
ATOM     30  C   UNL     1       0.405  -3.080  11.159  1.00  0.00     0.251 C 
ATOM     31  H   UNL     1       1.576  -2.694   9.580  1.00  0.00     0.163 HD
ATOM     32  O   UNL     1       1.212  -2.658  11.981  1.00  0.00    -0.269 OA
BRANCH  30  33
ATOM     33  C   UNL     1      -0.859  -3.695  11.612  1.00  0.00     0.039 A 
ATOM     34  C   UNL     1      -1.583  -3.079  12.635  1.00  0.00     0.014 A 
ATOM     35  C   UNL     1      -1.329  -4.874  11.027  1.00  0.00     0.014 A 
ATOM     36  C   UNL     1      -2.807  -3.618  13.034  1.00  0.00     0.010 A 
ATOM     37  C   UNL     1      -2.585  -5.363  11.368  1.00  0.00     0.010 A 
ATOM     38  C   UNL     1      -3.333  -4.746  12.382  1.00  0.00    -0.014 A 
BRANCH  38  39
ATOM     39  C   UNL     1      -4.658  -5.301  12.755  1.00  0.00     0.031 A 
ATOM     40  C   UNL     1      -4.762  -6.689  13.323  1.00  0.00     0.074 A 
ATOM     41  C   UNL     1      -5.772  -4.576  12.534  1.00  0.00     0.049 A 
ATOM     42  N   UNL     1      -5.830  -7.368  13.660  1.00  0.00    -0.248 NA
ATOM     43  C   UNL     1      -3.501  -7.422  13.511  1.00  0.00     0.031 C 
ATOM     44  C   UNL     1      -5.806  -3.232  11.954  1.00  0.00     0.029 A 
ATOM     45  N   UNL     1      -7.091  -4.871  12.767  1.00  0.00    -0.354 N 
ATOM     46  C   UNL     1      -5.369  -8.605  14.093  1.00  0.00     0.074 A 
ATOM     47  C   UNL     1      -3.933  -8.608  13.911  1.00  0.00     0.031 C 
ATOM     48  C   UNL     1      -7.079  -2.806  11.909  1.00  0.00     0.029 A 
ATOM     49  C   UNL     1      -7.952  -3.861  12.414  1.00  0.00     0.049 A 
ATOM     50  H   UNL     1      -7.392  -5.726  13.152  1.00  0.00     0.167 HD
ATOM     51  C   UNL     1      -6.072  -9.635  14.620  1.00  0.00     0.037 A 
ATOM     52  C   UNL     1      -9.295  -3.795  12.485  1.00  0.00     0.037 A 
ATOM     53  C   UNL     1      -7.500  -9.625  14.806  1.00  0.00     0.049 A 
ATOM     54  C   UNL     1     -10.058  -4.968  13.035  1.00  0.00     0.074 A 
ATOM     55  C   UNL     1      -8.304 -10.602  15.367  1.00  0.00     0.029 A 
ATOM     56  N   UNL     1      -8.338  -8.586  14.427  1.00  0.00    -0.354 N 
ATOM     57  N   UNL     1      -9.605  -6.108  13.499  1.00  0.00    -0.248 NA
ATOM     58  C   UNL     1     -11.522  -4.843  13.074  1.00  0.00     0.031 C 
ATOM     59  C   UNL     1      -9.634 -10.177  15.279  1.00  0.00     0.029 A 
ATOM     60  C   UNL     1      -9.653  -8.909  14.720  1.00  0.00     0.049 A 
ATOM     61  H   UNL     1      -8.042  -7.744  14.012  1.00  0.00     0.167 HD
ATOM     62  C   UNL     1     -10.722  -6.819  13.919  1.00  0.00     0.074 A 
ATOM     63  C   UNL     1     -11.873  -5.977  13.664  1.00  0.00     0.031 C 
ATOM     64  C   UNL     1     -10.789  -8.057  14.469  1.00  0.00     0.037 A 
BRANCH  51  65
ATOM     65  C   UNL     1      -5.300 -10.858  15.029  1.00  0.00     0.057 A 
ATOM     66  C   UNL     1      -4.403 -10.841  16.107  1.00  0.00     0.134 A 
ATOM     67  C   UNL     1      -5.462 -12.070  14.347  1.00  0.00     0.134 A 
ATOM     68  F   UNL     1      -4.191  -9.710  16.797  1.00  0.00    -0.206 F 
ATOM     69  C   UNL     1      -3.668 -11.972  16.466  1.00  0.00     0.040 A 
ATOM     70  C   UNL     1      -4.757 -13.217  14.718  1.00  0.00     0.040 A 
ATOM     71  F   UNL     1      -6.309 -12.163  13.311  1.00  0.00    -0.206 F 
ATOM     72  C   UNL     1      -3.848 -13.167  15.773  1.00  0.00     0.006 A 
ENDBRANCH  51  65
BRANCH  52  73
ATOM     73  C   UNL     1     -10.005  -2.564  12.054  1.00  0.00     0.057 A 
ATOM     74  C   UNL     1     -10.653  -1.744  12.986  1.00  0.00     0.134 A 
ATOM     75  C   UNL     1     -10.065  -2.181  10.709  1.00  0.00     0.134 A 
ATOM     76  F   UNL     1     -10.647  -2.067  14.287  1.00  0.00    -0.206 F 
ATOM     77  C   UNL     1     -11.354  -0.602  12.594  1.00  0.00     0.040 A 
ATOM     78  C   UNL     1     -10.738  -1.027  10.306  1.00  0.00     0.040 A 
ATOM     79  F   UNL     1      -9.458  -2.919   9.767  1.00  0.00    -0.206 F 
ATOM     80  C   UNL     1     -11.393  -0.238  11.250  1.00  0.00     0.006 A 
ENDBRANCH  52  73
BRANCH  64  81
ATOM     81  C   UNL     1     -12.145  -8.556  14.877  1.00  0.00     0.057 A 
ATOM     82  C   UNL     1     -13.119  -8.920  13.939  1.00  0.00     0.134 A 
ATOM     83  C   UNL     1     -12.467  -8.707  16.233  1.00  0.00     0.134 A 
ATOM     84  F   UNL     1     -12.881  -8.787  12.625  1.00  0.00    -0.206 F 
ATOM     85  C   UNL     1     -14.373  -9.390  14.334  1.00  0.00     0.040 A 
ATOM     86  C   UNL     1     -13.705  -9.206  16.639  1.00  0.00     0.040 A 
ATOM     87  F   UNL     1     -11.577  -8.386  17.185  1.00  0.00    -0.206 F 
ATOM     88  C   UNL     1     -14.666  -9.541  15.688  1.00  0.00     0.006 A 
ENDBRANCH  64  81
ENDBRANCH  38  39
ENDBRANCH  30  33
ENDBRANCH  28  29
ENDBRANCH  27  28
ENDBRANCH  26  27
ENDBRANCH   1  26
TORSDOF 18
