REMARK SMILES C[C@@H]1[C@H](C(=O)NCCCCCCNC(=O)c2ccc(-c3c4nc(c(-c5c(F)cccc5F)c5ccc([nH]5)c(-c5c(F)cccc5F)c5nc(c(-c6c(F)cccc6F)c6ccc3[nH]6)C=C5)C=C4)cc2)CC[N@@H+]1CCOc1c(Cl)cccc1Cl
REMARK SMILES IDX 8 1 7 2 6 3 4 4 5 5 3 7 1 8 2 9 72 10 70 11 71 12 73 14
REMARK SMILES IDX 74 15 75 16 76 17 77 18 82 19 78 20 79 21 81 22 83 23 80 24
REMARK SMILES IDX 9 25 10 26 11 27 12 28 13 29 14 30 15 32 16 33 17 34 69 35
REMARK SMILES IDX 18 36 68 37 19 38 20 39 21 40 62 41 22 42 67 43 61 44 63 45
REMARK SMILES IDX 23 46 66 47 60 48 59 49 24 51 50 52 33 53 49 54 34 55 37 56
REMARK SMILES IDX 48 57 64 58 35 59 36 60 47 62 65 63 38 64 25 65 26 66 31 67
REMARK SMILES IDX 27 68 28 69 30 70 32 71 29 72 51 73 52 74 57 75 53 76 54 77
REMARK SMILES IDX 56 78 58 79 55 80 39 81 40 82 45 83 41 84 42 85 44 86 46 87
REMARK SMILES IDX 43 88
REMARK H PARENT 6 6 72 13 13 31 63 50 37 61
REMARK Flexibility Score: inf
ROOT
ATOM      1  C   UNL     1       3.085   1.765   2.445  1.00  0.00     0.021 C 
ENDROOT
BRANCH   1   2
ATOM      2  C   UNL     1       1.695   2.028   1.871  1.00  0.00     0.116 C 
BRANCH   2   3
ATOM      3  N   UNL     1       1.774   2.764   0.635  1.00  0.00    -0.356 N 
ATOM      4  C   UNL     1       1.557   2.385  -0.646  1.00  0.00     0.229 C 
ATOM      5  O   UNL     1       1.853   3.223  -1.508  1.00  0.00    -0.275 OA
ATOM      6  H   UNL     1       2.030   3.708   0.741  1.00  0.00     0.163 HD
BRANCH   4   7
ATOM      7  C   UNL     1       0.902   1.076  -1.077  1.00  0.00     0.142 C 
ATOM      8  C   UNL     1       2.752  -0.505  -0.024  1.00  0.00     0.076 C 
ATOM      9  C   UNL     1       1.503  -0.332  -0.865  1.00  0.00     0.193 C 
ATOM     10  N   UNL     1       0.355  -1.233  -0.612  1.00  0.00    -0.329 N 
ATOM     11  C   UNL     1      -0.557   0.932  -0.673  1.00  0.00     0.081 C 
ATOM     12  C   UNL     1      -0.839  -0.515  -1.034  1.00  0.00     0.263 C 
ATOM     13  H   UNL     1       0.555  -2.063  -1.170  1.00  0.00     0.348 HD
BRANCH  10  14
ATOM     14  C   UNL     1       0.229  -2.050   0.604  1.00  0.00     0.304 C 
BRANCH  14  15
ATOM     15  C   UNL     1      -0.255  -1.433   1.942  1.00  0.00     0.291 C 
BRANCH  15  16
ATOM     16  O   UNL     1      -1.652  -1.642   2.228  1.00  0.00    -0.485 OA
BRANCH  16  17
ATOM     17  C   UNL     1      -2.458  -0.544   2.045  1.00  0.00     0.156 A 
ATOM     18  C   UNL     1      -2.269   0.693   2.680  1.00  0.00     0.084 A 
ATOM     19  C   UNL     1      -3.543  -0.679   1.164  1.00  0.00     0.084 A 
ATOM     20  Cl  UNL     1      -1.179   0.901   4.008  1.00  0.00    -0.080 Cl
ATOM     21  C   UNL     1      -3.006   1.813   2.275  1.00  0.00     0.024 A 
ATOM     22  C   UNL     1      -4.274   0.441   0.756  1.00  0.00     0.024 A 
ATOM     23  Cl  UNL     1      -3.984  -2.217   0.502  1.00  0.00    -0.080 Cl
ATOM     24  C   UNL     1      -3.979   1.696   1.284  1.00  0.00     0.003 A 
ENDBRANCH  16  17
ENDBRANCH  15  16
ENDBRANCH  14  15
ENDBRANCH  10  14
ENDBRANCH   4   7
ENDBRANCH   2   3
ENDBRANCH   1   2
BRANCH   1  25
ATOM     25  C   UNL     1       3.687   2.945   3.208  1.00  0.00     0.002 C 
BRANCH  25  26
ATOM     26  C   UNL     1       2.997   3.278   4.533  1.00  0.00     0.002 C 
BRANCH  26  27
ATOM     27  C   UNL     1       2.848   2.114   5.518  1.00  0.00     0.021 C 
BRANCH  27  28
ATOM     28  C   UNL     1       4.119   1.315   5.798  1.00  0.00     0.116 C 
BRANCH  28  29
ATOM     29  N   UNL     1       5.207   2.146   6.283  1.00  0.00    -0.352 N 
ATOM     30  C   UNL     1       5.981   2.011   7.402  1.00  0.00     0.251 C 
ATOM     31  H   UNL     1       5.419   2.926   5.720  1.00  0.00     0.163 HD
ATOM     32  O   UNL     1       6.761   2.913   7.720  1.00  0.00    -0.269 OA
BRANCH  30  33
ATOM     33  C   UNL     1       5.880   0.805   8.248  1.00  0.00     0.039 A 
ATOM     34  C   UNL     1       5.849   0.964   9.636  1.00  0.00     0.014 A 
ATOM     35  C   UNL     1       5.859  -0.477   7.688  1.00  0.00     0.014 A 
ATOM     36  C   UNL     1       5.756  -0.156  10.461  1.00  0.00     0.010 A 
ATOM     37  C   UNL     1       5.702  -1.591   8.511  1.00  0.00     0.010 A 
ATOM     38  C   UNL     1       5.662  -1.442   9.905  1.00  0.00    -0.014 A 
BRANCH  38  39
ATOM     39  C   UNL     1       5.544  -2.636  10.779  1.00  0.00     0.031 A 
ATOM     40  C   UNL     1       6.661  -3.641  10.842  1.00  0.00     0.074 A 
ATOM     41  C   UNL     1       4.419  -2.830  11.492  1.00  0.00     0.049 A 
ATOM     42  N   UNL     1       6.737  -4.749  11.536  1.00  0.00    -0.248 NA
ATOM     43  C   UNL     1       7.837  -3.379   9.999  1.00  0.00     0.031 C 
ATOM     44  C   UNL     1       3.248  -1.952  11.481  1.00  0.00     0.029 A 
ATOM     45  N   UNL     1       4.076  -3.831  12.366  1.00  0.00    -0.354 N 
ATOM     46  C   UNL     1       7.960  -5.319  11.205  1.00  0.00     0.074 A 
ATOM     47  C   UNL     1       8.570  -4.462  10.212  1.00  0.00     0.031 C 
ATOM     48  C   UNL     1       2.326  -2.438  12.327  1.00  0.00     0.029 A 
ATOM     49  C   UNL     1       2.828  -3.674  12.919  1.00  0.00     0.049 A 
ATOM     50  H   UNL     1       4.667  -4.590  12.576  1.00  0.00     0.167 HD
ATOM     51  C   UNL     1       8.534  -6.440  11.703  1.00  0.00     0.037 A 
ATOM     52  C   UNL     1       2.166  -4.441  13.806  1.00  0.00     0.037 A 
ATOM     53  C   UNL     1       7.938  -7.276  12.711  1.00  0.00     0.049 A 
ATOM     54  C   UNL     1       2.827  -5.678  14.347  1.00  0.00     0.074 A 
ATOM     55  C   UNL     1       8.465  -8.399  13.324  1.00  0.00     0.029 A 
ATOM     56  N   UNL     1       6.677  -7.079  13.255  1.00  0.00    -0.354 N 
ATOM     57  N   UNL     1       4.013  -6.166  14.077  1.00  0.00    -0.248 NA
ATOM     58  C   UNL     1       2.060  -6.466  15.321  1.00  0.00     0.031 C 
ATOM     59  C   UNL     1       7.509  -8.903  14.212  1.00  0.00     0.029 A 
ATOM     60  C   UNL     1       6.402  -8.070  14.182  1.00  0.00     0.049 A 
ATOM     61  H   UNL     1       6.068  -6.342  13.017  1.00  0.00     0.167 HD
ATOM     62  C   UNL     1       4.144  -7.303  14.863  1.00  0.00     0.074 A 
ATOM     63  C   UNL     1       2.923  -7.422  15.633  1.00  0.00     0.031 C 
ATOM     64  C   UNL     1       5.182  -8.172  14.940  1.00  0.00     0.037 A 
BRANCH  51  65
ATOM     65  C   UNL     1       9.882  -6.822  11.166  1.00  0.00     0.057 A 
ATOM     66  C   UNL     1      11.035  -6.091  11.482  1.00  0.00     0.134 A 
ATOM     67  C   UNL     1      10.036  -7.949  10.349  1.00  0.00     0.134 A 
ATOM     68  F   UNL     1      10.955  -4.994  12.250  1.00  0.00    -0.206 F 
ATOM     69  C   UNL     1      12.288  -6.453  10.985  1.00  0.00     0.040 A 
ATOM     70  C   UNL     1      11.287  -8.335   9.866  1.00  0.00     0.040 A 
ATOM     71  F   UNL     1       8.974  -8.696  10.012  1.00  0.00    -0.206 F 
ATOM     72  C   UNL     1      12.417  -7.582  10.179  1.00  0.00     0.006 A 
ENDBRANCH  51  65
BRANCH  52  73
ATOM     73  C   UNL     1       0.811  -4.045  14.263  1.00  0.00     0.057 A 
ATOM     74  C   UNL     1       0.599  -3.575  15.564  1.00  0.00     0.134 A 
ATOM     75  C   UNL     1      -0.300  -4.130  13.417  1.00  0.00     0.134 A 
ATOM     76  F   UNL     1       1.623  -3.488  16.426  1.00  0.00    -0.206 F 
ATOM     77  C   UNL     1      -0.674  -3.221  16.015  1.00  0.00     0.040 A 
ATOM     78  C   UNL     1      -1.575  -3.759  13.847  1.00  0.00     0.040 A 
ATOM     79  F   UNL     1      -0.160  -4.566  12.157  1.00  0.00    -0.206 F 
ATOM     80  C   UNL     1      -1.765  -3.309  15.152  1.00  0.00     0.006 A 
ENDBRANCH  52  73
BRANCH  64  81
ATOM     81  C   UNL     1       5.048  -9.312  15.905  1.00  0.00     0.057 A 
ATOM     82  C   UNL     1       4.202 -10.398  15.649  1.00  0.00     0.134 A 
ATOM     83  C   UNL     1       5.797  -9.338  17.088  1.00  0.00     0.134 A 
ATOM     84  F   UNL     1       3.448 -10.426  14.539  1.00  0.00    -0.206 F 
ATOM     85  C   UNL     1       4.090 -11.461  16.546  1.00  0.00     0.040 A 
ATOM     86  C   UNL     1       5.712 -10.406  17.981  1.00  0.00     0.040 A 
ATOM     87  F   UNL     1       6.631  -8.331  17.388  1.00  0.00    -0.206 F 
ATOM     88  C   UNL     1       4.851 -11.469  17.714  1.00  0.00     0.006 A 
ENDBRANCH  64  81
ENDBRANCH  38  39
ENDBRANCH  30  33
ENDBRANCH  28  29
ENDBRANCH  27  28
ENDBRANCH  26  27
ENDBRANCH  25  26
ENDBRANCH   1  25
TORSDOF 17
