REMARK SMILES O=C(NCCCCCCNC(=O)c1ccn(-c2cc(-c3ccncc3)nc(-c3ccccc3F)n2)n1)c1ccc(-c2c3nc(c(-c4c(F)cccc4F)c4ccc([nH]4)c(-c4c(F)cccc4F)c4nc(c(-c5c(F)cccc5F)c5ccc2[nH]5)C=C4)C=C3)cc1
REMARK SMILES IDX 6 1 5 2 4 3 3 4 1 5 2 6 37 8 38 9 90 10 39 11 89 12 40 13
REMARK SMILES IDX 41 14 42 15 83 16 43 17 88 18 82 19 84 20 44 21 87 22 81 23
REMARK SMILES IDX 80 24 45 26 71 27 54 28 70 29 55 30 58 31 69 32 85 33 56 34
REMARK SMILES IDX 57 35 68 37 86 38 59 39 46 40 47 41 52 42 48 43 49 44 51 45
REMARK SMILES IDX 53 46 50 47 72 48 73 49 78 50 74 51 75 52 77 53 79 54 76 55
REMARK SMILES IDX 60 56 61 57 66 58 62 59 63 60 65 61 67 62 64 63 7 64 8 65
REMARK SMILES IDX 9 66 10 67 11 68 12 70 13 71 14 72 36 73 15 74 16 75 17 76
REMARK SMILES IDX 18 77 35 78 19 79 27 80 26 81 20 82 21 83 25 84 22 85 24 86
REMARK SMILES IDX 23 87 28 88 29 89 33 90 30 91 32 92 34 93 31 94
REMARK H PARENT 3 7 84 25 58 36 10 69
REMARK Flexibility Score: inf
ROOT
ATOM      1  C   UNL     1       4.360  -3.468   0.497  1.00  0.00     0.002 C 
ENDROOT
BRANCH   1   2
ATOM      2  C   UNL     1       4.872  -2.077   0.889  1.00  0.00     0.021 C 
BRANCH   2   3
ATOM      3  C   UNL     1       4.689  -1.008  -0.188  1.00  0.00     0.116 C 
BRANCH   3   4
ATOM      4  N   UNL     1       3.311  -0.752  -0.544  1.00  0.00    -0.352 N 
ATOM      5  O   UNL     1       1.287   0.128  -0.680  1.00  0.00    -0.269 OA
ATOM      6  C   UNL     1       2.314   0.011  -0.007  1.00  0.00     0.251 C 
ATOM      7  H   UNL     1       3.029  -1.236  -1.354  1.00  0.00     0.163 HD
BRANCH   6   8
ATOM      8  C   UNL     1       2.351   0.621   1.348  1.00  0.00     0.039 A 
ATOM      9  C   UNL     1       3.493   0.843   2.120  1.00  0.00     0.014 A 
ATOM     10  C   UNL     1       1.097   0.974   1.882  1.00  0.00     0.014 A 
ATOM     11  C   UNL     1       3.378   1.307   3.428  1.00  0.00     0.010 A 
ATOM     12  C   UNL     1       0.975   1.447   3.181  1.00  0.00     0.010 A 
ATOM     13  C   UNL     1       2.117   1.581   3.965  1.00  0.00    -0.014 A 
BRANCH  13  14
ATOM     14  C   UNL     1       2.039   2.263   5.255  1.00  0.00     0.031 A 
ATOM     15  C   UNL     1       2.574   3.653   5.192  1.00  0.00     0.074 A 
ATOM     16  C   UNL     1       1.391   1.761   6.329  1.00  0.00     0.049 A 
ATOM     17  N   UNL     1       3.593   4.141   5.820  1.00  0.00    -0.248 NA
ATOM     18  C   UNL     1       2.012   4.567   4.178  1.00  0.00     0.031 C 
ATOM     19  C   UNL     1       0.608   0.524   6.384  1.00  0.00     0.029 A 
ATOM     20  N   UNL     1       1.197   2.293   7.574  1.00  0.00    -0.354 N 
ATOM     21  C   UNL     1       3.645   5.487   5.459  1.00  0.00     0.074 A 
ATOM     22  C   UNL     1       2.800   5.634   4.308  1.00  0.00     0.031 C 
ATOM     23  C   UNL     1      -0.158   0.524   7.499  1.00  0.00     0.029 A 
ATOM     24  C   UNL     1       0.163   1.695   8.296  1.00  0.00     0.049 A 
ATOM     25  H   UNL     1       1.740   3.033   7.930  1.00  0.00     0.167 HD
ATOM     26  C   UNL     1       4.113   6.417   6.336  1.00  0.00     0.037 A 
ATOM     27  C   UNL     1      -0.423   2.164   9.430  1.00  0.00     0.037 A 
ATOM     28  C   UNL     1       4.906   5.788   7.364  1.00  0.00     0.049 A 
ATOM     29  C   UNL     1       0.507   3.143  10.030  1.00  0.00     0.074 A 
ATOM     30  C   UNL     1       6.076   5.061   7.426  1.00  0.00     0.029 A 
ATOM     31  N   UNL     1       4.253   5.579   8.547  1.00  0.00    -0.354 N 
ATOM     32  N   UNL     1       1.650   2.831  10.569  1.00  0.00    -0.248 NA
ATOM     33  C   UNL     1       0.336   4.546   9.690  1.00  0.00     0.031 C 
ATOM     34  C   UNL     1       5.900   4.152   8.512  1.00  0.00     0.029 A 
ATOM     35  C   UNL     1       4.660   4.403   9.102  1.00  0.00     0.049 A 
ATOM     36  H   UNL     1       3.586   6.188   8.940  1.00  0.00     0.167 HD
ATOM     37  C   UNL     1       2.492   3.869  10.209  1.00  0.00     0.074 A 
ATOM     38  C   UNL     1       1.601   4.955   9.807  1.00  0.00     0.031 C 
ATOM     39  C   UNL     1       3.817   3.628   9.983  1.00  0.00     0.037 A 
BRANCH  26  40
ATOM     40  C   UNL     1       3.424   7.753   6.590  1.00  0.00     0.057 A 
ATOM     41  C   UNL     1       2.100   8.063   6.212  1.00  0.00     0.134 A 
ATOM     42  C   UNL     1       3.977   8.622   7.552  1.00  0.00     0.134 A 
ATOM     43  F   UNL     1       1.393   7.320   5.356  1.00  0.00    -0.206 F 
ATOM     44  C   UNL     1       1.371   9.114   6.778  1.00  0.00     0.040 A 
ATOM     45  C   UNL     1       3.238   9.645   8.162  1.00  0.00     0.040 A 
ATOM     46  F   UNL     1       5.224   8.435   8.012  1.00  0.00    -0.206 F 
ATOM     47  C   UNL     1       1.925   9.887   7.783  1.00  0.00     0.006 A 
ENDBRANCH  26  40
BRANCH  27  48
ATOM     48  C   UNL     1      -1.840   2.085   9.879  1.00  0.00     0.057 A 
ATOM     49  C   UNL     1      -2.896   1.915   8.969  1.00  0.00     0.134 A 
ATOM     50  C   UNL     1      -2.213   2.492  11.174  1.00  0.00     0.134 A 
ATOM     51  F   UNL     1      -2.665   1.585   7.691  1.00  0.00    -0.206 F 
ATOM     52  C   UNL     1      -4.230   2.174   9.308  1.00  0.00     0.040 A 
ATOM     53  C   UNL     1      -3.544   2.763  11.524  1.00  0.00     0.040 A 
ATOM     54  F   UNL     1      -1.283   2.716  12.114  1.00  0.00    -0.206 F 
ATOM     55  C   UNL     1      -4.557   2.620  10.582  1.00  0.00     0.006 A 
ENDBRANCH  27  48
BRANCH  39  56
ATOM     56  C   UNL     1       4.400   2.357  10.531  1.00  0.00     0.057 A 
ATOM     57  C   UNL     1       5.473   2.463  11.424  1.00  0.00     0.134 A 
ATOM     58  C   UNL     1       4.036   1.065  10.124  1.00  0.00     0.134 A 
ATOM     59  F   UNL     1       5.902   3.671  11.822  1.00  0.00    -0.206 F 
ATOM     60  C   UNL     1       6.159   1.342  11.890  1.00  0.00     0.040 A 
ATOM     61  C   UNL     1       4.691  -0.069  10.613  1.00  0.00     0.040 A 
ATOM     62  F   UNL     1       3.078   0.866   9.208  1.00  0.00    -0.206 F 
ATOM     63  C   UNL     1       5.763   0.069  11.492  1.00  0.00     0.006 A 
ENDBRANCH  39  56
ENDBRANCH  13  14
ENDBRANCH   6   8
ENDBRANCH   3   4
ENDBRANCH   2   3
ENDBRANCH   1   2
BRANCH   1  64
ATOM     64  C   UNL     1       4.925  -4.031  -0.811  1.00  0.00     0.002 C 
BRANCH  64  65
ATOM     65  C   UNL     1       6.455  -4.066  -0.901  1.00  0.00     0.021 C 
BRANCH  65  66
ATOM     66  C   UNL     1       7.129  -4.907   0.181  1.00  0.00     0.116 C 
BRANCH  66  67
ATOM     67  N   UNL     1       6.813  -6.310   0.012  1.00  0.00    -0.351 N 
ATOM     68  C   UNL     1       7.667  -7.334  -0.328  1.00  0.00     0.271 C 
ATOM     69  H   UNL     1       5.872  -6.562   0.158  1.00  0.00     0.163 HD
ATOM     70  O   UNL     1       7.202  -8.413  -0.669  1.00  0.00    -0.267 OA
BRANCH  68  71
ATOM     71  C   UNL     1       9.108  -7.094  -0.194  1.00  0.00     0.150 A 
ATOM     72  C   UNL     1       9.803  -6.780   1.002  1.00  0.00     0.056 A 
ATOM     73  N   UNL     1       9.952  -7.170  -1.240  1.00  0.00    -0.161 NA
ATOM     74  C   UNL     1      11.130  -6.832   0.665  1.00  0.00     0.118 A 
ATOM     75  N   UNL     1      11.185  -7.132  -0.676  1.00  0.00    -0.222 N 
BRANCH  75  76
ATOM     76  C   UNL     1      12.365  -7.402  -1.418  1.00  0.00     0.158 A 
ATOM     77  C   UNL     1      12.376  -7.143  -2.772  1.00  0.00     0.078 A 
ATOM     78  N   UNL     1      13.429  -7.894  -0.744  1.00  0.00    -0.209 NA
ATOM     79  C   UNL     1      13.574  -7.371  -3.415  1.00  0.00     0.077 A 
ATOM     80  C   UNL     1      14.513  -8.176  -1.482  1.00  0.00     0.165 A 
ATOM     81  N   UNL     1      14.635  -7.929  -2.795  1.00  0.00    -0.228 NA
BRANCH  79  82
ATOM     82  C   UNL     1      13.803  -6.961  -4.803  1.00  0.00     0.003 A 
ATOM     83  C   UNL     1      13.694  -5.616  -5.180  1.00  0.00     0.030 A 
ATOM     84  C   UNL     1      14.178  -7.888  -5.779  1.00  0.00     0.030 A 
ATOM     85  C   UNL     1      13.949  -5.266  -6.496  1.00  0.00     0.111 A 
ATOM     86  C   UNL     1      14.402  -7.442  -7.072  1.00  0.00     0.111 A 
ATOM     87  N   UNL     1      14.291  -6.151  -7.453  1.00  0.00    -0.265 NA
ENDBRANCH  79  82
BRANCH  80  88
ATOM     88  C   UNL     1      15.595  -8.892  -0.824  1.00  0.00     0.055 A 
ATOM     89  C   UNL     1      15.406 -10.200  -0.336  1.00  0.00     0.015 A 
ATOM     90  C   UNL     1      16.852  -8.307  -0.660  1.00  0.00     0.134 A 
ATOM     91  C   UNL     1      16.451 -10.894   0.281  1.00  0.00     0.001 A 
ATOM     92  C   UNL     1      17.896  -8.991  -0.038  1.00  0.00     0.040 A 
ATOM     93  F   UNL     1      17.074  -7.052  -1.080  1.00  0.00    -0.206 F 
ATOM     94  C   UNL     1      17.697 -10.288   0.429  1.00  0.00     0.003 A 
ENDBRANCH  80  88
ENDBRANCH  75  76
ENDBRANCH  68  71
ENDBRANCH  66  67
ENDBRANCH  65  66
ENDBRANCH  64  65
ENDBRANCH   1  64
TORSDOF 16
