REMARK SMILES COc1cccc2cc(/C=C/c3cc(C(=O)NCCCCCCNC(=O)c4ccc(-c5c6nc(c(-c7c(F)cccc7F)c7ccc([nH]7)c(-c7c(F)cccc7F)c7nc(c(-c8c(F)cccc8F)c8ccc5[nH]8)C=C7)C=C6)cc4)ncn3)oc12
REMARK SMILES IDX 20 1 19 2 18 3 17 4 15 5 16 6 14 8 12 9 13 10 83 11 82 12
REMARK SMILES IDX 81 13 11 14 10 15 9 16 3 17 4 18 85 19 5 20 7 21 84 22 6 23
REMARK SMILES IDX 8 24 2 25 1 26 21 27 22 28 23 29 24 30 25 31 26 33 27 34
REMARK SMILES IDX 28 35 80 36 29 37 79 38 30 39 31 40 32 41 73 42 33 43 78 44
REMARK SMILES IDX 72 45 74 46 34 47 77 48 71 49 70 50 35 52 61 53 44 54 60 55
REMARK SMILES IDX 45 56 48 57 59 58 75 59 46 60 47 61 58 63 76 64 49 65 36 66
REMARK SMILES IDX 37 67 42 68 38 69 39 70 41 71 43 72 40 73 62 74 63 75 68 76
REMARK SMILES IDX 64 77 65 78 67 79 69 80 66 81 50 82 51 83 56 84 52 85 53 86
REMARK SMILES IDX 55 87 57 88 54 89
REMARK H PARENT 17 7 24 32 74 51 48 62
REMARK Flexibility Score: inf
ROOT
ATOM      1  C   UNL     1      -7.429  -0.302  -3.414  1.00  0.00     0.002 C 
ENDROOT
BRANCH   1   2
ATOM      2  C   UNL     1      -6.763  -1.585  -2.901  1.00  0.00     0.021 C 
BRANCH   2   3
ATOM      3  C   UNL     1      -7.261  -2.004  -1.515  1.00  0.00     0.116 C 
BRANCH   3   4
ATOM      4  N   UNL     1      -8.509  -2.735  -1.638  1.00  0.00    -0.351 N 
ATOM      5  C   UNL     1      -8.825  -4.075  -1.583  1.00  0.00     0.270 C 
ATOM      6  O   UNL     1     -10.009  -4.371  -1.755  1.00  0.00    -0.268 OA
ATOM      7  H   UNL     1      -9.289  -2.155  -1.792  1.00  0.00     0.163 HD
BRANCH   5   8
ATOM      8  C   UNL     1      -7.822  -5.150  -1.279  1.00  0.00     0.132 A 
ATOM      9  C   UNL     1      -5.666  -6.016  -1.060  1.00  0.00     0.067 A 
ATOM     10  C   UNL     1      -6.487  -5.038  -1.579  1.00  0.00     0.062 A 
ATOM     11  N   UNL     1      -6.129  -7.119  -0.454  1.00  0.00    -0.237 NA
ATOM     12  C   UNL     1      -7.457  -7.185  -0.303  1.00  0.00     0.223 A 
ATOM     13  N   UNL     1      -8.331  -6.238  -0.657  1.00  0.00    -0.231 NA
BRANCH   9  14
ATOM     14  C   UNL     1      -4.208  -5.875  -1.112  1.00  0.00     0.032 C 
ATOM     15  C   UNL     1      -3.604  -4.759  -0.671  1.00  0.00     0.049 C 
BRANCH  15  16
ATOM     16  C   UNL     1      -2.199  -4.553  -0.727  1.00  0.00     0.128 A 
ATOM     17  C   UNL     1       0.650  -2.465  -0.102  1.00  0.00     0.162 A 
ATOM     18  C   UNL     1       1.988  -2.737  -0.421  1.00  0.00     0.050 A 
ATOM     19  C   UNL     1      -0.283  -3.448  -0.447  1.00  0.00     0.176 A 
ATOM     20  C   UNL     1       2.349  -3.912  -1.087  1.00  0.00     0.005 A 
ATOM     21  C   UNL     1       0.045  -4.629  -1.096  1.00  0.00     0.025 A 
ATOM     22  O   UNL     1      -1.626  -3.402  -0.228  1.00  0.00    -0.453 OA
ATOM     23  C   UNL     1       1.387  -4.869  -1.434  1.00  0.00     0.012 A 
ATOM     24  C   UNL     1      -1.177  -5.331  -1.257  1.00  0.00     0.059 A 
BRANCH  17  25
ATOM     25  O   UNL     1       0.264  -1.341   0.583  1.00  0.00    -0.493 OA
ATOM     26  C   UNL     1       0.681  -0.142  -0.067  1.00  0.00     0.278 C 
ENDBRANCH  17  25
ENDBRANCH  15  16
ENDBRANCH   9  14
ENDBRANCH   5   8
ENDBRANCH   3   4
ENDBRANCH   2   3
ENDBRANCH   1   2
BRANCH   1  27
ATOM     27  C   UNL     1      -7.109   0.956  -2.596  1.00  0.00     0.002 C 
BRANCH  27  28
ATOM     28  C   UNL     1      -5.618   1.268  -2.447  1.00  0.00     0.021 C 
BRANCH  28  29
ATOM     29  C   UNL     1      -4.898   1.529  -3.766  1.00  0.00     0.116 C 
BRANCH  29  30
ATOM     30  N   UNL     1      -5.394   2.730  -4.419  1.00  0.00    -0.352 N 
ATOM     31  C   UNL     1      -4.710   3.854  -4.808  1.00  0.00     0.251 C 
ATOM     32  H   UNL     1      -6.360   2.738  -4.610  1.00  0.00     0.163 HD
ATOM     33  O   UNL     1      -5.317   4.869  -5.130  1.00  0.00    -0.269 OA
BRANCH  31  34
ATOM     34  C   UNL     1      -3.232   3.841  -4.827  1.00  0.00     0.039 A 
ATOM     35  C   UNL     1      -2.538   4.941  -4.317  1.00  0.00     0.014 A 
ATOM     36  C   UNL     1      -2.535   2.757  -5.368  1.00  0.00     0.014 A 
ATOM     37  C   UNL     1      -1.142   4.930  -4.301  1.00  0.00     0.010 A 
ATOM     38  C   UNL     1      -1.146   2.717  -5.288  1.00  0.00     0.010 A 
ATOM     39  C   UNL     1      -0.436   3.806  -4.761  1.00  0.00    -0.014 A 
BRANCH  39  40
ATOM     40  C   UNL     1       1.046   3.758  -4.712  1.00  0.00     0.031 A 
ATOM     41  C   UNL     1       1.840   3.694  -5.989  1.00  0.00     0.074 A 
ATOM     42  C   UNL     1       1.673   3.717  -3.521  1.00  0.00     0.049 A 
ATOM     43  N   UNL     1       3.133   3.575  -6.153  1.00  0.00    -0.248 NA
ATOM     44  C   UNL     1       1.077   3.743  -7.246  1.00  0.00     0.031 C 
ATOM     45  C   UNL     1       1.013   3.734  -2.214  1.00  0.00     0.029 A 
ATOM     46  N   UNL     1       3.009   3.647  -3.216  1.00  0.00    -0.354 N 
ATOM     47  C   UNL     1       3.335   3.520  -7.527  1.00  0.00     0.074 A 
ATOM     48  C   UNL     1       2.030   3.566  -8.149  1.00  0.00     0.031 C 
ATOM     49  C   UNL     1       1.947   3.706  -1.249  1.00  0.00     0.029 A 
ATOM     50  C   UNL     1       3.267   3.629  -1.867  1.00  0.00     0.049 A 
ATOM     51  H   UNL     1       3.717   3.613  -3.900  1.00  0.00     0.167 HD
ATOM     52  C   UNL     1       4.504   3.460  -8.208  1.00  0.00     0.037 A 
ATOM     53  C   UNL     1       4.436   3.550  -1.204  1.00  0.00     0.037 A 
ATOM     54  C   UNL     1       5.802   3.441  -7.586  1.00  0.00     0.049 A 
ATOM     55  C   UNL     1       5.718   3.468  -1.984  1.00  0.00     0.074 A 
ATOM     56  C   UNL     1       7.048   3.439  -8.188  1.00  0.00     0.029 A 
ATOM     57  N   UNL     1       6.019   3.422  -6.216  1.00  0.00    -0.354 N 
ATOM     58  N   UNL     1       5.896   3.464  -3.282  1.00  0.00    -0.248 NA
ATOM     59  C   UNL     1       6.960   3.376  -1.205  1.00  0.00     0.031 C 
ATOM     60  C   UNL     1       8.019   3.372  -7.183  1.00  0.00     0.029 A 
ATOM     61  C   UNL     1       7.379   3.384  -5.954  1.00  0.00     0.049 A 
ATOM     62  H   UNL     1       5.312   3.433  -5.531  1.00  0.00     0.167 HD
ATOM     63  C   UNL     1       7.269   3.397  -3.477  1.00  0.00     0.074 A 
ATOM     64  C   UNL     1       7.877   3.372  -2.162  1.00  0.00     0.031 C 
ATOM     65  C   UNL     1       7.965   3.362  -4.639  1.00  0.00     0.037 A 
BRANCH  52  66
ATOM     66  C   UNL     1       4.432   3.413  -9.708  1.00  0.00     0.057 A 
ATOM     67  C   UNL     1       4.029   4.522 -10.464  1.00  0.00     0.134 A 
ATOM     68  C   UNL     1       4.803   2.257 -10.406  1.00  0.00     0.134 A 
ATOM     69  F   UNL     1       3.649   5.657  -9.858  1.00  0.00    -0.206 F 
ATOM     70  C   UNL     1       3.973   4.474 -11.858  1.00  0.00     0.040 A 
ATOM     71  C   UNL     1       4.778   2.206 -11.801  1.00  0.00     0.040 A 
ATOM     72  F   UNL     1       5.205   1.161  -9.745  1.00  0.00    -0.206 F 
ATOM     73  C   UNL     1       4.356   3.315 -12.531  1.00  0.00     0.006 A 
ENDBRANCH  52  66
BRANCH  53  74
ATOM     74  C   UNL     1       4.454   3.549   0.280  1.00  0.00     0.057 A 
ATOM     75  C   UNL     1       4.937   4.644   1.004  1.00  0.00     0.134 A 
ATOM     76  C   UNL     1       4.004   2.443   1.009  1.00  0.00     0.134 A 
ATOM     77  F   UNL     1       5.410   5.721   0.360  1.00  0.00    -0.206 F 
ATOM     78  C   UNL     1       4.981   4.636   2.399  1.00  0.00     0.040 A 
ATOM     79  C   UNL     1       4.014   2.431   2.404  1.00  0.00     0.040 A 
ATOM     80  F   UNL     1       3.546   1.358   0.371  1.00  0.00    -0.206 F 
ATOM     81  C   UNL     1       4.511   3.529   3.103  1.00  0.00     0.006 A 
ENDBRANCH  53  74
BRANCH  65  82
ATOM     82  C   UNL     1       9.462   3.331  -4.539  1.00  0.00     0.057 A 
ATOM     83  C   UNL     1      10.152   2.186  -4.123  1.00  0.00     0.134 A 
ATOM     84  C   UNL     1      10.222   4.452  -4.896  1.00  0.00     0.134 A 
ATOM     85  F   UNL     1       9.482   1.084  -3.753  1.00  0.00    -0.206 F 
ATOM     86  C   UNL     1      11.546   2.165  -4.043  1.00  0.00     0.040 A 
ATOM     87  C   UNL     1      11.616   4.434  -4.847  1.00  0.00     0.040 A 
ATOM     88  F   UNL     1       9.621   5.578  -5.310  1.00  0.00    -0.206 F 
ATOM     89  C   UNL     1      12.281   3.290  -4.413  1.00  0.00     0.006 A 
ENDBRANCH  65  82
ENDBRANCH  39  40
ENDBRANCH  31  34
ENDBRANCH  29  30
ENDBRANCH  28  29
ENDBRANCH  27  28
ENDBRANCH   1  27
TORSDOF 16
