REMARK SMILES COc1cc(-c2cc(C(=O)NCCCCCCNC(=O)c3ccc(-c4c5nc(c(-c6c(F)cccc6F)c6ccc([nH]6)c(-c6c(F)cccc6F)c6nc(c(-c7c(F)cccc7F)c7ccc4[nH]7)C=C6)C=C5)cc3)c3cc(C)ccc3n2)cc(OC)c1OC
REMARK SMILES IDX 14 1 13 2 12 3 11 4 9 5 10 6 8 8 6 9 7 10 82 11 81 12 75 13
REMARK SMILES IDX 80 14 76 15 79 16 77 17 78 18 5 19 3 20 4 21 87 22 84 23
REMARK SMILES IDX 83 24 2 25 1 26 88 27 89 28 85 29 86 30 15 31 16 32 17 33
REMARK SMILES IDX 18 34 19 35 20 37 21 38 22 39 74 40 23 41 73 42 24 43 25 44
REMARK SMILES IDX 26 45 67 46 27 47 72 48 66 49 68 50 28 51 71 52 65 53 64 54
REMARK SMILES IDX 29 56 55 57 38 58 54 59 39 60 42 61 53 62 69 63 40 64 41 65
REMARK SMILES IDX 52 67 70 68 43 69 30 70 31 71 36 72 32 73 33 74 35 75 37 76
REMARK SMILES IDX 34 77 56 78 57 79 62 80 58 81 59 82 61 83 63 84 60 85 44 86
REMARK SMILES IDX 45 87 50 88 46 89 47 90 49 91 51 92 48 93
REMARK H PARENT 11 7 18 36 68 55 42 66
REMARK Flexibility Score: inf
ROOT
ATOM      1  C   UNL     1      -0.923  12.050  -0.930  1.00  0.00     0.002 C 
ENDROOT
BRANCH   1   2
ATOM      2  C   UNL     1      -1.309  10.565  -0.835  1.00  0.00     0.021 C 
BRANCH   2   3
ATOM      3  C   UNL     1      -0.460   9.655  -1.726  1.00  0.00     0.116 C 
BRANCH   3   4
ATOM      4  N   UNL     1       0.920   9.735  -1.300  1.00  0.00    -0.352 N 
ATOM      5  C   UNL     1       1.472   9.044  -0.248  1.00  0.00     0.252 C 
ATOM      6  O   UNL     1       2.103   9.656   0.605  1.00  0.00    -0.269 OA
ATOM      7  H   UNL     1       1.514  10.335  -1.806  1.00  0.00     0.163 HD
BRANCH   5   8
ATOM      8  C   UNL     1       1.545   7.572  -0.384  1.00  0.00     0.051 A 
ATOM      9  C   UNL     1       0.731   5.461  -1.001  1.00  0.00     0.072 A 
ATOM     10  C   UNL     1       0.449   6.725  -0.522  1.00  0.00     0.043 A 
ATOM     11  N   UNL     1       1.863   5.285  -1.732  1.00  0.00    -0.248 NA
ATOM     12  C   UNL     1       2.952   5.879  -1.242  1.00  0.00     0.072 A 
ATOM     13  C   UNL     1       2.823   6.994  -0.421  1.00  0.00     0.013 A 
ATOM     14  C   UNL     1       4.180   5.248  -1.346  1.00  0.00     0.029 A 
ATOM     15  C   UNL     1       3.865   7.312   0.475  1.00  0.00     0.014 A 
ATOM     16  C   UNL     1       5.195   5.530  -0.429  1.00  0.00     0.005 A 
ATOM     17  C   UNL     1       4.985   6.485   0.565  1.00  0.00    -0.050 A 
ATOM     18  C   UNL     1       5.853   6.551   1.787  1.00  0.00     0.044 C 
BRANCH   9  19
ATOM     19  C   UNL     1       0.524   4.219  -0.180  1.00  0.00     0.008 A 
ATOM     20  C   UNL     1       0.634   1.853  -0.615  1.00  0.00     0.165 A 
ATOM     21  C   UNL     1      -0.016   3.080  -0.779  1.00  0.00     0.061 A 
ATOM     22  C   UNL     1       1.879   1.788   0.036  1.00  0.00     0.203 A 
ATOM     23  C   UNL     1       2.261   2.854   0.851  1.00  0.00     0.165 A 
ATOM     24  C   UNL     1       1.476   4.015   0.852  1.00  0.00     0.061 A 
BRANCH  20  25
ATOM     25  O   UNL     1       0.077   0.771  -1.249  1.00  0.00    -0.493 OA
ATOM     26  C   UNL     1      -0.207  -0.273  -0.312  1.00  0.00     0.278 C 
ENDBRANCH  20  25
BRANCH  22  27
ATOM     27  O   UNL     1       2.799   0.898  -0.462  1.00  0.00    -0.490 OA
ATOM     28  C   UNL     1       3.019  -0.268   0.309  1.00  0.00     0.278 C 
ENDBRANCH  22  27
BRANCH  23  29
ATOM     29  O   UNL     1       3.385   2.951   1.626  1.00  0.00    -0.493 OA
ATOM     30  C   UNL     1       4.601   2.485   1.054  1.00  0.00     0.278 C 
ENDBRANCH  23  29
ENDBRANCH   9  19
ENDBRANCH   5   8
ENDBRANCH   3   4
ENDBRANCH   2   3
ENDBRANCH   1   2
BRANCH   1  31
ATOM     31  C   UNL     1      -0.980  12.639  -2.344  1.00  0.00     0.002 C 
BRANCH  31  32
ATOM     32  C   UNL     1      -2.310  12.421  -3.064  1.00  0.00     0.021 C 
BRANCH  32  33
ATOM     33  C   UNL     1      -3.516  12.957  -2.306  1.00  0.00     0.116 C 
BRANCH  33  34
ATOM     34  N   UNL     1      -3.477  14.404  -2.181  1.00  0.00    -0.352 N 
ATOM     35  C   UNL     1      -4.441  15.319  -2.527  1.00  0.00     0.251 C 
ATOM     36  H   UNL     1      -2.651  14.778  -1.798  1.00  0.00     0.163 HD
ATOM     37  O   UNL     1      -4.186  16.514  -2.566  1.00  0.00    -0.269 OA
BRANCH  35  38
ATOM     38  C   UNL     1      -5.793  14.834  -2.871  1.00  0.00     0.039 A 
ATOM     39  C   UNL     1      -6.421  15.331  -4.014  1.00  0.00     0.014 A 
ATOM     40  C   UNL     1      -6.424  13.873  -2.075  1.00  0.00     0.014 A 
ATOM     41  C   UNL     1      -7.667  14.826  -4.386  1.00  0.00     0.010 A 
ATOM     42  C   UNL     1      -7.623  13.312  -2.493  1.00  0.00     0.010 A 
ATOM     43  C   UNL     1      -8.263  13.791  -3.646  1.00  0.00    -0.014 A 
BRANCH  43  44
ATOM     44  C   UNL     1      -9.565  13.207  -4.051  1.00  0.00     0.031 A 
ATOM     45  C   UNL     1     -10.759  13.332  -3.147  1.00  0.00     0.074 A 
ATOM     46  C   UNL     1      -9.655  12.514  -5.202  1.00  0.00     0.049 A 
ATOM     47  N   UNL     1     -11.964  12.846  -3.296  1.00  0.00    -0.248 NA
ATOM     48  C   UNL     1     -10.563  14.079  -1.894  1.00  0.00     0.031 C 
ATOM     49  C   UNL     1      -8.557  12.287  -6.142  1.00  0.00     0.029 A 
ATOM     50  N   UNL     1     -10.722  11.867  -5.773  1.00  0.00    -0.354 N 
ATOM     51  C   UNL     1     -12.664  13.217  -2.155  1.00  0.00     0.074 A 
ATOM     52  C   UNL     1     -11.730  13.909  -1.294  1.00  0.00     0.031 C 
ATOM     53  C   UNL     1      -9.015  11.582  -7.189  1.00  0.00     0.029 A 
ATOM     54  C   UNL     1     -10.424  11.270  -6.973  1.00  0.00     0.049 A 
ATOM     55  H   UNL     1     -11.616  11.834  -5.361  1.00  0.00     0.167 HD
ATOM     56  C   UNL     1     -13.972  13.023  -1.862  1.00  0.00     0.037 A 
ATOM     57  C   UNL     1     -11.200  10.548  -7.803  1.00  0.00     0.037 A 
ATOM     58  C   UNL     1     -14.897  12.341  -2.728  1.00  0.00     0.049 A 
ATOM     59  C   UNL     1     -12.641  10.317  -7.443  1.00  0.00     0.074 A 
ATOM     60  C   UNL     1     -16.253  12.134  -2.550  1.00  0.00     0.029 A 
ATOM     61  N   UNL     1     -14.557  11.744  -3.934  1.00  0.00    -0.354 N 
ATOM     62  N   UNL     1     -13.309  10.731  -6.394  1.00  0.00    -0.248 NA
ATOM     63  C   UNL     1     -13.437   9.521  -8.387  1.00  0.00     0.031 C 
ATOM     64  C   UNL     1     -16.721  11.363  -3.619  1.00  0.00     0.029 A 
ATOM     65  C   UNL     1     -15.671  11.143  -4.496  1.00  0.00     0.049 A 
ATOM     66  H   UNL     1     -13.656  11.748  -4.331  1.00  0.00     0.167 HD
ATOM     67  C   UNL     1     -14.610  10.275  -6.564  1.00  0.00     0.074 A 
ATOM     68  C   UNL     1     -14.637   9.561  -7.825  1.00  0.00     0.031 C 
ATOM     69  C   UNL     1     -15.684  10.436  -5.753  1.00  0.00     0.037 A 
BRANCH  56  70
ATOM     70  C   UNL     1     -14.466  13.549  -0.543  1.00  0.00     0.057 A 
ATOM     71  C   UNL     1     -14.536  14.924  -0.271  1.00  0.00     0.134 A 
ATOM     72  C   UNL     1     -14.876  12.673   0.469  1.00  0.00     0.134 A 
ATOM     73  F   UNL     1     -14.148  15.820  -1.191  1.00  0.00    -0.206 F 
ATOM     74  C   UNL     1     -14.953  15.403   0.972  1.00  0.00     0.040 A 
ATOM     75  C   UNL     1     -15.328  13.142   1.704  1.00  0.00     0.040 A 
ATOM     76  F   UNL     1     -14.843  11.345   0.277  1.00  0.00    -0.206 F 
ATOM     77  C   UNL     1     -15.355  14.511   1.962  1.00  0.00     0.006 A 
ENDBRANCH  56  70
BRANCH  57  78
ATOM     78  C   UNL     1     -10.635  10.023  -9.072  1.00  0.00     0.057 A 
ATOM     79  C   UNL     1     -11.032  10.549 -10.307  1.00  0.00     0.134 A 
ATOM     80  C   UNL     1      -9.680   8.999  -9.084  1.00  0.00     0.134 A 
ATOM     81  F   UNL     1     -11.956  11.520 -10.362  1.00  0.00    -0.206 F 
ATOM     82  C   UNL     1     -10.512  10.066 -11.509  1.00  0.00     0.040 A 
ATOM     83  C   UNL     1      -9.132   8.525 -10.276  1.00  0.00     0.040 A 
ATOM     84  F   UNL     1      -9.251   8.460  -7.933  1.00  0.00    -0.206 F 
ATOM     85  C   UNL     1      -9.553   9.055 -11.494  1.00  0.00     0.006 A 
ENDBRANCH  57  78
BRANCH  69  86
ATOM     86  C   UNL     1     -16.992   9.863  -6.221  1.00  0.00     0.057 A 
ATOM     87  C   UNL     1     -17.229   8.483  -6.258  1.00  0.00     0.134 A 
ATOM     88  C   UNL     1     -18.043  10.710  -6.599  1.00  0.00     0.134 A 
ATOM     89  F   UNL     1     -16.261   7.617  -5.921  1.00  0.00    -0.206 F 
ATOM     90  C   UNL     1     -18.455   7.966  -6.679  1.00  0.00     0.040 A 
ATOM     91  C   UNL     1     -19.283  10.205  -6.991  1.00  0.00     0.040 A 
ATOM     92  F   UNL     1     -17.887  12.042  -6.577  1.00  0.00    -0.206 F 
ATOM     93  C   UNL     1     -19.489   8.828  -7.038  1.00  0.00     0.006 A 
ENDBRANCH  69  86
ENDBRANCH  43  44
ENDBRANCH  35  38
ENDBRANCH  33  34
ENDBRANCH  32  33
ENDBRANCH  31  32
ENDBRANCH   1  31
TORSDOF 17
