REMARK SMILES Cc1nn([C@H]2CCS(=O)(=O)C2)c(C)c1/C=C(\CC(=O)NCCCCCCNC(=O)c1ccc(-c2c3nc(c(-c4c(F)cccc4F)c4ccc([nH]4)c(-c4c(F)cccc4F)c4nc(c(-c5c(F)cccc5F)c5ccc2[nH]5)C=C4)C=C3)cc1)c1nc2ccccc2s1
REMARK SMILES IDX 23 1 22 2 21 3 20 4 18 5 19 6 17 8 16 9 15 10 14 11 1 12
REMARK SMILES IDX 2 13 3 14 4 15 12 16 13 17 5 18 6 19 11 20 7 21 8 22 9 23
REMARK SMILES IDX 10 24 84 25 85 26 92 27 86 28 91 29 87 30 90 31 88 32 89 33
REMARK SMILES IDX 24 34 25 35 26 36 27 37 28 38 29 40 30 41 31 42 83 43 32 44
REMARK SMILES IDX 82 45 33 46 34 47 35 48 76 49 36 50 81 51 75 52 77 53 37 54
REMARK SMILES IDX 80 55 74 56 73 57 38 59 64 60 47 61 63 62 48 63 51 64 62 65
REMARK SMILES IDX 78 66 49 67 50 68 61 70 79 71 52 72 39 73 40 74 45 75 41 76
REMARK SMILES IDX 42 77 44 78 46 79 43 80 65 81 66 82 71 83 67 84 68 85 70 86
REMARK SMILES IDX 72 87 69 88 53 89 54 90 59 91 55 92 56 93 58 94 60 95 57 96
REMARK H PARENT 20 7 27 39 77 58 51 69
REMARK Flexibility Score: inf
ROOT
ATOM      1  C   UNL     1       2.448 -12.359  -0.114  1.00  0.00     0.002 C 
ENDROOT
BRANCH   1   2
ATOM      2  C   UNL     1       3.023 -10.953  -0.307  1.00  0.00     0.021 C 
BRANCH   2   3
ATOM      3  C   UNL     1       2.420  -9.940   0.660  1.00  0.00     0.116 C 
BRANCH   3   4
ATOM      4  N   UNL     1       2.834 -10.247   2.013  1.00  0.00    -0.356 N 
ATOM      5  C   UNL     1       3.877  -9.694   2.700  1.00  0.00     0.224 C 
ATOM      6  O   UNL     1       4.315 -10.271   3.696  1.00  0.00    -0.275 OA
ATOM      7  H   UNL     1       2.307 -10.928   2.489  1.00  0.00     0.163 HD
BRANCH   5   8
ATOM      8  C   UNL     1       4.306  -8.281   2.337  1.00  0.00     0.138 C 
BRANCH   8   9
ATOM      9  C   UNL     1       5.128  -8.044   1.080  1.00  0.00    -0.002 C 
ATOM     10  C   UNL     1       4.772  -7.186   0.087  1.00  0.00     0.019 C 
BRANCH  10  11
ATOM     11  C   UNL     1       3.527  -6.472  -0.034  1.00  0.00     0.019 A 
ATOM     12  C   UNL     1       3.196  -6.417  -2.638  1.00  0.00     0.069 C 
ATOM     13  C   UNL     1       2.779  -6.246  -1.222  1.00  0.00     0.067 A 
ATOM     14  N   UNL     1       1.549  -5.796  -0.942  1.00  0.00    -0.177 NA
ATOM     15  N   UNL     1       1.531  -5.677   0.401  1.00  0.00    -0.265 N 
ATOM     16  C   UNL     1       2.796  -5.805   0.940  1.00  0.00     0.043 A 
ATOM     17  C   UNL     1       3.186  -5.298   2.284  1.00  0.00     0.067 C 
BRANCH  15  18
ATOM     18  C   UNL     1       0.261  -5.381   1.062  1.00  0.00     0.123 C 
ATOM     19  C   UNL     1      -0.965  -6.035   0.374  1.00  0.00     0.044 C 
ATOM     20  C   UNL     1       0.174  -5.880   2.503  1.00  0.00     0.164 C 
ATOM     21  C   UNL     1      -2.175  -5.809   1.275  1.00  0.00     0.139 C 
ATOM     22  S   UNL     1      -1.537  -5.760   2.934  1.00  0.00     0.152 S 
ATOM     23  O   UNL     1      -1.767  -4.446   3.481  1.00  0.00    -0.229 OA
ATOM     24  O   UNL     1      -1.918  -6.976   3.633  1.00  0.00    -0.229 OA
ENDBRANCH  15  18
ENDBRANCH  10  11
BRANCH   9  25
ATOM     25  C   UNL     1       6.344  -8.795   0.937  1.00  0.00     0.121 A 
ATOM     26  N   UNL     1       6.389 -10.108   0.841  1.00  0.00    -0.236 NA
ATOM     27  S   UNL     1       7.880  -8.057   1.214  1.00  0.00    -0.114 S 
ATOM     28  C   UNL     1       7.559 -10.572   1.412  1.00  0.00     0.082 A 
ATOM     29  C   UNL     1       8.498  -9.587   1.720  1.00  0.00     0.055 A 
ATOM     30  C   UNL     1       7.825 -11.907   1.775  1.00  0.00     0.030 A 
ATOM     31  C   UNL     1       9.695  -9.886   2.389  1.00  0.00     0.021 A 
ATOM     32  C   UNL     1       8.967 -12.199   2.527  1.00  0.00     0.002 A 
ATOM     33  C   UNL     1       9.886 -11.199   2.833  1.00  0.00     0.002 A 
ENDBRANCH   9  25
ENDBRANCH   8   9
ENDBRANCH   5   8
ENDBRANCH   3   4
ENDBRANCH   2   3
ENDBRANCH   1   2
BRANCH   1  34
ATOM     34  C   UNL     1       0.919 -12.443  -0.230  1.00  0.00     0.002 C 
BRANCH  34  35
ATOM     35  C   UNL     1       0.322 -11.871  -1.524  1.00  0.00     0.021 C 
BRANCH  35  36
ATOM     36  C   UNL     1       0.761 -12.624  -2.768  1.00  0.00     0.116 C 
BRANCH  36  37
ATOM     37  N   UNL     1       0.292 -14.010  -2.757  1.00  0.00    -0.352 N 
ATOM     38  C   UNL     1       0.566 -15.018  -3.656  1.00  0.00     0.251 C 
ATOM     39  H   UNL     1      -0.297 -14.255  -2.008  1.00  0.00     0.163 HD
ATOM     40  O   UNL     1      -0.157 -16.003  -3.746  1.00  0.00    -0.269 OA
BRANCH  38  41
ATOM     41  C   UNL     1       1.764 -14.897  -4.499  1.00  0.00     0.039 A 
ATOM     42  C   UNL     1       1.758 -15.273  -5.844  1.00  0.00     0.014 A 
ATOM     43  C   UNL     1       2.907 -14.367  -3.908  1.00  0.00     0.014 A 
ATOM     44  C   UNL     1       2.903 -15.047  -6.602  1.00  0.00     0.010 A 
ATOM     45  C   UNL     1       3.954 -13.972  -4.691  1.00  0.00     0.010 A 
ATOM     46  C   UNL     1       3.993 -14.384  -6.015  1.00  0.00    -0.014 A 
BRANCH  46  47
ATOM     47  C   UNL     1       5.159 -13.997  -6.795  1.00  0.00     0.031 A 
ATOM     48  C   UNL     1       4.832 -13.107  -7.939  1.00  0.00     0.074 A 
ATOM     49  C   UNL     1       6.420 -14.222  -6.362  1.00  0.00     0.049 A 
ATOM     50  N   UNL     1       4.872 -13.390  -9.198  1.00  0.00    -0.248 NA
ATOM     51  C   UNL     1       4.209 -11.802  -7.648  1.00  0.00     0.031 C 
ATOM     52  C   UNL     1       6.848 -14.787  -5.072  1.00  0.00     0.029 A 
ATOM     53  N   UNL     1       7.606 -13.897  -6.944  1.00  0.00    -0.354 N 
ATOM     54  C   UNL     1       4.516 -12.217  -9.862  1.00  0.00     0.074 A 
ATOM     55  C   UNL     1       3.911 -11.367  -8.874  1.00  0.00     0.031 C 
ATOM     56  C   UNL     1       8.163 -14.546  -4.878  1.00  0.00     0.029 A 
ATOM     57  C   UNL     1       8.710 -13.986  -6.097  1.00  0.00     0.049 A 
ATOM     58  H   UNL     1       7.679 -13.621  -7.887  1.00  0.00     0.167 HD
ATOM     59  C   UNL     1       5.028 -11.938 -11.092  1.00  0.00     0.037 A 
ATOM     60  C   UNL     1       9.980 -13.610  -6.388  1.00  0.00     0.037 A 
ATOM     61  C   UNL     1       5.636 -13.119 -11.658  1.00  0.00     0.049 A 
ATOM     62  C   UNL     1      10.075 -13.536  -7.862  1.00  0.00     0.074 A 
ATOM     63  C   UNL     1       5.200 -14.348 -12.101  1.00  0.00     0.029 A 
ATOM     64  N   UNL     1       6.983 -13.231 -11.427  1.00  0.00    -0.354 N 
ATOM     65  N   UNL     1       9.984 -14.572  -8.649  1.00  0.00    -0.248 NA
ATOM     66  C   UNL     1       9.860 -12.246  -8.499  1.00  0.00     0.031 C 
ATOM     67  C   UNL     1       6.254 -15.259 -11.786  1.00  0.00     0.029 A 
ATOM     68  C   UNL     1       7.316 -14.541 -11.231  1.00  0.00     0.049 A 
ATOM     69  H   UNL     1       7.617 -12.478 -11.406  1.00  0.00     0.167 HD
ATOM     70  C   UNL     1       9.286 -14.112  -9.753  1.00  0.00     0.074 A 
ATOM     71  C   UNL     1       9.367 -12.656  -9.670  1.00  0.00     0.031 C 
ATOM     72  C   UNL     1       8.461 -14.952 -10.446  1.00  0.00     0.037 A 
BRANCH  59  73
ATOM     73  C   UNL     1       5.433 -10.555 -11.570  1.00  0.00     0.057 A 
ATOM     74  C   UNL     1       5.937 -10.414 -12.879  1.00  0.00     0.134 A 
ATOM     75  C   UNL     1       5.652  -9.441 -10.733  1.00  0.00     0.134 A 
ATOM     76  F   UNL     1       5.805 -11.402 -13.778  1.00  0.00    -0.206 F 
ATOM     77  C   UNL     1       6.675  -9.296 -13.290  1.00  0.00     0.040 A 
ATOM     78  C   UNL     1       6.345  -8.300 -11.149  1.00  0.00     0.040 A 
ATOM     79  F   UNL     1       5.304  -9.424  -9.443  1.00  0.00    -0.206 F 
ATOM     80  C   UNL     1       6.890  -8.237 -12.420  1.00  0.00     0.006 A 
ENDBRANCH  59  73
BRANCH  60  81
ATOM     81  C   UNL     1      11.018 -13.021  -5.511  1.00  0.00     0.057 A 
ATOM     82  C   UNL     1      12.366 -12.995  -5.900  1.00  0.00     0.134 A 
ATOM     83  C   UNL     1      10.672 -12.195  -4.428  1.00  0.00     0.134 A 
ATOM     84  F   UNL     1      12.784 -13.721  -6.947  1.00  0.00    -0.206 F 
ATOM     85  C   UNL     1      13.308 -12.166  -5.276  1.00  0.00     0.040 A 
ATOM     86  C   UNL     1      11.604 -11.364  -3.794  1.00  0.00     0.040 A 
ATOM     87  F   UNL     1       9.399 -12.093  -4.019  1.00  0.00    -0.206 F 
ATOM     88  C   UNL     1      12.924 -11.334  -4.229  1.00  0.00     0.006 A 
ENDBRANCH  60  81
BRANCH  72  89
ATOM     89  C   UNL     1       8.639 -16.431 -10.239  1.00  0.00     0.057 A 
ATOM     90  C   UNL     1       8.345 -17.117  -9.052  1.00  0.00     0.134 A 
ATOM     91  C   UNL     1       8.989 -17.206 -11.349  1.00  0.00     0.134 A 
ATOM     92  F   UNL     1       7.930 -16.468  -7.957  1.00  0.00    -0.206 F 
ATOM     93  C   UNL     1       8.418 -18.512  -8.973  1.00  0.00     0.040 A 
ATOM     94  C   UNL     1       9.032 -18.600 -11.293  1.00  0.00     0.040 A 
ATOM     95  F   UNL     1       9.242 -16.618 -12.529  1.00  0.00    -0.206 F 
ATOM     96  C   UNL     1       8.752 -19.258 -10.100  1.00  0.00     0.006 A 
ENDBRANCH  72  89
ENDBRANCH  46  47
ENDBRANCH  38  41
ENDBRANCH  36  37
ENDBRANCH  35  36
ENDBRANCH  34  35
ENDBRANCH   1  34
TORSDOF 17
