REMARK SMILES Cc1c(CCC(=O)N[C@@H](C)C(=O)NCCCCCCNC(=O)c2ccc(-c3c4nc(c(-c5c(F)cccc5F)c5ccc([nH]5)c(-c5c(F)cccc5F)c5nc(c(-c6c(F)cccc6F)c6ccc3[nH]6)C=C5)C=C4)cc2)c(=O)oc2cc3oc4c(c3cc12)CCCC4
REMARK SMILES IDX 15 1 14 2 13 3 11 4 12 5 9 7 10 8 8 9 6 10 7 11 5 13 4 14
REMARK SMILES IDX 3 15 1 16 2 17 88 18 77 19 80 20 87 21 78 22 79 23 81 24
REMARK SMILES IDX 86 25 82 26 85 27 83 28 84 29 89 30 92 31 90 32 91 33 16 34
REMARK SMILES IDX 17 35 18 36 19 37 20 38 21 39 22 41 23 42 24 43 76 44 25 45
REMARK SMILES IDX 75 46 26 47 27 48 28 49 69 50 29 51 74 52 68 53 70 54 30 55
REMARK SMILES IDX 73 56 67 57 66 58 31 60 57 61 40 62 56 63 41 64 44 65 55 66
REMARK SMILES IDX 71 67 42 68 43 69 54 71 72 72 45 73 32 74 33 75 38 76 34 77
REMARK SMILES IDX 35 78 37 79 39 80 36 81 58 82 59 83 64 84 60 85 61 86 63 87
REMARK SMILES IDX 65 88 62 89 46 90 47 91 52 92 48 93 49 94 51 95 53 96 50 97
REMARK H PARENT 13 6 8 12 20 40 70 59 44 70
REMARK Flexibility Score: inf
ROOT
ATOM      1  C   UNL     1      -2.474  -3.176   2.189  1.00  0.00     0.021 C 
ENDROOT
BRANCH   1   2
ATOM      2  C   UNL     1      -2.343  -2.943   0.686  1.00  0.00     0.116 C 
BRANCH   2   3
ATOM      3  N   UNL     1      -3.241  -1.870   0.270  1.00  0.00    -0.354 N 
ATOM      4  C   UNL     1      -3.120  -0.515   0.159  1.00  0.00     0.242 C 
ATOM      5  O   UNL     1      -4.183   0.119   0.175  1.00  0.00    -0.273 OA
ATOM      6  H   UNL     1      -4.133  -2.197   0.012  1.00  0.00     0.163 HD
BRANCH   4   7
ATOM      7  C   UNL     1      -1.785   0.229  -0.108  1.00  0.00     0.168 C 
ATOM      8  C   UNL     1      -0.544  -0.581   0.148  1.00  0.00     0.041 C 
BRANCH   7   9
ATOM      9  N   UNL     1      -1.610   1.466   0.654  1.00  0.00    -0.345 N 
ATOM     10  C   UNL     1      -0.701   2.438   0.308  1.00  0.00     0.220 C 
ATOM     11  O   UNL     1       0.037   2.905   1.174  1.00  0.00    -0.275 OA
ATOM     12  H   UNL     1      -2.169   1.610   1.452  1.00  0.00     0.164 HD
BRANCH  10  13
ATOM     13  C   UNL     1      -0.688   2.951  -1.126  1.00  0.00     0.105 C 
BRANCH  13  14
ATOM     14  C   UNL     1       0.618   2.740  -1.914  1.00  0.00     0.053 C 
BRANCH  14  15
ATOM     15  C   UNL     1       0.724   1.385  -2.584  1.00  0.00     0.042 A 
ATOM     16  C   UNL     1       2.754   0.569  -1.272  1.00  0.00     0.046 C 
ATOM     17  C   UNL     1       1.588   0.419  -2.220  1.00  0.00    -0.030 A 
ATOM     18  C   UNL     1       1.243  -0.938  -2.657  1.00  0.00     0.022 A 
ATOM     19  C   UNL     1      -0.188   1.164  -3.756  1.00  0.00     0.339 A 
ATOM     20  C   UNL     1       0.482  -1.140  -3.806  1.00  0.00     0.142 A 
ATOM     21  C   UNL     1       1.488  -2.025  -1.821  1.00  0.00     0.024 A 
ATOM     22  O   UNL     1      -0.973   2.032  -4.123  1.00  0.00    -0.246 OA
ATOM     23  O   UNL     1      -0.048  -0.024  -4.471  1.00  0.00    -0.422 OA
ATOM     24  C   UNL     1       0.151  -2.415  -4.300  1.00  0.00     0.095 A 
ATOM     25  C   UNL     1       0.963  -3.270  -2.165  1.00  0.00     0.025 A 
ATOM     26  C   UNL     1       0.478  -3.466  -3.450  1.00  0.00     0.138 A 
ATOM     27  C   UNL     1       0.922  -4.517  -1.519  1.00  0.00     0.001 A 
ATOM     28  O   UNL     1       0.507  -4.813  -3.725  1.00  0.00    -0.461 OA
ATOM     29  C   UNL     1       0.976  -5.391  -2.581  1.00  0.00     0.108 A 
ATOM     30  C   UNL     1       1.485  -4.899  -0.206  1.00  0.00     0.040 C 
ATOM     31  C   UNL     1       2.041  -6.440  -2.612  1.00  0.00     0.076 C 
ATOM     32  C   UNL     1       2.959  -5.253  -0.432  1.00  0.00     0.005 C 
ATOM     33  C   UNL     1       3.264  -5.795  -1.869  1.00  0.00     0.008 C 
ENDBRANCH  14  15
ENDBRANCH  13  14
ENDBRANCH  10  13
ENDBRANCH   7   9
ENDBRANCH   4   7
ENDBRANCH   2   3
ENDBRANCH   1   2
BRANCH   1  34
ATOM     34  C   UNL     1      -3.491  -4.276   2.506  1.00  0.00     0.002 C 
BRANCH  34  35
ATOM     35  C   UNL     1      -3.043  -5.691   2.105  1.00  0.00     0.002 C 
BRANCH  35  36
ATOM     36  C   UNL     1      -1.645  -6.085   2.590  1.00  0.00     0.021 C 
BRANCH  36  37
ATOM     37  C   UNL     1      -1.465  -5.929   4.098  1.00  0.00     0.116 C 
BRANCH  37  38
ATOM     38  N   UNL     1      -2.076  -7.018   4.840  1.00  0.00    -0.352 N 
ATOM     39  C   UNL     1      -1.562  -8.271   5.098  1.00  0.00     0.251 C 
ATOM     40  H   UNL     1      -2.972  -6.839   5.206  1.00  0.00     0.163 HD
ATOM     41  O   UNL     1      -2.242  -9.149   5.592  1.00  0.00    -0.269 OA
BRANCH  39  42
ATOM     42  C   UNL     1      -0.162  -8.533   4.712  1.00  0.00     0.039 A 
ATOM     43  C   UNL     1       0.860  -7.715   5.201  1.00  0.00     0.014 A 
ATOM     44  C   UNL     1       0.109  -9.563   3.810  1.00  0.00     0.014 A 
ATOM     45  C   UNL     1       2.139  -7.834   4.683  1.00  0.00     0.010 A 
ATOM     46  C   UNL     1       1.407  -9.719   3.333  1.00  0.00     0.010 A 
ATOM     47  C   UNL     1       2.414  -8.831   3.742  1.00  0.00    -0.014 A 
BRANCH  47  48
ATOM     48  C   UNL     1       3.814  -8.939   3.305  1.00  0.00     0.031 A 
ATOM     49  C   UNL     1       4.448 -10.220   3.732  1.00  0.00     0.074 A 
ATOM     50  C   UNL     1       4.208  -8.453   2.111  1.00  0.00     0.049 A 
ATOM     51  N   UNL     1       4.282 -11.348   3.108  1.00  0.00    -0.248 NA
ATOM     52  C   UNL     1       5.069 -10.346   5.049  1.00  0.00     0.031 C 
ATOM     53  C   UNL     1       3.405  -8.574   0.892  1.00  0.00     0.029 A 
ATOM     54  N   UNL     1       5.461  -8.077   1.674  1.00  0.00    -0.354 N 
ATOM     55  C   UNL     1       4.701 -12.343   3.969  1.00  0.00     0.074 A 
ATOM     56  C   UNL     1       5.201 -11.676   5.151  1.00  0.00     0.031 C 
ATOM     57  C   UNL     1       4.227  -8.461  -0.165  1.00  0.00     0.029 A 
ATOM     58  C   UNL     1       5.567  -8.102   0.289  1.00  0.00     0.049 A 
ATOM     59  H   UNL     1       6.197  -7.819   2.276  1.00  0.00     0.167 HD
ATOM     60  C   UNL     1       4.590 -13.666   3.687  1.00  0.00     0.037 A 
ATOM     61  C   UNL     1       6.714  -8.314  -0.410  1.00  0.00     0.037 A 
ATOM     62  C   UNL     1       4.037 -13.996   2.412  1.00  0.00     0.049 A 
ATOM     63  C   UNL     1       6.715  -9.820  -0.454  1.00  0.00     0.074 A 
ATOM     64  C   UNL     1       2.800 -14.326   1.903  1.00  0.00     0.029 A 
ATOM     65  N   UNL     1       4.867 -13.943   1.317  1.00  0.00    -0.354 N 
ATOM     66  N   UNL     1       5.979 -10.572  -1.230  1.00  0.00    -0.248 NA
ATOM     67  C   UNL     1       7.267 -10.508   0.716  1.00  0.00     0.031 C 
ATOM     68  C   UNL     1       2.863 -14.011   0.510  1.00  0.00     0.029 A 
ATOM     69  C   UNL     1       4.121 -13.460   0.272  1.00  0.00     0.049 A 
ATOM     70  H   UNL     1       5.816 -14.203   1.289  1.00  0.00     0.167 HD
ATOM     71  C   UNL     1       5.714 -11.720  -0.478  1.00  0.00     0.074 A 
ATOM     72  C   UNL     1       6.585 -11.645   0.678  1.00  0.00     0.031 C 
ATOM     73  C   UNL     1       4.652 -12.544  -0.714  1.00  0.00     0.037 A 
BRANCH  60  74
ATOM     74  C   UNL     1       5.127 -14.725   4.554  1.00  0.00     0.057 A 
ATOM     75  C   UNL     1       6.357 -15.301   4.221  1.00  0.00     0.134 A 
ATOM     76  C   UNL     1       4.394 -15.288   5.598  1.00  0.00     0.134 A 
ATOM     77  F   UNL     1       7.091 -14.790   3.218  1.00  0.00    -0.206 F 
ATOM     78  C   UNL     1       6.833 -16.430   4.881  1.00  0.00     0.040 A 
ATOM     79  C   UNL     1       4.861 -16.418   6.272  1.00  0.00     0.040 A 
ATOM     80  F   UNL     1       3.207 -14.776   5.953  1.00  0.00    -0.206 F 
ATOM     81  C   UNL     1       6.077 -16.999   5.904  1.00  0.00     0.006 A 
ENDBRANCH  60  74
BRANCH  61  82
ATOM     82  C   UNL     1       7.896  -7.474  -0.048  1.00  0.00     0.057 A 
ATOM     83  C   UNL     1       7.732  -6.075   0.033  1.00  0.00     0.134 A 
ATOM     84  C   UNL     1       9.188  -7.947   0.203  1.00  0.00     0.134 A 
ATOM     85  F   UNL     1       6.561  -5.506  -0.301  1.00  0.00    -0.206 F 
ATOM     86  C   UNL     1       8.754  -5.220   0.455  1.00  0.00     0.040 A 
ATOM     87  C   UNL     1      10.216  -7.106   0.651  1.00  0.00     0.040 A 
ATOM     88  F   UNL     1       9.503  -9.237   0.033  1.00  0.00    -0.206 F 
ATOM     89  C   UNL     1       9.995  -5.740   0.796  1.00  0.00     0.006 A 
ENDBRANCH  61  82
BRANCH  73  90
ATOM     90  C   UNL     1       3.869 -12.258  -1.950  1.00  0.00     0.057 A 
ATOM     91  C   UNL     1       4.397 -12.555  -3.209  1.00  0.00     0.134 A 
ATOM     92  C   UNL     1       2.570 -11.732  -1.901  1.00  0.00     0.134 A 
ATOM     93  F   UNL     1       5.633 -13.064  -3.327  1.00  0.00    -0.206 F 
ATOM     94  C   UNL     1       3.652 -12.362  -4.375  1.00  0.00     0.040 A 
ATOM     95  C   UNL     1       1.806 -11.560  -3.057  1.00  0.00     0.040 A 
ATOM     96  F   UNL     1       2.005 -11.392  -0.731  1.00  0.00    -0.206 F 
ATOM     97  C   UNL     1       2.347 -11.878  -4.299  1.00  0.00     0.006 A 
ENDBRANCH  73  90
ENDBRANCH  47  48
ENDBRANCH  39  42
ENDBRANCH  37  38
ENDBRANCH  36  37
ENDBRANCH  35  36
ENDBRANCH  34  35
ENDBRANCH   1  34
TORSDOF 17
