REMARK SMILES C/C(=C/C[N@H+]1C[C@H]2CCC[N@H+]2C[C@@H]1C)C(=O)NCCCCCCNC(=O)c1ccc(-c2c3nc(c(-c4c(F)cccc4F)c4ccc([nH]4)c(-c4c(F)cccc4F)c4nc(c(-c5c(F)cccc5F)c5ccc2[nH]5)C=C4)C=C3)cc1
REMARK SMILES IDX 20 1 19 2 18 3 17 4 15 5 16 6 2 8 1 9 3 10 4 11 5 12 6 13
REMARK SMILES IDX 13 14 7 16 12 17 14 18 8 19 11 20 9 21 10 22 21 24 22 25
REMARK SMILES IDX 23 26 24 27 25 28 26 30 27 31 28 32 80 33 29 34 79 35 30 36
REMARK SMILES IDX 31 37 32 38 73 39 33 40 78 41 72 42 74 43 34 44 77 45 71 46
REMARK SMILES IDX 70 47 35 49 61 50 44 51 60 52 45 53 48 54 59 55 75 56 46 57
REMARK SMILES IDX 47 58 58 60 76 61 49 62 36 63 37 64 42 65 38 66 39 67 41 68
REMARK SMILES IDX 43 69 40 70 62 71 63 72 68 73 64 74 65 75 67 76 69 77 66 78
REMARK SMILES IDX 50 79 51 80 56 81 52 82 53 83 55 84 57 85 54 86
REMARK H PARENT 17 7 5 15 11 23 24 29 74 48 48 59
REMARK Flexibility Score: inf
ROOT
ATOM      1  C   UNL     1      -1.481  -2.986  -5.940  1.00  0.00     0.002 C 
ENDROOT
BRANCH   1   2
ATOM      2  C   UNL     1      -2.054  -2.344  -4.668  1.00  0.00     0.021 C 
BRANCH   2   3
ATOM      3  C   UNL     1      -1.145  -2.298  -3.446  1.00  0.00     0.116 C 
BRANCH   3   4
ATOM      4  N   UNL     1      -0.048  -1.356  -3.449  1.00  0.00    -0.352 N 
ATOM      5  C   UNL     1       0.737  -0.846  -2.450  1.00  0.00     0.246 C 
ATOM      6  O   UNL     1       1.638  -0.080  -2.811  1.00  0.00    -0.270 OA
ATOM      7  H   UNL     1       0.180  -1.016  -4.344  1.00  0.00     0.163 HD
BRANCH   5   8
ATOM      8  C   UNL     1       0.545  -1.067  -0.952  1.00  0.00     0.015 C 
ATOM      9  C   UNL     1       0.962   0.154  -0.160  1.00  0.00     0.050 C 
ATOM     10  C   UNL     1       0.183  -2.187  -0.277  1.00  0.00     0.042 C 
BRANCH  10  11
ATOM     11  C   UNL     1      -0.173  -3.472  -0.925  1.00  0.00     0.292 C 
BRANCH  11  12
ATOM     12  N   UNL     1       0.214  -4.781  -0.410  1.00  0.00    -0.320 N 
ATOM     13  C   UNL     1      -0.717  -5.305   0.607  1.00  0.00     0.328 C 
ATOM     14  C   UNL     1       0.234  -5.707  -1.593  1.00  0.00     0.237 C 
ATOM     15  H   UNL     1       1.120  -4.704   0.053  1.00  0.00     0.348 HD
ATOM     16  C   UNL     1      -0.303  -6.740   1.033  1.00  0.00     0.240 C 
ATOM     17  C   UNL     1      -0.298  -7.145  -1.379  1.00  0.00     0.328 C 
ATOM     18  C   UNL     1       1.621  -5.664  -2.248  1.00  0.00     0.081 C 
ATOM     19  C   UNL     1      -1.334  -7.433   1.922  1.00  0.00     0.077 C 
ATOM     20  N   UNL     1      -0.022  -7.703  -0.061  1.00  0.00    -0.323 N 
ATOM     21  C   UNL     1      -1.075  -8.906   1.663  1.00  0.00     0.068 C 
ATOM     22  C   UNL     1      -0.797  -8.926   0.175  1.00  0.00     0.263 C 
ATOM     23  H   UNL     1       0.975  -7.920  -0.055  1.00  0.00     0.348 HD
ENDBRANCH  11  12
ENDBRANCH  10  11
ENDBRANCH   5   8
ENDBRANCH   3   4
ENDBRANCH   2   3
ENDBRANCH   1   2
BRANCH   1  24
ATOM     24  C   UNL     1      -0.806  -4.362  -5.833  1.00  0.00     0.002 C 
BRANCH  24  25
ATOM     25  C   UNL     1      -1.582  -5.490  -5.150  1.00  0.00     0.021 C 
BRANCH  25  26
ATOM     26  C   UNL     1      -2.976  -5.793  -5.682  1.00  0.00     0.116 C 
BRANCH  26  27
ATOM     27  N   UNL     1      -2.997  -6.143  -7.089  1.00  0.00    -0.352 N 
ATOM     28  C   UNL     1      -3.632  -7.176  -7.729  1.00  0.00     0.251 C 
ATOM     29  H   UNL     1      -2.475  -5.548  -7.674  1.00  0.00     0.163 HD
ATOM     30  O   UNL     1      -3.426  -7.359  -8.932  1.00  0.00    -0.269 OA
BRANCH  28  31
ATOM     31  C   UNL     1      -4.545  -8.089  -7.003  1.00  0.00     0.039 A 
ATOM     32  C   UNL     1      -4.536  -9.449  -7.333  1.00  0.00     0.014 A 
ATOM     33  C   UNL     1      -5.442  -7.620  -6.040  1.00  0.00     0.014 A 
ATOM     34  C   UNL     1      -5.397 -10.335  -6.681  1.00  0.00     0.010 A 
ATOM     35  C   UNL     1      -6.238  -8.517  -5.329  1.00  0.00     0.010 A 
ATOM     36  C   UNL     1      -6.244  -9.880  -5.659  1.00  0.00    -0.014 A 
BRANCH  36  37
ATOM     37  C   UNL     1      -7.184 -10.803  -4.969  1.00  0.00     0.031 A 
ATOM     38  C   UNL     1      -8.671 -10.592  -5.093  1.00  0.00     0.074 A 
ATOM     39  C   UNL     1      -6.707 -11.806  -4.207  1.00  0.00     0.049 A 
ATOM     40  N   UNL     1      -9.652 -11.252  -4.532  1.00  0.00    -0.248 NA
ATOM     41  C   UNL     1      -9.112  -9.471  -5.940  1.00  0.00     0.031 C 
ATOM     42  C   UNL     1      -5.291 -12.098  -3.978  1.00  0.00     0.029 A 
ATOM     43  N   UNL     1      -7.365 -12.768  -3.480  1.00  0.00    -0.354 N 
ATOM     44  C   UNL     1     -10.819 -10.621  -4.949  1.00  0.00     0.074 A 
ATOM     45  C   UNL     1     -10.423  -9.486  -5.752  1.00  0.00     0.031 C 
ATOM     46  C   UNL     1      -5.187 -13.182  -3.192  1.00  0.00     0.029 A 
ATOM     47  C   UNL     1      -6.525 -13.639  -2.830  1.00  0.00     0.049 A 
ATOM     48  H   UNL     1      -8.347 -12.827  -3.429  1.00  0.00     0.167 HD
ATOM     49  C   UNL     1     -12.106 -10.972  -4.712  1.00  0.00     0.037 A 
ATOM     50  C   UNL     1      -6.804 -14.687  -2.031  1.00  0.00     0.037 A 
ATOM     51  C   UNL     1     -12.499 -12.116  -3.931  1.00  0.00     0.049 A 
ATOM     52  C   UNL     1      -8.242 -15.044  -1.766  1.00  0.00     0.074 A 
ATOM     53  C   UNL     1     -13.774 -12.579  -3.660  1.00  0.00     0.029 A 
ATOM     54  N   UNL     1     -11.617 -12.979  -3.299  1.00  0.00    -0.354 N 
ATOM     55  N   UNL     1      -9.334 -14.470  -2.209  1.00  0.00    -0.248 NA
ATOM     56  C   UNL     1      -8.486 -16.205  -0.897  1.00  0.00     0.031 C 
ATOM     57  C   UNL     1     -13.665 -13.695  -2.825  1.00  0.00     0.029 A 
ATOM     58  C   UNL     1     -12.321 -13.963  -2.625  1.00  0.00     0.049 A 
ATOM     59  H   UNL     1     -10.635 -12.903  -3.324  1.00  0.00     0.167 HD
ATOM     60  C   UNL     1     -10.391 -15.222  -1.710  1.00  0.00     0.074 A 
ATOM     61  C   UNL     1      -9.807 -16.299  -0.939  1.00  0.00     0.031 C 
ATOM     62  C   UNL     1     -11.724 -15.041  -1.878  1.00  0.00     0.037 A 
BRANCH  49  63
ATOM     63  C   UNL     1     -13.181 -10.110  -5.311  1.00  0.00     0.057 A 
ATOM     64  C   UNL     1     -13.405 -10.062  -6.695  1.00  0.00     0.134 A 
ATOM     65  C   UNL     1     -14.023  -9.342  -4.497  1.00  0.00     0.134 A 
ATOM     66  F   UNL     1     -12.627 -10.764  -7.534  1.00  0.00    -0.206 F 
ATOM     67  C   UNL     1     -14.404  -9.259  -7.248  1.00  0.00     0.040 A 
ATOM     68  C   UNL     1     -15.047  -8.560  -5.036  1.00  0.00     0.040 A 
ATOM     69  F   UNL     1     -13.872  -9.345  -3.164  1.00  0.00    -0.206 F 
ATOM     70  C   UNL     1     -15.234  -8.511  -6.416  1.00  0.00     0.006 A 
ENDBRANCH  49  63
BRANCH  50  71
ATOM     71  C   UNL     1      -5.705 -15.497  -1.444  1.00  0.00     0.057 A 
ATOM     72  C   UNL     1      -5.494 -16.824  -1.839  1.00  0.00     0.134 A 
ATOM     73  C   UNL     1      -4.857 -14.979  -0.458  1.00  0.00     0.134 A 
ATOM     74  F   UNL     1      -6.284 -17.385  -2.767  1.00  0.00    -0.206 F 
ATOM     75  C   UNL     1      -4.503 -17.615  -1.256  1.00  0.00     0.040 A 
ATOM     76  C   UNL     1      -3.842 -15.748   0.114  1.00  0.00     0.040 A 
ATOM     77  F   UNL     1      -4.998 -13.711  -0.041  1.00  0.00    -0.206 F 
ATOM     78  C   UNL     1      -3.671 -17.075  -0.277  1.00  0.00     0.006 A 
ENDBRANCH  50  71
BRANCH  62  79
ATOM     79  C   UNL     1     -12.641 -16.062  -1.269  1.00  0.00     0.057 A 
ATOM     80  C   UNL     1     -12.829 -16.167   0.114  1.00  0.00     0.134 A 
ATOM     81  C   UNL     1     -13.373 -16.932  -2.089  1.00  0.00     0.134 A 
ATOM     82  F   UNL     1     -12.151 -15.371   0.955  1.00  0.00    -0.206 F 
ATOM     83  C   UNL     1     -13.690 -17.119   0.663  1.00  0.00     0.040 A 
ATOM     84  C   UNL     1     -14.260 -17.867  -1.554  1.00  0.00     0.040 A 
ATOM     85  F   UNL     1     -13.249 -16.878  -3.424  1.00  0.00    -0.206 F 
ATOM     86  C   UNL     1     -14.414 -17.968  -0.173  1.00  0.00     0.006 A 
ENDBRANCH  62  79
ENDBRANCH  36  37
ENDBRANCH  28  31
ENDBRANCH  26  27
ENDBRANCH  25  26
ENDBRANCH  24  25
ENDBRANCH   1  24
TORSDOF 15
