REMARK SMILES CC[N@@H+](CCC(C)(C)O)C[C@@H](C)C(=O)NCCCCCCNC(=O)c1ccc(-c2c3nc(c(-c4c(F)cccc4F)c4ccc([nH]4)c(-c4c(F)cccc4F)c4nc(c(-c5c(F)cccc5F)c5ccc2[nH]5)C=C4)C=C3)cc1
REMARK SMILES IDX 16 1 15 2 13 3 14 4 11 6 12 7 10 8 3 9 2 11 1 12 4 13 5 14
REMARK SMILES IDX 6 15 7 16 8 17 9 18 17 20 18 21 19 22 20 23 21 24 22 25
REMARK SMILES IDX 23 26 24 28 25 29 26 30 78 31 27 32 77 33 28 34 29 35 30 36
REMARK SMILES IDX 71 37 31 38 76 39 70 40 72 41 32 42 75 43 69 44 68 45 33 47
REMARK SMILES IDX 59 48 42 49 58 50 43 51 46 52 57 53 73 54 44 55 45 56 56 58
REMARK SMILES IDX 74 59 47 60 34 61 35 62 40 63 36 64 37 65 39 66 41 67 38 68
REMARK SMILES IDX 60 69 61 70 66 71 62 72 63 73 65 74 67 75 64 76 48 77 49 78
REMARK SMILES IDX 54 79 50 80 51 81 53 82 55 83 52 84
REMARK H PARENT 15 5 3 10 9 19 22 27 72 46 46 57
REMARK Flexibility Score: inf
ROOT
ATOM      1  C   UNL     1       4.824   0.254  -0.166  1.00  0.00     0.116 C 
ENDROOT
BRANCH   1   2
ATOM      2  N   UNL     1       5.288  -1.113  -0.079  1.00  0.00    -0.356 N 
ATOM      3  C   UNL     1       4.575  -2.266  -0.037  1.00  0.00     0.228 C 
ATOM      4  O   UNL     1       5.189  -3.334   0.049  1.00  0.00    -0.275 OA
ATOM      5  H   UNL     1       6.265  -1.222  -0.047  1.00  0.00     0.163 HD
BRANCH   3   6
ATOM      6  C   UNL     1       3.057  -2.248  -0.107  1.00  0.00     0.130 C 
ATOM      7  C   UNL     1       2.596  -1.767  -1.480  1.00  0.00     0.024 C 
BRANCH   6   8
ATOM      8  C   UNL     1       2.472  -1.600   1.174  1.00  0.00     0.275 C 
BRANCH   8   9
ATOM      9  N   UNL     1       1.073  -1.818   1.539  1.00  0.00    -0.334 N 
ATOM     10  H   UNL     1       0.962  -1.114   2.268  1.00  0.00     0.348 HD
BRANCH   9  11
ATOM     11  C   UNL     1       0.049  -1.370   0.604  1.00  0.00     0.258 C 
ATOM     12  C   UNL     1       0.200   0.097   0.188  1.00  0.00     0.071 C 
ENDBRANCH   9  11
BRANCH   9  13
ATOM     13  C   UNL     1       0.792  -3.083   2.238  1.00  0.00     0.265 C 
BRANCH  13  14
ATOM     14  C   UNL     1       1.085  -4.414   1.519  1.00  0.00     0.096 C 
BRANCH  14  15
ATOM     15  C   UNL     1       2.404  -5.148   1.901  1.00  0.00     0.064 C 
ATOM     16  C   UNL     1       2.262  -5.880   3.237  1.00  0.00     0.042 C 
ATOM     17  C   UNL     1       2.777  -6.152   0.801  1.00  0.00     0.042 C 
BRANCH  15  18
ATOM     18  O   UNL     1       3.482  -4.238   2.097  1.00  0.00    -0.390 OA
ATOM     19  H   UNL     1       3.248  -3.604   2.792  1.00  0.00     0.211 HD
ENDBRANCH  15  18
ENDBRANCH  14  15
ENDBRANCH  13  14
ENDBRANCH   9  13
ENDBRANCH   8   9
ENDBRANCH   6   8
ENDBRANCH   3   6
ENDBRANCH   1   2
BRANCH   1  20
ATOM     20  C   UNL     1       5.352   1.090   0.993  1.00  0.00     0.021 C 
BRANCH  20  21
ATOM     21  C   UNL     1       6.868   1.294   0.957  1.00  0.00     0.002 C 
BRANCH  21  22
ATOM     22  C   UNL     1       7.420   1.737  -0.403  1.00  0.00     0.002 C 
BRANCH  22  23
ATOM     23  C   UNL     1       6.713   2.945  -1.022  1.00  0.00     0.021 C 
BRANCH  23  24
ATOM     24  C   UNL     1       6.676   4.168  -0.122  1.00  0.00     0.116 C 
BRANCH  24  25
ATOM     25  N   UNL     1       8.012   4.656   0.167  1.00  0.00    -0.352 N 
ATOM     26  C   UNL     1       8.519   5.911  -0.039  1.00  0.00     0.251 C 
ATOM     27  H   UNL     1       8.633   4.001   0.561  1.00  0.00     0.163 HD
ATOM     28  O   UNL     1       9.726   6.121   0.028  1.00  0.00    -0.269 OA
BRANCH  26  29
ATOM     29  C   UNL     1       7.587   7.008  -0.360  1.00  0.00     0.039 A 
ATOM     30  C   UNL     1       7.881   7.856  -1.428  1.00  0.00     0.014 A 
ATOM     31  C   UNL     1       6.412   7.173   0.381  1.00  0.00     0.014 A 
ATOM     32  C   UNL     1       6.970   8.850  -1.782  1.00  0.00     0.010 A 
ATOM     33  C   UNL     1       5.470   8.110  -0.024  1.00  0.00     0.010 A 
ATOM     34  C   UNL     1       5.748   8.966  -1.099  1.00  0.00    -0.014 A 
BRANCH  34  35
ATOM     35  C   UNL     1       4.752   9.992  -1.488  1.00  0.00     0.031 A 
ATOM     36  C   UNL     1       4.392  11.090  -0.529  1.00  0.00     0.074 A 
ATOM     37  C   UNL     1       4.133   9.898  -2.679  1.00  0.00     0.049 A 
ATOM     38  N   UNL     1       3.519  12.055  -0.667  1.00  0.00    -0.248 NA
ATOM     39  C   UNL     1       5.081  11.085   0.771  1.00  0.00     0.031 C 
ATOM     40  C   UNL     1       4.357   8.842  -3.667  1.00  0.00     0.029 A 
ATOM     41  N   UNL     1       3.182  10.700  -3.256  1.00  0.00    -0.354 N 
ATOM     42  C   UNL     1       3.549  12.763   0.527  1.00  0.00     0.074 A 
ATOM     43  C   UNL     1       4.475  12.078   1.402  1.00  0.00     0.031 C 
ATOM     44  C   UNL     1       3.582   9.072  -4.738  1.00  0.00     0.029 A 
ATOM     45  C   UNL     1       2.784  10.271  -4.498  1.00  0.00     0.049 A 
ATOM     46  H   UNL     1       2.820  11.505  -2.822  1.00  0.00     0.167 HD
ATOM     47  C   UNL     1       2.886  13.897   0.855  1.00  0.00     0.037 A 
ATOM     48  C   UNL     1       1.873  10.785  -5.346  1.00  0.00     0.037 A 
ATOM     49  C   UNL     1       1.976  14.579  -0.027  1.00  0.00     0.049 A 
ATOM     50  C   UNL     1       1.146  12.042  -4.963  1.00  0.00     0.074 A 
ATOM     51  C   UNL     1       1.300  15.768   0.181  1.00  0.00     0.029 A 
ATOM     52  N   UNL     1       1.608  14.124  -1.285  1.00  0.00    -0.354 N 
ATOM     53  N   UNL     1       1.242  12.749  -3.862  1.00  0.00    -0.248 NA
ATOM     54  C   UNL     1       0.191  12.579  -5.941  1.00  0.00     0.031 C 
ATOM     55  C   UNL     1       0.485  16.006  -0.931  1.00  0.00     0.029 A 
ATOM     56  C   UNL     1       0.692  14.993  -1.854  1.00  0.00     0.049 A 
ATOM     57  H   UNL     1       1.948  13.304  -1.711  1.00  0.00     0.167 HD
ATOM     58  C   UNL     1       0.375  13.822  -4.021  1.00  0.00     0.074 A 
ATOM     59  C   UNL     1      -0.224  13.681  -5.333  1.00  0.00     0.031 C 
ATOM     60  C   UNL     1       0.099  14.831  -3.159  1.00  0.00     0.037 A 
BRANCH  47  61
ATOM     61  C   UNL     1       3.126  14.459   2.227  1.00  0.00     0.057 A 
ATOM     62  C   UNL     1       4.363  15.007   2.597  1.00  0.00     0.134 A 
ATOM     63  C   UNL     1       2.112  14.450   3.192  1.00  0.00     0.134 A 
ATOM     64  F   UNL     1       5.383  15.034   1.726  1.00  0.00    -0.206 F 
ATOM     65  C   UNL     1       4.593  15.488   3.888  1.00  0.00     0.040 A 
ATOM     66  C   UNL     1       2.321  14.957   4.476  1.00  0.00     0.040 A 
ATOM     67  F   UNL     1       0.902  13.947   2.906  1.00  0.00    -0.206 F 
ATOM     68  C   UNL     1       3.568  15.468   4.830  1.00  0.00     0.006 A 
ENDBRANCH  47  61
BRANCH  48  69
ATOM     69  C   UNL     1       1.625  10.117  -6.647  1.00  0.00     0.057 A 
ATOM     70  C   UNL     1       2.060  10.687  -7.848  1.00  0.00     0.134 A 
ATOM     71  C   UNL     1       0.975   8.878  -6.718  1.00  0.00     0.134 A 
ATOM     72  F   UNL     1       2.676  11.879  -7.844  1.00  0.00    -0.206 F 
ATOM     73  C   UNL     1       1.851  10.056  -9.075  1.00  0.00     0.040 A 
ATOM     74  C   UNL     1       0.779   8.225  -7.936  1.00  0.00     0.040 A 
ATOM     75  F   UNL     1       0.544   8.274  -5.601  1.00  0.00    -0.206 F 
ATOM     76  C   UNL     1       1.215   8.816  -9.120  1.00  0.00     0.006 A 
ENDBRANCH  48  69
BRANCH  60  77
ATOM     77  C   UNL     1      -0.885  15.869  -3.614  1.00  0.00     0.057 A 
ATOM     78  C   UNL     1      -2.255  15.594  -3.712  1.00  0.00     0.134 A 
ATOM     79  C   UNL     1      -0.462  17.168  -3.921  1.00  0.00     0.134 A 
ATOM     80  F   UNL     1      -2.724  14.366  -3.446  1.00  0.00    -0.206 F 
ATOM     81  C   UNL     1      -3.166  16.570  -4.122  1.00  0.00     0.040 A 
ATOM     82  C   UNL     1      -1.366  18.159  -4.304  1.00  0.00     0.040 A 
ATOM     83  F   UNL     1       0.836  17.500  -3.838  1.00  0.00    -0.206 F 
ATOM     84  C   UNL     1      -2.723  17.858  -4.412  1.00  0.00     0.006 A 
ENDBRANCH  60  77
ENDBRANCH  34  35
ENDBRANCH  26  29
ENDBRANCH  24  25
ENDBRANCH  23  24
ENDBRANCH  22  23
ENDBRANCH  21  22
ENDBRANCH  20  21
ENDBRANCH   1  20
TORSDOF 20
