REMARK SMILES C[C@H]1CCc2sc3ncn4nc(/C=C\C(=O)NCCCCCCNC(=O)c5ccc(-c6c7nc(c(-c8c(F)cccc8F)c8ccc([nH]8)c(-c8c(F)cccc8F)c8nc(c(-c9c(F)cccc9F)c9ccc6[nH]9)C=C8)C=C7)cc5)nc4c3c2C1
REMARK SMILES IDX 21 1 20 2 19 3 18 4 17 5 15 6 16 7 14 9 13 10 12 11 1 12
REMARK SMILES IDX 2 13 3 14 85 15 4 16 84 17 5 18 83 19 6 20 7 21 82 22 8 23
REMARK SMILES IDX 10 24 81 25 9 26 11 27 22 28 23 29 24 30 25 31 26 33 27 34
REMARK SMILES IDX 28 35 80 36 29 37 79 38 30 39 31 40 32 41 73 42 33 43 78 44
REMARK SMILES IDX 72 45 74 46 34 47 77 48 71 49 70 50 35 52 61 53 44 54 60 55
REMARK SMILES IDX 45 56 48 57 59 58 75 59 46 60 47 61 58 63 76 64 49 65 36 66
REMARK SMILES IDX 37 67 42 68 38 69 39 70 41 71 43 72 40 73 62 74 63 75 68 76
REMARK SMILES IDX 64 77 65 78 67 79 69 80 66 81 50 82 51 83 56 84 52 85 53 86
REMARK SMILES IDX 55 87 57 88 54 89
REMARK H PARENT 17 8 24 32 74 51 48 62
REMARK Flexibility Score: inf
ROOT
ATOM      1  C   UNL     1       2.189  -1.325   4.023  1.00  0.00     0.002 C 
ENDROOT
BRANCH   1   2
ATOM      2  C   UNL     1       3.412  -2.092   3.512  1.00  0.00     0.002 C 
BRANCH   2   3
ATOM      3  C   UNL     1       3.297  -3.616   3.370  1.00  0.00     0.021 C 
BRANCH   3   4
ATOM      4  C   UNL     1       1.994  -4.161   2.802  1.00  0.00     0.116 C 
BRANCH   4   5
ATOM      5  N   UNL     1       1.921  -4.301   1.365  1.00  0.00    -0.353 N 
ATOM      6  C   UNL     1       1.254  -5.256   0.649  1.00  0.00     0.244 C 
ATOM      7  O   UNL     1       1.194  -5.176  -0.577  1.00  0.00    -0.270 OA
ATOM      8  H   UNL     1       2.409  -3.627   0.839  1.00  0.00     0.163 HD
BRANCH   6   9
ATOM      9  C   UNL     1       0.757  -6.492   1.307  1.00  0.00     0.075 C 
ATOM     10  C   UNL     1      -0.105  -6.644   2.326  1.00  0.00     0.057 C 
BRANCH  10  11
ATOM     11  C   UNL     1      -0.785  -5.648   3.085  1.00  0.00     0.175 A 
ATOM     12  C   UNL     1      -1.653   0.896   0.478  1.00  0.00     0.008 C 
ATOM     13  C   UNL     1      -0.403   0.247   1.074  1.00  0.00    -0.009 C 
ATOM     14  C   UNL     1       0.200   1.158   2.164  1.00  0.00     0.009 C 
ATOM     15  C   UNL     1      -0.719  -1.175   1.604  1.00  0.00     0.041 C 
ATOM     16  C   UNL     1      -0.719   1.312   3.388  1.00  0.00     0.047 C 
ATOM     17  C   UNL     1      -1.297  -1.160   2.993  1.00  0.00    -0.020 A 
ATOM     18  C   UNL     1      -1.311  -0.013   3.773  1.00  0.00     0.011 A 
ATOM     19  C   UNL     1      -1.660  -2.277   3.797  1.00  0.00     0.060 A 
ATOM     20  S   UNL     1      -2.044  -0.257   5.300  1.00  0.00    -0.120 S 
ATOM     21  C   UNL     1      -2.005  -1.958   5.106  1.00  0.00     0.129 A 
ATOM     22  C   UNL     1      -1.471  -3.726   3.575  1.00  0.00     0.168 A 
ATOM     23  N   UNL     1      -2.127  -2.811   6.181  1.00  0.00    -0.225 NA
ATOM     24  N   UNL     1      -1.530  -4.533   4.673  1.00  0.00    -0.201 N 
ATOM     25  N   UNL     1      -1.037  -4.406   2.542  1.00  0.00    -0.207 NA
ATOM     26  C   UNL     1      -1.837  -4.068   5.951  1.00  0.00     0.227 A 
ATOM     27  N   UNL     1      -1.099  -5.777   4.388  1.00  0.00    -0.145 NA
ENDBRANCH  10  11
ENDBRANCH   6   9
ENDBRANCH   4   5
ENDBRANCH   3   4
ENDBRANCH   2   3
ENDBRANCH   1   2
BRANCH   1  28
ATOM     28  C   UNL     1       1.527  -1.837   5.297  1.00  0.00     0.021 C 
BRANCH  28  29
ATOM     29  C   UNL     1       1.781  -0.963   6.502  1.00  0.00     0.116 C 
BRANCH  29  30
ATOM     30  N   UNL     1       1.200   0.395   6.513  1.00  0.00    -0.352 N 
ATOM     31  C   UNL     1       1.147   1.325   7.573  1.00  0.00     0.251 C 
ATOM     32  H   UNL     1       0.795   0.691   5.665  1.00  0.00     0.163 HD
ATOM     33  O   UNL     1       0.462   2.322   7.536  1.00  0.00    -0.269 OA
BRANCH  31  34
ATOM     34  C   UNL     1       2.032   1.060   8.727  1.00  0.00     0.039 A 
ATOM     35  C   UNL     1       1.796   1.157  10.103  1.00  0.00     0.014 A 
ATOM     36  C   UNL     1       3.229   0.542   8.361  1.00  0.00     0.014 A 
ATOM     37  C   UNL     1       2.722   0.520  10.964  1.00  0.00     0.010 A 
ATOM     38  C   UNL     1       3.478  -0.582   9.047  1.00  0.00     0.010 A 
ATOM     39  C   UNL     1       3.646  -0.337  10.369  1.00  0.00    -0.014 A 
BRANCH  39  40
ATOM     40  C   UNL     1       4.620  -1.269  10.884  1.00  0.00     0.031 A 
ATOM     41  C   UNL     1       4.082  -2.259  11.836  1.00  0.00     0.074 A 
ATOM     42  C   UNL     1       5.779  -1.497  10.212  1.00  0.00     0.049 A 
ATOM     43  N   UNL     1       4.199  -2.218  13.117  1.00  0.00    -0.248 NA
ATOM     44  C   UNL     1       3.161  -3.303  11.354  1.00  0.00     0.031 C 
ATOM     45  C   UNL     1       6.297  -0.920   8.955  1.00  0.00     0.029 A 
ATOM     46  N   UNL     1       6.747  -2.391  10.527  1.00  0.00    -0.354 N 
ATOM     47  C   UNL     1       3.575  -3.361  13.587  1.00  0.00     0.074 A 
ATOM     48  C   UNL     1       2.754  -3.842  12.507  1.00  0.00     0.031 C 
ATOM     49  C   UNL     1       7.381  -1.609   8.532  1.00  0.00     0.029 A 
ATOM     50  C   UNL     1       7.749  -2.540   9.575  1.00  0.00     0.049 A 
ATOM     51  H   UNL     1       6.741  -2.899  11.371  1.00  0.00     0.167 HD
ATOM     52  C   UNL     1       3.986  -3.953  14.742  1.00  0.00     0.037 A 
ATOM     53  C   UNL     1       8.814  -3.370   9.680  1.00  0.00     0.037 A 
ATOM     54  C   UNL     1       4.946  -3.118  15.433  1.00  0.00     0.049 A 
ATOM     55  C   UNL     1       8.957  -3.685  11.132  1.00  0.00     0.074 A 
ATOM     56  C   UNL     1       4.890  -1.831  15.940  1.00  0.00     0.029 A 
ATOM     57  N   UNL     1       6.285  -3.371  15.222  1.00  0.00    -0.354 N 
ATOM     58  N   UNL     1       9.264  -2.788  12.034  1.00  0.00    -0.248 NA
ATOM     59  C   UNL     1       8.228  -4.843  11.633  1.00  0.00     0.031 C 
ATOM     60  C   UNL     1       6.109  -1.217  15.517  1.00  0.00     0.029 A 
ATOM     61  C   UNL     1       6.890  -2.181  14.876  1.00  0.00     0.049 A 
ATOM     62  H   UNL     1       6.730  -4.245  15.304  1.00  0.00     0.167 HD
ATOM     63  C   UNL     1       8.428  -3.054  13.114  1.00  0.00     0.074 A 
ATOM     64  C   UNL     1       7.853  -4.370  12.826  1.00  0.00     0.031 C 
ATOM     65  C   UNL     1       8.028  -2.070  13.978  1.00  0.00     0.037 A 
BRANCH  52  66
ATOM     66  C   UNL     1       3.755  -5.394  15.090  1.00  0.00     0.057 A 
ATOM     67  C   UNL     1       3.886  -5.815  16.422  1.00  0.00     0.134 A 
ATOM     68  C   UNL     1       3.594  -6.427  14.145  1.00  0.00     0.134 A 
ATOM     69  F   UNL     1       4.078  -4.925  17.407  1.00  0.00    -0.206 F 
ATOM     70  C   UNL     1       3.875  -7.167  16.785  1.00  0.00     0.040 A 
ATOM     71  C   UNL     1       3.524  -7.776  14.500  1.00  0.00     0.040 A 
ATOM     72  F   UNL     1       3.588  -6.193  12.826  1.00  0.00    -0.206 F 
ATOM     73  C   UNL     1       3.686  -8.153  15.823  1.00  0.00     0.006 A 
ENDBRANCH  52  66
BRANCH  53  74
ATOM     74  C   UNL     1       9.475  -4.144   8.605  1.00  0.00     0.057 A 
ATOM     75  C   UNL     1      10.720  -4.751   8.809  1.00  0.00     0.134 A 
ATOM     76  C   UNL     1       8.780  -4.538   7.446  1.00  0.00     0.134 A 
ATOM     77  F   UNL     1      11.445  -4.462   9.900  1.00  0.00    -0.206 F 
ATOM     78  C   UNL     1      11.230  -5.721   7.934  1.00  0.00     0.040 A 
ATOM     79  C   UNL     1       9.278  -5.502   6.563  1.00  0.00     0.040 A 
ATOM     80  F   UNL     1       7.553  -4.066   7.178  1.00  0.00    -0.206 F 
ATOM     81  C   UNL     1      10.501  -6.110   6.814  1.00  0.00     0.006 A 
ENDBRANCH  53  74
BRANCH  65  82
ATOM     82  C   UNL     1       8.655  -0.695  13.840  1.00  0.00     0.057 A 
ATOM     83  C   UNL     1       8.549   0.120  12.699  1.00  0.00     0.134 A 
ATOM     84  C   UNL     1       9.245  -0.098  14.958  1.00  0.00     0.134 A 
ATOM     85  F   UNL     1       7.927  -0.306  11.599  1.00  0.00    -0.206 F 
ATOM     86  C   UNL     1       9.026   1.436  12.659  1.00  0.00     0.040 A 
ATOM     87  C   UNL     1       9.704   1.226  14.944  1.00  0.00     0.040 A 
ATOM     88  F   UNL     1       9.343  -0.778  16.111  1.00  0.00    -0.206 F 
ATOM     89  C   UNL     1       9.602   1.996  13.790  1.00  0.00     0.006 A 
ENDBRANCH  65  82
ENDBRANCH  39  40
ENDBRANCH  31  34
ENDBRANCH  29  30
ENDBRANCH  28  29
ENDBRANCH   1  28
TORSDOF 14
