REMARK SMILES O=C(NCCCCCCNC(=O)c1ccc(-c2c3nc(c(-c4c(F)cccc4F)c4ccc([nH]4)c(-c4c(F)cccc4F)c4nc(c(-c5c(F)cccc5F)c5ccc2[nH]5)C=C4)C=C3)cc1)C1=Cc2cc(S(F)(F)(F)(F)F)cc(Br)c2O[C@@H]1C(F)(F)F
REMARK SMILES IDX 7 1 6 2 5 3 4 4 3 5 1 6 2 7 67 9 68 10 83 11 69 12 82 13
REMARK SMILES IDX 70 14 81 15 71 16 79 17 78 18 80 19 84 20 85 21 86 22 87 23
REMARK SMILES IDX 72 24 73 25 74 26 75 27 76 28 77 29 8 30 9 31 10 32 11 33
REMARK SMILES IDX 12 35 13 36 14 37 66 38 15 39 65 40 16 41 17 42 18 43 59 44
REMARK SMILES IDX 19 45 64 46 58 47 60 48 20 49 63 50 57 51 56 52 21 54 47 55
REMARK SMILES IDX 30 56 46 57 31 58 34 59 45 60 61 61 32 62 33 63 44 65 62 66
REMARK SMILES IDX 35 67 22 68 23 69 28 70 24 71 25 72 27 73 29 74 26 75 48 76
REMARK SMILES IDX 49 77 54 78 50 79 51 80 53 81 55 82 52 83 36 84 37 85 42 86
REMARK SMILES IDX 38 87 39 88 41 89 43 90 40 91
REMARK H PARENT 3 8 10 34 60 53 34 64
REMARK Flexibility Score: inf
ROOT
ATOM      1  C   UNL     1       4.966   3.169   2.572  1.00  0.00     0.002 C 
ENDROOT
BRANCH   1   2
ATOM      2  C   UNL     1       4.460   3.422   1.162  1.00  0.00     0.002 C 
BRANCH   2   3
ATOM      3  C   UNL     1       4.966   2.328   0.237  1.00  0.00     0.021 C 
BRANCH   3   4
ATOM      4  C   UNL     1       4.460   0.979   0.723  1.00  0.00     0.116 C 
BRANCH   4   5
ATOM      5  N   UNL     1       2.990   0.979   0.723  1.00  0.00    -0.352 N 
ATOM      6  O   UNL     1       0.984   0.007  -0.098  1.00  0.00    -0.270 OA
ATOM      7  C   UNL     1       2.255   0.007  -0.098  1.00  0.00     0.251 C 
ATOM      8  H   UNL     1       2.497   1.631   1.273  1.00  0.00     0.163 HD
BRANCH   7   9
ATOM      9  C   UNL     1       3.015  -0.999  -0.948  1.00  0.00     0.067 C 
ATOM     10  C   UNL     1       4.375  -0.999  -0.948  1.00  0.00     0.025 C 
ATOM     11  C   UNL     1       2.255  -2.005  -1.797  1.00  0.00     0.314 C 
ATOM     12  C   UNL     1       5.135   0.007  -0.098  1.00  0.00     0.020 A 
ATOM     13  O   UNL     1       3.432  -0.337   1.523  1.00  0.00    -0.474 OA
ATOM     14  C   UNL     1       6.292   0.623  -0.545  1.00  0.00     0.036 A 
ATOM     15  C   UNL     1       4.701   0.175   1.145  1.00  0.00     0.142 A 
ATOM     16  C   UNL     1       7.086   1.172   0.490  1.00  0.00     0.109 A 
ATOM     17  C   UNL     1       5.469   0.841   2.070  1.00  0.00     0.062 A 
ATOM     18  C   UNL     1       6.653   1.424   1.712  1.00  0.00     0.044 A 
ATOM     19  Br  UNL     1       4.859   0.957   3.929  1.00  0.00    -0.047 Br
BRANCH  11  20
ATOM     20  C   UNL     1       2.622  -3.414  -1.363  1.00  0.00     0.429 C 
ATOM     21  F   UNL     1       2.300  -3.582  -0.084  1.00  0.00    -0.167 F 
ATOM     22  F   UNL     1       1.957  -4.294  -2.106  1.00  0.00    -0.167 F 
ATOM     23  F   UNL     1       3.929  -3.600  -1.520  1.00  0.00    -0.167 F 
ENDBRANCH  11  20
BRANCH  16  24
ATOM     24  S   UNL     1       8.814   1.556   0.113  1.00  0.00     0.310 S 
ATOM     25  F   UNL     1       9.213   1.577   1.647  1.00  0.00    -0.094 F 
ATOM     26  F   UNL     1       8.470   3.088   0.253  1.00  0.00    -0.094 F 
ATOM     27  F   UNL     1      10.296   1.890  -0.215  1.00  0.00    -0.094 F 
ATOM     28  F   UNL     1       9.169   0.018   0.115  1.00  0.00    -0.094 F 
ATOM     29  F   UNL     1       7.338   1.202   0.555  1.00  0.00    -0.094 F 
ENDBRANCH  16  24
ENDBRANCH   7   9
ENDBRANCH   4   5
ENDBRANCH   3   4
ENDBRANCH   2   3
ENDBRANCH   1   2
BRANCH   1  30
ATOM     30  C   UNL     1       6.486   3.169   2.572  1.00  0.00     0.021 C 
BRANCH  30  31
ATOM     31  C   UNL     1       6.993   4.517   2.086  1.00  0.00     0.116 C 
BRANCH  31  32
ATOM     32  N   UNL     1       6.503   5.576   2.981  1.00  0.00    -0.352 N 
ATOM     33  C   UNL     1       7.458   6.430   3.701  1.00  0.00     0.251 C 
ATOM     34  H   UNL     1       5.535   5.714   3.097  1.00  0.00     0.163 HD
ATOM     35  O   UNL     1       7.035   7.345   4.475  1.00  0.00    -0.269 OA
BRANCH  33  36
ATOM     36  C   UNL     1       8.953   6.218   3.522  1.00  0.00     0.039 A 
ATOM     37  C   UNL     1       9.777   6.213   4.636  1.00  0.00     0.014 A 
ATOM     38  C   UNL     1       9.444   6.040   2.301  1.00  0.00     0.014 A 
ATOM     39  C   UNL     1      11.155   6.301   4.329  1.00  0.00     0.010 A 
ATOM     40  C   UNL     1      10.801   6.000   2.092  1.00  0.00     0.010 A 
ATOM     41  C   UNL     1      11.676   6.051   3.142  1.00  0.00    -0.014 A 
BRANCH  41  42
ATOM     42  C   UNL     1      13.168   5.829   2.953  1.00  0.00     0.031 A 
ATOM     43  C   UNL     1      13.857   6.697   2.104  1.00  0.00     0.074 A 
ATOM     44  C   UNL     1      13.759   4.778   3.631  1.00  0.00     0.049 A 
ATOM     45  N   UNL     1      15.162   6.699   1.828  1.00  0.00    -0.248 NA
ATOM     46  C   UNL     1      13.225   7.794   1.356  1.00  0.00     0.031 C 
ATOM     47  C   UNL     1      13.072   3.903   4.495  1.00  0.00     0.029 A 
ATOM     48  N   UNL     1      15.080   4.389   3.602  1.00  0.00    -0.354 N 
ATOM     49  C   UNL     1      15.454   7.694   0.988  1.00  0.00     0.074 A 
ATOM     50  C   UNL     1      14.211   8.408   0.667  1.00  0.00     0.031 C 
ATOM     51  C   UNL     1      13.963   2.993   4.970  1.00  0.00     0.029 A 
ATOM     52  C   UNL     1      15.222   3.285   4.412  1.00  0.00     0.049 A 
ATOM     53  H   UNL     1      15.799   4.826   3.090  1.00  0.00     0.167 HD
ATOM     54  C   UNL     1      16.708   8.034   0.478  1.00  0.00     0.037 A 
ATOM     55  C   UNL     1      16.375   2.558   4.662  1.00  0.00     0.037 A 
ATOM     56  C   UNL     1      17.870   7.333   0.762  1.00  0.00     0.049 A 
ATOM     57  C   UNL     1      17.620   2.863   4.105  1.00  0.00     0.074 A 
ATOM     58  C   UNL     1      19.143   7.668   0.263  1.00  0.00     0.029 A 
ATOM     59  N   UNL     1      18.007   6.214   1.553  1.00  0.00    -0.354 N 
ATOM     60  N   UNL     1      17.919   3.881   3.297  1.00  0.00    -0.248 NA
ATOM     61  C   UNL     1      18.841   2.081   4.337  1.00  0.00     0.031 C 
ATOM     62  C   UNL     1      20.035   6.758   0.738  1.00  0.00     0.029 A 
ATOM     63  C   UNL     1      19.332   5.839   1.542  1.00  0.00     0.049 A 
ATOM     64  H   UNL     1      17.283   5.760   2.042  1.00  0.00     0.167 HD
ATOM     65  C   UNL     1      19.217   3.857   2.988  1.00  0.00     0.074 A 
ATOM     66  C   UNL     1      19.828   2.694   3.647  1.00  0.00     0.031 C 
ATOM     67  C   UNL     1      19.917   4.760   2.186  1.00  0.00     0.037 A 
BRANCH  54  68
ATOM     68  C   UNL     1      16.806   9.242  -0.440  1.00  0.00     0.057 A 
ATOM     69  C   UNL     1      16.471  10.515  -0.009  1.00  0.00     0.134 A 
ATOM     70  C   UNL     1      17.261   9.028  -1.669  1.00  0.00     0.134 A 
ATOM     71  F   UNL     1      16.257  10.815   1.269  1.00  0.00    -0.206 F 
ATOM     72  C   UNL     1      16.379  11.467  -1.051  1.00  0.00     0.040 A 
ATOM     73  C   UNL     1      17.268  10.040  -2.598  1.00  0.00     0.040 A 
ATOM     74  F   UNL     1      17.715   7.824  -2.003  1.00  0.00    -0.206 F 
ATOM     75  C   UNL     1      16.894  11.311  -2.257  1.00  0.00     0.006 A 
ENDBRANCH  54  68
BRANCH  55  76
ATOM     76  C   UNL     1      16.281   1.360   5.593  1.00  0.00     0.057 A 
ATOM     77  C   UNL     1      17.093   1.361   6.715  1.00  0.00     0.134 A 
ATOM     78  C   UNL     1      15.484   0.333   5.321  1.00  0.00     0.134 A 
ATOM     79  F   UNL     1      17.709   2.451   7.163  1.00  0.00    -0.206 F 
ATOM     80  C   UNL     1      17.209   0.097   7.340  1.00  0.00     0.040 A 
ATOM     81  C   UNL     1      15.555  -0.823   6.059  1.00  0.00     0.040 A 
ATOM     82  F   UNL     1      14.608   0.425   4.324  1.00  0.00    -0.206 F 
ATOM     83  C   UNL     1      16.380  -0.913   7.146  1.00  0.00     0.006 A 
ENDBRANCH  55  76
BRANCH  67  84
ATOM     84  C   UNL     1      21.412   4.548   2.010  1.00  0.00     0.057 A 
ATOM     85  C   UNL     1      21.869   3.366   1.450  1.00  0.00     0.134 A 
ATOM     86  C   UNL     1      22.255   5.499   2.396  1.00  0.00     0.134 A 
ATOM     87  F   UNL     1      21.072   2.504   0.824  1.00  0.00    -0.206 F 
ATOM     88  C   UNL     1      23.260   3.159   1.604  1.00  0.00     0.040 A 
ATOM     89  C   UNL     1      23.610   5.275   2.392  1.00  0.00     0.040 A 
ATOM     90  F   UNL     1      21.783   6.678   2.788  1.00  0.00    -0.206 F 
ATOM     91  C   UNL     1      24.129   4.106   1.908  1.00  0.00     0.006 A 
ENDBRANCH  67  84
ENDBRANCH  41  42
ENDBRANCH  33  36
ENDBRANCH  31  32
ENDBRANCH  30  31
ENDBRANCH   1  30
TORSDOF 15
