REMARK SMILES Cc1n[nH]c(C(=O)N[C@@H](CC(C)C)C(=O)NCCCCCCNC(=O)c2ccc(-c3c4nc(c(-c5c(F)cccc5F)c5ccc([nH]5)c(-c5c(F)cccc5F)c5nc(c(-c6c(F)cccc6F)c6ccc3[nH]6)C=C5)C=C4)cc2)n1
REMARK SMILES IDX 19 1 18 2 17 3 16 4 14 5 15 6 9 8 8 9 6 10 7 11 5 13 1 14
REMARK SMILES IDX 2 15 3 16 80 17 4 18 10 20 11 21 12 22 13 23 20 24 21 25
REMARK SMILES IDX 22 26 23 27 24 28 25 30 26 31 27 32 79 33 28 34 78 35 29 36
REMARK SMILES IDX 30 37 31 38 72 39 32 40 77 41 71 42 73 43 33 44 76 45 70 46
REMARK SMILES IDX 69 47 34 49 60 50 43 51 59 52 44 53 47 54 58 55 74 56 45 57
REMARK SMILES IDX 46 58 57 60 75 61 48 62 35 63 36 64 41 65 37 66 38 67 40 68
REMARK SMILES IDX 42 69 39 70 61 71 62 72 67 73 63 74 64 75 66 76 68 77 65 78
REMARK SMILES IDX 49 79 50 80 55 81 51 82 52 83 54 84 56 85 53 86
REMARK H PARENT 16 7 8 12 4 19 23 29 73 48 47 59
REMARK Flexibility Score: inf
ROOT
ATOM      1  C   UNL     1      -4.708  -7.680   5.519  1.00  0.00     0.002 C 
ENDROOT
BRANCH   1   2
ATOM      2  C   UNL     1      -4.037  -6.317   5.722  1.00  0.00     0.021 C 
BRANCH   2   3
ATOM      3  C   UNL     1      -2.616  -6.210   5.184  1.00  0.00     0.116 C 
BRANCH   3   4
ATOM      4  N   UNL     1      -2.502  -6.315   3.743  1.00  0.00    -0.354 N 
ATOM      5  C   UNL     1      -1.450  -6.053   2.914  1.00  0.00     0.242 C 
ATOM      6  O   UNL     1      -1.514  -6.496   1.762  1.00  0.00    -0.273 OA
ATOM      7  H   UNL     1      -3.318  -6.625   3.287  1.00  0.00     0.163 HD
BRANCH   5   8
ATOM      8  C   UNL     1      -0.181  -5.282   3.351  1.00  0.00     0.172 C 
BRANCH   8   9
ATOM      9  N   UNL     1      -0.527  -4.004   3.965  1.00  0.00    -0.338 N 
ATOM     10  C   UNL     1      -0.642  -2.719   3.481  1.00  0.00     0.289 C 
ATOM     11  O   UNL     1      -1.225  -1.958   4.263  1.00  0.00    -0.266 OA
ATOM     12  H   UNL     1      -0.718  -4.075   4.928  1.00  0.00     0.164 HD
BRANCH  10  13
ATOM     13  C   UNL     1      -0.086  -2.257   2.217  1.00  0.00     0.214 A 
ATOM     14  C   UNL     1       1.001   0.331   0.033  1.00  0.00     0.092 C 
ATOM     15  C   UNL     1       0.649  -0.927   0.719  1.00  0.00     0.148 A 
ATOM     16  N   UNL     1       0.930  -2.128   0.210  1.00  0.00    -0.159 NA
ATOM     17  N   UNL     1       0.024  -0.964   1.933  1.00  0.00    -0.207 NA
ATOM     18  N   UNL     1       0.420  -2.942   1.149  1.00  0.00    -0.255 N 
ATOM     19  H   UNL     1       0.412  -3.924   1.076  1.00  0.00     0.192 HD
ENDBRANCH  10  13
ENDBRANCH   8   9
BRANCH   8  20
ATOM     20  C   UNL     1       0.953  -6.030   4.083  1.00  0.00     0.038 C 
BRANCH  20  21
ATOM     21  C   UNL     1       0.621  -6.966   5.253  1.00  0.00    -0.015 C 
ATOM     22  C   UNL     1       0.119  -8.335   4.774  1.00  0.00     0.007 C 
ATOM     23  C   UNL     1       1.856  -7.203   6.131  1.00  0.00     0.007 C 
ENDBRANCH  20  21
ENDBRANCH   8  20
ENDBRANCH   5   8
ENDBRANCH   3   4
ENDBRANCH   2   3
ENDBRANCH   1   2
BRANCH   1  24
ATOM     24  C   UNL     1      -3.925  -8.935   5.941  1.00  0.00     0.002 C 
BRANCH  24  25
ATOM     25  C   UNL     1      -3.349  -8.997   7.363  1.00  0.00     0.021 C 
BRANCH  25  26
ATOM     26  C   UNL     1      -4.354  -8.801   8.487  1.00  0.00     0.116 C 
BRANCH  26  27
ATOM     27  N   UNL     1      -5.418  -9.807   8.505  1.00  0.00    -0.352 N 
ATOM     28  C   UNL     1      -6.561  -9.840   9.293  1.00  0.00     0.251 C 
ATOM     29  H   UNL     1      -5.310 -10.556   7.876  1.00  0.00     0.163 HD
ATOM     30  O   UNL     1      -7.163 -10.880   9.496  1.00  0.00    -0.269 OA
BRANCH  28  31
ATOM     31  C   UNL     1      -7.047  -8.573   9.869  1.00  0.00     0.039 A 
ATOM     32  C   UNL     1      -7.587  -8.479  11.156  1.00  0.00     0.014 A 
ATOM     33  C   UNL     1      -6.912  -7.444   9.075  1.00  0.00     0.014 A 
ATOM     34  C   UNL     1      -7.919  -7.218  11.652  1.00  0.00     0.010 A 
ATOM     35  C   UNL     1      -7.002  -6.210   9.642  1.00  0.00     0.010 A 
ATOM     36  C   UNL     1      -7.609  -6.088  10.883  1.00  0.00    -0.014 A 
BRANCH  36  37
ATOM     37  C   UNL     1      -7.796  -4.724  11.357  1.00  0.00     0.031 A 
ATOM     38  C   UNL     1      -7.021  -4.395  12.580  1.00  0.00     0.074 A 
ATOM     39  C   UNL     1      -8.372  -3.796  10.557  1.00  0.00     0.049 A 
ATOM     40  N   UNL     1      -7.486  -4.049  13.733  1.00  0.00    -0.248 NA
ATOM     41  C   UNL     1      -5.565  -4.627  12.575  1.00  0.00     0.031 C 
ATOM     42  C   UNL     1      -8.905  -3.977   9.197  1.00  0.00     0.029 A 
ATOM     43  N   UNL     1      -8.472  -2.450  10.729  1.00  0.00    -0.354 N 
ATOM     44  C   UNL     1      -6.373  -3.789  14.528  1.00  0.00     0.074 A 
ATOM     45  C   UNL     1      -5.249  -4.372  13.847  1.00  0.00     0.031 C 
ATOM     46  C   UNL     1      -9.039  -2.777   8.593  1.00  0.00     0.029 A 
ATOM     47  C   UNL     1      -8.756  -1.738   9.562  1.00  0.00     0.049 A 
ATOM     48  H   UNL     1      -8.354  -2.015  11.604  1.00  0.00     0.167 HD
ATOM     49  C   UNL     1      -6.435  -2.873  15.534  1.00  0.00     0.037 A 
ATOM     50  C   UNL     1      -8.719  -0.388   9.412  1.00  0.00     0.037 A 
ATOM     51  C   UNL     1      -7.807  -2.551  15.847  1.00  0.00     0.049 A 
ATOM     52  C   UNL     1      -8.786   0.197  10.777  1.00  0.00     0.074 A 
ATOM     53  C   UNL     1      -8.903  -3.288  16.253  1.00  0.00     0.029 A 
ATOM     54  N   UNL     1      -8.310  -1.370  15.355  1.00  0.00    -0.354 N 
ATOM     55  N   UNL     1      -9.845   0.120  11.536  1.00  0.00    -0.248 NA
ATOM     56  C   UNL     1      -7.528   0.404  11.480  1.00  0.00     0.031 C 
ATOM     57  C   UNL     1     -10.002  -2.736  15.532  1.00  0.00     0.029 A 
ATOM     58  C   UNL     1      -9.538  -1.638  14.807  1.00  0.00     0.049 A 
ATOM     59  H   UNL     1      -7.868  -0.491  15.389  1.00  0.00     0.167 HD
ATOM     60  C   UNL     1      -9.352  -0.184  12.797  1.00  0.00     0.074 A 
ATOM     61  C   UNL     1      -7.914   0.077  12.718  1.00  0.00     0.031 C 
ATOM     62  C   UNL     1     -10.089  -0.915  13.685  1.00  0.00     0.037 A 
BRANCH  49  63
ATOM     63  C   UNL     1      -5.295  -1.972  15.949  1.00  0.00     0.057 A 
ATOM     64  C   UNL     1      -5.465  -1.140  17.071  1.00  0.00     0.134 A 
ATOM     65  C   UNL     1      -4.179  -1.665  15.144  1.00  0.00     0.134 A 
ATOM     66  F   UNL     1      -6.489  -1.327  17.918  1.00  0.00    -0.206 F 
ATOM     67  C   UNL     1      -4.647  -0.030  17.315  1.00  0.00     0.040 A 
ATOM     68  C   UNL     1      -3.325  -0.591  15.409  1.00  0.00     0.040 A 
ATOM     69  F   UNL     1      -3.904  -2.313  14.007  1.00  0.00    -0.206 F 
ATOM     70  C   UNL     1      -3.579   0.255  16.476  1.00  0.00     0.006 A 
ENDBRANCH  49  63
BRANCH  50  71
ATOM     71  C   UNL     1      -8.358   0.412   8.216  1.00  0.00     0.057 A 
ATOM     72  C   UNL     1      -8.618   1.790   8.151  1.00  0.00     0.134 A 
ATOM     73  C   UNL     1      -7.509  -0.096   7.214  1.00  0.00     0.134 A 
ATOM     74  F   UNL     1      -9.383   2.382   9.079  1.00  0.00    -0.206 F 
ATOM     75  C   UNL     1      -8.050   2.615   7.169  1.00  0.00     0.040 A 
ATOM     76  C   UNL     1      -6.940   0.716   6.225  1.00  0.00     0.040 A 
ATOM     77  F   UNL     1      -7.132  -1.382   7.212  1.00  0.00    -0.206 F 
ATOM     78  C   UNL     1      -7.198   2.080   6.208  1.00  0.00     0.006 A 
ENDBRANCH  50  71
BRANCH  62  79
ATOM     79  C   UNL     1     -11.532  -1.193  13.351  1.00  0.00     0.057 A 
ATOM     80  C   UNL     1     -11.957  -1.954  12.250  1.00  0.00     0.134 A 
ATOM     81  C   UNL     1     -12.515  -0.826  14.275  1.00  0.00     0.134 A 
ATOM     82  F   UNL     1     -11.082  -2.443  11.365  1.00  0.00    -0.206 F 
ATOM     83  C   UNL     1     -13.299  -2.296  12.057  1.00  0.00     0.040 A 
ATOM     84  C   UNL     1     -13.854  -1.191  14.113  1.00  0.00     0.040 A 
ATOM     85  F   UNL     1     -12.178  -0.151  15.385  1.00  0.00    -0.206 F 
ATOM     86  C   UNL     1     -14.252  -1.920  12.996  1.00  0.00     0.006 A 
ENDBRANCH  62  79
ENDBRANCH  36  37
ENDBRANCH  28  31
ENDBRANCH  26  27
ENDBRANCH  25  26
ENDBRANCH  24  25
ENDBRANCH   1  24
TORSDOF 17
