REMARK SMILES O=C(NCCCCCCNC(=O)c1ccc(-c2c3nc(c(-c4c(F)cccc4F)c4ccc([nH]4)c(-c4c(F)cccc4F)c4nc(c(-c5c(F)cccc5F)c5ccc2[nH]5)C=C4)C=C3)cc1)C1=Cc2cc(C(F)(F)F)ccc2O[C@@H]1C(F)(F)F
REMARK SMILES IDX 7 1 6 2 5 3 4 4 3 5 1 6 2 7 67 9 68 10 80 11 69 12 79 13
REMARK SMILES IDX 70 14 78 15 71 16 77 17 76 18 81 19 82 20 83 21 84 22 72 23
REMARK SMILES IDX 73 24 74 25 75 26 8 27 9 28 10 29 11 30 12 32 13 33 14 34
REMARK SMILES IDX 66 35 15 36 65 37 16 38 17 39 18 40 59 41 19 42 64 43 58 44
REMARK SMILES IDX 60 45 20 46 63 47 57 48 56 49 21 51 47 52 30 53 46 54 31 55
REMARK SMILES IDX 34 56 45 57 61 58 32 59 33 60 44 62 62 63 35 64 22 65 23 66
REMARK SMILES IDX 28 67 24 68 25 69 27 70 29 71 26 72 48 73 49 74 54 75 50 76
REMARK SMILES IDX 51 77 53 78 55 79 52 80 36 81 37 82 42 83 38 84 39 85 41 86
REMARK SMILES IDX 43 87 40 88
REMARK H PARENT 3 8 10 31 60 50 34 61
REMARK Flexibility Score: inf
ROOT
ATOM      1  C   UNL     1       4.476   1.451   4.488  1.00  0.00     0.002 C 
ENDROOT
BRANCH   1   2
ATOM      2  C   UNL     1       3.808   2.583   3.698  1.00  0.00     0.002 C 
BRANCH   2   3
ATOM      3  C   UNL     1       4.144   2.672   2.211  1.00  0.00     0.021 C 
BRANCH   3   4
ATOM      4  C   UNL     1       3.872   1.422   1.383  1.00  0.00     0.116 C 
BRANCH   4   5
ATOM      5  N   UNL     1       2.574   1.363   0.737  1.00  0.00    -0.352 N 
ATOM      6  O   UNL     1       0.993   0.609  -0.667  1.00  0.00    -0.270 OA
ATOM      7  C   UNL     1       2.185   0.652  -0.366  1.00  0.00     0.251 C 
ATOM      8  H   UNL     1       1.872   1.914   1.152  1.00  0.00     0.163 HD
BRANCH   7   9
ATOM      9  C   UNL     1       3.144  -0.155  -1.179  1.00  0.00     0.067 C 
ATOM     10  C   UNL     1       4.342   0.321  -1.565  1.00  0.00     0.025 C 
ATOM     11  C   UNL     1       2.979  -1.646  -0.984  1.00  0.00     0.314 C 
ATOM     12  C   UNL     1       5.436  -0.329  -0.796  1.00  0.00     0.018 A 
ATOM     13  O   UNL     1       4.000  -2.180  -0.093  1.00  0.00    -0.475 OA
ATOM     14  C   UNL     1       6.618   0.396  -0.601  1.00  0.00     0.025 A 
ATOM     15  C   UNL     1       5.177  -1.475  -0.028  1.00  0.00     0.128 A 
ATOM     16  C   UNL     1       7.482   0.059   0.452  1.00  0.00     0.056 A 
ATOM     17  C   UNL     1       6.076  -1.865   0.961  1.00  0.00     0.048 A 
ATOM     18  C   UNL     1       7.211  -1.088   1.216  1.00  0.00     0.017 A 
BRANCH  11  19
ATOM     19  C   UNL     1       2.947  -2.417  -2.312  1.00  0.00     0.429 C 
ATOM     20  F   UNL     1       2.631  -3.719  -2.117  1.00  0.00    -0.167 F 
ATOM     21  F   UNL     1       2.026  -1.910  -3.166  1.00  0.00    -0.167 F 
ATOM     22  F   UNL     1       4.141  -2.387  -2.954  1.00  0.00    -0.167 F 
ENDBRANCH  11  19
BRANCH  16  23
ATOM     23  C   UNL     1       8.627   0.978   0.807  1.00  0.00     0.416 C 
ATOM     24  F   UNL     1       9.738   0.754   0.061  1.00  0.00    -0.166 F 
ATOM     25  F   UNL     1       8.307   2.293   0.632  1.00  0.00    -0.166 F 
ATOM     26  F   UNL     1       9.007   0.874   2.112  1.00  0.00    -0.166 F 
ENDBRANCH  16  23
ENDBRANCH   7   9
ENDBRANCH   4   5
ENDBRANCH   3   4
ENDBRANCH   2   3
ENDBRANCH   1   2
BRANCH   1  27
ATOM     27  C   UNL     1       5.994   1.302   4.342  1.00  0.00     0.021 C 
BRANCH  27  28
ATOM     28  C   UNL     1       6.829   2.543   4.646  1.00  0.00     0.116 C 
BRANCH  28  29
ATOM     29  N   UNL     1       6.614   3.056   5.987  1.00  0.00    -0.352 N 
ATOM     30  C   UNL     1       7.515   3.369   6.975  1.00  0.00     0.251 C 
ATOM     31  H   UNL     1       5.670   3.203   6.227  1.00  0.00     0.163 HD
ATOM     32  O   UNL     1       7.108   3.659   8.095  1.00  0.00    -0.269 OA
BRANCH  30  33
ATOM     33  C   UNL     1       8.973   3.338   6.714  1.00  0.00     0.039 A 
ATOM     34  C   UNL     1       9.815   2.816   7.701  1.00  0.00     0.014 A 
ATOM     35  C   UNL     1       9.520   3.849   5.534  1.00  0.00     0.014 A 
ATOM     36  C   UNL     1      11.194   2.756   7.483  1.00  0.00     0.010 A 
ATOM     37  C   UNL     1      10.886   3.721   5.286  1.00  0.00     0.010 A 
ATOM     38  C   UNL     1      11.739   3.179   6.260  1.00  0.00    -0.014 A 
BRANCH  38  39
ATOM     39  C   UNL     1      13.196   3.064   5.990  1.00  0.00     0.031 A 
ATOM     40  C   UNL     1      14.030   4.297   5.775  1.00  0.00     0.074 A 
ATOM     41  C   UNL     1      13.761   1.845   5.895  1.00  0.00     0.049 A 
ATOM     42  N   UNL     1      15.302   4.394   5.479  1.00  0.00    -0.248 NA
ATOM     43  C   UNL     1      13.341   5.591   5.887  1.00  0.00     0.031 C 
ATOM     44  C   UNL     1      13.055   0.571   6.045  1.00  0.00     0.029 A 
ATOM     45  N   UNL     1      15.060   1.476   5.644  1.00  0.00    -0.354 N 
ATOM     46  C   UNL     1      15.562   5.753   5.365  1.00  0.00     0.074 A 
ATOM     47  C   UNL     1      14.305   6.441   5.564  1.00  0.00     0.031 C 
ATOM     48  C   UNL     1      13.931  -0.436   5.908  1.00  0.00     0.029 A 
ATOM     49  C   UNL     1      15.252   0.116   5.620  1.00  0.00     0.049 A 
ATOM     50  H   UNL     1      15.784   2.126   5.494  1.00  0.00     0.167 HD
ATOM     51  C   UNL     1      16.745   6.375   5.142  1.00  0.00     0.037 A 
ATOM     52  C   UNL     1      16.364  -0.606   5.386  1.00  0.00     0.037 A 
ATOM     53  C   UNL     1      17.997   5.691   4.953  1.00  0.00     0.049 A 
ATOM     54  C   UNL     1      17.660   0.106   5.114  1.00  0.00     0.074 A 
ATOM     55  C   UNL     1      19.255   6.233   4.753  1.00  0.00     0.029 A 
ATOM     56  N   UNL     1      18.150   4.312   4.939  1.00  0.00    -0.354 N 
ATOM     57  N   UNL     1      17.899   1.394   5.058  1.00  0.00    -0.248 NA
ATOM     58  C   UNL     1      18.841  -0.735   4.880  1.00  0.00     0.031 C 
ATOM     59  C   UNL     1      20.161   5.183   4.572  1.00  0.00     0.029 A 
ATOM     60  C   UNL     1      19.478   3.986   4.715  1.00  0.00     0.049 A 
ATOM     61  H   UNL     1      17.422   3.662   5.069  1.00  0.00     0.167 HD
ATOM     62  C   UNL     1      19.260   1.518   4.810  1.00  0.00     0.074 A 
ATOM     63  C   UNL     1      19.796   0.174   4.741  1.00  0.00     0.031 C 
ATOM     64  C   UNL     1      19.999   2.643   4.654  1.00  0.00     0.037 A 
BRANCH  51  65
ATOM     65  C   UNL     1      16.739   7.877   5.096  1.00  0.00     0.057 A 
ATOM     66  C   UNL     1      16.515   8.649   6.245  1.00  0.00     0.134 A 
ATOM     67  C   UNL     1      16.994   8.561   3.901  1.00  0.00     0.134 A 
ATOM     68  F   UNL     1      16.254   8.057   7.421  1.00  0.00    -0.206 F 
ATOM     69  C   UNL     1      16.518  10.044   6.202  1.00  0.00     0.040 A 
ATOM     70  C   UNL     1      17.028   9.956   3.851  1.00  0.00     0.040 A 
ATOM     71  F   UNL     1      17.224   7.886   2.765  1.00  0.00    -0.206 F 
ATOM     72  C   UNL     1      16.783  10.701   5.002  1.00  0.00     0.006 A 
ENDBRANCH  51  65
BRANCH  52  73
ATOM     73  C   UNL     1      16.304  -2.090   5.420  1.00  0.00     0.057 A 
ATOM     74  C   UNL     1      16.920  -2.815   6.447  1.00  0.00     0.134 A 
ATOM     75  C   UNL     1      15.630  -2.817   4.432  1.00  0.00     0.134 A 
ATOM     76  F   UNL     1      17.596  -2.175   7.412  1.00  0.00    -0.206 F 
ATOM     77  C   UNL     1      16.883  -4.210   6.482  1.00  0.00     0.040 A 
ATOM     78  C   UNL     1      15.562  -4.211   4.469  1.00  0.00     0.040 A 
ATOM     79  F   UNL     1      15.011  -2.182   3.426  1.00  0.00    -0.206 F 
ATOM     80  C   UNL     1      16.196  -4.911   5.493  1.00  0.00     0.006 A 
ENDBRANCH  52  73
BRANCH  64  81
ATOM     81  C   UNL     1      21.474   2.473   4.429  1.00  0.00     0.057 A 
ATOM     82  C   UNL     1      21.989   1.980   3.223  1.00  0.00     0.134 A 
ATOM     83  C   UNL     1      22.392   2.848   5.419  1.00  0.00     0.134 A 
ATOM     84  F   UNL     1      21.164   1.592   2.239  1.00  0.00    -0.206 F 
ATOM     85  C   UNL     1      23.363   1.843   3.019  1.00  0.00     0.040 A 
ATOM     86  C   UNL     1      23.769   2.742   5.216  1.00  0.00     0.040 A 
ATOM     87  F   UNL     1      21.967   3.337   6.593  1.00  0.00    -0.206 F 
ATOM     88  C   UNL     1      24.258   2.232   4.015  1.00  0.00     0.006 A 
ENDBRANCH  64  81
ENDBRANCH  38  39
ENDBRANCH  30  33
ENDBRANCH  28  29
ENDBRANCH  27  28
ENDBRANCH   1  27
TORSDOF 15
