REMARK SMILES CC/C=C/C/C=C/C/C=C/C/C=C/CC/C=C/COCC(=O)NCCCCCCNC(=O)c1ccc(-c2c3nc(c(-c4c(F)cccc4F)c4ccc([nH]4)c(-c4c(F)cccc4F)c4nc(c(-c5c(F)cccc5F)c5ccc2[nH]5)C=C4)C=C3)cc1
REMARK SMILES IDX 19 1 18 2 17 3 16 4 15 5 14 6 13 7 12 8 11 9 10 10 9 11 8 12
REMARK SMILES IDX 7 13 6 14 5 15 4 16 3 17 2 18 1 19 20 20 21 21 22 22 23 23
REMARK SMILES IDX 24 25 25 26 26 27 27 28 28 29 29 30 30 31 31 32 32 34 33 35
REMARK SMILES IDX 34 36 86 37 35 38 85 39 36 40 37 41 38 42 79 43 39 44 84 45
REMARK SMILES IDX 78 46 80 47 40 48 83 49 77 50 76 51 41 53 67 54 50 55 66 56
REMARK SMILES IDX 51 57 54 58 65 59 81 60 52 61 53 62 64 64 82 65 55 66 42 67
REMARK SMILES IDX 43 68 48 69 44 70 45 71 47 72 49 73 46 74 68 75 69 76 74 77
REMARK SMILES IDX 70 78 71 79 73 80 75 81 72 82 56 83 57 84 62 85 58 86 59 87
REMARK SMILES IDX 61 88 63 89 60 90
REMARK H PARENT 23 24 30 33 80 52 54 63
REMARK Flexibility Score: inf
ROOT
ATOM      1  O   UNL     1      -9.331   4.093 -14.362  1.00  0.00    -0.368 OA
ENDROOT
BRANCH   1   2
ATOM      2  C   UNL     1      -7.906   4.075 -14.462  1.00  0.00     0.188 C 
BRANCH   2   3
ATOM      3  C   UNL     1      -7.305   4.956 -13.413  1.00  0.00    -0.003 C 
ATOM      4  C   UNL     1      -6.506   4.489 -12.442  1.00  0.00    -0.029 C 
BRANCH   4   5
ATOM      5  C   UNL     1      -6.024   5.300 -11.273  1.00  0.00     0.031 C 
BRANCH   5   6
ATOM      6  C   UNL     1      -6.610   4.807  -9.938  1.00  0.00     0.031 C 
BRANCH   6   7
ATOM      7  C   UNL     1      -6.163   3.415  -9.579  1.00  0.00    -0.031 C 
ATOM      8  C   UNL     1      -5.351   3.123  -8.551  1.00  0.00    -0.027 C 
BRANCH   8   9
ATOM      9  C   UNL     1      -4.868   1.735  -8.240  1.00  0.00     0.054 C 
BRANCH   9  10
ATOM     10  C   UNL     1      -3.367   1.690  -8.254  1.00  0.00    -0.027 C 
ATOM     11  C   UNL     1      -2.615   1.327  -7.202  1.00  0.00    -0.027 C 
BRANCH  11  12
ATOM     12  C   UNL     1      -1.115   1.328  -7.198  1.00  0.00     0.054 C 
BRANCH  12  13
ATOM     13  C   UNL     1      -0.592   2.246  -6.131  1.00  0.00    -0.027 C 
ATOM     14  C   UNL     1       0.180   1.849  -5.106  1.00  0.00    -0.027 C 
BRANCH  14  15
ATOM     15  C   UNL     1       0.679   2.761  -4.023  1.00  0.00     0.054 C 
BRANCH  15  16
ATOM     16  C   UNL     1       0.206   2.297  -2.675  1.00  0.00    -0.027 C 
ATOM     17  C   UNL     1       1.023   1.933  -1.674  1.00  0.00    -0.031 C 
BRANCH  17  18
ATOM     18  C   UNL     1       0.544   1.458  -0.333  1.00  0.00     0.023 C 
ATOM     19  C   UNL     1       1.028   0.046  -0.043  1.00  0.00     0.008 C 
ENDBRANCH  17  18
ENDBRANCH  15  16
ENDBRANCH  14  15
ENDBRANCH  12  13
ENDBRANCH  11  12
ENDBRANCH   9  10
ENDBRANCH   8   9
ENDBRANCH   6   7
ENDBRANCH   5   6
ENDBRANCH   4   5
ENDBRANCH   2   3
ENDBRANCH   1   2
BRANCH   1  20
ATOM     20  C   UNL     1      -9.834   3.542 -13.149  1.00  0.00     0.260 C 
BRANCH  20  21
ATOM     21  C   UNL     1      -9.480   2.084 -12.834  1.00  0.00     0.246 C 
ATOM     22  O   UNL     1      -8.853   1.763 -11.825  1.00  0.00    -0.272 OA
ATOM     23  N   UNL     1      -9.903   1.107 -13.688  1.00  0.00    -0.354 N 
ATOM     24  H   UNL     1      -9.726   0.180 -13.406  1.00  0.00     0.163 HD
BRANCH  23  25
ATOM     25  C   UNL     1     -10.580   1.264 -14.960  1.00  0.00     0.116 C 
BRANCH  25  26
ATOM     26  C   UNL     1      -9.695   0.804 -16.118  1.00  0.00     0.021 C 
BRANCH  26  27
ATOM     27  C   UNL     1      -9.338  -0.688 -16.084  1.00  0.00     0.002 C 
BRANCH  27  28
ATOM     28  C   UNL     1     -10.535  -1.643 -16.036  1.00  0.00     0.002 C 
BRANCH  28  29
ATOM     29  C   UNL     1     -11.547  -1.470 -17.171  1.00  0.00     0.021 C 
BRANCH  29  30
ATOM     30  C   UNL     1     -10.969  -1.653 -18.570  1.00  0.00     0.116 C 
BRANCH  30  31
ATOM     31  N   UNL     1     -10.485  -3.007 -18.794  1.00  0.00    -0.352 N 
ATOM     32  C   UNL     1     -10.819  -3.899 -19.782  1.00  0.00     0.251 C 
ATOM     33  H   UNL     1      -9.821  -3.330 -18.142  1.00  0.00     0.163 HD
ATOM     34  O   UNL     1     -10.451  -5.069 -19.712  1.00  0.00    -0.269 OA
BRANCH  32  35
ATOM     35  C   UNL     1     -11.648  -3.455 -20.921  1.00  0.00     0.039 A 
ATOM     36  C   UNL     1     -12.729  -4.246 -21.320  1.00  0.00     0.014 A 
ATOM     37  C   UNL     1     -11.371  -2.256 -21.583  1.00  0.00     0.014 A 
ATOM     38  C   UNL     1     -13.579  -3.794 -22.331  1.00  0.00     0.010 A 
ATOM     39  C   UNL     1     -12.261  -1.773 -22.538  1.00  0.00     0.010 A 
ATOM     40  C   UNL     1     -13.379  -2.533 -22.916  1.00  0.00    -0.014 A 
BRANCH  40  41
ATOM     41  C   UNL     1     -14.345  -1.976 -23.896  1.00  0.00     0.031 A 
ATOM     42  C   UNL     1     -13.915  -1.683 -25.306  1.00  0.00     0.074 A 
ATOM     43  C   UNL     1     -15.592  -1.661 -23.492  1.00  0.00     0.049 A 
ATOM     44  N   UNL     1     -14.591  -1.120 -26.276  1.00  0.00    -0.248 NA
ATOM     45  C   UNL     1     -12.537  -2.050 -25.668  1.00  0.00     0.031 C 
ATOM     46  C   UNL     1     -16.117  -1.857 -22.140  1.00  0.00     0.029 A 
ATOM     47  N   UNL     1     -16.640  -1.097 -24.176  1.00  0.00    -0.354 N 
ATOM     48  C   UNL     1     -13.720  -1.056 -27.356  1.00  0.00     0.074 A 
ATOM     49  C   UNL     1     -12.452  -1.589 -26.908  1.00  0.00     0.031 C 
ATOM     50  C   UNL     1     -17.392  -1.439 -22.098  1.00  0.00     0.029 A 
ATOM     51  C   UNL     1     -17.760  -0.903 -23.404  1.00  0.00     0.049 A 
ATOM     52  H   UNL     1     -16.593  -0.854 -25.129  1.00  0.00     0.167 HD
ATOM     53  C   UNL     1     -13.962  -0.613 -28.613  1.00  0.00     0.037 A 
ATOM     54  C   UNL     1     -18.945  -0.340 -23.709  1.00  0.00     0.037 A 
ATOM     55  C   UNL     1     -15.230  -0.094 -29.058  1.00  0.00     0.049 A 
ATOM     56  C   UNL     1     -19.177   0.178 -25.101  1.00  0.00     0.074 A 
ATOM     57  C   UNL     1     -15.591   0.323 -30.327  1.00  0.00     0.029 A 
ATOM     58  N   UNL     1     -16.340   0.087 -28.247  1.00  0.00    -0.354 N 
ATOM     59  N   UNL     1     -18.368   0.164 -26.133  1.00  0.00    -0.248 NA
ATOM     60  C   UNL     1     -20.485   0.790 -25.372  1.00  0.00     0.031 C 
ATOM     61  C   UNL     1     -16.901   0.811 -30.271  1.00  0.00     0.029 A 
ATOM     62  C   UNL     1     -17.376   0.643 -28.980  1.00  0.00     0.049 A 
ATOM     63  H   UNL     1     -16.386  -0.146 -27.291  1.00  0.00     0.167 HD
ATOM     64  C   UNL     1     -19.076   0.741 -27.180  1.00  0.00     0.074 A 
ATOM     65  C   UNL     1     -20.386   1.078 -26.662  1.00  0.00     0.031 C 
ATOM     66  C   UNL     1     -18.676   0.972 -28.454  1.00  0.00     0.037 A 
BRANCH  53  67
ATOM     67  C   UNL     1     -12.830  -0.665 -29.599  1.00  0.00     0.057 A 
ATOM     68  C   UNL     1     -12.336  -1.879 -30.095  1.00  0.00     0.134 A 
ATOM     69  C   UNL     1     -12.255   0.514 -30.090  1.00  0.00     0.134 A 
ATOM     70  F   UNL     1     -12.836  -3.045 -29.659  1.00  0.00    -0.206 F 
ATOM     71  C   UNL     1     -11.294  -1.919 -31.023  1.00  0.00     0.040 A 
ATOM     72  C   UNL     1     -11.233   0.487 -31.041  1.00  0.00     0.040 A 
ATOM     73  F   UNL     1     -12.685   1.711 -29.665  1.00  0.00    -0.206 F 
ATOM     74  C   UNL     1     -10.745  -0.733 -31.505  1.00  0.00     0.006 A 
ENDBRANCH  53  67
BRANCH  54  75
ATOM     75  C   UNL     1     -20.009  -0.240 -22.676  1.00  0.00     0.057 A 
ATOM     76  C   UNL     1     -21.187  -0.989 -22.777  1.00  0.00     0.134 A 
ATOM     77  C   UNL     1     -19.881   0.614 -21.573  1.00  0.00     0.134 A 
ATOM     78  F   UNL     1     -21.377  -1.810 -23.820  1.00  0.00    -0.206 F 
ATOM     79  C   UNL     1     -22.207  -0.879 -21.831  1.00  0.00     0.040 A 
ATOM     80  C   UNL     1     -20.881   0.712 -20.604  1.00  0.00     0.040 A 
ATOM     81  F   UNL     1     -18.774   1.354 -21.413  1.00  0.00    -0.206 F 
ATOM     82  C   UNL     1     -22.053  -0.030 -20.737  1.00  0.00     0.006 A 
ENDBRANCH  54  75
BRANCH  66  83
ATOM     83  C   UNL     1     -19.673   1.596 -29.387  1.00  0.00     0.057 A 
ATOM     84  C   UNL     1     -20.052   2.940 -29.275  1.00  0.00     0.134 A 
ATOM     85  C   UNL     1     -20.224   0.856 -30.442  1.00  0.00     0.134 A 
ATOM     86  F   UNL     1     -19.572   3.701 -28.279  1.00  0.00    -0.206 F 
ATOM     87  C   UNL     1     -20.957   3.519 -30.166  1.00  0.00     0.040 A 
ATOM     88  C   UNL     1     -21.107   1.432 -31.356  1.00  0.00     0.040 A 
ATOM     89  F   UNL     1     -19.897  -0.434 -30.612  1.00  0.00    -0.206 F 
ATOM     90  C   UNL     1     -21.480   2.767 -31.216  1.00  0.00     0.006 A 
ENDBRANCH  66  83
ENDBRANCH  40  41
ENDBRANCH  32  35
ENDBRANCH  30  31
ENDBRANCH  29  30
ENDBRANCH  28  29
ENDBRANCH  27  28
ENDBRANCH  26  27
ENDBRANCH  25  26
ENDBRANCH  23  25
ENDBRANCH  20  21
ENDBRANCH   1  20
TORSDOF 26
