REMARK SMILES CC(C)[C@H](NC(=O)[C@H](C)NC(=O)C[NH3+])C(=O)NCCCCCCNC(=O)c1ccc(-c2c3nc(c(-c4c(F)cccc4F)c4ccc([nH]4)c(-c4c(F)cccc4F)c4nc(c(-c5c(F)cccc5F)c5ccc2[nH]5)C=C4)C=C3)cc1
REMARK SMILES IDX 19 1 18 2 17 3 15 4 16 5 4 7 2 8 1 9 3 10 5 11 6 12 7 14
REMARK SMILES IDX 8 15 9 16 10 17 11 18 12 20 13 21 14 22 20 26 21 27 22 28
REMARK SMILES IDX 23 29 24 30 25 31 26 33 27 34 28 35 80 36 29 37 79 38 30 39
REMARK SMILES IDX 31 40 32 41 73 42 33 43 78 44 72 45 74 46 34 47 77 48 71 49
REMARK SMILES IDX 70 50 35 52 61 53 44 54 60 55 45 56 48 57 59 58 75 59 46 60
REMARK SMILES IDX 47 61 58 63 76 64 49 65 36 66 37 67 42 68 38 69 39 70 41 71
REMARK SMILES IDX 43 72 40 73 62 74 63 75 68 76 64 77 65 78 67 79 69 80 66 81
REMARK SMILES IDX 50 82 51 83 56 84 52 85 53 86 55 87 57 88 54 89
REMARK H PARENT 17 6 5 13 10 19 14 23 14 24 14 25 24 32 74 51 48 62
REMARK Flexibility Score: inf
ROOT
ATOM      1  C   UNL     1       2.194   0.111   5.923  1.00  0.00     0.021 C 
ENDROOT
BRANCH   1   2
ATOM      2  C   UNL     1       1.538  -1.161   5.404  1.00  0.00     0.116 C 
BRANCH   2   3
ATOM      3  N   UNL     1       0.540  -1.694   6.285  1.00  0.00    -0.354 N 
ATOM      4  C   UNL     1      -0.774  -1.943   6.043  1.00  0.00     0.242 C 
ATOM      5  O   UNL     1      -1.388  -2.530   6.943  1.00  0.00    -0.273 OA
ATOM      6  H   UNL     1       0.850  -1.909   7.194  1.00  0.00     0.163 HD
BRANCH   4   7
ATOM      7  C   UNL     1      -1.479  -1.686   4.668  1.00  0.00     0.173 C 
BRANCH   7   8
ATOM      8  C   UNL     1      -1.453  -2.879   3.701  1.00  0.00     0.015 C 
ATOM      9  C   UNL     1      -1.363  -4.261   4.349  1.00  0.00     0.010 C 
ATOM     10  C   UNL     1      -2.660  -2.842   2.755  1.00  0.00     0.010 C 
ENDBRANCH   7   8
BRANCH   7  11
ATOM     11  N   UNL     1      -1.281  -0.358   4.023  1.00  0.00    -0.342 N 
ATOM     12  C   UNL     1      -0.597   0.239   3.011  1.00  0.00     0.242 C 
ATOM     13  H   UNL     1      -1.832   0.315   4.485  1.00  0.00     0.164 HD
ATOM     14  O   UNL     1      -0.804   1.460   2.932  1.00  0.00    -0.273 OA
BRANCH  12  15
ATOM     15  C   UNL     1       0.463  -0.425   2.064  1.00  0.00     0.168 C 
ATOM     16  C   UNL     1       1.111   0.656   1.185  1.00  0.00     0.041 C 
BRANCH  15  17
ATOM     17  N   UNL     1      -0.010  -1.492   1.192  1.00  0.00    -0.340 N 
ATOM     18  C   UNL     1       0.610  -2.687   0.930  1.00  0.00     0.275 C 
ATOM     19  H   UNL     1      -0.870  -1.337   0.739  1.00  0.00     0.164 HD
ATOM     20  O   UNL     1       0.227  -3.359  -0.029  1.00  0.00    -0.268 OA
BRANCH  18  21
ATOM     21  C   UNL     1       1.722  -3.202   1.863  1.00  0.00     0.360 C 
BRANCH  21  22
ATOM     22  N   UNL     1       3.023  -2.617   1.526  1.00  0.00    -0.350 N 
ATOM     23  H   UNL     1       3.276  -2.876   0.573  1.00  0.00     0.344 HD
ATOM     24  H   UNL     1       3.731  -2.966   2.172  1.00  0.00     0.344 HD
ATOM     25  H   UNL     1       2.968  -1.601   1.598  1.00  0.00     0.344 HD
ENDBRANCH  21  22
ENDBRANCH  18  21
ENDBRANCH  15  17
ENDBRANCH  12  15
ENDBRANCH   7  11
ENDBRANCH   4   7
ENDBRANCH   2   3
ENDBRANCH   1   2
BRANCH   1  26
ATOM     26  C   UNL     1       3.407  -0.147   6.817  1.00  0.00     0.002 C 
BRANCH  26  27
ATOM     27  C   UNL     1       4.556  -0.915   6.148  1.00  0.00     0.002 C 
BRANCH  27  28
ATOM     28  C   UNL     1       5.101  -0.302   4.854  1.00  0.00     0.021 C 
BRANCH  28  29
ATOM     29  C   UNL     1       5.611   1.132   4.980  1.00  0.00     0.116 C 
BRANCH  29  30
ATOM     30  N   UNL     1       6.635   1.264   6.004  1.00  0.00    -0.352 N 
ATOM     31  C   UNL     1       7.894   1.800   5.938  1.00  0.00     0.251 C 
ATOM     32  H   UNL     1       6.382   0.912   6.888  1.00  0.00     0.163 HD
ATOM     33  O   UNL     1       8.671   1.644   6.875  1.00  0.00    -0.269 OA
BRANCH  31  34
ATOM     34  C   UNL     1       8.333   2.549   4.740  1.00  0.00     0.039 A 
ATOM     35  C   UNL     1       9.631   2.342   4.263  1.00  0.00     0.014 A 
ATOM     36  C   UNL     1       7.496   3.476   4.112  1.00  0.00     0.014 A 
ATOM     37  C   UNL     1      10.068   3.019   3.124  1.00  0.00     0.010 A 
ATOM     38  C   UNL     1       7.910   4.102   2.937  1.00  0.00     0.010 A 
ATOM     39  C   UNL     1       9.199   3.879   2.432  1.00  0.00    -0.014 A 
BRANCH  39  40
ATOM     40  C   UNL     1       9.625   4.525   1.165  1.00  0.00     0.031 A 
ATOM     41  C   UNL     1       9.776   6.018   1.076  1.00  0.00     0.074 A 
ATOM     42  C   UNL     1       9.832   3.760   0.076  1.00  0.00     0.049 A 
ATOM     43  N   UNL     1      10.124   6.752   0.049  1.00  0.00    -0.248 NA
ATOM     44  C   UNL     1       9.476   6.789   2.291  1.00  0.00     0.031 C 
ATOM     45  C   UNL     1       9.664   2.306   0.020  1.00  0.00     0.029 A 
ATOM     46  N   UNL     1      10.224   4.098  -1.195  1.00  0.00    -0.354 N 
ATOM     47  C   UNL     1      10.078   8.068   0.490  1.00  0.00     0.074 A 
ATOM     48  C   UNL     1       9.619   8.036   1.863  1.00  0.00     0.031 C 
ATOM     49  C   UNL     1       9.978   1.875  -1.211  1.00  0.00     0.029 A 
ATOM     50  C   UNL     1      10.337   3.021  -2.040  1.00  0.00     0.049 A 
ATOM     51  H   UNL     1      10.407   5.024  -1.474  1.00  0.00     0.167 HD
ATOM     52  C   UNL     1      10.409   9.198  -0.179  1.00  0.00     0.037 A 
ATOM     53  C   UNL     1      10.690   2.963  -3.337  1.00  0.00     0.037 A 
ATOM     54  C   UNL     1      10.880   9.226  -1.540  1.00  0.00     0.049 A 
ATOM     55  C   UNL     1      11.054   4.231  -4.056  1.00  0.00     0.074 A 
ATOM     56  C   UNL     1      11.299  10.315  -2.286  1.00  0.00     0.029 A 
ATOM     57  N   UNL     1      10.990   8.114  -2.362  1.00  0.00    -0.354 N 
ATOM     58  N   UNL     1      11.079   5.460  -3.603  1.00  0.00    -0.248 NA
ATOM     59  C   UNL     1      11.446   4.101  -5.466  1.00  0.00     0.031 C 
ATOM     60  C   UNL     1      11.620   9.867  -3.573  1.00  0.00     0.029 A 
ATOM     61  C   UNL     1      11.447   8.493  -3.614  1.00  0.00     0.049 A 
ATOM     62  H   UNL     1      10.774   7.191  -2.095  1.00  0.00     0.167 HD
ATOM     63  C   UNL     1      11.507   6.248  -4.663  1.00  0.00     0.074 A 
ATOM     64  C   UNL     1      11.753   5.352  -5.775  1.00  0.00     0.031 C 
ATOM     65  C   UNL     1      11.679   7.591  -4.713  1.00  0.00     0.037 A 
BRANCH  52  66
ATOM     66  C   UNL     1      10.277  10.501   0.555  1.00  0.00     0.057 A 
ATOM     67  C   UNL     1      11.144  10.851   1.599  1.00  0.00     0.134 A 
ATOM     68  C   UNL     1       9.296  11.433   0.192  1.00  0.00     0.134 A 
ATOM     69  F   UNL     1      12.099  10.001   2.003  1.00  0.00    -0.206 F 
ATOM     70  C   UNL     1      11.024  12.069   2.272  1.00  0.00     0.040 A 
ATOM     71  C   UNL     1       9.183  12.664   0.840  1.00  0.00     0.040 A 
ATOM     72  F   UNL     1       8.437  11.165  -0.803  1.00  0.00    -0.206 F 
ATOM     73  C   UNL     1      10.045  12.982   1.887  1.00  0.00     0.006 A 
ENDBRANCH  52  66
BRANCH  53  74
ATOM     74  C   UNL     1      10.743   1.653  -4.034  1.00  0.00     0.057 A 
ATOM     75  C   UNL     1      11.966   1.086  -4.410  1.00  0.00     0.134 A 
ATOM     76  C   UNL     1       9.578   0.942  -4.344  1.00  0.00     0.134 A 
ATOM     77  F   UNL     1      13.115   1.729  -4.155  1.00  0.00    -0.206 F 
ATOM     78  C   UNL     1      12.028  -0.133  -5.087  1.00  0.00     0.040 A 
ATOM     79  C   UNL     1       9.627  -0.289  -4.998  1.00  0.00     0.040 A 
ATOM     80  F   UNL     1       8.376   1.429  -4.002  1.00  0.00    -0.206 F 
ATOM     81  C   UNL     1      10.856  -0.826  -5.379  1.00  0.00     0.006 A 
ENDBRANCH  53  74
BRANCH  65  82
ATOM     82  C   UNL     1      12.173   8.165  -6.009  1.00  0.00     0.057 A 
ATOM     83  C   UNL     1      11.359   8.226  -7.148  1.00  0.00     0.134 A 
ATOM     84  C   UNL     1      13.474   8.673  -6.117  1.00  0.00     0.134 A 
ATOM     85  F   UNL     1      10.108   7.742  -7.115  1.00  0.00    -0.206 F 
ATOM     86  C   UNL     1      11.831   8.743  -8.355  1.00  0.00     0.040 A 
ATOM     87  C   UNL     1      13.948   9.218  -7.311  1.00  0.00     0.040 A 
ATOM     88  F   UNL     1      14.303   8.653  -5.062  1.00  0.00    -0.206 F 
ATOM     89  C   UNL     1      13.128   9.246  -8.437  1.00  0.00     0.006 A 
ENDBRANCH  65  82
ENDBRANCH  39  40
ENDBRANCH  31  34
ENDBRANCH  29  30
ENDBRANCH  28  29
ENDBRANCH  27  28
ENDBRANCH  26  27
ENDBRANCH   1  26
TORSDOF 19
