REMARK SMILES CS(=O)(=O)c1ccc(C(=O)NCCCCCCNC(=O)c2ccc(-c3c4nc(c(-c5c(F)cccc5F)c5ccc([nH]5)c(-c5c(F)cccc5F)c5nc(c(-c6c(F)cccc6F)c6ccc3[nH]6)C=C5)C=C4)cc2)o1
REMARK SMILES IDX 15 1 14 2 13 3 12 4 11 5 9 6 10 7 8 9 5 10 6 11 75 12 7 13
REMARK SMILES IDX 2 14 1 15 3 16 4 17 16 18 17 19 18 20 19 21 20 23 21 24
REMARK SMILES IDX 22 25 74 26 23 27 73 28 24 29 25 30 26 31 67 32 27 33 72 34
REMARK SMILES IDX 66 35 68 36 28 37 71 38 65 39 64 40 29 42 55 43 38 44 54 45
REMARK SMILES IDX 39 46 42 47 53 48 69 49 40 50 41 51 52 53 70 54 43 55 30 56
REMARK SMILES IDX 31 57 36 58 32 59 33 60 35 61 37 62 34 63 56 64 57 65 62 66
REMARK SMILES IDX 58 67 59 68 61 69 63 70 60 71 44 72 45 73 50 74 46 75 47 76
REMARK SMILES IDX 49 77 51 78 48 79
REMARK H PARENT 11 8 18 22 68 41 42 52
REMARK Flexibility Score: inf
ROOT
ATOM      1  C   UNL     1       3.154   9.932  -2.616  1.00  0.00     0.002 C 
ENDROOT
BRANCH   1   2
ATOM      2  C   UNL     1       3.620   8.913  -1.566  1.00  0.00     0.002 C 
BRANCH   2   3
ATOM      3  C   UNL     1       2.589   7.830  -1.218  1.00  0.00     0.021 C 
BRANCH   3   4
ATOM      4  C   UNL     1       2.172   6.989  -2.423  1.00  0.00     0.116 C 
BRANCH   4   5
ATOM      5  N   UNL     1       3.139   5.944  -2.673  1.00  0.00    -0.349 N 
ATOM      6  C   UNL     1       3.097   4.582  -2.501  1.00  0.00     0.287 C 
ATOM      7  O   UNL     1       4.123   3.981  -2.829  1.00  0.00    -0.266 OA
ATOM      8  H   UNL     1       3.993   6.272  -3.038  1.00  0.00     0.163 HD
BRANCH   6   9
ATOM      9  C   UNL     1       1.922   3.899  -1.984  1.00  0.00     0.193 A 
ATOM     10  C   UNL     1       0.742   2.025  -1.623  1.00  0.00     0.218 A 
ATOM     11  C   UNL     1      -0.013   3.090  -1.162  1.00  0.00     0.064 A 
ATOM     12  O   UNL     1       1.920   2.530  -2.115  1.00  0.00    -0.440 OA
ATOM     13  C   UNL     1       0.753   4.264  -1.343  1.00  0.00     0.058 A 
BRANCH  10  14
ATOM     14  S   UNL     1       0.413   0.269  -1.579  1.00  0.00     0.208 S 
ATOM     15  C   UNL     1       1.107  -0.188  -0.012  1.00  0.00     0.167 C 
ATOM     16  O   UNL     1       1.183  -0.325  -2.649  1.00  0.00    -0.221 OA
ATOM     17  O   UNL     1      -1.033   0.162  -1.504  1.00  0.00    -0.221 OA
ENDBRANCH  10  14
ENDBRANCH   6   9
ENDBRANCH   4   5
ENDBRANCH   3   4
ENDBRANCH   2   3
ENDBRANCH   1   2
BRANCH   1  18
ATOM     18  C   UNL     1       1.820  10.616  -2.302  1.00  0.00     0.021 C 
BRANCH  18  19
ATOM     19  C   UNL     1       1.824  11.421  -1.008  1.00  0.00     0.116 C 
BRANCH  19  20
ATOM     20  N   UNL     1       2.767  12.526  -1.066  1.00  0.00    -0.352 N 
ATOM     21  C   UNL     1       2.547  13.870  -0.906  1.00  0.00     0.251 C 
ATOM     22  H   UNL     1       3.701  12.272  -1.248  1.00  0.00     0.163 HD
ATOM     23  O   UNL     1       3.412  14.679  -1.226  1.00  0.00    -0.269 OA
BRANCH  21  24
ATOM     24  C   UNL     1       1.260  14.343  -0.358  1.00  0.00     0.039 A 
ATOM     25  C   UNL     1       0.643  15.453  -0.941  1.00  0.00     0.014 A 
ATOM     26  C   UNL     1       0.671  13.705   0.738  1.00  0.00     0.014 A 
ATOM     27  C   UNL     1      -0.591  15.888  -0.458  1.00  0.00     0.010 A 
ATOM     28  C   UNL     1      -0.596  14.089   1.164  1.00  0.00     0.010 A 
ATOM     29  C   UNL     1      -1.236  15.189   0.576  1.00  0.00    -0.014 A 
BRANCH  29  30
ATOM     30  C   UNL     1      -2.583  15.596   1.050  1.00  0.00     0.031 A 
ATOM     31  C   UNL     1      -2.782  16.064   2.465  1.00  0.00     0.074 A 
ATOM     32  C   UNL     1      -3.638  15.487   0.220  1.00  0.00     0.049 A 
ATOM     33  N   UNL     1      -3.887  16.418   3.071  1.00  0.00    -0.248 NA
ATOM     34  C   UNL     1      -1.586  16.116   3.320  1.00  0.00     0.031 C 
ATOM     35  C   UNL     1      -3.581  14.999  -1.159  1.00  0.00     0.029 A 
ATOM     36  N   UNL     1      -4.965  15.773   0.417  1.00  0.00    -0.354 N 
ATOM     37  C   UNL     1      -3.521  16.723   4.376  1.00  0.00     0.074 A 
ATOM     38  C   UNL     1      -2.105  16.453   4.491  1.00  0.00     0.031 C 
ATOM     39  C   UNL     1      -4.812  15.046  -1.692  1.00  0.00     0.029 A 
ATOM     40  C   UNL     1      -5.750  15.526  -0.683  1.00  0.00     0.049 A 
ATOM     41  H   UNL     1      -5.321  16.123   1.266  1.00  0.00     0.167 HD
ATOM     42  C   UNL     1      -4.291  17.205   5.380  1.00  0.00     0.037 A 
ATOM     43  C   UNL     1      -7.078  15.663  -0.856  1.00  0.00     0.037 A 
ATOM     44  C   UNL     1      -5.699  17.482   5.256  1.00  0.00     0.049 A 
ATOM     45  C   UNL     1      -7.915  16.183   0.279  1.00  0.00     0.074 A 
ATOM     46  C   UNL     1      -6.557  18.028   6.195  1.00  0.00     0.029 A 
ATOM     47  N   UNL     1      -6.459  17.222   4.125  1.00  0.00    -0.354 N 
ATOM     48  N   UNL     1      -7.545  16.540   1.485  1.00  0.00    -0.248 NA
ATOM     49  C   UNL     1      -9.356  16.326   0.026  1.00  0.00     0.031 C 
ATOM     50  C   UNL     1      -7.846  18.042   5.653  1.00  0.00     0.029 A 
ATOM     51  C   UNL     1      -7.782  17.566   4.353  1.00  0.00     0.049 A 
ATOM     52  H   UNL     1      -6.110  16.849   3.283  1.00  0.00     0.167 HD
ATOM     53  C   UNL     1      -8.698  16.975   2.125  1.00  0.00     0.074 A 
ATOM     54  C   UNL     1      -9.777  16.852   1.167  1.00  0.00     0.031 C 
ATOM     55  C   UNL     1      -8.848  17.436   3.392  1.00  0.00     0.037 A 
BRANCH  42  56
ATOM     56  C   UNL     1      -3.625  17.455   6.704  1.00  0.00     0.057 A 
ATOM     57  C   UNL     1      -2.670  18.468   6.877  1.00  0.00     0.134 A 
ATOM     58  C   UNL     1      -3.956  16.686   7.827  1.00  0.00     0.134 A 
ATOM     59  F   UNL     1      -2.297  19.235   5.841  1.00  0.00    -0.206 F 
ATOM     60  C   UNL     1      -2.044  18.681   8.106  1.00  0.00     0.040 A 
ATOM     61  C   UNL     1      -3.361  16.913   9.070  1.00  0.00     0.040 A 
ATOM     62  F   UNL     1      -4.866  15.706   7.738  1.00  0.00    -0.206 F 
ATOM     63  C   UNL     1      -2.394  17.906   9.209  1.00  0.00     0.006 A 
ENDBRANCH  42  56
BRANCH  43  64
ATOM     64  C   UNL     1      -7.692  15.320  -2.164  1.00  0.00     0.057 A 
ATOM     65  C   UNL     1      -8.218  16.312  -2.999  1.00  0.00     0.134 A 
ATOM     66  C   UNL     1      -7.763  13.995  -2.614  1.00  0.00     0.134 A 
ATOM     67  F   UNL     1      -8.194  17.598  -2.617  1.00  0.00    -0.206 F 
ATOM     68  C   UNL     1      -8.807  16.000  -4.225  1.00  0.00     0.040 A 
ATOM     69  C   UNL     1      -8.325  13.672  -3.850  1.00  0.00     0.040 A 
ATOM     70  F   UNL     1      -7.268  12.998  -1.865  1.00  0.00    -0.206 F 
ATOM     71  C   UNL     1      -8.856  14.676  -4.656  1.00  0.00     0.006 A 
ENDBRANCH  43  64
BRANCH  55  72
ATOM     72  C   UNL     1     -10.225  17.873   3.805  1.00  0.00     0.057 A 
ATOM     73  C   UNL     1     -11.268  16.959   4.002  1.00  0.00     0.134 A 
ATOM     74  C   UNL     1     -10.501  19.227   4.042  1.00  0.00     0.134 A 
ATOM     75  F   UNL     1     -11.075  15.649   3.781  1.00  0.00    -0.206 F 
ATOM     76  C   UNL     1     -12.541  17.377   4.392  1.00  0.00     0.040 A 
ATOM     77  C   UNL     1     -11.761  19.653   4.463  1.00  0.00     0.040 A 
ATOM     78  F   UNL     1      -9.546  20.155   3.882  1.00  0.00    -0.206 F 
ATOM     79  C   UNL     1     -12.788  18.728   4.631  1.00  0.00     0.006 A 
ENDBRANCH  55  72
ENDBRANCH  29  30
ENDBRANCH  21  24
ENDBRANCH  19  20
ENDBRANCH  18  19
ENDBRANCH   1  18
TORSDOF 14
