REMARK SMILES COc1ccc(C)cc1[C@@H](C)NC(=O)CC1(C(=O)NCCCCCCNC(=O)c2ccc(-c3c4nc(c(-c5c(F)cccc5F)c5ccc([nH]5)c(-c5c(F)cccc5F)c5nc(c(-c6c(F)cccc6F)c6ccc3[nH]6)C=C5)C=C4)cc2)CCCC1
REMARK SMILES IDX 21 1 20 2 19 3 17 4 18 5 16 7 83 8 86 9 84 10 85 11 15 12
REMARK SMILES IDX 13 13 12 14 14 16 10 17 11 18 9 19 3 20 4 21 5 22 8 23 6 24
REMARK SMILES IDX 7 25 2 26 1 27 22 28 23 29 24 30 25 31 26 32 27 33 28 35
REMARK SMILES IDX 29 36 30 37 82 38 31 39 81 40 32 41 33 42 34 43 75 44 35 45
REMARK SMILES IDX 80 46 74 47 76 48 36 49 79 50 73 51 72 52 37 54 63 55 46 56
REMARK SMILES IDX 62 57 47 58 50 59 61 60 77 61 48 62 49 63 60 65 78 66 51 67
REMARK SMILES IDX 38 68 39 69 44 70 40 71 41 72 43 73 45 74 42 75 64 76 65 77
REMARK SMILES IDX 70 78 66 79 67 80 69 81 71 82 68 83 52 84 53 85 58 86 54 87
REMARK SMILES IDX 55 88 57 89 59 90 56 91
REMARK H PARENT 19 6 12 15 26 34 76 53 50 64
REMARK Flexibility Score: inf
ROOT
ATOM      1  C   UNL     1       3.445   3.233   1.746  1.00  0.00     0.021 C 
ENDROOT
BRANCH   1   2
ATOM      2  C   UNL     1       2.255   2.276   1.817  1.00  0.00     0.116 C 
BRANCH   2   3
ATOM      3  N   UNL     1       1.408   2.555   2.952  1.00  0.00    -0.356 N 
ATOM      4  C   UNL     1       0.076   2.710   3.122  1.00  0.00     0.226 C 
ATOM      5  O   UNL     1      -0.237   3.085   4.259  1.00  0.00    -0.274 OA
ATOM      6  H   UNL     1       1.914   2.654   3.790  1.00  0.00     0.163 HD
BRANCH   4   7
ATOM      7  C   UNL     1      -1.009   2.589   2.021  1.00  0.00     0.058 C 
ATOM      8  C   UNL     1      -0.738   1.668   0.820  1.00  0.00     0.017 C 
ATOM      9  C   UNL     1      -1.178   3.983   1.359  1.00  0.00     0.017 C 
ATOM     10  C   UNL     1      -0.549   2.524  -0.429  1.00  0.00     0.001 C 
ATOM     11  C   UNL     1      -0.385   3.945   0.062  1.00  0.00     0.001 C 
BRANCH   7  12
ATOM     12  C   UNL     1      -2.350   2.155   2.702  1.00  0.00     0.117 C 
BRANCH  12  13
ATOM     13  C   UNL     1      -2.305   1.289   3.959  1.00  0.00     0.221 C 
ATOM     14  N   UNL     1      -1.757   0.051   4.004  1.00  0.00    -0.349 N 
ATOM     15  H   UNL     1      -1.541  -0.248   4.917  1.00  0.00     0.164 HD
ATOM     16  O   UNL     1      -2.843   1.685   5.000  1.00  0.00    -0.275 OA
BRANCH  14  17
ATOM     17  C   UNL     1      -1.419  -0.933   2.975  1.00  0.00     0.113 C 
ATOM     18  C   UNL     1      -2.481  -2.037   2.963  1.00  0.00     0.036 C 
BRANCH  17  19
ATOM     19  C   UNL     1      -0.028  -1.514   3.203  1.00  0.00     0.016 A 
ATOM     20  C   UNL     1       0.937  -1.565   2.175  1.00  0.00     0.124 A 
ATOM     21  C   UNL     1       2.243  -1.978   2.467  1.00  0.00     0.047 A 
ATOM     22  C   UNL     1       2.567  -2.467   3.733  1.00  0.00     0.007 A 
ATOM     23  C   UNL     1       0.313  -2.047   4.463  1.00  0.00     0.013 A 
ATOM     24  C   UNL     1       1.593  -2.550   4.726  1.00  0.00    -0.051 A 
ATOM     25  C   UNL     1       1.883  -3.212   6.040  1.00  0.00     0.044 C 
BRANCH  20  26
ATOM     26  O   UNL     1       0.503  -1.251   0.915  1.00  0.00    -0.496 OA
ATOM     27  C   UNL     1       1.450  -1.252  -0.148  1.00  0.00     0.278 C 
ENDBRANCH  20  26
ENDBRANCH  17  19
ENDBRANCH  14  17
ENDBRANCH  12  13
ENDBRANCH   7  12
ENDBRANCH   4   7
ENDBRANCH   2   3
ENDBRANCH   1   2
BRANCH   1  28
ATOM     28  C   UNL     1       4.549   2.999   2.784  1.00  0.00     0.002 C 
BRANCH  28  29
ATOM     29  C   UNL     1       5.134   1.579   2.867  1.00  0.00     0.002 C 
BRANCH  29  30
ATOM     30  C   UNL     1       5.455   0.889   1.539  1.00  0.00     0.021 C 
BRANCH  30  31
ATOM     31  C   UNL     1       6.543   1.568   0.717  1.00  0.00     0.116 C 
BRANCH  31  32
ATOM     32  N   UNL     1       7.859   0.956   0.843  1.00  0.00    -0.352 N 
ATOM     33  C   UNL     1       9.072   1.383   0.313  1.00  0.00     0.251 C 
ATOM     34  H   UNL     1       7.895   0.129   1.376  1.00  0.00     0.163 HD
ATOM     35  O   UNL     1      10.094   0.770   0.523  1.00  0.00    -0.269 OA
BRANCH  33  36
ATOM     36  C   UNL     1       9.103   2.685  -0.402  1.00  0.00     0.039 A 
ATOM     37  C   UNL     1      10.015   3.643   0.051  1.00  0.00     0.014 A 
ATOM     38  C   UNL     1       8.098   3.031  -1.300  1.00  0.00     0.014 A 
ATOM     39  C   UNL     1       9.749   4.989  -0.178  1.00  0.00     0.010 A 
ATOM     40  C   UNL     1       7.780   4.366  -1.454  1.00  0.00     0.010 A 
ATOM     41  C   UNL     1       8.563   5.339  -0.824  1.00  0.00    -0.014 A 
BRANCH  41  42
ATOM     42  C   UNL     1       8.011   6.687  -0.760  1.00  0.00     0.031 A 
ATOM     43  C   UNL     1       8.126   7.598  -1.913  1.00  0.00     0.074 A 
ATOM     44  C   UNL     1       7.374   7.088   0.363  1.00  0.00     0.049 A 
ATOM     45  N   UNL     1       8.157   8.885  -1.825  1.00  0.00    -0.248 NA
ATOM     46  C   UNL     1       8.262   7.109  -3.277  1.00  0.00     0.031 C 
ATOM     47  C   UNL     1       6.603   8.313   0.556  1.00  0.00     0.029 A 
ATOM     48  N   UNL     1       7.501   6.546   1.651  1.00  0.00    -0.354 N 
ATOM     49  C   UNL     1       8.039   9.396  -3.099  1.00  0.00     0.074 A 
ATOM     50  C   UNL     1       8.182   8.250  -3.967  1.00  0.00     0.031 C 
ATOM     51  C   UNL     1       6.579   8.601   1.867  1.00  0.00     0.029 A 
ATOM     52  C   UNL     1       7.436   7.640   2.540  1.00  0.00     0.049 A 
ATOM     53  H   UNL     1       7.612   5.597   1.886  1.00  0.00     0.167 HD
ATOM     54  C   UNL     1       7.691  10.707  -3.262  1.00  0.00     0.037 A 
ATOM     55  C   UNL     1       8.486   7.958   3.350  1.00  0.00     0.037 A 
ATOM     56  C   UNL     1       7.611  11.394  -1.972  1.00  0.00     0.049 A 
ATOM     57  C   UNL     1       9.044   9.341   3.110  1.00  0.00     0.074 A 
ATOM     58  C   UNL     1       6.543  11.702  -1.144  1.00  0.00     0.029 A 
ATOM     59  N   UNL     1       8.762  11.583  -1.213  1.00  0.00    -0.354 N 
ATOM     60  N   UNL     1       8.819  10.038   2.030  1.00  0.00    -0.248 NA
ATOM     61  C   UNL     1       9.918  10.037   4.051  1.00  0.00     0.031 C 
ATOM     62  C   UNL     1       7.054  12.014   0.139  1.00  0.00     0.029 A 
ATOM     63  C   UNL     1       8.434  11.918   0.088  1.00  0.00     0.049 A 
ATOM     64  H   UNL     1       9.681  11.492  -1.554  1.00  0.00     0.167 HD
ATOM     65  C   UNL     1       9.498  11.227   2.103  1.00  0.00     0.074 A 
ATOM     66  C   UNL     1      10.156  11.187   3.396  1.00  0.00     0.031 C 
ATOM     67  C   UNL     1       9.464  12.142   1.090  1.00  0.00     0.037 A 
BRANCH  54  68
ATOM     68  C   UNL     1       7.104  11.264  -4.546  1.00  0.00     0.057 A 
ATOM     69  C   UNL     1       6.175  12.325  -4.518  1.00  0.00     0.134 A 
ATOM     70  C   UNL     1       7.348  10.757  -5.833  1.00  0.00     0.134 A 
ATOM     71  F   UNL     1       5.928  13.019  -3.400  1.00  0.00    -0.206 F 
ATOM     72  C   UNL     1       5.445  12.736  -5.642  1.00  0.00     0.040 A 
ATOM     73  C   UNL     1       6.589  11.119  -6.958  1.00  0.00     0.040 A 
ATOM     74  F   UNL     1       8.375   9.935  -6.080  1.00  0.00    -0.206 F 
ATOM     75  C   UNL     1       5.616  12.100  -6.860  1.00  0.00     0.006 A 
ENDBRANCH  54  68
BRANCH  55  76
ATOM     76  C   UNL     1       9.268   6.777   3.797  1.00  0.00     0.057 A 
ATOM     77  C   UNL     1       8.635   5.828   4.620  1.00  0.00     0.134 A 
ATOM     78  C   UNL     1      10.448   6.382   3.164  1.00  0.00     0.134 A 
ATOM     79  F   UNL     1       7.497   6.144   5.260  1.00  0.00    -0.206 F 
ATOM     80  C   UNL     1       9.090   4.511   4.719  1.00  0.00     0.040 A 
ATOM     81  C   UNL     1      10.921   5.068   3.265  1.00  0.00     0.040 A 
ATOM     82  F   UNL     1      11.099   7.223   2.347  1.00  0.00    -0.206 F 
ATOM     83  C   UNL     1      10.221   4.119   4.011  1.00  0.00     0.006 A 
ENDBRANCH  55  76
BRANCH  67  84
ATOM     84  C   UNL     1      10.318  13.382   0.993  1.00  0.00     0.057 A 
ATOM     85  C   UNL     1      11.617  13.486   1.508  1.00  0.00     0.134 A 
ATOM     86  C   UNL     1       9.885  14.489   0.229  1.00  0.00     0.134 A 
ATOM     87  F   UNL     1      12.197  12.467   2.159  1.00  0.00    -0.206 F 
ATOM     88  C   UNL     1      12.408  14.629   1.328  1.00  0.00     0.040 A 
ATOM     89  C   UNL     1      10.683  15.613  -0.001  1.00  0.00     0.040 A 
ATOM     90  F   UNL     1       8.673  14.517  -0.346  1.00  0.00    -0.206 F 
ATOM     91  C   UNL     1      11.946  15.693   0.562  1.00  0.00     0.006 A 
ENDBRANCH  67  84
ENDBRANCH  41  42
ENDBRANCH  33  36
ENDBRANCH  31  32
ENDBRANCH  30  31
ENDBRANCH  29  30
ENDBRANCH  28  29
ENDBRANCH   1  28
TORSDOF 18
