REMARK SMILES CCc1cc(C[NH+]2CCC(C(=O)NCCCCCCNC(=O)c3ccc(-c4c5nc(c(-c6c(F)cccc6F)c6ccc([nH]6)c(-c6c(F)cccc6F)c6nc(c(-c7c(F)cccc7F)c7ccc4[nH]7)C=C6)C=C5)cc3)(n3ccc(-c4ccco4)n3)CC2)on1
REMARK SMILES IDX 16 1 15 2 14 3 13 4 11 5 12 6 10 8 7 9 8 10 88 11 9 13 87 14
REMARK SMILES IDX 6 15 5 16 3 17 4 18 90 19 89 20 2 21 1 22 77 23 78 24 86 25
REMARK SMILES IDX 79 26 80 27 81 28 82 29 85 30 83 31 84 32 17 33 18 34 19 35
REMARK SMILES IDX 20 36 21 37 22 39 23 40 24 41 76 42 25 43 75 44 26 45 27 46
REMARK SMILES IDX 28 47 69 48 29 49 74 50 68 51 70 52 30 53 73 54 67 55 66 56
REMARK SMILES IDX 31 58 57 59 40 60 56 61 41 62 44 63 55 64 71 65 42 66 43 67
REMARK SMILES IDX 54 69 72 70 45 71 32 72 33 73 38 74 34 75 35 76 37 77 39 78
REMARK SMILES IDX 36 79 58 80 59 81 64 82 60 83 61 84 63 85 65 86 62 87 46 88
REMARK SMILES IDX 47 89 52 90 48 91 49 92 51 93 53 94 50 95
REMARK H PARENT 13 7 7 12 20 38 70 57 44 68
REMARK Flexibility Score: inf
ROOT
ATOM      1  C   UNL     1      -2.670   3.995  11.327  1.00  0.00     0.002 C 
ENDROOT
BRANCH   1   2
ATOM      2  C   UNL     1      -2.054   3.771   9.942  1.00  0.00     0.021 C 
BRANCH   2   3
ATOM      3  C   UNL     1      -1.130   2.559   9.867  1.00  0.00     0.116 C 
BRANCH   3   4
ATOM      4  N   UNL     1      -1.875   1.314   9.990  1.00  0.00    -0.354 N 
ATOM      5  C   UNL     1      -1.965   0.195   9.196  1.00  0.00     0.248 C 
ATOM      6  O   UNL     1      -2.549  -0.749   9.735  1.00  0.00    -0.272 OA
ATOM      7  H   UNL     1      -2.424   1.263  10.806  1.00  0.00     0.163 HD
BRANCH   5   8
ATOM      8  C   UNL     1      -1.262   0.119   7.807  1.00  0.00     0.151 C 
ATOM      9  N   UNL     1       0.683   1.738   6.268  1.00  0.00    -0.328 N 
ATOM     10  C   UNL     1      -0.703   1.604   5.810  1.00  0.00     0.265 C 
ATOM     11  C   UNL     1       1.189   0.622   7.066  1.00  0.00     0.265 C 
ATOM     12  H   UNL     1       0.661   2.537   6.902  1.00  0.00     0.348 HD
ATOM     13  C   UNL     1      -1.698   1.302   6.921  1.00  0.00     0.102 C 
ATOM     14  C   UNL     1       0.253   0.125   8.158  1.00  0.00     0.102 C 
BRANCH   9  15
ATOM     15  C   UNL     1       1.604   2.013   5.129  1.00  0.00     0.341 C 
BRANCH  15  16
ATOM     16  C   UNL     1       1.530   1.026   4.011  1.00  0.00     0.191 A 
ATOM     17  C   UNL     1       1.106  -0.302   2.304  1.00  0.00     0.084 A 
ATOM     18  C   UNL     1       0.838   0.985   2.824  1.00  0.00     0.078 A 
ATOM     19  N   UNL     1       1.948  -0.978   3.095  1.00  0.00    -0.085 NA
ATOM     20  O   UNL     1       2.229  -0.133   4.154  1.00  0.00    -0.355 OA
BRANCH  17  21
ATOM     21  C   UNL     1       0.559  -0.925   1.066  1.00  0.00     0.056 C 
ATOM     22  C   UNL     1       0.958  -0.164  -0.188  1.00  0.00     0.011 C 
ENDBRANCH  17  21
ENDBRANCH  15  16
ENDBRANCH   9  15
BRANCH   8  23
ATOM     23  N   UNL     1      -1.599  -1.133   7.054  1.00  0.00    -0.256 N 
ATOM     24  C   UNL     1      -0.844  -1.730   6.069  1.00  0.00     0.111 A 
ATOM     25  N   UNL     1      -2.821  -1.724   7.135  1.00  0.00    -0.169 NA
ATOM     26  C   UNL     1      -1.456  -2.912   5.760  1.00  0.00     0.054 A 
ATOM     27  C   UNL     1      -2.663  -2.882   6.476  1.00  0.00     0.128 A 
BRANCH  27  28
ATOM     28  C   UNL     1      -3.632  -4.011   6.457  1.00  0.00     0.154 A 
ATOM     29  C   UNL     1      -4.935  -4.011   6.910  1.00  0.00     0.052 A 
ATOM     30  O   UNL     1      -3.322  -5.255   5.970  1.00  0.00    -0.463 OA
ATOM     31  C   UNL     1      -5.442  -5.319   6.692  1.00  0.00     0.043 A 
ATOM     32  C   UNL     1      -4.409  -6.044   6.148  1.00  0.00     0.196 A 
ENDBRANCH  27  28
ENDBRANCH   8  23
ENDBRANCH   5   8
ENDBRANCH   3   4
ENDBRANCH   2   3
ENDBRANCH   1   2
BRANCH   1  33
ATOM     33  C   UNL     1      -1.659   4.167  12.466  1.00  0.00     0.002 C 
BRANCH  33  34
ATOM     34  C   UNL     1      -0.604   5.251  12.235  1.00  0.00     0.021 C 
BRANCH  34  35
ATOM     35  C   UNL     1      -1.177   6.639  11.977  1.00  0.00     0.116 C 
BRANCH  35  36
ATOM     36  N   UNL     1      -1.914   7.149  13.123  1.00  0.00    -0.352 N 
ATOM     37  C   UNL     1      -1.765   8.345  13.777  1.00  0.00     0.251 C 
ATOM     38  H   UNL     1      -2.616   6.555  13.476  1.00  0.00     0.163 HD
ATOM     39  O   UNL     1      -2.334   8.548  14.847  1.00  0.00    -0.269 OA
BRANCH  37  40
ATOM     40  C   UNL     1      -0.896   9.385  13.192  1.00  0.00     0.039 A 
ATOM     41  C   UNL     1       0.033  10.036  14.006  1.00  0.00     0.014 A 
ATOM     42  C   UNL     1      -0.992   9.700  11.834  1.00  0.00     0.014 A 
ATOM     43  C   UNL     1       0.908  10.968  13.444  1.00  0.00     0.010 A 
ATOM     44  C   UNL     1      -0.069  10.567  11.262  1.00  0.00     0.010 A 
ATOM     45  C   UNL     1       0.884  11.217  12.063  1.00  0.00    -0.014 A 
BRANCH  45  46
ATOM     46  C   UNL     1       1.822  12.175  11.426  1.00  0.00     0.031 A 
ATOM     47  C   UNL     1       1.281  13.402  10.746  1.00  0.00     0.074 A 
ATOM     48  C   UNL     1       3.142  11.906  11.390  1.00  0.00     0.049 A 
ATOM     49  N   UNL     1       1.909  14.294  10.023  1.00  0.00    -0.248 NA
ATOM     50  C   UNL     1      -0.166  13.640  10.870  1.00  0.00     0.031 C 
ATOM     51  C   UNL     1       3.786  10.736  11.989  1.00  0.00     0.029 A 
ATOM     52  N   UNL     1       4.177  12.593  10.807  1.00  0.00    -0.354 N 
ATOM     53  C   UNL     1       0.933  15.184   9.593  1.00  0.00     0.074 A 
ATOM     54  C   UNL     1      -0.335  14.694  10.086  1.00  0.00     0.031 C 
ATOM     55  C   UNL     1       5.107  10.795  11.757  1.00  0.00     0.029 A 
ATOM     56  C   UNL     1       5.398  11.979  10.954  1.00  0.00     0.049 A 
ATOM     57  H   UNL     1       4.057  13.445  10.329  1.00  0.00     0.167 HD
ATOM     58  C   UNL     1       1.083  16.321   8.873  1.00  0.00     0.037 A 
ATOM     59  C   UNL     1       6.610  12.324  10.479  1.00  0.00     0.037 A 
ATOM     60  C   UNL     1       2.350  16.815   8.404  1.00  0.00     0.049 A 
ATOM     61  C   UNL     1       6.747  13.575   9.653  1.00  0.00     0.074 A 
ATOM     62  C   UNL     1       2.614  17.979   7.704  1.00  0.00     0.029 A 
ATOM     63  N   UNL     1       3.565  16.173   8.589  1.00  0.00    -0.354 N 
ATOM     64  N   UNL     1       5.824  14.435   9.295  1.00  0.00    -0.248 NA
ATOM     65  C   UNL     1       8.094  13.907   9.168  1.00  0.00     0.031 C 
ATOM     66  C   UNL     1       3.982  18.015   7.420  1.00  0.00     0.029 A 
ATOM     67  C   UNL     1       4.579  16.906   7.997  1.00  0.00     0.049 A 
ATOM     68  H   UNL     1       3.687  15.322   9.069  1.00  0.00     0.167 HD
ATOM     69  C   UNL     1       6.483  15.429   8.583  1.00  0.00     0.074 A 
ATOM     70  C   UNL     1       7.885  15.066   8.560  1.00  0.00     0.031 C 
ATOM     71  C   UNL     1       5.974  16.544   8.006  1.00  0.00     0.037 A 
BRANCH  58  72
ATOM     72  C   UNL     1      -0.156  17.105   8.548  1.00  0.00     0.057 A 
ATOM     73  C   UNL     1      -0.884  17.782   9.535  1.00  0.00     0.134 A 
ATOM     74  C   UNL     1      -0.610  17.211   7.227  1.00  0.00     0.134 A 
ATOM     75  F   UNL     1      -0.512  17.713  10.823  1.00  0.00    -0.206 F 
ATOM     76  C   UNL     1      -2.034  18.510   9.226  1.00  0.00     0.040 A 
ATOM     77  C   UNL     1      -1.740  17.962   6.900  1.00  0.00     0.040 A 
ATOM     78  F   UNL     1       0.043  16.593   6.230  1.00  0.00    -0.206 F 
ATOM     79  C   UNL     1      -2.460  18.608   7.903  1.00  0.00     0.006 A 
ENDBRANCH  58  72
BRANCH  59  80
ATOM     80  C   UNL     1       7.798  11.485  10.783  1.00  0.00     0.057 A 
ATOM     81  C   UNL     1       8.819  11.956  11.617  1.00  0.00     0.134 A 
ATOM     82  C   UNL     1       7.954  10.206  10.237  1.00  0.00     0.134 A 
ATOM     83  F   UNL     1       8.738  13.181  12.157  1.00  0.00    -0.206 F 
ATOM     84  C   UNL     1       9.962  11.198  11.877  1.00  0.00     0.040 A 
ATOM     85  C   UNL     1       9.078   9.424  10.511  1.00  0.00     0.040 A 
ATOM     86  F   UNL     1       7.008   9.691   9.436  1.00  0.00    -0.206 F 
ATOM     87  C   UNL     1      10.091   9.925  11.325  1.00  0.00     0.006 A 
ENDBRANCH  59  80
BRANCH  71  88
ATOM     88  C   UNL     1       6.938  17.494   7.356  1.00  0.00     0.057 A 
ATOM     89  C   UNL     1       7.569  17.202   6.142  1.00  0.00     0.134 A 
ATOM     90  C   UNL     1       7.180  18.752   7.926  1.00  0.00     0.134 A 
ATOM     91  F   UNL     1       7.389  16.012   5.550  1.00  0.00    -0.206 F 
ATOM     92  C   UNL     1       8.418  18.122   5.523  1.00  0.00     0.040 A 
ATOM     93  C   UNL     1       8.003  19.690   7.303  1.00  0.00     0.040 A 
ATOM     94  F   UNL     1       6.599  19.098   9.085  1.00  0.00    -0.206 F 
ATOM     95  C   UNL     1       8.628  19.374   6.099  1.00  0.00     0.006 A 
ENDBRANCH  71  88
ENDBRANCH  45  46
ENDBRANCH  37  40
ENDBRANCH  35  36
ENDBRANCH  34  35
ENDBRANCH  33  34
ENDBRANCH   1  33
TORSDOF 18
