REMARK SMILES COc1cccc(-c2nn(-c3cc4c(cc3C(N)=O)OCO4)cc2C(=O)NCCCCCCNC(=O)c2ccc(-c3c4nc(c(-c5c(F)cccc5F)c5ccc([nH]5)c(-c5c(F)cccc5F)c5nc(c(-c6c(F)cccc6F)c6ccc3[nH]6)C=C5)C=C4)cc2)c1
REMARK SMILES IDX 30 1 29 2 28 3 27 4 25 5 26 6 24 8 8 9 9 10 10 11 23 12 7 13
REMARK SMILES IDX 3 14 4 15 91 16 5 17 6 18 2 19 1 20 11 21 12 22 16 23 13 24
REMARK SMILES IDX 15 25 14 26 22 27 20 28 21 29 17 30 18 31 19 32 31 35 32 36
REMARK SMILES IDX 33 37 34 38 35 39 36 41 37 42 38 43 90 44 39 45 89 46 40 47
REMARK SMILES IDX 41 48 42 49 83 50 43 51 88 52 82 53 84 54 44 55 87 56 81 57
REMARK SMILES IDX 80 58 45 60 71 61 54 62 70 63 55 64 58 65 69 66 85 67 56 68
REMARK SMILES IDX 57 69 68 71 86 72 59 73 46 74 47 75 52 76 48 77 49 78 51 79
REMARK SMILES IDX 53 80 50 81 72 82 73 83 78 84 74 85 75 86 77 87 79 88 76 89
REMARK SMILES IDX 60 90 61 91 66 92 62 93 63 94 65 95 67 96 64 97
REMARK H PARENT 27 7 18 33 18 34 34 40 84 59 58 70
REMARK Flexibility Score: inf
ROOT
ATOM      1  C   UNL     1       5.394   8.804   4.083  1.00  0.00     0.002 C 
ENDROOT
BRANCH   1   2
ATOM      2  C   UNL     1       5.991   8.003   2.920  1.00  0.00     0.021 C 
BRANCH   2   3
ATOM      3  C   UNL     1       5.721   6.503   3.028  1.00  0.00     0.116 C 
BRANCH   3   4
ATOM      4  N   UNL     1       4.348   6.214   2.683  1.00  0.00    -0.352 N 
ATOM      5  C   UNL     1       3.753   5.627   1.599  1.00  0.00     0.255 C 
ATOM      6  O   UNL     1       2.525   5.550   1.655  1.00  0.00    -0.269 OA
ATOM      7  H   UNL     1       3.705   6.499   3.372  1.00  0.00     0.163 HD
BRANCH   5   8
ATOM      8  C   UNL     1       4.518   5.081   0.485  1.00  0.00     0.086 A 
ATOM      9  C   UNL     1       4.053   4.204  -0.558  1.00  0.00     0.106 A 
ATOM     10  N   UNL     1       5.071   3.764  -1.330  1.00  0.00    -0.167 NA
ATOM     11  N   UNL     1       6.166   4.230  -0.692  1.00  0.00    -0.239 N 
ATOM     12  C   UNL     1       5.838   5.271   0.141  1.00  0.00     0.129 A 
BRANCH   9  13
ATOM     13  C   UNL     1       2.669   3.801  -0.812  1.00  0.00     0.007 A 
ATOM     14  C   UNL     1       0.948   2.098  -0.913  1.00  0.00     0.119 A 
ATOM     15  C   UNL     1      -0.015   3.086  -1.139  1.00  0.00     0.046 A 
ATOM     16  C   UNL     1       2.292   2.452  -0.765  1.00  0.00     0.056 A 
ATOM     17  C   UNL     1       0.354   4.427  -1.200  1.00  0.00     0.005 A 
ATOM     18  C   UNL     1       1.693   4.782  -1.047  1.00  0.00     0.011 A 
BRANCH  14  19
ATOM     19  O   UNL     1       0.476   0.813  -0.912  1.00  0.00    -0.497 OA
ATOM     20  C   UNL     1       1.074  -0.042   0.056  1.00  0.00     0.278 C 
ENDBRANCH  14  19
ENDBRANCH   9  13
BRANCH  11  21
ATOM     21  C   UNL     1       7.489   3.829  -0.999  1.00  0.00     0.081 A 
ATOM     22  C   UNL     1       7.860   3.765  -2.355  1.00  0.00     0.079 A 
ATOM     23  C   UNL     1       8.448   3.592   0.033  1.00  0.00     0.069 A 
ATOM     24  C   UNL     1       9.194   3.553  -2.637  1.00  0.00     0.167 A 
ATOM     25  C   UNL     1       9.805   3.470  -0.309  1.00  0.00     0.066 A 
ATOM     26  C   UNL     1      10.137   3.439  -1.643  1.00  0.00     0.166 A 
ATOM     27  O   UNL     1       9.752   3.448  -3.874  1.00  0.00    -0.454 OA
ATOM     28  O   UNL     1      11.393   3.248  -2.128  1.00  0.00    -0.454 OA
ATOM     29  C   UNL     1      11.101   3.065  -3.529  1.00  0.00     0.468 C 
BRANCH  23  30
ATOM     30  C   UNL     1       8.050   3.277   1.450  1.00  0.00     0.251 C 
ATOM     31  N   UNL     1       8.935   2.572   2.223  1.00  0.00    -0.366 N 
ATOM     32  O   UNL     1       6.964   3.551   1.935  1.00  0.00    -0.269 OA
ATOM     33  H   UNL     1       9.820   2.334   1.865  1.00  0.00     0.159 HD
ATOM     34  H   UNL     1       8.685   2.305   3.137  1.00  0.00     0.159 HD
ENDBRANCH  23  30
ENDBRANCH  11  21
ENDBRANCH   5   8
ENDBRANCH   3   4
ENDBRANCH   2   3
ENDBRANCH   1   2
BRANCH   1  35
ATOM     35  C   UNL     1       5.811   8.335   5.488  1.00  0.00     0.002 C 
BRANCH  35  36
ATOM     36  C   UNL     1       7.318   8.144   5.719  1.00  0.00     0.021 C 
BRANCH  36  37
ATOM     37  C   UNL     1       8.104   9.443   5.670  1.00  0.00     0.116 C 
BRANCH  37  38
ATOM     38  N   UNL     1       7.771  10.330   6.787  1.00  0.00    -0.352 N 
ATOM     39  C   UNL     1       8.231  11.605   7.033  1.00  0.00     0.251 C 
ATOM     40  H   UNL     1       7.136   9.969   7.447  1.00  0.00     0.163 HD
ATOM     41  O   UNL     1       8.174  12.097   8.159  1.00  0.00    -0.269 OA
BRANCH  39  42
ATOM     42  C   UNL     1       8.786  12.380   5.916  1.00  0.00     0.039 A 
ATOM     43  C   UNL     1       9.918  13.186   6.065  1.00  0.00     0.014 A 
ATOM     44  C   UNL     1       8.155  12.254   4.683  1.00  0.00     0.014 A 
ATOM     45  C   UNL     1      10.449  13.808   4.938  1.00  0.00     0.010 A 
ATOM     46  C   UNL     1       8.782  12.704   3.556  1.00  0.00     0.010 A 
ATOM     47  C   UNL     1       9.879  13.547   3.684  1.00  0.00    -0.014 A 
BRANCH  47  48
ATOM     48  C   UNL     1      10.452  14.077   2.457  1.00  0.00     0.031 A 
ATOM     49  C   UNL     1      11.867  13.693   2.210  1.00  0.00     0.074 A 
ATOM     50  C   UNL     1       9.679  14.647   1.507  1.00  0.00     0.049 A 
ATOM     51  N   UNL     1      12.890  14.477   2.146  1.00  0.00    -0.248 NA
ATOM     52  C   UNL     1      12.211  12.263   2.155  1.00  0.00     0.031 C 
ATOM     53  C   UNL     1       8.219  14.811   1.494  1.00  0.00     0.029 A 
ATOM     54  N   UNL     1      10.033  15.093   0.274  1.00  0.00    -0.354 N 
ATOM     55  C   UNL     1      13.979  13.667   1.837  1.00  0.00     0.074 A 
ATOM     56  C   UNL     1      13.540  12.311   2.037  1.00  0.00     0.031 C 
ATOM     57  C   UNL     1       7.803  15.078   0.238  1.00  0.00     0.029 A 
ATOM     58  C   UNL     1       8.968  15.271  -0.603  1.00  0.00     0.049 A 
ATOM     59  H   UNL     1      10.967  15.275   0.021  1.00  0.00     0.167 HD
ATOM     60  C   UNL     1      15.075  14.176   1.210  1.00  0.00     0.037 A 
ATOM     61  C   UNL     1       9.055  15.518  -1.934  1.00  0.00     0.037 A 
ATOM     62  C   UNL     1      15.076  15.618   1.257  1.00  0.00     0.049 A 
ATOM     63  C   UNL     1      10.422  16.041  -2.189  1.00  0.00     0.074 A 
ATOM     64  C   UNL     1      15.062  16.553   2.276  1.00  0.00     0.029 A 
ATOM     65  N   UNL     1      14.681  16.295   0.128  1.00  0.00    -0.354 N 
ATOM     66  N   UNL     1      10.841  17.200  -1.760  1.00  0.00    -0.248 NA
ATOM     67  C   UNL     1      11.469  15.075  -2.492  1.00  0.00     0.031 C 
ATOM     68  C   UNL     1      14.185  17.580   1.818  1.00  0.00     0.029 A 
ATOM     69  C   UNL     1      13.785  17.257   0.520  1.00  0.00     0.049 A 
ATOM     70  H   UNL     1      14.985  16.122  -0.793  1.00  0.00     0.167 HD
ATOM     71  C   UNL     1      12.133  16.964  -1.313  1.00  0.00     0.074 A 
ATOM     72  C   UNL     1      12.496  15.661  -1.869  1.00  0.00     0.031 C 
ATOM     73  C   UNL     1      12.672  17.694  -0.290  1.00  0.00     0.037 A 
BRANCH  60  74
ATOM     74  C   UNL     1      15.944  13.415   0.239  1.00  0.00     0.057 A 
ATOM     75  C   UNL     1      17.135  14.006  -0.221  1.00  0.00     0.134 A 
ATOM     76  C   UNL     1      15.524  12.278  -0.479  1.00  0.00     0.134 A 
ATOM     77  F   UNL     1      17.636  15.100   0.373  1.00  0.00    -0.206 F 
ATOM     78  C   UNL     1      17.808  13.550  -1.361  1.00  0.00     0.040 A 
ATOM     79  C   UNL     1      16.218  11.783  -1.587  1.00  0.00     0.040 A 
ATOM     80  F   UNL     1      14.373  11.647  -0.219  1.00  0.00    -0.206 F 
ATOM     81  C   UNL     1      17.345  12.439  -2.053  1.00  0.00     0.006 A 
ENDBRANCH  60  74
BRANCH  61  82
ATOM     82  C   UNL     1       8.158  15.052  -3.019  1.00  0.00     0.057 A 
ATOM     83  C   UNL     1       8.266  15.572  -4.317  1.00  0.00     0.134 A 
ATOM     84  C   UNL     1       7.364  13.898  -2.886  1.00  0.00     0.134 A 
ATOM     85  F   UNL     1       9.026  16.650  -4.557  1.00  0.00    -0.206 F 
ATOM     86  C   UNL     1       7.653  14.961  -5.421  1.00  0.00     0.040 A 
ATOM     87  C   UNL     1       6.740  13.283  -3.977  1.00  0.00     0.040 A 
ATOM     88  F   UNL     1       7.238  13.270  -1.708  1.00  0.00    -0.206 F 
ATOM     89  C   UNL     1       6.899  13.804  -5.254  1.00  0.00     0.006 A 
ENDBRANCH  61  82
BRANCH  73  90
ATOM     90  C   UNL     1      11.919  18.909   0.184  1.00  0.00     0.057 A 
ATOM     91  C   UNL     1      10.629  18.876   0.738  1.00  0.00     0.134 A 
ATOM     92  C   UNL     1      12.581  20.141   0.217  1.00  0.00     0.134 A 
ATOM     93  F   UNL     1       9.953  17.729   0.858  1.00  0.00    -0.206 F 
ATOM     94  C   UNL     1      10.008  20.021   1.247  1.00  0.00     0.040 A 
ATOM     95  C   UNL     1      11.987  21.286   0.755  1.00  0.00     0.040 A 
ATOM     96  F   UNL     1      13.841  20.243  -0.234  1.00  0.00    -0.206 F 
ATOM     97  C   UNL     1      10.690  21.232   1.260  1.00  0.00     0.006 A 
ENDBRANCH  73  90
ENDBRANCH  47  48
ENDBRANCH  39  42
ENDBRANCH  37  38
ENDBRANCH  36  37
ENDBRANCH  35  36
ENDBRANCH   1  35
TORSDOF 17
