REMARK SMILES CCc1ccc2[nH]c(C(=O)c3cc(C)ccn3)c(CC(=O)NCCCCCCNC(=O)c3ccc(-c4c5nc(c(-c6c(F)cccc6F)c6ccc([nH]6)c(-c6c(F)cccc6F)c6nc(c(-c7c(F)cccc7F)c7ccc4[nH]7)C=C6)C=C5)cc3)c2c1
REMARK SMILES IDX 25 1 24 2 23 3 22 4 20 5 21 6 19 8 18 9 3 10 4 11 87 12 5 13
REMARK SMILES IDX 86 14 6 15 7 16 8 17 2 19 1 20 9 21 10 22 11 23 12 24 17 25
REMARK SMILES IDX 13 26 16 27 14 28 15 29 26 30 27 31 28 32 29 33 30 34 31 36
REMARK SMILES IDX 32 37 33 38 85 39 34 40 84 41 35 42 36 43 37 44 78 45 38 46
REMARK SMILES IDX 83 47 77 48 79 49 39 50 82 51 76 52 75 53 40 55 66 56 49 57
REMARK SMILES IDX 65 58 50 59 53 60 64 61 80 62 51 63 52 64 63 66 81 67 54 68
REMARK SMILES IDX 41 69 42 70 47 71 43 72 44 73 46 74 48 75 45 76 67 77 68 78
REMARK SMILES IDX 73 79 69 80 70 81 72 82 74 83 71 84 55 85 56 86 61 87 57 88
REMARK SMILES IDX 58 89 60 90 62 91 59 92
REMARK H PARENT 22 7 7 18 29 35 79 54 53 65
REMARK Flexibility Score: inf
ROOT
ATOM      1  C   UNL     1       4.620   7.098   2.380  1.00  0.00     0.002 C 
ENDROOT
BRANCH   1   2
ATOM      2  C   UNL     1       3.526   6.271   1.690  1.00  0.00     0.021 C 
BRANCH   2   3
ATOM      3  C   UNL     1       2.232   6.156   2.494  1.00  0.00     0.116 C 
BRANCH   3   4
ATOM      4  N   UNL     1       1.525   7.415   2.571  1.00  0.00    -0.356 N 
ATOM      5  C   UNL     1       0.350   7.798   1.993  1.00  0.00     0.224 C 
ATOM      6  O   UNL     1      -0.124   8.877   2.363  1.00  0.00    -0.275 OA
ATOM      7  H   UNL     1       1.960   8.103   3.126  1.00  0.00     0.163 HD
BRANCH   5   8
ATOM      8  C   UNL     1      -0.422   6.874   1.058  1.00  0.00     0.138 C 
BRANCH   8   9
ATOM      9  C   UNL     1       0.346   6.345  -0.125  1.00  0.00    -0.002 A 
ATOM     10  C   UNL     1       0.807   2.517  -0.189  1.00  0.00    -0.048 A 
ATOM     11  C   UNL     1       1.609   2.509  -1.334  1.00  0.00     0.006 A 
ATOM     12  C   UNL     1       0.312   3.749   0.281  1.00  0.00     0.014 A 
ATOM     13  C   UNL     1       1.928   3.689  -2.018  1.00  0.00     0.027 A 
ATOM     14  C   UNL     1       0.630   4.958  -0.378  1.00  0.00     0.004 A 
ATOM     15  C   UNL     1       1.425   4.892  -1.514  1.00  0.00     0.046 A 
ATOM     16  N   UNL     1       1.586   6.178  -1.965  1.00  0.00    -0.352 N 
ATOM     17  C   UNL     1       0.874   7.074  -1.192  1.00  0.00     0.093 A 
ATOM     18  H   UNL     1       2.138   6.429  -2.740  1.00  0.00     0.167 HD
BRANCH  10  19
ATOM     19  C   UNL     1       0.454   1.274   0.599  1.00  0.00     0.032 C 
ATOM     20  C   UNL     1       0.935  -0.060   0.043  1.00  0.00     0.009 C 
ENDBRANCH  10  19
BRANCH  17  21
ATOM     21  C   UNL     1       0.754   8.501  -1.471  1.00  0.00     0.227 C 
ATOM     22  O   UNL     1       0.127   9.282  -0.757  1.00  0.00    -0.285 OA
BRANCH  21  23
ATOM     23  C   UNL     1       1.366   9.038  -2.715  1.00  0.00     0.113 A 
ATOM     24  C   UNL     1       0.876   8.628  -3.953  1.00  0.00     0.036 A 
ATOM     25  N   UNL     1       2.409   9.889  -2.557  1.00  0.00    -0.253 NA
ATOM     26  C   UNL     1       1.494   9.117  -5.104  1.00  0.00    -0.047 A 
ATOM     27  C   UNL     1       2.962  10.377  -3.685  1.00  0.00     0.112 A 
ATOM     28  C   UNL     1       1.039   8.697  -6.469  1.00  0.00     0.044 C 
ATOM     29  C   UNL     1       2.552  10.020  -4.961  1.00  0.00     0.023 A 
ENDBRANCH  21  23
ENDBRANCH  17  21
ENDBRANCH   8   9
ENDBRANCH   5   8
ENDBRANCH   3   4
ENDBRANCH   2   3
ENDBRANCH   1   2
BRANCH   1  30
ATOM     30  C   UNL     1       5.026   6.613   3.777  1.00  0.00     0.002 C 
BRANCH  30  31
ATOM     31  C   UNL     1       5.467   5.149   3.858  1.00  0.00     0.021 C 
BRANCH  31  32
ATOM     32  C   UNL     1       6.685   4.802   3.007  1.00  0.00     0.116 C 
BRANCH  32  33
ATOM     33  N   UNL     1       7.878   5.513   3.439  1.00  0.00    -0.352 N 
ATOM     34  C   UNL     1       9.111   5.024   3.793  1.00  0.00     0.251 C 
ATOM     35  H   UNL     1       7.788   6.492   3.484  1.00  0.00     0.163 HD
ATOM     36  O   UNL     1       9.942   5.764   4.313  1.00  0.00    -0.269 OA
BRANCH  34  37
ATOM     37  C   UNL     1       9.437   3.600   3.568  1.00  0.00     0.039 A 
ATOM     38  C   UNL     1      10.082   2.888   4.583  1.00  0.00     0.014 A 
ATOM     39  C   UNL     1       9.125   2.972   2.359  1.00  0.00     0.014 A 
ATOM     40  C   UNL     1      10.351   1.528   4.412  1.00  0.00     0.010 A 
ATOM     41  C   UNL     1       9.335   1.602   2.215  1.00  0.00     0.010 A 
ATOM     42  C   UNL     1       9.946   0.866   3.241  1.00  0.00    -0.014 A 
BRANCH  42  43
ATOM     43  C   UNL     1      10.128  -0.599   3.086  1.00  0.00     0.031 A 
ATOM     44  C   UNL     1      11.037  -1.145   2.020  1.00  0.00     0.074 A 
ATOM     45  C   UNL     1       9.417  -1.440   3.862  1.00  0.00     0.049 A 
ATOM     46  N   UNL     1      11.263  -2.391   1.686  1.00  0.00    -0.248 NA
ATOM     47  C   UNL     1      11.770  -0.163   1.208  1.00  0.00     0.031 C 
ATOM     48  C   UNL     1       8.468  -1.035   4.901  1.00  0.00     0.029 A 
ATOM     49  N   UNL     1       9.372  -2.812   3.889  1.00  0.00    -0.354 N 
ATOM     50  C   UNL     1      12.152  -2.341   0.621  1.00  0.00     0.074 A 
ATOM     51  C   UNL     1      12.389  -0.943   0.333  1.00  0.00     0.031 C 
ATOM     52  C   UNL     1       7.949  -2.131   5.475  1.00  0.00     0.029 A 
ATOM     53  C   UNL     1       8.497  -3.315   4.820  1.00  0.00     0.049 A 
ATOM     54  H   UNL     1       9.915  -3.381   3.297  1.00  0.00     0.167 HD
ATOM     55  C   UNL     1      12.735  -3.368  -0.044  1.00  0.00     0.037 A 
ATOM     56  C   UNL     1       8.163  -4.588   5.108  1.00  0.00     0.037 A 
ATOM     57  C   UNL     1      12.514  -4.759   0.258  1.00  0.00     0.049 A 
ATOM     58  C   UNL     1       8.815  -5.708   4.347  1.00  0.00     0.074 A 
ATOM     59  C   UNL     1      13.103  -5.870  -0.319  1.00  0.00     0.029 A 
ATOM     60  N   UNL     1      11.630  -5.229   1.218  1.00  0.00    -0.354 N 
ATOM     61  N   UNL     1       9.704  -5.647   3.386  1.00  0.00    -0.248 NA
ATOM     62  C   UNL     1       8.420  -7.075   4.714  1.00  0.00     0.031 C 
ATOM     63  C   UNL     1      12.543  -7.014   0.260  1.00  0.00     0.029 A 
ATOM     64  C   UNL     1      11.641  -6.614   1.232  1.00  0.00     0.049 A 
ATOM     65  H   UNL     1      11.077  -4.662   1.803  1.00  0.00     0.167 HD
ATOM     66  C   UNL     1       9.995  -6.964   3.052  1.00  0.00     0.074 A 
ATOM     67  C   UNL     1       9.198  -7.802   3.924  1.00  0.00     0.031 C 
ATOM     68  C   UNL     1      10.844  -7.436   2.107  1.00  0.00     0.037 A 
BRANCH  55  69
ATOM     69  C   UNL     1      13.672  -3.026  -1.165  1.00  0.00     0.057 A 
ATOM     70  C   UNL     1      14.932  -2.460  -0.928  1.00  0.00     0.134 A 
ATOM     71  C   UNL     1      13.332  -3.308  -2.494  1.00  0.00     0.134 A 
ATOM     72  F   UNL     1      15.316  -2.156   0.321  1.00  0.00    -0.206 F 
ATOM     73  C   UNL     1      15.808  -2.163  -1.973  1.00  0.00     0.040 A 
ATOM     74  C   UNL     1      14.210  -3.041  -3.546  1.00  0.00     0.040 A 
ATOM     75  F   UNL     1      12.144  -3.856  -2.792  1.00  0.00    -0.206 F 
ATOM     76  C   UNL     1      15.451  -2.462  -3.287  1.00  0.00     0.006 A 
ENDBRANCH  55  69
BRANCH  56  77
ATOM     77  C   UNL     1       7.173  -4.873   6.176  1.00  0.00     0.057 A 
ATOM     78  C   UNL     1       7.564  -5.463   7.383  1.00  0.00     0.134 A 
ATOM     79  C   UNL     1       5.815  -4.574   6.014  1.00  0.00     0.134 A 
ATOM     80  F   UNL     1       8.848  -5.791   7.589  1.00  0.00    -0.206 F 
ATOM     81  C   UNL     1       6.639  -5.764   8.384  1.00  0.00     0.040 A 
ATOM     82  C   UNL     1       4.883  -4.845   7.017  1.00  0.00     0.040 A 
ATOM     83  F   UNL     1       5.377  -4.001   4.883  1.00  0.00    -0.206 F 
ATOM     84  C   UNL     1       5.293  -5.450   8.203  1.00  0.00     0.006 A 
ENDBRANCH  56  77
BRANCH  68  85
ATOM     85  C   UNL     1      10.978  -8.926   1.990  1.00  0.00     0.057 A 
ATOM     86  C   UNL     1       9.962  -9.719   1.442  1.00  0.00     0.134 A 
ATOM     87  C   UNL     1      12.153  -9.570   2.399  1.00  0.00     0.134 A 
ATOM     88  F   UNL     1       8.807  -9.164   1.044  1.00  0.00    -0.206 F 
ATOM     89  C   UNL     1      10.100 -11.103   1.327  1.00  0.00     0.040 A 
ATOM     90  C   UNL     1      12.313 -10.950   2.264  1.00  0.00     0.040 A 
ATOM     91  F   UNL     1      13.168  -8.868   2.924  1.00  0.00    -0.206 F 
ATOM     92  C   UNL     1      11.281 -11.721   1.733  1.00  0.00     0.006 A 
ENDBRANCH  68  85
ENDBRANCH  42  43
ENDBRANCH  34  37
ENDBRANCH  32  33
ENDBRANCH  31  32
ENDBRANCH  30  31
ENDBRANCH   1  30
TORSDOF 17
