REMARK SMILES CCS(=O)(=O)Nc1ccc(N2CC[NH+](C)CC2)cc1C(=O)NCCCCCCNC(=O)c1ccc(-c2c3nc(c(-c4c(F)cccc4F)c4ccc([nH]4)c(-c4c(F)cccc4F)c4nc(c(-c5c(F)cccc5F)c5ccc2[nH]5)C=C4)C=C3)cc1
REMARK SMILES IDX 25 1 24 2 23 3 22 4 20 5 21 6 19 8 7 9 8 10 9 11 18 12 10 13
REMARK SMILES IDX 6 14 3 16 4 17 5 18 2 19 1 20 11 21 12 22 17 23 13 24 16 25
REMARK SMILES IDX 14 26 15 27 26 29 27 30 28 31 29 32 30 33 31 35 32 36 33 37
REMARK SMILES IDX 85 38 34 39 84 40 35 41 36 42 37 43 78 44 38 45 83 46 77 47
REMARK SMILES IDX 79 48 39 49 82 50 76 51 75 52 40 54 66 55 49 56 65 57 50 58
REMARK SMILES IDX 53 59 64 60 80 61 51 62 52 63 63 65 81 66 54 67 41 68 42 69
REMARK SMILES IDX 47 70 43 71 44 72 46 73 48 74 45 75 67 76 68 77 73 78 69 79
REMARK SMILES IDX 70 80 72 81 74 82 71 83 55 84 56 85 61 86 57 87 58 88 60 89
REMARK SMILES IDX 62 90 59 91
REMARK H PARENT 22 7 6 15 14 28 29 34 79 53 53 64
REMARK Flexibility Score: inf
ROOT
ATOM      1  C   UNL     1       0.141  -0.129  -4.840  1.00  0.00     0.002 C 
ENDROOT
BRANCH   1   2
ATOM      2  C   UNL     1       1.660   0.092  -4.739  1.00  0.00     0.021 C 
BRANCH   2   3
ATOM      3  C   UNL     1       2.221   0.516  -3.381  1.00  0.00     0.116 C 
BRANCH   3   4
ATOM      4  N   UNL     1       1.919  -0.414  -2.311  1.00  0.00    -0.352 N 
ATOM      5  C   UNL     1       2.366  -0.494  -1.017  1.00  0.00     0.253 C 
ATOM      6  O   UNL     1       1.992  -1.457  -0.344  1.00  0.00    -0.269 OA
ATOM      7  H   UNL     1       1.277  -1.118  -2.558  1.00  0.00     0.163 HD
BRANCH   5   8
ATOM      8  C   UNL     1       3.308   0.480  -0.393  1.00  0.00     0.066 A 
ATOM      9  C   UNL     1       3.308   1.866  -0.571  1.00  0.00     0.061 A 
ATOM     10  C   UNL     1       4.370   2.611  -0.047  1.00  0.00     0.030 A 
ATOM     11  C   UNL     1       5.272   2.041   0.844  1.00  0.00     0.028 A 
ATOM     12  C   UNL     1       4.203  -0.064   0.573  1.00  0.00     0.042 A 
ATOM     13  C   UNL     1       5.127   0.724   1.277  1.00  0.00     0.038 A 
BRANCH   9  14
ATOM     14  N   UNL     1       2.300   2.662  -1.191  1.00  0.00    -0.283 N 
ATOM     15  H   UNL     1       2.560   3.207  -1.969  1.00  0.00     0.180 HD
BRANCH  14  16
ATOM     16  S   UNL     1       0.710   2.732  -0.688  1.00  0.00     0.232 S 
ATOM     17  O   UNL     1      -0.058   1.776  -1.448  1.00  0.00    -0.207 OA
ATOM     18  O   UNL     1       0.398   4.143  -0.805  1.00  0.00    -0.207 OA
BRANCH  16  19
ATOM     19  C   UNL     1       0.572   2.304   1.046  1.00  0.00     0.156 C 
ATOM     20  C   UNL     1       0.410   0.822   1.327  1.00  0.00     0.023 C 
ENDBRANCH  16  19
ENDBRANCH  14  16
ENDBRANCH   9  14
BRANCH  13  21
ATOM     21  N   UNL     1       5.787   0.284   2.405  1.00  0.00    -0.360 N 
ATOM     22  C   UNL     1       6.370  -1.057   2.557  1.00  0.00     0.178 C 
ATOM     23  C   UNL     1       6.133   1.233   3.481  1.00  0.00     0.178 C 
ATOM     24  C   UNL     1       6.133  -1.607   3.989  1.00  0.00     0.283 C 
ATOM     25  C   UNL     1       5.865   0.616   4.869  1.00  0.00     0.283 C 
ATOM     26  N   UNL     1       6.559  -0.672   5.058  1.00  0.00    -0.334 N 
ATOM     27  C   UNL     1       6.258  -1.218   6.381  1.00  0.00     0.332 C 
ATOM     28  H   UNL     1       7.568  -0.536   5.000  1.00  0.00     0.347 HD
ENDBRANCH  13  21
ENDBRANCH   5   8
ENDBRANCH   3   4
ENDBRANCH   2   3
ENDBRANCH   1   2
BRANCH   1  29
ATOM     29  C   UNL     1      -0.806   1.017  -4.475  1.00  0.00     0.002 C 
BRANCH  29  30
ATOM     30  C   UNL     1      -0.472   2.403  -5.016  1.00  0.00     0.021 C 
BRANCH  30  31
ATOM     31  C   UNL     1      -0.359   2.475  -6.529  1.00  0.00     0.116 C 
BRANCH  31  32
ATOM     32  N   UNL     1      -1.570   2.052  -7.217  1.00  0.00    -0.352 N 
ATOM     33  C   UNL     1      -2.152   2.588  -8.339  1.00  0.00     0.251 C 
ATOM     34  H   UNL     1      -2.034   1.277  -6.826  1.00  0.00     0.163 HD
ATOM     35  O   UNL     1      -3.239   2.188  -8.740  1.00  0.00    -0.269 OA
BRANCH  33  36
ATOM     36  C   UNL     1      -1.460   3.685  -9.044  1.00  0.00     0.039 A 
ATOM     37  C   UNL     1      -2.177   4.834  -9.386  1.00  0.00     0.014 A 
ATOM     38  C   UNL     1      -0.094   3.591  -9.322  1.00  0.00     0.014 A 
ATOM     39  C   UNL     1      -1.506   5.918  -9.953  1.00  0.00     0.010 A 
ATOM     40  C   UNL     1       0.586   4.702  -9.802  1.00  0.00     0.010 A 
ATOM     41  C   UNL     1      -0.115   5.873 -10.132  1.00  0.00    -0.014 A 
BRANCH  41  42
ATOM     42  C   UNL     1       0.640   7.014 -10.706  1.00  0.00     0.031 A 
ATOM     43  C   UNL     1       1.387   6.823 -11.998  1.00  0.00     0.074 A 
ATOM     44  C   UNL     1       0.720   8.180 -10.037  1.00  0.00     0.049 A 
ATOM     45  N   UNL     1       2.233   7.624 -12.592  1.00  0.00    -0.248 NA
ATOM     46  C   UNL     1       1.180   5.542 -12.697  1.00  0.00     0.031 C 
ATOM     47  C   UNL     1       0.064   8.477  -8.761  1.00  0.00     0.029 A 
ATOM     48  N   UNL     1       1.408   9.332 -10.330  1.00  0.00    -0.354 N 
ATOM     49  C   UNL     1       2.664   6.941 -13.723  1.00  0.00     0.074 A 
ATOM     50  C   UNL     1       2.043   5.636 -13.697  1.00  0.00     0.031 C 
ATOM     51  C   UNL     1       0.373   9.730  -8.388  1.00  0.00     0.029 A 
ATOM     52  C   UNL     1       1.285  10.308  -9.370  1.00  0.00     0.049 A 
ATOM     53  H   UNL     1       1.939   9.447 -11.151  1.00  0.00     0.167 HD
ATOM     54  C   UNL     1       3.479   7.375 -14.711  1.00  0.00     0.037 A 
ATOM     55  C   UNL     1       1.862  11.522  -9.284  1.00  0.00     0.037 A 
ATOM     56  C   UNL     1       4.074   8.683 -14.745  1.00  0.00     0.049 A 
ATOM     57  C   UNL     1       2.796  11.965 -10.382  1.00  0.00     0.074 A 
ATOM     58  C   UNL     1       4.899   9.230 -15.712  1.00  0.00     0.029 A 
ATOM     59  N   UNL     1       3.898   9.653 -13.770  1.00  0.00    -0.354 N 
ATOM     60  N   UNL     1       3.165  11.324 -11.464  1.00  0.00    -0.248 NA
ATOM     61  C   UNL     1       3.390  13.303 -10.249  1.00  0.00     0.031 C 
ATOM     62  C   UNL     1       5.254  10.518 -15.303  1.00  0.00     0.029 A 
ATOM     63  C   UNL     1       4.604  10.793 -14.111  1.00  0.00     0.049 A 
ATOM     64  H   UNL     1       3.352   9.547 -12.958  1.00  0.00     0.167 HD
ATOM     65  C   UNL     1       3.990  12.197 -12.162  1.00  0.00     0.074 A 
ATOM     66  C   UNL     1       4.065  13.414 -11.384  1.00  0.00     0.031 C 
ATOM     67  C   UNL     1       4.629  12.010 -13.342  1.00  0.00     0.037 A 
BRANCH  54  68
ATOM     68  C   UNL     1       3.755   6.438 -15.850  1.00  0.00     0.057 A 
ATOM     69  C   UNL     1       2.764   6.105 -16.783  1.00  0.00     0.134 A 
ATOM     70  C   UNL     1       5.035   5.907 -16.051  1.00  0.00     0.134 A 
ATOM     71  F   UNL     1       1.513   6.569 -16.640  1.00  0.00    -0.206 F 
ATOM     72  C   UNL     1       3.031   5.266 -17.864  1.00  0.00     0.040 A 
ATOM     73  C   UNL     1       5.322   5.090 -17.146  1.00  0.00     0.040 A 
ATOM     74  F   UNL     1       6.032   6.189 -15.198  1.00  0.00    -0.206 F 
ATOM     75  C   UNL     1       4.317   4.764 -18.054  1.00  0.00     0.006 A 
ENDBRANCH  54  68
BRANCH  55  76
ATOM     76  C   UNL     1       1.590  12.414  -8.126  1.00  0.00     0.057 A 
ATOM     77  C   UNL     1       0.921  13.633  -8.291  1.00  0.00     0.134 A 
ATOM     78  C   UNL     1       2.043  12.101  -6.838  1.00  0.00     0.134 A 
ATOM     79  F   UNL     1       0.477  14.000  -9.502  1.00  0.00    -0.206 F 
ATOM     80  C   UNL     1       0.753  14.527  -7.232  1.00  0.00     0.040 A 
ATOM     81  C   UNL     1       1.852  12.970  -5.763  1.00  0.00     0.040 A 
ATOM     82  F   UNL     1       2.683  10.945  -6.606  1.00  0.00    -0.206 F 
ATOM     83  C   UNL     1       1.220  14.196  -5.962  1.00  0.00     0.006 A 
ENDBRANCH  55  76
BRANCH  67  84
ATOM     84  C   UNL     1       5.396  13.168 -13.909  1.00  0.00     0.057 A 
ATOM     85  C   UNL     1       6.609  13.601 -13.361  1.00  0.00     0.134 A 
ATOM     86  C   UNL     1       4.940  13.814 -15.067  1.00  0.00     0.134 A 
ATOM     87  F   UNL     1       7.094  13.032 -12.247  1.00  0.00    -0.206 F 
ATOM     88  C   UNL     1       7.333  14.648 -13.933  1.00  0.00     0.040 A 
ATOM     89  C   UNL     1       5.670  14.841 -15.665  1.00  0.00     0.040 A 
ATOM     90  F   UNL     1       3.791  13.440 -15.649  1.00  0.00    -0.206 F 
ATOM     91  C   UNL     1       6.869  15.264 -15.095  1.00  0.00     0.006 A 
ENDBRANCH  67  84
ENDBRANCH  41  42
ENDBRANCH  33  36
ENDBRANCH  31  32
ENDBRANCH  30  31
ENDBRANCH  29  30
ENDBRANCH   1  29
TORSDOF 17
