REMARK SMILES CC(C)c1ncc(SC[C@H](O)CO)c(C(=O)NCCCCCCNC(=O)c2ccc(-c3c4nc(c(-c5c(F)cccc5F)c5ccc([nH]5)c(-c5c(F)cccc5F)c5nc(c(-c6c(F)cccc6F)c6ccc3[nH]6)C=C5)C=C4)cc2)n1
REMARK SMILES IDX 19 1 18 2 17 3 15 4 16 5 14 7 4 8 5 9 81 10 6 11 7 12 2 13
REMARK SMILES IDX 1 14 3 15 8 16 9 17 10 18 12 19 13 20 11 22 20 24 21 25
REMARK SMILES IDX 22 26 23 27 24 28 25 29 26 31 27 32 28 33 80 34 29 35 79 36
REMARK SMILES IDX 30 37 31 38 32 39 73 40 33 41 78 42 72 43 74 44 34 45 77 46
REMARK SMILES IDX 71 47 70 48 35 50 61 51 44 52 60 53 45 54 48 55 59 56 75 57
REMARK SMILES IDX 46 58 47 59 58 61 76 62 49 63 36 64 37 65 42 66 38 67 39 68
REMARK SMILES IDX 41 69 43 70 40 71 62 72 63 73 68 74 64 75 65 76 67 77 69 78
REMARK SMILES IDX 66 79 50 80 51 81 56 82 52 83 53 84 55 85 57 86 54 87
REMARK H PARENT 17 6 13 21 11 23 24 30 74 49 48 60
REMARK Flexibility Score: inf
ROOT
ATOM      1  C   UNL     1      -1.704  -5.067  -3.537  1.00  0.00     0.021 C 
ENDROOT
BRANCH   1   2
ATOM      2  C   UNL     1      -2.985  -5.886  -3.734  1.00  0.00     0.116 C 
BRANCH   2   3
ATOM      3  N   UNL     1      -2.700  -7.273  -3.476  1.00  0.00    -0.351 N 
ATOM      4  C   UNL     1      -2.894  -8.095  -2.397  1.00  0.00     0.271 C 
ATOM      5  O   UNL     1      -2.326  -9.191  -2.479  1.00  0.00    -0.267 OA
ATOM      6  H   UNL     1      -2.273  -7.728  -4.237  1.00  0.00     0.163 HD
BRANCH   4   7
ATOM      7  C   UNL     1      -3.802  -7.847  -1.214  1.00  0.00     0.145 A 
ATOM      8  C   UNL     1      -5.105  -9.117   0.251  1.00  0.00     0.131 A 
ATOM      9  N   UNL     1      -5.318  -8.072   1.056  1.00  0.00    -0.240 NA
ATOM     10  N   UNL     1      -4.428  -9.022  -0.896  1.00  0.00    -0.226 NA
ATOM     11  C   UNL     1      -4.708  -6.920   0.715  1.00  0.00     0.130 A 
ATOM     12  C   UNL     1      -3.919  -6.716  -0.413  1.00  0.00     0.057 A 
BRANCH   8  13
ATOM     13  C   UNL     1      -5.572 -10.484   0.719  1.00  0.00     0.051 C 
ATOM     14  C   UNL     1      -5.003 -11.631  -0.126  1.00  0.00     0.016 C 
ATOM     15  C   UNL     1      -5.177 -10.707   2.185  1.00  0.00     0.016 C 
ENDBRANCH   8  13
BRANCH  12  16
ATOM     16  S   UNL     1      -3.009  -5.201  -0.421  1.00  0.00    -0.119 SA
BRANCH  16  17
ATOM     17  C   UNL     1      -4.182  -3.867  -0.944  1.00  0.00     0.109 C 
BRANCH  17  18
ATOM     18  C   UNL     1      -5.716  -3.875  -0.860  1.00  0.00     0.150 C 
BRANCH  18  19
ATOM     19  C   UNL     1      -6.465  -5.056  -1.478  1.00  0.00     0.188 C 
BRANCH  19  20
ATOM     20  O   UNL     1      -7.813  -4.655  -1.746  1.00  0.00    -0.394 OA
ATOM     21  H   UNL     1      -8.241  -4.384  -0.919  1.00  0.00     0.210 HD
ENDBRANCH  19  20
ENDBRANCH  18  19
BRANCH  18  22
ATOM     22  O   UNL     1      -6.153  -3.709   0.494  1.00  0.00    -0.390 OA
ATOM     23  H   UNL     1      -5.895  -4.486   1.014  1.00  0.00     0.211 HD
ENDBRANCH  18  22
ENDBRANCH  17  18
ENDBRANCH  16  17
ENDBRANCH  12  16
ENDBRANCH   4   7
ENDBRANCH   2   3
ENDBRANCH   1   2
BRANCH   1  24
ATOM     24  C   UNL     1      -0.887  -4.874  -4.818  1.00  0.00     0.002 C 
BRANCH  24  25
ATOM     25  C   UNL     1      -1.540  -3.957  -5.858  1.00  0.00     0.002 C 
BRANCH  25  26
ATOM     26  C   UNL     1      -1.987  -2.587  -5.335  1.00  0.00     0.021 C 
BRANCH  26  27
ATOM     27  C   UNL     1      -0.887  -1.765  -4.669  1.00  0.00     0.116 C 
BRANCH  27  28
ATOM     28  N   UNL     1       0.169  -1.415  -5.604  1.00  0.00    -0.352 N 
ATOM     29  C   UNL     1       0.591  -0.179  -6.024  1.00  0.00     0.251 C 
ATOM     30  H   UNL     1       0.653  -2.179  -5.994  1.00  0.00     0.163 HD
ATOM     31  O   UNL     1       1.339  -0.079  -6.990  1.00  0.00    -0.269 OA
BRANCH  29  32
ATOM     32  C   UNL     1       0.137   1.039  -5.319  1.00  0.00     0.039 A 
ATOM     33  C   UNL     1      -0.265   2.145  -6.073  1.00  0.00     0.014 A 
ATOM     34  C   UNL     1       0.142   1.105  -3.923  1.00  0.00     0.014 A 
ATOM     35  C   UNL     1      -0.710   3.300  -5.426  1.00  0.00     0.010 A 
ATOM     36  C   UNL     1      -0.362   2.233  -3.280  1.00  0.00     0.010 A 
ATOM     37  C   UNL     1      -0.787   3.343  -4.025  1.00  0.00    -0.014 A 
BRANCH  37  38
ATOM     38  C   UNL     1      -1.304   4.544  -3.322  1.00  0.00     0.031 A 
ATOM     39  C   UNL     1      -0.398   5.352  -2.436  1.00  0.00     0.074 A 
ATOM     40  C   UNL     1      -2.606   4.872  -3.434  1.00  0.00     0.049 A 
ATOM     41  N   UNL     1      -0.681   6.389  -1.688  1.00  0.00    -0.248 NA
ATOM     42  C   UNL     1       1.007   4.922  -2.359  1.00  0.00     0.031 C 
ATOM     43  C   UNL     1      -3.596   4.144  -4.229  1.00  0.00     0.029 A 
ATOM     44  N   UNL     1      -3.322   5.897  -2.869  1.00  0.00    -0.354 N 
ATOM     45  C   UNL     1       0.503   6.725  -1.044  1.00  0.00     0.074 A 
ATOM     46  C   UNL     1       1.495   5.752  -1.449  1.00  0.00     0.031 C 
ATOM     47  C   UNL     1      -4.786   4.756  -4.117  1.00  0.00     0.029 A 
ATOM     48  C   UNL     1      -4.651   5.897  -3.216  1.00  0.00     0.049 A 
ATOM     49  H   UNL     1      -2.921   6.568  -2.270  1.00  0.00     0.167 HD
ATOM     50  C   UNL     1       0.747   7.762  -0.208  1.00  0.00     0.037 A 
ATOM     51  C   UNL     1      -5.649   6.721  -2.846  1.00  0.00     0.037 A 
ATOM     52  C   UNL     1      -0.234   8.744   0.172  1.00  0.00     0.049 A 
ATOM     53  C   UNL     1      -5.353   7.864  -1.915  1.00  0.00     0.074 A 
ATOM     54  C   UNL     1      -0.069   9.868   0.963  1.00  0.00     0.029 A 
ATOM     55  N   UNL     1      -1.566   8.719  -0.213  1.00  0.00    -0.354 N 
ATOM     56  N   UNL     1      -4.215   8.205  -1.363  1.00  0.00    -0.248 NA
ATOM     57  C   UNL     1      -6.481   8.737  -1.560  1.00  0.00     0.031 C 
ATOM     58  C   UNL     1      -1.311  10.500   1.091  1.00  0.00     0.029 A 
ATOM     59  C   UNL     1      -2.240   9.795   0.343  1.00  0.00     0.049 A 
ATOM     60  H   UNL     1      -1.973   8.037  -0.795  1.00  0.00     0.167 HD
ATOM     61  C   UNL     1      -4.482   9.346  -0.617  1.00  0.00     0.074 A 
ATOM     62  C   UNL     1      -5.887   9.645  -0.798  1.00  0.00     0.031 C 
ATOM     63  C   UNL     1      -3.639  10.079   0.150  1.00  0.00     0.037 A 
BRANCH  50  64
ATOM     64  C   UNL     1       2.134   7.888   0.351  1.00  0.00     0.057 A 
ATOM     65  C   UNL     1       3.221   8.267  -0.448  1.00  0.00     0.134 A 
ATOM     66  C   UNL     1       2.383   7.657   1.710  1.00  0.00     0.134 A 
ATOM     67  F   UNL     1       3.054   8.491  -1.760  1.00  0.00    -0.206 F 
ATOM     68  C   UNL     1       4.509   8.386   0.077  1.00  0.00     0.040 A 
ATOM     69  C   UNL     1       3.661   7.798   2.253  1.00  0.00     0.040 A 
ATOM     70  F   UNL     1       1.387   7.297   2.534  1.00  0.00    -0.206 F 
ATOM     71  C   UNL     1       4.730   8.157   1.434  1.00  0.00     0.006 A 
ENDBRANCH  50  64
BRANCH  51  72
ATOM     72  C   UNL     1      -7.019   6.510  -3.376  1.00  0.00     0.057 A 
ATOM     73  C   UNL     1      -7.575   7.394  -4.307  1.00  0.00     0.134 A 
ATOM     74  C   UNL     1      -7.804   5.425  -2.966  1.00  0.00     0.134 A 
ATOM     75  F   UNL     1      -6.878   8.461  -4.723  1.00  0.00    -0.206 F 
ATOM     76  C   UNL     1      -8.869   7.219  -4.800  1.00  0.00     0.040 A 
ATOM     77  C   UNL     1      -9.091   5.225  -3.468  1.00  0.00     0.040 A 
ATOM     78  F   UNL     1      -7.324   4.537  -2.083  1.00  0.00    -0.206 F 
ATOM     79  C   UNL     1      -9.629   6.128  -4.383  1.00  0.00     0.006 A 
ENDBRANCH  51  72
BRANCH  63  80
ATOM     80  C   UNL     1      -4.208  11.289   0.829  1.00  0.00     0.057 A 
ATOM     81  C   UNL     1      -5.065  11.182   1.931  1.00  0.00     0.134 A 
ATOM     82  C   UNL     1      -3.866  12.577   0.397  1.00  0.00     0.134 A 
ATOM     83  F   UNL     1      -5.442   9.977   2.385  1.00  0.00    -0.206 F 
ATOM     84  C   UNL     1      -5.579  12.313   2.568  1.00  0.00     0.040 A 
ATOM     85  C   UNL     1      -4.353  13.715   1.040  1.00  0.00     0.040 A 
ATOM     86  F   UNL     1      -3.043  12.748  -0.649  1.00  0.00    -0.206 F 
ATOM     87  C   UNL     1      -5.216  13.585   2.126  1.00  0.00     0.006 A 
ENDBRANCH  63  80
ENDBRANCH  37  38
ENDBRANCH  29  32
ENDBRANCH  27  28
ENDBRANCH  26  27
ENDBRANCH  25  26
ENDBRANCH  24  25
ENDBRANCH   1  24
TORSDOF 20
