REMARK SMILES CCCCc1cc(S(F)(F)(F)(F)F)cc2c1O[C@@H](C(F)(F)F)C(C(=O)NCCCCCCNC(=O)c1ccc(-c3c4nc(c(-c5c(F)cccc5F)c5ccc([nH]5)c(-c5c(F)cccc5F)c5nc(c(-c6c(F)cccc6F)c6ccc3[nH]6)C=C5)C=C4)cc1)=C2
REMARK SMILES IDX 29 1 28 2 27 3 26 4 24 5 25 6 23 8 5 9 6 10 16 11 7 12 15 13
REMARK SMILES IDX 17 14 14 15 90 16 18 17 4 18 3 19 2 20 1 21 8 22 9 23 10 24
REMARK SMILES IDX 11 25 12 26 13 27 19 28 20 29 21 30 22 31 30 32 31 33 32 34
REMARK SMILES IDX 33 35 34 36 35 38 36 39 37 40 89 41 38 42 88 43 39 44 40 45
REMARK SMILES IDX 41 46 82 47 42 48 87 49 81 50 83 51 43 52 86 53 80 54 79 55
REMARK SMILES IDX 44 57 70 58 53 59 69 60 54 61 57 62 68 63 84 64 55 65 56 66
REMARK SMILES IDX 67 68 85 69 58 70 45 71 46 72 51 73 47 74 48 75 50 76 52 77
REMARK SMILES IDX 49 78 71 79 72 80 77 81 73 82 74 83 76 84 78 85 75 86 59 87
REMARK SMILES IDX 60 88 65 89 61 90 62 91 64 92 66 93 63 94
REMARK H PARENT 26 7 33 37 83 56 57 67
REMARK Flexibility Score: inf
ROOT
ATOM      1  C   UNL     1      -8.095  -3.634  -2.447  1.00  0.00     0.002 C 
ENDROOT
BRANCH   1   2
ATOM      2  C   UNL     1      -7.182  -2.453  -2.736  1.00  0.00     0.021 C 
BRANCH   2   3
ATOM      3  C   UNL     1      -6.053  -2.425  -1.719  1.00  0.00     0.116 C 
BRANCH   3   4
ATOM      4  N   UNL     1      -5.282  -3.674  -1.809  1.00  0.00    -0.352 N 
ATOM      5  C   UNL     1      -3.850  -3.632  -2.138  1.00  0.00     0.251 C 
ATOM      6  O   UNL     1      -3.184  -4.712  -2.215  1.00  0.00    -0.270 OA
ATOM      7  H   UNL     1      -5.725  -4.538  -1.648  1.00  0.00     0.163 HD
BRANCH   5   8
ATOM      8  C   UNL     1      -3.166  -2.297  -2.385  1.00  0.00     0.067 C 
ATOM      9  C   UNL     1      -1.117   1.337  -2.583  1.00  0.00    -0.004 A 
ATOM     10  C   UNL     1      -1.822   2.522  -2.700  1.00  0.00     0.032 A 
ATOM     11  C   UNL     1      -1.817   0.161  -2.466  1.00  0.00     0.131 A 
ATOM     12  C   UNL     1      -3.192   2.529  -2.696  1.00  0.00     0.108 A 
ATOM     13  C   UNL     1      -3.200   0.129  -2.477  1.00  0.00     0.019 A 
ATOM     14  O   UNL     1      -1.107  -0.992  -2.237  1.00  0.00    -0.475 OA
ATOM     15  C   UNL     1      -3.878   1.337  -2.592  1.00  0.00     0.036 A 
ATOM     16  C   UNL     1      -3.848  -1.161  -2.308  1.00  0.00     0.025 C 
ATOM     17  C   UNL     1      -1.683  -2.235  -2.727  1.00  0.00     0.314 C 
BRANCH   9  18
ATOM     18  C   UNL     1       0.403   1.337  -2.583  1.00  0.00     0.039 C 
BRANCH  18  19
ATOM     19  C   UNL     1       0.910   2.113  -1.377  1.00  0.00     0.005 C 
BRANCH  19  20
ATOM     20  C   UNL     1       0.403   1.457  -0.103  1.00  0.00    -0.003 C 
ATOM     21  C   UNL     1       0.910   0.025  -0.035  1.00  0.00     0.004 C 
ENDBRANCH  19  20
ENDBRANCH  18  19
ENDBRANCH   9  18
BRANCH  12  22
ATOM     22  S   UNL     1      -4.096   4.092  -2.827  1.00  0.00     0.310 S 
ATOM     23  F   UNL     1      -4.424   4.105  -1.276  1.00  0.00    -0.094 F 
ATOM     24  F   UNL     1      -5.429   3.278  -3.033  1.00  0.00    -0.094 F 
ATOM     25  F   UNL     1      -4.867   5.437  -2.940  1.00  0.00    -0.094 F 
ATOM     26  F   UNL     1      -2.776   4.887  -2.481  1.00  0.00    -0.094 F 
ATOM     27  F   UNL     1      -3.320   2.733  -2.599  1.00  0.00    -0.094 F 
ENDBRANCH  12  22
BRANCH  17  28
ATOM     28  C   UNL     1      -0.972  -3.405  -2.067  1.00  0.00     0.429 C 
ATOM     29  F   UNL     1      -1.490  -4.546  -2.512  1.00  0.00    -0.167 F 
ATOM     30  F   UNL     1       0.324  -3.361  -2.364  1.00  0.00    -0.167 F 
ATOM     31  F   UNL     1      -1.128  -3.332  -0.748  1.00  0.00    -0.167 F 
ENDBRANCH  17  28
ENDBRANCH   5   8
ENDBRANCH   3   4
ENDBRANCH   2   3
ENDBRANCH   1   2
BRANCH   1  32
ATOM     32  C   UNL     1      -8.675  -3.495  -1.049  1.00  0.00     0.002 C 
BRANCH  32  33
ATOM     33  C   UNL     1      -9.472  -2.204  -0.956  1.00  0.00     0.021 C 
BRANCH  33  34
ATOM     34  C   UNL     1     -10.601  -2.232  -1.973  1.00  0.00     0.116 C 
BRANCH  34  35
ATOM     35  N   UNL     1     -11.484  -3.374  -1.693  1.00  0.00    -0.352 N 
ATOM     36  C   UNL     1     -12.904  -3.147  -1.386  1.00  0.00     0.251 C 
ATOM     37  H   UNL     1     -11.125  -4.290  -1.712  1.00  0.00     0.163 HD
ATOM     38  O   UNL     1     -13.667  -4.134  -1.144  1.00  0.00    -0.269 OA
BRANCH  36  39
ATOM     39  C   UNL     1     -13.459  -1.732  -1.357  1.00  0.00     0.039 A 
ATOM     40  C   UNL     1     -14.286  -1.331  -0.321  1.00  0.00     0.014 A 
ATOM     41  C   UNL     1     -13.128  -0.900  -2.337  1.00  0.00     0.014 A 
ATOM     42  C   UNL     1     -14.953  -0.106  -0.562  1.00  0.00     0.010 A 
ATOM     43  C   UNL     1     -13.720   0.336  -2.434  1.00  0.00     0.010 A 
ATOM     44  C   UNL     1     -14.592   0.775  -1.477  1.00  0.00    -0.014 A 
BRANCH  44  45
ATOM     45  C   UNL     1     -15.120   2.201  -1.467  1.00  0.00     0.031 A 
ATOM     46  C   UNL     1     -15.838   2.641  -2.580  1.00  0.00     0.074 A 
ATOM     47  C   UNL     1     -14.858   2.983  -0.355  1.00  0.00     0.049 A 
ATOM     48  N   UNL     1     -16.412   3.832  -2.759  1.00  0.00    -0.248 NA
ATOM     49  C   UNL     1     -16.088   1.824  -3.777  1.00  0.00     0.031 C 
ATOM     50  C   UNL     1     -14.142   2.543   0.775  1.00  0.00     0.029 A 
ATOM     51  N   UNL     1     -15.228   4.291  -0.137  1.00  0.00    -0.354 N 
ATOM     52  C   UNL     1     -17.026   3.875  -3.943  1.00  0.00     0.074 A 
ATOM     53  C   UNL     1     -16.821   2.586  -4.617  1.00  0.00     0.031 C 
ATOM     54  C   UNL     1     -14.070   3.575   1.656  1.00  0.00     0.029 A 
ATOM     55  C   UNL     1     -14.742   4.676   1.093  1.00  0.00     0.049 A 
ATOM     56  H   UNL     1     -15.750   4.854  -0.753  1.00  0.00     0.167 HD
ATOM     57  C   UNL     1     -17.751   4.938  -4.485  1.00  0.00     0.037 A 
ATOM     58  C   UNL     1     -14.864   5.914   1.705  1.00  0.00     0.037 A 
ATOM     59  C   UNL     1     -17.910   6.161  -3.854  1.00  0.00     0.049 A 
ATOM     60  C   UNL     1     -15.540   6.996   1.137  1.00  0.00     0.074 A 
ATOM     61  C   UNL     1     -18.644   7.240  -4.384  1.00  0.00     0.029 A 
ATOM     62  N   UNL     1     -17.403   6.554  -2.635  1.00  0.00    -0.354 N 
ATOM     63  N   UNL     1     -16.187   7.026  -0.029  1.00  0.00    -0.248 NA
ATOM     64  C   UNL     1     -15.649   8.321   1.761  1.00  0.00     0.031 C 
ATOM     65  C   UNL     1     -18.572   8.272  -3.502  1.00  0.00     0.029 A 
ATOM     66  C   UNL     1     -17.792   7.855  -2.406  1.00  0.00     0.049 A 
ATOM     67  H   UNL     1     -16.856   6.000  -2.032  1.00  0.00     0.167 HD
ATOM     68  C   UNL     1     -16.726   8.231  -0.226  1.00  0.00     0.074 A 
ATOM     69  C   UNL     1     -16.381   9.084   0.920  1.00  0.00     0.031 C 
ATOM     70  C   UNL     1     -17.494   8.652  -1.312  1.00  0.00     0.037 A 
BRANCH  57  71
ATOM     71  C   UNL     1     -18.401   4.742  -5.845  1.00  0.00     0.057 A 
ATOM     72  C   UNL     1     -19.358   3.753  -6.008  1.00  0.00     0.134 A 
ATOM     73  C   UNL     1     -18.055   5.538  -6.850  1.00  0.00     0.134 A 
ATOM     74  F   UNL     1     -19.915   3.108  -4.987  1.00  0.00    -0.206 F 
ATOM     75  C   UNL     1     -19.687   3.491  -7.359  1.00  0.00     0.040 A 
ATOM     76  C   UNL     1     -18.523   5.303  -8.121  1.00  0.00     0.040 A 
ATOM     77  F   UNL     1     -17.248   6.571  -6.625  1.00  0.00    -0.206 F 
ATOM     78  C   UNL     1     -19.425   4.305  -8.365  1.00  0.00     0.006 A 
ENDBRANCH  57  71
BRANCH  58  79
ATOM     79  C   UNL     1     -14.228   6.104   3.072  1.00  0.00     0.057 A 
ATOM     80  C   UNL     1     -15.021   6.466   4.149  1.00  0.00     0.134 A 
ATOM     81  C   UNL     1     -12.917   5.938   3.207  1.00  0.00     0.134 A 
ATOM     82  F   UNL     1     -16.349   6.397   4.127  1.00  0.00    -0.206 F 
ATOM     83  C   UNL     1     -14.289   6.915   5.274  1.00  0.00     0.040 A 
ATOM     84  C   UNL     1     -12.287   6.271   4.382  1.00  0.00     0.040 A 
ATOM     85  F   UNL     1     -12.208   5.446   2.195  1.00  0.00    -0.206 F 
ATOM     86  C   UNL     1     -13.002   6.692   5.468  1.00  0.00     0.006 A 
ENDBRANCH  58  79
BRANCH  70  87
ATOM     87  C   UNL     1     -18.036  10.072  -1.295  1.00  0.00     0.057 A 
ATOM     88  C   UNL     1     -17.166  11.149  -1.240  1.00  0.00     0.134 A 
ATOM     89  C   UNL     1     -19.351  10.250  -1.341  1.00  0.00     0.134 A 
ATOM     90  F   UNL     1     -15.857  11.036  -1.446  1.00  0.00    -0.206 F 
ATOM     91  C   UNL     1     -17.797  12.381  -0.943  1.00  0.00     0.040 A 
ATOM     92  C   UNL     1     -19.893  11.502  -1.179  1.00  0.00     0.040 A 
ATOM     93  F   UNL     1     -20.150   9.207  -1.545  1.00  0.00    -0.206 F 
ATOM     94  C   UNL     1     -19.094  12.605  -1.059  1.00  0.00     0.006 A 
ENDBRANCH  70  87
ENDBRANCH  44  45
ENDBRANCH  36  39
ENDBRANCH  34  35
ENDBRANCH  33  34
ENDBRANCH  32  33
ENDBRANCH   1  32
TORSDOF 18
