REMARK SMILES Cc1cc(C(=O)N2C[C@@H](C(=O)NCCCCCCNC(=O)c3ccc(-c4c5nc(c(-c6c(F)cccc6F)c6ccc([nH]6)c(-c6c(F)cccc6F)c6nc(c(-c7c(F)cccc7F)c7ccc4[nH]7)C=C6)C=C5)cc3)[C@H](C3CC3)C2)sc1C
REMARK SMILES IDX 15 1 14 2 13 3 12 4 10 5 11 6 9 8 7 9 8 10 80 11 76 12 5 13
REMARK SMILES IDX 6 14 4 15 1 16 2 17 3 18 82 19 81 20 83 21 77 22 78 23 79 24
REMARK SMILES IDX 16 25 17 26 18 27 19 28 20 29 21 31 22 32 23 33 75 34 24 35
REMARK SMILES IDX 74 36 25 37 26 38 27 39 68 40 28 41 73 42 67 43 69 44 29 45
REMARK SMILES IDX 72 46 66 47 65 48 30 50 56 51 39 52 55 53 40 54 43 55 54 56
REMARK SMILES IDX 70 57 41 58 42 59 53 61 71 62 44 63 31 64 32 65 37 66 33 67
REMARK SMILES IDX 34 68 36 69 38 70 35 71 57 72 58 73 63 74 59 75 60 76 62 77
REMARK SMILES IDX 64 78 61 79 45 80 46 81 51 82 47 83 48 84 50 85 52 86 49 87
REMARK H PARENT 12 7 19 30 69 49 43 60
REMARK Flexibility Score: inf
ROOT
ATOM      1  C   UNL     1       7.814   4.257   0.572  1.00  0.00     0.002 C 
ENDROOT
BRANCH   1   2
ATOM      2  C   UNL     1       6.457   3.705   0.131  1.00  0.00     0.021 C 
BRANCH   2   3
ATOM      3  C   UNL     1       6.450   2.253  -0.326  1.00  0.00     0.116 C 
BRANCH   3   4
ATOM      4  N   UNL     1       6.759   1.308   0.728  1.00  0.00    -0.356 N 
ATOM      5  C   UNL     1       6.319   0.026   0.895  1.00  0.00     0.225 C 
ATOM      6  O   UNL     1       6.817  -0.641   1.803  1.00  0.00    -0.275 OA
ATOM      7  H   UNL     1       7.375   1.636   1.423  1.00  0.00     0.163 HD
BRANCH   5   8
ATOM      8  C   UNL     1       5.238  -0.537  -0.009  1.00  0.00     0.103 C 
ATOM      9  N   UNL     1       3.499  -2.066  -0.105  1.00  0.00    -0.337 N 
ATOM     10  C   UNL     1       4.158  -1.197   0.847  1.00  0.00     0.133 C 
ATOM     11  C   UNL     1       4.482  -2.636  -0.999  1.00  0.00     0.124 C 
ATOM     12  C   UNL     1       5.719  -1.707  -0.905  1.00  0.00     0.026 C 
BRANCH   9  13
ATOM     13  C   UNL     1       2.160  -2.368  -0.278  1.00  0.00     0.263 C 
ATOM     14  O   UNL     1       1.856  -3.470  -0.745  1.00  0.00    -0.268 OA
BRANCH  13  15
ATOM     15  C   UNL     1       1.133  -1.360  -0.028  1.00  0.00     0.093 A 
ATOM     16  C   UNL     1      -2.524  -0.449   0.114  1.00  0.00     0.045 C 
ATOM     17  C   UNL     1      -1.031  -0.422   0.090  1.00  0.00    -0.037 A 
ATOM     18  C   UNL     1      -0.224  -1.608   0.097  1.00  0.00     0.029 A 
ATOM     19  C   UNL     1      -0.238   0.710   0.016  1.00  0.00     0.005 A 
ATOM     20  S   UNL     1       1.417   0.321  -0.136  1.00  0.00    -0.135 S 
ATOM     21  C   UNL     1      -0.659   2.143  -0.005  1.00  0.00     0.056 C 
ENDBRANCH  13  15
ENDBRANCH   9  13
BRANCH  12  22
ATOM     22  C   UNL     1       6.216  -1.381  -2.298  1.00  0.00    -0.005 C 
ATOM     23  C   UNL     1       5.984  -0.075  -3.018  1.00  0.00     0.004 C 
ATOM     24  C   UNL     1       7.361  -0.431  -2.523  1.00  0.00     0.004 C 
ENDBRANCH  12  22
ENDBRANCH   5   8
ENDBRANCH   3   4
ENDBRANCH   2   3
ENDBRANCH   1   2
BRANCH   1  25
ATOM     25  C   UNL     1       8.972   4.082  -0.416  1.00  0.00     0.002 C 
BRANCH  25  26
ATOM     26  C   UNL     1       8.728   4.584  -1.841  1.00  0.00     0.021 C 
BRANCH  26  27
ATOM     27  C   UNL     1       8.250   6.027  -1.960  1.00  0.00     0.116 C 
BRANCH  27  28
ATOM     28  N   UNL     1       9.173   6.978  -1.368  1.00  0.00    -0.352 N 
ATOM     29  C   UNL     1       9.703   8.130  -1.895  1.00  0.00     0.251 C 
ATOM     30  H   UNL     1       9.463   6.766  -0.452  1.00  0.00     0.163 HD
ATOM     31  O   UNL     1      10.584   8.732  -1.292  1.00  0.00    -0.269 OA
BRANCH  29  32
ATOM     32  C   UNL     1       9.232   8.635  -3.204  1.00  0.00     0.039 A 
ATOM     33  C   UNL     1      10.179   9.091  -4.126  1.00  0.00     0.014 A 
ATOM     34  C   UNL     1       7.872   8.676  -3.519  1.00  0.00     0.014 A 
ATOM     35  C   UNL     1       9.765   9.534  -5.384  1.00  0.00     0.010 A 
ATOM     36  C   UNL     1       7.467   9.047  -4.799  1.00  0.00     0.010 A 
ATOM     37  C   UNL     1       8.408   9.485  -5.743  1.00  0.00    -0.014 A 
BRANCH  37  38
ATOM     38  C   UNL     1       7.957   9.891  -7.098  1.00  0.00     0.031 A 
ATOM     39  C   UNL     1       7.041  11.071  -7.269  1.00  0.00     0.074 A 
ATOM     40  C   UNL     1       8.324   9.161  -8.170  1.00  0.00     0.049 A 
ATOM     41  N   UNL     1       6.487  11.537  -8.360  1.00  0.00    -0.248 NA
ATOM     42  C   UNL     1       6.680  11.811  -6.050  1.00  0.00     0.031 C 
ATOM     43  C   UNL     1       9.175   7.971  -8.132  1.00  0.00     0.029 A 
ATOM     44  N   UNL     1       8.018   9.308  -9.500  1.00  0.00    -0.354 N 
ATOM     45  C   UNL     1       5.705  12.612  -7.957  1.00  0.00     0.074 A 
ATOM     46  C   UNL     1       5.811  12.695  -6.516  1.00  0.00     0.031 C 
ATOM     47  C   UNL     1       9.341   7.509  -9.382  1.00  0.00     0.029 A 
ATOM     48  C   UNL     1       8.577   8.344 -10.303  1.00  0.00     0.049 A 
ATOM     49  H   UNL     1       7.452  10.036  -9.845  1.00  0.00     0.167 HD
ATOM     50  C   UNL     1       4.982  13.467  -8.719  1.00  0.00     0.037 A 
ATOM     51  C   UNL     1       8.476   8.148 -11.632  1.00  0.00     0.037 A 
ATOM     52  C   UNL     1       4.893  13.393 -10.154  1.00  0.00     0.049 A 
ATOM     53  C   UNL     1       7.651   9.099 -12.454  1.00  0.00     0.074 A 
ATOM     54  C   UNL     1       4.232  14.245 -11.022  1.00  0.00     0.029 A 
ATOM     55  N   UNL     1       5.480  12.407 -10.933  1.00  0.00    -0.354 N 
ATOM     56  N   UNL     1       6.970  10.151 -12.067  1.00  0.00    -0.248 NA
ATOM     57  C   UNL     1       7.584   8.838 -13.899  1.00  0.00     0.031 C 
ATOM     58  C   UNL     1       4.376  13.745 -12.320  1.00  0.00     0.029 A 
ATOM     59  C   UNL     1       5.174  12.614 -12.268  1.00  0.00     0.049 A 
ATOM     60  H   UNL     1       6.032  11.668 -10.588  1.00  0.00     0.167 HD
ATOM     61  C   UNL     1       6.419  10.693 -13.221  1.00  0.00     0.074 A 
ATOM     62  C   UNL     1       6.858   9.863 -14.324  1.00  0.00     0.031 C 
ATOM     63  C   UNL     1       5.622  11.781 -13.356  1.00  0.00     0.037 A 
BRANCH  50  64
ATOM     64  C   UNL     1       4.228  14.557  -8.013  1.00  0.00     0.057 A 
ATOM     65  C   UNL     1       4.884  15.625  -7.385  1.00  0.00     0.134 A 
ATOM     66  C   UNL     1       2.827  14.558  -7.988  1.00  0.00     0.134 A 
ATOM     67  F   UNL     1       6.224  15.681  -7.362  1.00  0.00    -0.206 F 
ATOM     68  C   UNL     1       4.176  16.637  -6.733  1.00  0.00     0.040 A 
ATOM     69  C   UNL     1       2.108  15.580  -7.365  1.00  0.00     0.040 A 
ATOM     70  F   UNL     1       2.134  13.571  -8.575  1.00  0.00    -0.206 F 
ATOM     71  C   UNL     1       2.783  16.619  -6.728  1.00  0.00     0.006 A 
ENDBRANCH  50  64
BRANCH  51  72
ATOM     72  C   UNL     1       9.188   7.013 -12.273  1.00  0.00     0.057 A 
ATOM     73  C   UNL     1      10.270   7.232 -13.133  1.00  0.00     0.134 A 
ATOM     74  C   UNL     1       8.798   5.686 -12.054  1.00  0.00     0.134 A 
ATOM     75  F   UNL     1      10.679   8.482 -13.398  1.00  0.00    -0.206 F 
ATOM     76  C   UNL     1      10.926   6.176 -13.769  1.00  0.00     0.040 A 
ATOM     77  C   UNL     1       9.462   4.619 -12.662  1.00  0.00     0.040 A 
ATOM     78  F   UNL     1       7.773   5.407 -11.235  1.00  0.00    -0.206 F 
ATOM     79  C   UNL     1      10.524   4.864 -13.529  1.00  0.00     0.006 A 
ENDBRANCH  51  72
BRANCH  63  80
ATOM     80  C   UNL     1       5.202  12.158 -14.747  1.00  0.00     0.057 A 
ATOM     81  C   UNL     1       4.277  11.398 -15.474  1.00  0.00     0.134 A 
ATOM     82  C   UNL     1       5.702  13.319 -15.352  1.00  0.00     0.134 A 
ATOM     83  F   UNL     1       3.770  10.268 -14.958  1.00  0.00    -0.206 F 
ATOM     84  C   UNL     1       3.884  11.764 -16.763  1.00  0.00     0.040 A 
ATOM     85  C   UNL     1       5.293  13.711 -16.628  1.00  0.00     0.040 A 
ATOM     86  F   UNL     1       6.583  14.098 -14.708  1.00  0.00    -0.206 F 
ATOM     87  C   UNL     1       4.387  12.929 -17.339  1.00  0.00     0.006 A 
ENDBRANCH  63  80
ENDBRANCH  37  38
ENDBRANCH  29  32
ENDBRANCH  27  28
ENDBRANCH  26  27
ENDBRANCH  25  26
ENDBRANCH   1  25
TORSDOF 16
