REMARK SMILES O=C(NCCCCCCNC(=O)[C@H]1CCCCN1c1cc(-c2ccccc2)nc(-c2cccc(Cl)c2)n1)c1ccc(-c2c3nc(c(-c4c(F)cccc4F)c4ccc([nH]4)c(-c4c(F)cccc4F)c4nc(c(-c5c(F)cccc5F)c5ccc2[nH]5)C=C4)C=C3)cc1
REMARK SMILES IDX 6 1 5 2 4 3 3 4 1 5 2 6 38 8 39 9 91 10 40 11 90 12 41 13
REMARK SMILES IDX 42 14 43 15 84 16 44 17 89 18 83 19 85 20 45 21 88 22 82 23
REMARK SMILES IDX 81 24 46 26 72 27 55 28 71 29 56 30 59 31 70 32 86 33 57 34
REMARK SMILES IDX 58 35 69 37 87 38 60 39 47 40 48 41 53 42 49 43 50 44 52 45
REMARK SMILES IDX 54 46 51 47 73 48 74 49 79 50 75 51 76 52 78 53 80 54 77 55
REMARK SMILES IDX 61 56 62 57 67 58 63 59 64 60 66 61 68 62 65 63 7 64 8 65
REMARK SMILES IDX 9 66 10 67 11 68 12 70 13 71 14 72 18 73 15 74 17 75 16 76
REMARK SMILES IDX 19 77 20 78 37 79 21 80 29 81 28 82 22 83 23 84 27 85 24 86
REMARK SMILES IDX 26 87 25 88 30 89 31 90 36 91 32 92 34 93 33 94 35 95
REMARK H PARENT 3 7 85 25 59 36 10 69
REMARK Flexibility Score: inf
ROOT
ATOM      1  C   UNL     1      14.623   4.093  -8.926  1.00  0.00     0.002 C 
ENDROOT
BRANCH   1   2
ATOM      2  C   UNL     1      15.120   4.777  -7.652  1.00  0.00     0.021 C 
BRANCH   2   3
ATOM      3  C   UNL     1      16.208   3.997  -6.928  1.00  0.00     0.116 C 
BRANCH   3   4
ATOM      4  N   UNL     1      17.423   3.911  -7.727  1.00  0.00    -0.352 N 
ATOM      5  O   UNL     1      19.481   4.562  -8.401  1.00  0.00    -0.269 OA
ATOM      6  C   UNL     1      18.642   4.501  -7.506  1.00  0.00     0.251 C 
ATOM      7  H   UNL     1      17.361   3.354  -8.537  1.00  0.00     0.163 HD
BRANCH   6   8
ATOM      8  C   UNL     1      18.936   5.060  -6.173  1.00  0.00     0.039 A 
ATOM      9  C   UNL     1      18.570   4.343  -5.033  1.00  0.00     0.014 A 
ATOM     10  C   UNL     1      19.574   6.297  -6.055  1.00  0.00     0.014 A 
ATOM     11  C   UNL     1      18.695   4.929  -3.785  1.00  0.00     0.010 A 
ATOM     12  C   UNL     1      19.809   6.834  -4.785  1.00  0.00     0.010 A 
ATOM     13  C   UNL     1      19.351   6.163  -3.641  1.00  0.00    -0.014 A 
BRANCH  13  14
ATOM     14  C   UNL     1      19.620   6.656  -2.268  1.00  0.00     0.031 A 
ATOM     15  C   UNL     1      19.027   7.937  -1.758  1.00  0.00     0.074 A 
ATOM     16  C   UNL     1      20.368   5.880  -1.457  1.00  0.00     0.049 A 
ATOM     17  N   UNL     1      19.121   8.466  -0.564  1.00  0.00    -0.248 NA
ATOM     18  C   UNL     1      18.233   8.735  -2.705  1.00  0.00     0.031 C 
ATOM     19  C   UNL     1      21.011   4.624  -1.856  1.00  0.00     0.029 A 
ATOM     20  N   UNL     1      20.689   6.007  -0.132  1.00  0.00    -0.354 N 
ATOM     21  C   UNL     1      18.405   9.654  -0.614  1.00  0.00     0.074 A 
ATOM     22  C   UNL     1      17.914   9.791  -1.969  1.00  0.00     0.031 C 
ATOM     23  C   UNL     1      21.594   4.067  -0.787  1.00  0.00     0.029 A 
ATOM     24  C   UNL     1      21.437   4.961   0.351  1.00  0.00     0.049 A 
ATOM     25  H   UNL     1      20.410   6.773   0.421  1.00  0.00     0.167 HD
ATOM     26  C   UNL     1      18.171  10.540   0.385  1.00  0.00     0.037 A 
ATOM     27  C   UNL     1      21.963   4.753   1.571  1.00  0.00     0.037 A 
ATOM     28  C   UNL     1      18.673  10.396   1.729  1.00  0.00     0.049 A 
ATOM     29  C   UNL     1      21.714   5.770   2.644  1.00  0.00     0.074 A 
ATOM     30  C   UNL     1      18.492  11.238   2.813  1.00  0.00     0.029 A 
ATOM     31  N   UNL     1      19.457   9.340   2.174  1.00  0.00    -0.354 N 
ATOM     32  N   UNL     1      21.013   6.877   2.587  1.00  0.00    -0.248 NA
ATOM     33  C   UNL     1      22.327   5.510   3.952  1.00  0.00     0.031 C 
ATOM     34  C   UNL     1      19.203  10.716   3.899  1.00  0.00     0.029 A 
ATOM     35  C   UNL     1      19.780   9.518   3.510  1.00  0.00     0.049 A 
ATOM     36  H   UNL     1      19.742   8.577   1.621  1.00  0.00     0.167 HD
ATOM     37  C   UNL     1      21.090   7.439   3.852  1.00  0.00     0.074 A 
ATOM     38  C   UNL     1      21.876   6.532   4.664  1.00  0.00     0.031 C 
ATOM     39  C   UNL     1      20.566   8.605   4.301  1.00  0.00     0.037 A 
BRANCH  26  40
ATOM     40  C   UNL     1      17.343  11.752   0.063  1.00  0.00     0.057 A 
ATOM     41  C   UNL     1      15.965  11.661  -0.180  1.00  0.00     0.134 A 
ATOM     42  C   UNL     1      17.914  13.031   0.051  1.00  0.00     0.134 A 
ATOM     43  F   UNL     1      15.355  10.466  -0.195  1.00  0.00    -0.206 F 
ATOM     44  C   UNL     1      15.191  12.794  -0.440  1.00  0.00     0.040 A 
ATOM     45  C   UNL     1      17.146  14.174  -0.181  1.00  0.00     0.040 A 
ATOM     46  F   UNL     1      19.226  13.194   0.283  1.00  0.00    -0.206 F 
ATOM     47  C   UNL     1      15.781  14.057  -0.432  1.00  0.00     0.006 A 
ENDBRANCH  26  40
BRANCH  27  48
ATOM     48  C   UNL     1      22.797   3.551   1.825  1.00  0.00     0.057 A 
ATOM     49  C   UNL     1      22.386   2.548   2.709  1.00  0.00     0.134 A 
ATOM     50  C   UNL     1      24.035   3.384   1.191  1.00  0.00     0.134 A 
ATOM     51  F   UNL     1      21.217   2.656   3.357  1.00  0.00    -0.206 F 
ATOM     52  C   UNL     1      23.188   1.437   2.976  1.00  0.00     0.040 A 
ATOM     53  C   UNL     1      24.830   2.261   1.420  1.00  0.00     0.040 A 
ATOM     54  F   UNL     1      24.482   4.302   0.321  1.00  0.00    -0.206 F 
ATOM     55  C   UNL     1      24.412   1.289   2.325  1.00  0.00     0.006 A 
ENDBRANCH  27  48
BRANCH  39  56
ATOM     56  C   UNL     1      20.805   8.940   5.745  1.00  0.00     0.057 A 
ATOM     57  C   UNL     1      22.074   9.292   6.224  1.00  0.00     0.134 A 
ATOM     58  C   UNL     1      19.752   8.907   6.668  1.00  0.00     0.134 A 
ATOM     59  F   UNL     1      23.129   9.326   5.394  1.00  0.00    -0.206 F 
ATOM     60  C   UNL     1      22.294   9.562   7.575  1.00  0.00     0.040 A 
ATOM     61  C   UNL     1      19.954   9.206   8.015  1.00  0.00     0.040 A 
ATOM     62  F   UNL     1      18.510   8.585   6.275  1.00  0.00    -0.206 F 
ATOM     63  C   UNL     1      21.230   9.524   8.474  1.00  0.00     0.006 A 
ENDBRANCH  39  56
ENDBRANCH  13  14
ENDBRANCH   6   8
ENDBRANCH   3   4
ENDBRANCH   2   3
ENDBRANCH   1   2
BRANCH   1  64
ATOM     64  C   UNL     1      14.033   2.692  -8.716  1.00  0.00     0.002 C 
BRANCH  64  65
ATOM     65  C   UNL     1      12.919   2.624  -7.669  1.00  0.00     0.021 C 
BRANCH  65  66
ATOM     66  C   UNL     1      11.679   3.428  -8.056  1.00  0.00     0.116 C 
BRANCH  66  67
ATOM     67  N   UNL     1      10.702   2.595  -8.715  1.00  0.00    -0.354 N 
ATOM     68  C   UNL     1       9.611   1.925  -8.269  1.00  0.00     0.242 C 
ATOM     69  H   UNL     1      10.860   2.493  -9.681  1.00  0.00     0.163 HD
ATOM     70  O   UNL     1       9.030   1.253  -9.137  1.00  0.00    -0.273 OA
BRANCH  68  71
ATOM     71  C   UNL     1       9.064   1.914  -6.818  1.00  0.00     0.173 C 
ATOM     72  C   UNL     1       9.118   0.492  -6.249  1.00  0.00     0.035 C 
ATOM     73  N   UNL     1       9.606   2.920  -5.884  1.00  0.00    -0.344 N 
ATOM     74  C   UNL     1      10.462   0.186  -5.613  1.00  0.00     0.004 C 
ATOM     75  C   UNL     1      10.629   2.609  -4.885  1.00  0.00     0.119 C 
ATOM     76  C   UNL     1      10.696   1.149  -4.464  1.00  0.00     0.022 C 
BRANCH  73  77
ATOM     77  C   UNL     1       8.683   3.882  -5.475  1.00  0.00     0.133 A 
ATOM     78  C   UNL     1       8.856   5.199  -5.849  1.00  0.00     0.076 A 
ATOM     79  N   UNL     1       7.650   3.493  -4.718  1.00  0.00    -0.211 NA
ATOM     80  C   UNL     1       7.911   6.109  -5.418  1.00  0.00     0.076 A 
ATOM     81  C   UNL     1       6.768   4.441  -4.358  1.00  0.00     0.162 A 
ATOM     82  N   UNL     1       6.852   5.743  -4.671  1.00  0.00    -0.228 NA
BRANCH  80  83
ATOM     83  C   UNL     1       8.010   7.540  -5.734  1.00  0.00     0.000 A 
ATOM     84  C   UNL     1       8.073   8.497  -4.707  1.00  0.00     0.010 A 
ATOM     85  C   UNL     1       8.047   7.994  -7.064  1.00  0.00     0.010 A 
ATOM     86  C   UNL     1       8.183   9.860  -4.997  1.00  0.00     0.001 A 
ATOM     87  C   UNL     1       8.145   9.358  -7.355  1.00  0.00     0.001 A 
ATOM     88  C   UNL     1       8.217  10.290  -6.322  1.00  0.00     0.000 A 
ENDBRANCH  80  83
BRANCH  81  89
ATOM     89  C   UNL     1       5.605   4.000  -3.587  1.00  0.00     0.021 A 
ATOM     90  C   UNL     1       5.760   3.195  -2.444  1.00  0.00     0.012 A 
ATOM     91  C   UNL     1       4.303   4.340  -3.989  1.00  0.00     0.032 A 
ATOM     92  C   UNL     1       4.652   2.741  -1.725  1.00  0.00     0.002 A 
ATOM     93  C   UNL     1       3.198   3.868  -3.282  1.00  0.00     0.041 A 
ATOM     94  C   UNL     1       3.367   3.072  -2.151  1.00  0.00     0.020 A 
ATOM     95  Cl  UNL     1       1.610   4.254  -3.821  1.00  0.00    -0.084 Cl
ENDBRANCH  81  89
ENDBRANCH  73  77
ENDBRANCH  68  71
ENDBRANCH  66  67
ENDBRANCH  65  66
ENDBRANCH  64  65
ENDBRANCH   1  64
TORSDOF 16
