REMARK SMILES Cc1nc(C(=O)NCCCCCCNC(=O)c2ccc(-c3c4nc(c(-c5c(F)cccc5F)c5ccc([nH]5)c(-c5c(F)cccc5F)c5nc(c(-c6c(F)cccc6F)c6ccc3[nH]6)C=C5)C=C4)cc2)nn1-c1cccc(C(F)(F)F)c1
REMARK SMILES IDX 10 1 9 2 8 3 7 4 5 5 6 6 4 8 1 9 2 10 3 11 72 12 71 13 73 14
REMARK SMILES IDX 74 15 82 16 75 17 77 18 76 19 78 20 79 21 80 22 81 23 11 24
REMARK SMILES IDX 12 25 13 26 14 27 15 28 16 30 17 31 18 32 70 33 19 34 69 35
REMARK SMILES IDX 20 36 21 37 22 38 63 39 23 40 68 41 62 42 64 43 24 44 67 45
REMARK SMILES IDX 61 46 60 47 25 49 51 50 34 51 50 52 35 53 38 54 49 55 65 56
REMARK SMILES IDX 36 57 37 58 48 60 66 61 39 62 26 63 27 64 32 65 28 66 29 67
REMARK SMILES IDX 31 68 33 69 30 70 52 71 53 72 58 73 54 74 55 75 57 76 59 77
REMARK SMILES IDX 56 78 40 79 41 80 46 81 42 82 43 83 45 84 47 85 44 86
REMARK H PARENT 7 7 14 29 64 48 38 59
REMARK Flexibility Score: inf
ROOT
ATOM      1  C   UNL     1      -1.249   7.352   4.678  1.00  0.00     0.002 C 
ENDROOT
BRANCH   1   2
ATOM      2  C   UNL     1      -0.967   6.528   3.421  1.00  0.00     0.021 C 
BRANCH   2   3
ATOM      3  C   UNL     1       0.050   5.397   3.579  1.00  0.00     0.116 C 
BRANCH   3   4
ATOM      4  N   UNL     1      -0.460   4.291   4.369  1.00  0.00    -0.349 N 
ATOM      5  C   UNL     1      -0.457   2.931   4.103  1.00  0.00     0.290 C 
ATOM      6  O   UNL     1      -1.023   2.202   4.921  1.00  0.00    -0.266 OA
ATOM      7  H   UNL     1      -0.871   4.546   5.226  1.00  0.00     0.163 HD
BRANCH   5   8
ATOM      8  C   UNL     1       0.168   2.399   2.868  1.00  0.00     0.239 A 
ATOM      9  C   UNL     1       0.650  -0.052   0.306  1.00  0.00     0.090 C 
ATOM     10  C   UNL     1       0.492   1.129   1.188  1.00  0.00     0.130 A 
ATOM     11  N   UNL     1      -0.185   1.180   2.316  1.00  0.00    -0.207 NA
ATOM     12  N   UNL     1       1.159   2.323   1.016  1.00  0.00    -0.217 N 
ATOM     13  N   UNL     1       1.141   3.018   2.173  1.00  0.00    -0.140 NA
BRANCH  12  14
ATOM     14  C   UNL     1       1.696   2.913  -0.152  1.00  0.00     0.067 A 
ATOM     15  C   UNL     1       2.801   3.766  -0.039  1.00  0.00     0.028 A 
ATOM     16  C   UNL     1       1.058   2.747  -1.390  1.00  0.00     0.041 A 
ATOM     17  C   UNL     1       3.304   4.404  -1.172  1.00  0.00     0.003 A 
ATOM     18  C   UNL     1       1.523   3.441  -2.521  1.00  0.00     0.058 A 
ATOM     19  C   UNL     1       2.669   4.244  -2.404  1.00  0.00     0.013 A 
BRANCH  18  20
ATOM     20  C   UNL     1       0.790   3.368  -3.840  1.00  0.00     0.416 C 
ATOM     21  F   UNL     1       0.488   4.601  -4.335  1.00  0.00    -0.166 F 
ATOM     22  F   UNL     1       1.515   2.742  -4.806  1.00  0.00    -0.166 F 
ATOM     23  F   UNL     1      -0.394   2.699  -3.764  1.00  0.00    -0.166 F 
ENDBRANCH  18  20
ENDBRANCH  12  14
ENDBRANCH   5   8
ENDBRANCH   3   4
ENDBRANCH   2   3
ENDBRANCH   1   2
BRANCH   1  24
ATOM     24  C   UNL     1      -0.034   7.990   5.368  1.00  0.00     0.002 C 
BRANCH  24  25
ATOM     25  C   UNL     1       0.927   8.796   4.483  1.00  0.00     0.021 C 
BRANCH  25  26
ATOM     26  C   UNL     1       0.307  10.014   3.813  1.00  0.00     0.116 C 
BRANCH  26  27
ATOM     27  N   UNL     1      -0.055  11.066   4.759  1.00  0.00    -0.352 N 
ATOM     28  C   UNL     1      -0.694  12.264   4.490  1.00  0.00     0.251 C 
ATOM     29  H   UNL     1       0.184  10.904   5.700  1.00  0.00     0.163 HD
ATOM     30  O   UNL     1      -0.625  13.207   5.260  1.00  0.00    -0.269 OA
BRANCH  28  31
ATOM     31  C   UNL     1      -1.457  12.380   3.233  1.00  0.00     0.039 A 
ATOM     32  C   UNL     1      -1.331  13.507   2.417  1.00  0.00     0.014 A 
ATOM     33  C   UNL     1      -2.265  11.312   2.854  1.00  0.00     0.014 A 
ATOM     34  C   UNL     1      -1.946  13.503   1.166  1.00  0.00     0.010 A 
ATOM     35  C   UNL     1      -2.758  11.255   1.571  1.00  0.00     0.010 A 
ATOM     36  C   UNL     1      -2.634  12.358   0.729  1.00  0.00    -0.014 A 
BRANCH  36  37
ATOM     37  C   UNL     1      -3.131  12.273  -0.644  1.00  0.00     0.031 A 
ATOM     38  C   UNL     1      -2.148  12.602  -1.719  1.00  0.00     0.074 A 
ATOM     39  C   UNL     1      -4.328  11.743  -0.976  1.00  0.00     0.049 A 
ATOM     40  N   UNL     1      -2.208  13.571  -2.574  1.00  0.00    -0.248 NA
ATOM     41  C   UNL     1      -0.914  11.807  -1.811  1.00  0.00     0.031 C 
ATOM     42  C   UNL     1      -5.324  11.102  -0.109  1.00  0.00     0.029 A 
ATOM     43  N   UNL     1      -4.866  11.582  -2.217  1.00  0.00    -0.354 N 
ATOM     44  C   UNL     1      -1.110  13.422  -3.420  1.00  0.00     0.074 A 
ATOM     45  C   UNL     1      -0.285  12.397  -2.831  1.00  0.00     0.031 C 
ATOM     46  C   UNL     1      -6.218  10.430  -0.865  1.00  0.00     0.029 A 
ATOM     47  C   UNL     1      -5.969  10.741  -2.260  1.00  0.00     0.049 A 
ATOM     48  H   UNL     1      -4.502  12.025  -3.018  1.00  0.00     0.167 HD
ATOM     49  C   UNL     1      -1.058  14.029  -4.639  1.00  0.00     0.037 A 
ATOM     50  C   UNL     1      -6.636  10.325  -3.362  1.00  0.00     0.037 A 
ATOM     51  C   UNL     1      -2.046  15.070  -4.751  1.00  0.00     0.049 A 
ATOM     52  C   UNL     1      -6.335  11.284  -4.450  1.00  0.00     0.074 A 
ATOM     53  C   UNL     1      -2.304  16.246  -4.073  1.00  0.00     0.029 A 
ATOM     54  N   UNL     1      -3.189  14.799  -5.463  1.00  0.00    -0.354 N 
ATOM     55  N   UNL     1      -6.765  12.513  -4.471  1.00  0.00    -0.248 NA
ATOM     56  C   UNL     1      -5.197  11.005  -5.311  1.00  0.00     0.031 C 
ATOM     57  C   UNL     1      -3.727  16.328  -4.011  1.00  0.00     0.029 A 
ATOM     58  C   UNL     1      -4.243  15.232  -4.702  1.00  0.00     0.049 A 
ATOM     59  H   UNL     1      -3.241  14.374  -6.349  1.00  0.00     0.167 HD
ATOM     60  C   UNL     1      -5.706  13.245  -4.984  1.00  0.00     0.074 A 
ATOM     61  C   UNL     1      -4.817  12.255  -5.586  1.00  0.00     0.031 C 
ATOM     62  C   UNL     1      -5.513  14.549  -4.627  1.00  0.00     0.037 A 
BRANCH  49  63
ATOM     63  C   UNL     1      -0.350  13.481  -5.853  1.00  0.00     0.057 A 
ATOM     64  C   UNL     1      -0.210  14.288  -6.999  1.00  0.00     0.134 A 
ATOM     65  C   UNL     1      -0.073  12.114  -6.045  1.00  0.00     0.134 A 
ATOM     66  F   UNL     1      -0.458  15.605  -6.949  1.00  0.00    -0.206 F 
ATOM     67  C   UNL     1       0.109  13.759  -8.256  1.00  0.00     0.040 A 
ATOM     68  C   UNL     1       0.294  11.584  -7.286  1.00  0.00     0.040 A 
ATOM     69  F   UNL     1      -0.241  11.209  -5.074  1.00  0.00    -0.206 F 
ATOM     70  C   UNL     1       0.354  12.400  -8.405  1.00  0.00     0.006 A 
ENDBRANCH  49  63
BRANCH  50  71
ATOM     71  C   UNL     1      -7.356   9.058  -3.597  1.00  0.00     0.057 A 
ATOM     72  C   UNL     1      -8.283   8.931  -4.639  1.00  0.00     0.134 A 
ATOM     73  C   UNL     1      -6.947   7.862  -2.981  1.00  0.00     0.134 A 
ATOM     74  F   UNL     1      -8.708  10.012  -5.309  1.00  0.00    -0.206 F 
ATOM     75  C   UNL     1      -8.752   7.683  -5.069  1.00  0.00     0.040 A 
ATOM     76  C   UNL     1      -7.412   6.611  -3.396  1.00  0.00     0.040 A 
ATOM     77  F   UNL     1      -6.015   7.864  -2.017  1.00  0.00    -0.206 F 
ATOM     78  C   UNL     1      -8.306   6.517  -4.456  1.00  0.00     0.006 A 
ENDBRANCH  50  71
BRANCH  62  79
ATOM     79  C   UNL     1      -6.614  15.239  -3.869  1.00  0.00     0.057 A 
ATOM     80  C   UNL     1      -7.052  14.853  -2.592  1.00  0.00     0.134 A 
ATOM     81  C   UNL     1      -7.156  16.418  -4.390  1.00  0.00     0.134 A 
ATOM     82  F   UNL     1      -6.519  13.799  -1.964  1.00  0.00    -0.206 F 
ATOM     83  C   UNL     1      -8.020  15.578  -1.892  1.00  0.00     0.040 A 
ATOM     84  C   UNL     1      -8.100  17.170  -3.687  1.00  0.00     0.040 A 
ATOM     85  F   UNL     1      -6.743  16.883  -5.580  1.00  0.00    -0.206 F 
ATOM     86  C   UNL     1      -8.544  16.745  -2.438  1.00  0.00     0.006 A 
ENDBRANCH  62  79
ENDBRANCH  36  37
ENDBRANCH  28  31
ENDBRANCH  26  27
ENDBRANCH  25  26
ENDBRANCH  24  25
ENDBRANCH   1  24
TORSDOF 15
