REMARK SMILES CC(C)(C)OC(=O)[C@@H](C(=O)NCCCCCCNC(=O)c1ccc(-c2c3nc(c(-c4c(F)cccc4F)c4ccc([nH]4)c(-c4c(F)cccc4F)c4nc(c(-c5c(F)cccc5F)c5ccc2[nH]5)C=C4)C=C3)cc1)[C@@H]([NH3+])Cc1cccc(F)c1
REMARK SMILES IDX 14 1 13 2 12 3 11 4 9 5 10 6 8 8 6 9 7 10 5 11 2 12 1 13
REMARK SMILES IDX 3 14 4 15 75 16 76 17 77 21 78 22 79 23 84 24 80 25 82 26
REMARK SMILES IDX 81 27 83 28 15 29 16 30 17 31 18 32 19 33 20 35 21 36 22 37
REMARK SMILES IDX 74 38 23 39 73 40 24 41 25 42 26 43 67 44 27 45 72 46 66 47
REMARK SMILES IDX 68 48 28 49 71 50 65 51 64 52 29 54 55 55 38 56 54 57 39 58
REMARK SMILES IDX 42 59 53 60 69 61 40 62 41 63 52 65 70 66 43 67 30 68 31 69
REMARK SMILES IDX 36 70 32 71 33 72 35 73 37 74 34 75 56 76 57 77 62 78 58 79
REMARK SMILES IDX 59 80 61 81 63 82 60 83 44 84 45 85 50 86 46 87 47 88 49 89
REMARK SMILES IDX 51 90 48 91
REMARK H PARENT 11 7 76 18 76 19 76 20 18 34 68 53 42 64
REMARK Flexibility Score: inf
ROOT
ATOM      1  C   UNL     1      -3.367  -2.324   3.909  1.00  0.00     0.002 C 
ENDROOT
BRANCH   1   2
ATOM      2  C   UNL     1      -2.594  -1.000   3.917  1.00  0.00     0.021 C 
BRANCH   2   3
ATOM      3  C   UNL     1      -1.680  -0.842   5.131  1.00  0.00     0.116 C 
BRANCH   3   4
ATOM      4  N   UNL     1      -0.581  -1.780   5.009  1.00  0.00    -0.355 N 
ATOM      5  C   UNL     1       0.663  -1.515   4.510  1.00  0.00     0.240 C 
ATOM      6  O   UNL     1       1.260  -2.414   3.921  1.00  0.00    -0.274 OA
ATOM      7  H   UNL     1      -0.748  -2.700   5.317  1.00  0.00     0.163 HD
BRANCH   5   8
ATOM      8  C   UNL     1       1.243  -0.130   4.728  1.00  0.00     0.246 C 
BRANCH   8   9
ATOM      9  C   UNL     1       0.799   0.767   3.594  1.00  0.00     0.325 C 
ATOM     10  O   UNL     1       0.193   1.817   3.775  1.00  0.00    -0.251 OA
BRANCH   9  11
ATOM     11  O   UNL     1       1.098   0.241   2.379  1.00  0.00    -0.459 OA
BRANCH  11  12
ATOM     12  C   UNL     1       0.631   0.868   1.155  1.00  0.00     0.104 C 
ATOM     13  C   UNL     1       1.187  -0.015   0.028  1.00  0.00     0.056 C 
ATOM     14  C   UNL     1       1.193   2.284   1.000  1.00  0.00     0.056 C 
ATOM     15  C   UNL     1      -0.900   0.856   1.061  1.00  0.00     0.056 C 
ENDBRANCH  11  12
ENDBRANCH   9  11
ENDBRANCH   8   9
BRANCH   8  16
ATOM     16  C   UNL     1       2.781  -0.188   4.915  1.00  0.00     0.209 C 
BRANCH  16  17
ATOM     17  N   UNL     1       3.386   1.165   4.874  1.00  0.00    -0.354 N 
ATOM     18  H   UNL     1       3.030   1.720   5.652  1.00  0.00     0.344 HD
ATOM     19  H   UNL     1       3.144   1.619   3.994  1.00  0.00     0.344 HD
ATOM     20  H   UNL     1       4.400   1.087   4.949  1.00  0.00     0.344 HD
ENDBRANCH  16  17
BRANCH  16  21
ATOM     21  C   UNL     1       3.193  -0.798   6.297  1.00  0.00     0.102 C 
BRANCH  21  22
ATOM     22  C   UNL     1       2.833  -2.247   6.533  1.00  0.00    -0.039 A 
ATOM     23  C   UNL     1       1.692  -2.589   7.278  1.00  0.00     0.004 A 
ATOM     24  C   UNL     1       3.600  -3.273   5.965  1.00  0.00     0.043 A 
ATOM     25  C   UNL     1       1.288  -3.923   7.395  1.00  0.00     0.003 A 
ATOM     26  C   UNL     1       3.198  -4.599   6.104  1.00  0.00     0.123 A 
ATOM     27  C   UNL     1       2.042  -4.931   6.800  1.00  0.00     0.039 A 
ATOM     28  F   UNL     1       3.932  -5.572   5.547  1.00  0.00    -0.207 F 
ENDBRANCH  21  22
ENDBRANCH  16  21
ENDBRANCH   8  16
ENDBRANCH   5   8
ENDBRANCH   3   4
ENDBRANCH   2   3
ENDBRANCH   1   2
BRANCH   1  29
ATOM     29  C   UNL     1      -4.312  -2.505   5.099  1.00  0.00     0.002 C 
BRANCH  29  30
ATOM     30  C   UNL     1      -5.336  -1.381   5.264  1.00  0.00     0.021 C 
BRANCH  30  31
ATOM     31  C   UNL     1      -6.221  -1.166   4.042  1.00  0.00     0.116 C 
BRANCH  31  32
ATOM     32  N   UNL     1      -7.036  -2.337   3.753  1.00  0.00    -0.352 N 
ATOM     33  C   UNL     1      -8.397  -2.428   3.623  1.00  0.00     0.251 C 
ATOM     34  H   UNL     1      -6.541  -3.179   3.635  1.00  0.00     0.163 HD
ATOM     35  O   UNL     1      -8.948  -3.526   3.601  1.00  0.00    -0.269 OA
BRANCH  33  36
ATOM     36  C   UNL     1      -9.200  -1.194   3.527  1.00  0.00     0.039 A 
ATOM     37  C   UNL     1     -10.366  -1.083   4.287  1.00  0.00     0.014 A 
ATOM     38  C   UNL     1      -8.796  -0.146   2.694  1.00  0.00     0.014 A 
ATOM     39  C   UNL     1     -11.097   0.105   4.255  1.00  0.00     0.010 A 
ATOM     40  C   UNL     1      -9.481   1.064   2.725  1.00  0.00     0.010 A 
ATOM     41  C   UNL     1     -10.641   1.200   3.501  1.00  0.00    -0.014 A 
BRANCH  41  42
ATOM     42  C   UNL     1     -11.366   2.495   3.513  1.00  0.00     0.031 A 
ATOM     43  C   UNL     1     -11.976   3.031   2.247  1.00  0.00     0.074 A 
ATOM     44  C   UNL     1     -11.424   3.216   4.650  1.00  0.00     0.049 A 
ATOM     45  N   UNL     1     -12.592   4.168   2.043  1.00  0.00    -0.248 NA
ATOM     46  C   UNL     1     -11.855   2.192   1.044  1.00  0.00     0.031 C 
ATOM     47  C   UNL     1     -10.833   2.824   5.931  1.00  0.00     0.029 A 
ATOM     48  N   UNL     1     -12.001   4.433   4.909  1.00  0.00    -0.354 N 
ATOM     49  C   UNL     1     -12.921   4.184   0.694  1.00  0.00     0.074 A 
ATOM     50  C   UNL     1     -12.387   2.971   0.114  1.00  0.00     0.031 C 
ATOM     51  C   UNL     1     -11.098   3.771   6.845  1.00  0.00     0.029 A 
ATOM     52  C   UNL     1     -11.838   4.855   6.207  1.00  0.00     0.049 A 
ATOM     53  H   UNL     1     -12.485   4.956   4.230  1.00  0.00     0.167 HD
ATOM     54  C   UNL     1     -13.625   5.113   0.005  1.00  0.00     0.037 A 
ATOM     55  C   UNL     1     -12.232   5.992   6.812  1.00  0.00     0.037 A 
ATOM     56  C   UNL     1     -14.171   6.310   0.591  1.00  0.00     0.049 A 
ATOM     57  C   UNL     1     -12.995   7.017   6.018  1.00  0.00     0.074 A 
ATOM     58  C   UNL     1     -14.945   7.286  -0.011  1.00  0.00     0.029 A 
ATOM     59  N   UNL     1     -13.994   6.696   1.911  1.00  0.00    -0.354 N 
ATOM     60  N   UNL     1     -13.360   6.986   4.759  1.00  0.00    -0.248 NA
ATOM     61  C   UNL     1     -13.407   8.234   6.731  1.00  0.00     0.031 C 
ATOM     62  C   UNL     1     -15.191   8.290   0.930  1.00  0.00     0.029 A 
ATOM     63  C   UNL     1     -14.623   7.909   2.135  1.00  0.00     0.049 A 
ATOM     64  H   UNL     1     -13.495   6.184   2.588  1.00  0.00     0.167 HD
ATOM     65  C   UNL     1     -14.072   8.158   4.540  1.00  0.00     0.074 A 
ATOM     66  C   UNL     1     -14.099   8.872   5.799  1.00  0.00     0.031 C 
ATOM     67  C   UNL     1     -14.652   8.603   3.398  1.00  0.00     0.037 A 
BRANCH  54  68
ATOM     68  C   UNL     1     -13.849   4.872  -1.460  1.00  0.00     0.057 A 
ATOM     69  C   UNL     1     -14.691   3.853  -1.923  1.00  0.00     0.134 A 
ATOM     70  C   UNL     1     -13.251   5.699  -2.420  1.00  0.00     0.134 A 
ATOM     71  F   UNL     1     -15.287   3.018  -1.058  1.00  0.00    -0.206 F 
ATOM     72  C   UNL     1     -14.912   3.649  -3.286  1.00  0.00     0.040 A 
ATOM     73  C   UNL     1     -13.487   5.524  -3.784  1.00  0.00     0.040 A 
ATOM     74  F   UNL     1     -12.438   6.699  -2.047  1.00  0.00    -0.206 F 
ATOM     75  C   UNL     1     -14.315   4.492  -4.221  1.00  0.00     0.006 A 
ENDBRANCH  54  68
BRANCH  55  76
ATOM     76  C   UNL     1     -11.927   6.220   8.248  1.00  0.00     0.057 A 
ATOM     77  C   UNL     1     -12.945   6.252   9.208  1.00  0.00     0.134 A 
ATOM     78  C   UNL     1     -10.616   6.433   8.692  1.00  0.00     0.134 A 
ATOM     79  F   UNL     1     -14.223   6.072   8.843  1.00  0.00    -0.206 F 
ATOM     80  C   UNL     1     -12.676   6.515  10.552  1.00  0.00     0.040 A 
ATOM     81  C   UNL     1     -10.329   6.668  10.038  1.00  0.00     0.040 A 
ATOM     82  F   UNL     1      -9.594   6.406   7.825  1.00  0.00    -0.206 F 
ATOM     83  C   UNL     1     -11.363   6.720  10.971  1.00  0.00     0.006 A 
ENDBRANCH  55  76
BRANCH  67  84
ATOM     84  C   UNL     1     -15.407   9.900   3.468  1.00  0.00     0.057 A 
ATOM     85  C   UNL     1     -14.757  11.132   3.615  1.00  0.00     0.134 A 
ATOM     86  C   UNL     1     -16.802   9.916   3.344  1.00  0.00     0.134 A 
ATOM     87  F   UNL     1     -13.424  11.186   3.752  1.00  0.00    -0.206 F 
ATOM     88  C   UNL     1     -15.471  12.331   3.662  1.00  0.00     0.040 A 
ATOM     89  C   UNL     1     -17.524  11.110   3.358  1.00  0.00     0.040 A 
ATOM     90  F   UNL     1     -17.486   8.772   3.189  1.00  0.00    -0.206 F 
ATOM     91  C   UNL     1     -16.858  12.322   3.525  1.00  0.00     0.006 A 
ENDBRANCH  67  84
ENDBRANCH  41  42
ENDBRANCH  33  36
ENDBRANCH  31  32
ENDBRANCH  30  31
ENDBRANCH  29  30
ENDBRANCH   1  29
TORSDOF 20
