REMARK SMILES NS(=O)(=O)c1ccc(-n2nc(NC(=O)NCCCC(=O)NCCCCCCNC(=O)c3ccc(-c4c5nc(c(-c6c(F)cccc6F)c6ccc([nH]6)c(-c6c(F)cccc6F)c6nc(c(-c7c(F)cccc7F)c7ccc4[nH]7)C=C6)C=C5)cc3)cc2-c2ccccc2)cc1
REMARK SMILES IDX 22 1 21 2 19 3 20 4 18 6 17 7 16 8 15 9 12 10 13 11 14 13
REMARK SMILES IDX 11 15 9 16 10 17 86 18 85 19 8 20 5 21 6 22 94 23 7 24 93 25
REMARK SMILES IDX 2 26 3 27 4 28 1 29 87 32 88 33 92 34 89 35 91 36 90 37
REMARK SMILES IDX 23 38 24 39 25 40 26 41 27 42 28 43 29 44 30 46 31 47 32 48
REMARK SMILES IDX 84 49 33 50 83 51 34 52 35 53 36 54 77 55 37 56 82 57 76 58
REMARK SMILES IDX 78 59 38 60 81 61 75 62 74 63 39 65 65 66 48 67 64 68 49 69
REMARK SMILES IDX 52 70 63 71 79 72 50 73 51 74 62 76 80 77 53 78 40 79 41 80
REMARK SMILES IDX 46 81 42 82 43 83 45 84 47 85 44 86 66 87 67 88 72 89 68 90
REMARK SMILES IDX 69 91 71 92 73 93 70 94 54 95 55 96 60 97 56 98 57 99 59 100
REMARK SMILES IDX 61 101 58 102
REMARK H PARENT 21 5 12 12 15 14 1 30 1 31 28 45 78 64 52 75
REMARK Flexibility Score: inf
ROOT
ATOM      1  C   UNL     1      -2.603   8.144  -0.488  1.00  0.00     0.116 C 
ENDROOT
BRANCH   1   2
ATOM      2  N   UNL     1      -2.987   6.773  -0.214  1.00  0.00    -0.356 N 
ATOM      3  C   UNL     1      -2.789   6.018   0.900  1.00  0.00     0.220 C 
ATOM      4  O   UNL     1      -3.006   4.808   0.830  1.00  0.00    -0.275 OA
ATOM      5  H   UNL     1      -3.464   6.319  -0.946  1.00  0.00     0.163 HD
BRANCH   3   6
ATOM      6  C   UNL     1      -2.364   6.662   2.211  1.00  0.00     0.102 C 
BRANCH   6   7
ATOM      7  C   UNL     1      -0.871   6.611   2.512  1.00  0.00     0.031 C 
BRANCH   7   8
ATOM      8  C   UNL     1      -0.009   7.559   1.702  1.00  0.00     0.118 C 
BRANCH   8   9
ATOM      9  N   UNL     1      -0.222   8.989   1.815  1.00  0.00    -0.338 N 
ATOM     10  N   UNL     1       1.701   9.859   0.687  1.00  0.00    -0.291 N 
ATOM     11  C   UNL     1       0.511  10.022   1.318  1.00  0.00     0.320 C 
ATOM     12  H   UNL     1       2.264  10.665   0.644  1.00  0.00     0.173 HD
ATOM     13  O   UNL     1       0.124  11.169   1.560  1.00  0.00    -0.248 OA
ATOM     14  H   UNL     1      -1.019   9.252   2.330  1.00  0.00     0.165 HD
BRANCH  10  15
ATOM     15  C   UNL     1       2.239   8.742   0.099  1.00  0.00     0.157 A 
ATOM     16  N   UNL     1       2.299   6.724  -0.473  1.00  0.00    -0.231 N 
ATOM     17  N   UNL     1       1.522   7.815  -0.535  1.00  0.00    -0.149 NA
ATOM     18  C   UNL     1       3.626   7.092  -0.389  1.00  0.00     0.076 A 
ATOM     19  C   UNL     1       3.610   8.418   0.013  1.00  0.00     0.078 A 
BRANCH  16  20
ATOM     20  C   UNL     1       1.744   5.412  -0.491  1.00  0.00     0.065 A 
ATOM     21  C   UNL     1       0.994   2.763  -0.915  1.00  0.00     0.082 A 
ATOM     22  C   UNL     1       1.963   3.055   0.048  1.00  0.00     0.024 A 
ATOM     23  C   UNL     1       0.353   3.788  -1.619  1.00  0.00     0.024 A 
ATOM     24  C   UNL     1       2.329   4.385   0.272  1.00  0.00     0.030 A 
ATOM     25  C   UNL     1       0.732   5.113  -1.410  1.00  0.00     0.030 A 
BRANCH  21  26
ATOM     26  S   UNL     1       0.615   1.096  -1.369  1.00  0.00     0.238 S 
ATOM     27  O   UNL     1       1.394   0.768  -2.539  1.00  0.00    -0.207 OA
ATOM     28  O   UNL     1      -0.815   0.912  -1.303  1.00  0.00    -0.207 OA
BRANCH  26  29
ATOM     29  N   UNL     1       1.245   0.152  -0.129  1.00  0.00    -0.225 NA
ATOM     30  H   UNL     1       1.062  -0.832  -0.324  1.00  0.00     0.137 HD
ATOM     31  H   UNL     1       0.804   0.412   0.753  1.00  0.00     0.137 HD
ENDBRANCH  26  29
ENDBRANCH  21  26
ENDBRANCH  16  20
BRANCH  18  32
ATOM     32  C   UNL     1       4.690   6.210  -0.830  1.00  0.00     0.000 A 
ATOM     33  C   UNL     1       4.237   4.948  -2.038  1.00  0.00     0.010 A 
ATOM     34  C   UNL     1       6.359   6.583  -0.419  1.00  0.00     0.010 A 
ATOM     35  C   UNL     1       5.373   3.933  -2.883  1.00  0.00     0.001 A 
ATOM     36  C   UNL     1       7.641   5.633  -1.243  1.00  0.00     0.001 A 
ATOM     37  C   UNL     1       7.099   4.199  -2.548  1.00  0.00     0.000 A 
ENDBRANCH  18  32
ENDBRANCH  10  15
ENDBRANCH   8   9
ENDBRANCH   7   8
ENDBRANCH   6   7
ENDBRANCH   3   6
ENDBRANCH   1   2
BRANCH   1  38
ATOM     38  C   UNL     1      -1.510   8.174  -1.552  1.00  0.00     0.021 C 
BRANCH  38  39
ATOM     39  C   UNL     1      -2.014   8.014  -2.984  1.00  0.00     0.002 C 
BRANCH  39  40
ATOM     40  C   UNL     1      -2.954   9.137  -3.431  1.00  0.00     0.002 C 
BRANCH  40  41
ATOM     41  C   UNL     1      -2.385  10.556  -3.287  1.00  0.00     0.021 C 
BRANCH  41  42
ATOM     42  C   UNL     1      -1.208  10.798  -4.212  1.00  0.00     0.116 C 
BRANCH  42  43
ATOM     43  N   UNL     1      -1.611  10.782  -5.626  1.00  0.00    -0.352 N 
ATOM     44  C   UNL     1      -0.891  11.207  -6.728  1.00  0.00     0.251 C 
ATOM     45  H   UNL     1      -2.509  10.423  -5.812  1.00  0.00     0.163 HD
ATOM     46  O   UNL     1      -1.428  11.466  -7.795  1.00  0.00    -0.269 OA
BRANCH  44  47
ATOM     47  C   UNL     1       0.569  11.242  -6.597  1.00  0.00     0.039 A 
ATOM     48  C   UNL     1       1.423  12.166  -7.202  1.00  0.00     0.014 A 
ATOM     49  C   UNL     1       1.101  10.224  -5.833  1.00  0.00     0.014 A 
ATOM     50  C   UNL     1       2.798  11.996  -7.003  1.00  0.00     0.010 A 
ATOM     51  C   UNL     1       2.285  10.474  -5.238  1.00  0.00     0.010 A 
ATOM     52  C   UNL     1       3.216  11.047  -6.060  1.00  0.00    -0.014 A 
BRANCH  52  53
ATOM     53  C   UNL     1       4.574  10.785  -5.624  1.00  0.00     0.031 A 
ATOM     54  C   UNL     1       5.201  12.007  -5.071  1.00  0.00     0.074 A 
ATOM     55  C   UNL     1       5.071   9.524  -5.517  1.00  0.00     0.049 A 
ATOM     56  N   UNL     1       6.034  12.783  -5.677  1.00  0.00    -0.248 NA
ATOM     57  C   UNL     1       4.651  12.592  -3.832  1.00  0.00     0.031 C 
ATOM     58  C   UNL     1       4.419   8.227  -5.759  1.00  0.00     0.029 A 
ATOM     59  N   UNL     1       6.335   9.140  -5.152  1.00  0.00    -0.354 N 
ATOM     60  C   UNL     1       6.337  13.783  -4.763  1.00  0.00     0.074 A 
ATOM     61  C   UNL     1       5.277  13.771  -3.796  1.00  0.00     0.031 C 
ATOM     62  C   UNL     1       5.225   7.214  -5.352  1.00  0.00     0.029 A 
ATOM     63  C   UNL     1       6.508   7.758  -4.932  1.00  0.00     0.049 A 
ATOM     64  H   UNL     1       7.072   9.785  -5.051  1.00  0.00     0.167 HD
ATOM     65  C   UNL     1       7.601  14.282  -4.701  1.00  0.00     0.037 A 
ATOM     66  C   UNL     1       7.633   7.177  -4.399  1.00  0.00     0.037 A 
ATOM     67  C   UNL     1       8.338  13.922  -5.893  1.00  0.00     0.049 A 
ATOM     68  C   UNL     1       8.740   8.132  -4.598  1.00  0.00     0.074 A 
ATOM     69  C   UNL     1       8.188  14.172  -7.244  1.00  0.00     0.029 A 
ATOM     70  N   UNL     1       9.129  12.801  -5.811  1.00  0.00    -0.354 N 
ATOM     71  N   UNL     1       9.151   8.454  -5.796  1.00  0.00    -0.248 NA
ATOM     72  C   UNL     1       8.909   9.142  -3.560  1.00  0.00     0.031 C 
ATOM     73  C   UNL     1       8.462  12.923  -7.884  1.00  0.00     0.029 A 
ATOM     74  C   UNL     1       8.879  12.017  -6.911  1.00  0.00     0.049 A 
ATOM     75  H   UNL     1       9.764  12.595  -5.087  1.00  0.00     0.167 HD
ATOM     76  C   UNL     1       9.216   9.837  -5.773  1.00  0.00     0.074 A 
ATOM     77  C   UNL     1       9.053  10.206  -4.359  1.00  0.00     0.031 C 
ATOM     78  C   UNL     1       9.043  10.583  -6.904  1.00  0.00     0.037 A 
BRANCH  65  79
ATOM     79  C   UNL     1       8.297  14.668  -3.416  1.00  0.00     0.057 A 
ATOM     80  C   UNL     1       9.576  15.245  -3.494  1.00  0.00     0.134 A 
ATOM     81  C   UNL     1       7.915  14.244  -2.124  1.00  0.00     0.134 A 
ATOM     82  F   UNL     1      10.062  15.683  -4.665  1.00  0.00    -0.206 F 
ATOM     83  C   UNL     1      10.438  15.317  -2.393  1.00  0.00     0.040 A 
ATOM     84  C   UNL     1       8.750  14.355  -1.009  1.00  0.00     0.040 A 
ATOM     85  F   UNL     1       6.765  13.610  -1.875  1.00  0.00    -0.206 F 
ATOM     86  C   UNL     1      10.030  14.863  -1.146  1.00  0.00     0.006 A 
ENDBRANCH  65  79
BRANCH  66  87
ATOM     87  C   UNL     1       7.697   6.089  -3.392  1.00  0.00     0.057 A 
ATOM     88  C   UNL     1       9.089   5.128  -2.875  1.00  0.00     0.134 A 
ATOM     89  C   UNL     1       6.209   5.864  -2.448  1.00  0.00     0.134 A 
ATOM     90  F   UNL     1      10.265   5.302  -3.498  1.00  0.00    -0.206 F 
ATOM     91  C   UNL     1       9.068   3.931  -1.533  1.00  0.00     0.040 A 
ATOM     92  C   UNL     1       6.143   4.518  -0.951  1.00  0.00     0.040 A 
ATOM     93  F   UNL     1       5.268   6.785  -2.818  1.00  0.00    -0.206 F 
ATOM     94  C   UNL     1       7.632   3.594  -0.561  1.00  0.00     0.006 A 
ENDBRANCH  66  87
BRANCH  78  95
ATOM     95  C   UNL     1       8.869   9.855  -8.216  1.00  0.00     0.057 A 
ATOM     96  C   UNL     1       7.720   9.140  -8.603  1.00  0.00     0.134 A 
ATOM     97  C   UNL     1       9.853  10.013  -9.190  1.00  0.00     0.134 A 
ATOM     98  F   UNL     1       6.675   9.010  -7.782  1.00  0.00    -0.206 F 
ATOM     99  C   UNL     1       7.575   8.585  -9.882  1.00  0.00     0.040 A 
ATOM    100  C   UNL     1       9.714   9.488 -10.478  1.00  0.00     0.040 A 
ATOM    101  F   UNL     1      10.953  10.730  -8.916  1.00  0.00    -0.206 F 
ATOM    102  C   UNL     1       8.577   8.764 -10.828  1.00  0.00     0.006 A 
ENDBRANCH  78  95
ENDBRANCH  52  53
ENDBRANCH  44  47
ENDBRANCH  42  43
ENDBRANCH  41  42
ENDBRANCH  40  41
ENDBRANCH  39  40
ENDBRANCH  38  39
ENDBRANCH   1  38
TORSDOF 21
