REMARK SMILES Cc1ccc(Cl)c2c1N[C@@H](c1ccc(C(=O)NCCCCCCNC(=O)c3ccc(-c4c5nc(c(-c6c(F)cccc6F)c6ccc([nH]6)c(-c6c(F)cccc6F)c6nc(c(-c7c(F)cccc7F)c7ccc4[nH]7)C=C6)C=C5)cc3)cc1)[C@H]1CC=C[C@@H]21
REMARK SMILES IDX 21 1 20 2 19 3 18 4 17 5 15 6 16 7 14 9 11 10 12 11 82 12
REMARK SMILES IDX 13 13 81 14 10 15 1 16 2 17 3 18 8 19 4 20 7 21 9 22 5 23
REMARK SMILES IDX 87 24 6 26 83 27 86 28 84 29 85 30 22 31 23 32 24 33 25 34
REMARK SMILES IDX 26 36 27 37 28 38 80 39 29 40 79 41 30 42 31 43 32 44 73 45
REMARK SMILES IDX 33 46 78 47 72 48 74 49 34 50 77 51 71 52 70 53 35 55 61 56
REMARK SMILES IDX 44 57 60 58 45 59 48 60 59 61 75 62 46 63 47 64 58 66 76 67
REMARK SMILES IDX 49 68 36 69 37 70 42 71 38 72 39 73 41 74 43 75 40 76 62 77
REMARK SMILES IDX 63 78 68 79 64 80 65 81 67 82 69 83 66 84 50 85 51 86 56 87
REMARK SMILES IDX 52 88 53 89 55 90 57 91 54 92
REMARK H PARENT 17 8 9 25 24 35 74 54 48 65
REMARK Flexibility Score: inf
ROOT
ATOM      1  C   UNL     1     -11.072   2.746   2.620  1.00  0.00     0.002 C 
ENDROOT
BRANCH   1   2
ATOM      2  C   UNL     1     -10.082   2.795   1.450  1.00  0.00     0.002 C 
BRANCH   2   3
ATOM      3  C   UNL     1      -8.625   3.063   1.853  1.00  0.00     0.021 C 
BRANCH   3   4
ATOM      4  C   UNL     1      -8.025   1.943   2.704  1.00  0.00     0.116 C 
BRANCH   4   5
ATOM      5  N   UNL     1      -7.753   0.802   1.859  1.00  0.00    -0.352 N 
ATOM      6  C   UNL     1      -6.636   0.420   1.169  1.00  0.00     0.251 C 
ATOM      7  O   UNL     1      -6.743  -0.549   0.416  1.00  0.00    -0.269 OA
ATOM      8  H   UNL     1      -8.514   0.185   1.763  1.00  0.00     0.163 HD
BRANCH   6   9
ATOM      9  C   UNL     1      -5.300   1.048   1.365  1.00  0.00     0.039 A 
ATOM     10  C   UNL     1      -2.663   1.903   2.006  1.00  0.00    -0.025 A 
ATOM     11  C   UNL     1      -2.919   0.618   1.504  1.00  0.00     0.006 A 
ATOM     12  C   UNL     1      -3.745   2.797   2.035  1.00  0.00     0.006 A 
ATOM     13  C   UNL     1      -4.211   0.193   1.200  1.00  0.00     0.014 A 
ATOM     14  C   UNL     1      -5.046   2.377   1.707  1.00  0.00     0.014 A 
BRANCH  10  15
ATOM     15  C   UNL     1      -1.298   2.320   2.574  1.00  0.00     0.114 C 
ATOM     16  C   UNL     1       1.150  -0.122  -0.020  1.00  0.00     0.046 C 
ATOM     17  C   UNL     1       0.720  -0.563   1.355  1.00  0.00    -0.027 A 
ATOM     18  C   UNL     1       0.944  -1.904   1.699  1.00  0.00     0.007 A 
ATOM     19  C   UNL     1       0.111   0.308   2.289  1.00  0.00     0.043 A 
ATOM     20  C   UNL     1       0.560  -2.391   2.942  1.00  0.00     0.021 A 
ATOM     21  C   UNL     1      -0.299  -0.192   3.554  1.00  0.00     0.001 A 
ATOM     22  N   UNL     1      -0.203   1.614   1.921  1.00  0.00    -0.377 N 
ATOM     23  C   UNL     1      -0.045  -1.543   3.868  1.00  0.00     0.046 A 
ATOM     24  C   UNL     1      -0.949   0.737   4.558  1.00  0.00     0.051 C 
ATOM     25  H   UNL     1       0.317   2.062   1.215  1.00  0.00     0.161 HD
ATOM     26  Cl  UNL     1      -0.433  -2.231   5.408  1.00  0.00    -0.084 Cl
ATOM     27  C   UNL     1      -1.069   2.207   4.104  1.00  0.00     0.031 C 
ATOM     28  C   UNL     1      -2.377   0.451   4.957  1.00  0.00    -0.023 C 
ATOM     29  C   UNL     1      -2.192   2.780   4.980  1.00  0.00     0.034 C 
ATOM     30  C   UNL     1      -3.049   1.580   5.221  1.00  0.00    -0.030 C 
ENDBRANCH  10  15
ENDBRANCH   6   9
ENDBRANCH   4   5
ENDBRANCH   3   4
ENDBRANCH   2   3
ENDBRANCH   1   2
BRANCH   1  31
ATOM     31  C   UNL     1     -10.996   3.943   3.569  1.00  0.00     0.021 C 
BRANCH  31  32
ATOM     32  C   UNL     1     -11.216   5.284   2.879  1.00  0.00     0.116 C 
BRANCH  32  33
ATOM     33  N   UNL     1     -12.600   5.443   2.464  1.00  0.00    -0.352 N 
ATOM     34  C   UNL     1     -13.526   6.340   2.938  1.00  0.00     0.251 C 
ATOM     35  H   UNL     1     -12.912   4.833   1.757  1.00  0.00     0.163 HD
ATOM     36  O   UNL     1     -14.714   6.223   2.681  1.00  0.00    -0.269 OA
BRANCH  34  37
ATOM     37  C   UNL     1     -13.052   7.456   3.777  1.00  0.00     0.039 A 
ATOM     38  C   UNL     1     -13.627   7.659   5.032  1.00  0.00     0.014 A 
ATOM     39  C   UNL     1     -12.022   8.284   3.316  1.00  0.00     0.014 A 
ATOM     40  C   UNL     1     -13.146   8.685   5.845  1.00  0.00     0.010 A 
ATOM     41  C   UNL     1     -11.507   9.269   4.150  1.00  0.00     0.010 A 
ATOM     42  C   UNL     1     -12.079   9.490   5.412  1.00  0.00    -0.014 A 
BRANCH  42  43
ATOM     43  C   UNL     1     -11.614  10.630   6.233  1.00  0.00     0.031 A 
ATOM     44  C   UNL     1     -11.928  12.030   5.786  1.00  0.00     0.074 A 
ATOM     45  C   UNL     1     -10.912  10.412   7.360  1.00  0.00     0.049 A 
ATOM     46  N   UNL     1     -11.627  13.169   6.356  1.00  0.00    -0.248 NA
ATOM     47  C   UNL     1     -12.664  12.168   4.518  1.00  0.00     0.031 C 
ATOM     48  C   UNL     1     -10.520   9.101   7.878  1.00  0.00     0.029 A 
ATOM     49  N   UNL     1     -10.402  11.298   8.274  1.00  0.00    -0.354 N 
ATOM     50  C   UNL     1     -12.155  14.152   5.529  1.00  0.00     0.074 A 
ATOM     51  C   UNL     1     -12.723  13.483   4.380  1.00  0.00     0.031 C 
ATOM     52  C   UNL     1      -9.848   9.268   9.030  1.00  0.00     0.029 A 
ATOM     53  C   UNL     1      -9.750  10.695   9.321  1.00  0.00     0.049 A 
ATOM     54  H   UNL     1     -10.495  12.274   8.187  1.00  0.00     0.167 HD
ATOM     55  C   UNL     1     -12.199  15.490   5.726  1.00  0.00     0.037 A 
ATOM     56  C   UNL     1      -9.153  11.242  10.396  1.00  0.00     0.037 A 
ATOM     57  C   UNL     1     -11.629  16.159   6.864  1.00  0.00     0.049 A 
ATOM     58  C   UNL     1      -9.178  12.737  10.567  1.00  0.00     0.074 A 
ATOM     59  C   UNL     1     -11.610  17.511   7.155  1.00  0.00     0.029 A 
ATOM     60  N   UNL     1     -10.979  15.514   7.905  1.00  0.00    -0.354 N 
ATOM     61  N   UNL     1      -9.724  13.652   9.802  1.00  0.00    -0.248 NA
ATOM     62  C   UNL     1      -8.514  13.273  11.764  1.00  0.00     0.031 C 
ATOM     63  C   UNL     1     -10.928  17.686   8.366  1.00  0.00     0.029 A 
ATOM     64  C   UNL     1     -10.552  16.440   8.841  1.00  0.00     0.049 A 
ATOM     65  H   UNL     1     -10.841  14.541   7.969  1.00  0.00     0.167 HD
ATOM     66  C   UNL     1      -9.502  14.864  10.443  1.00  0.00     0.074 A 
ATOM     67  C   UNL     1      -8.787  14.565  11.666  1.00  0.00     0.031 C 
ATOM     68  C   UNL     1      -9.856  16.114  10.058  1.00  0.00     0.037 A 
BRANCH  55  69
ATOM     69  C   UNL     1     -12.912  16.303   4.688  1.00  0.00     0.057 A 
ATOM     70  C   UNL     1     -12.210  17.126   3.801  1.00  0.00     0.134 A 
ATOM     71  C   UNL     1     -14.308  16.260   4.566  1.00  0.00     0.134 A 
ATOM     72  F   UNL     1     -10.873  17.210   3.863  1.00  0.00    -0.206 F 
ATOM     73  C   UNL     1     -12.871  17.876   2.826  1.00  0.00     0.040 A 
ATOM     74  C   UNL     1     -14.978  16.987   3.581  1.00  0.00     0.040 A 
ATOM     75  F   UNL     1     -15.037  15.474   5.374  1.00  0.00    -0.206 F 
ATOM     76  C   UNL     1     -14.258  17.801   2.710  1.00  0.00     0.006 A 
ENDBRANCH  55  69
BRANCH  56  77
ATOM     77  C   UNL     1      -8.506  10.387  11.422  1.00  0.00     0.057 A 
ATOM     78  C   UNL     1      -7.294   9.736  11.173  1.00  0.00     0.134 A 
ATOM     79  C   UNL     1      -9.054  10.264  12.706  1.00  0.00     0.134 A 
ATOM     80  F   UNL     1      -6.720   9.811   9.963  1.00  0.00    -0.206 F 
ATOM     81  C   UNL     1      -6.640   9.005  12.167  1.00  0.00     0.040 A 
ATOM     82  C   UNL     1      -8.400   9.557  13.715  1.00  0.00     0.040 A 
ATOM     83  F   UNL     1     -10.204  10.884  13.010  1.00  0.00    -0.206 F 
ATOM     84  C   UNL     1      -7.187   8.926  13.447  1.00  0.00     0.006 A 
ENDBRANCH  56  77
BRANCH  68  85
ATOM     85  C   UNL     1      -9.512  17.233  10.996  1.00  0.00     0.057 A 
ATOM     86  C   UNL     1     -10.513  17.869  11.740  1.00  0.00     0.134 A 
ATOM     87  C   UNL     1      -8.195  17.677  11.164  1.00  0.00     0.134 A 
ATOM     88  F   UNL     1     -11.796  17.494  11.618  1.00  0.00    -0.206 F 
ATOM     89  C   UNL     1     -10.214  18.903  12.627  1.00  0.00     0.040 A 
ATOM     90  C   UNL     1      -7.881  18.693  12.067  1.00  0.00     0.040 A 
ATOM     91  F   UNL     1      -7.190  17.096  10.492  1.00  0.00    -0.206 F 
ATOM     92  C   UNL     1      -8.893  19.311  12.800  1.00  0.00     0.006 A 
ENDBRANCH  68  85
ENDBRANCH  42  43
ENDBRANCH  34  37
ENDBRANCH  32  33
ENDBRANCH  31  32
ENDBRANCH   1  31
TORSDOF 14
