REMARK SMILES Cc1nonc1-c1noc(CCC(=O)NCCCCCCNC(=O)c2ccc(-c3c4nc(c(-c5c(F)cccc5F)c5ccc([nH]5)c(-c5c(F)cccc5F)c5nc(c(-c6c(F)cccc6F)c6ccc3[nH]6)C=C5)C=C4)cc2)n1
REMARK SMILES IDX 18 1 17 2 16 3 15 4 13 5 14 6 12 8 11 9 10 10 7 11 8 12
REMARK SMILES IDX 79 13 9 14 6 15 1 16 2 17 3 18 4 19 5 20 19 21 20 22 21 23
REMARK SMILES IDX 22 24 23 25 24 27 25 28 26 29 78 30 27 31 77 32 28 33 29 34
REMARK SMILES IDX 30 35 71 36 31 37 76 38 70 39 72 40 32 41 75 42 69 43 68 44
REMARK SMILES IDX 33 46 59 47 42 48 58 49 43 50 46 51 57 52 73 53 44 54 45 55
REMARK SMILES IDX 56 57 74 58 47 59 34 60 35 61 40 62 36 63 37 64 39 65 41 66
REMARK SMILES IDX 38 67 60 68 61 69 66 70 62 71 63 72 65 73 67 74 64 75 48 76
REMARK SMILES IDX 49 77 54 78 50 79 51 80 53 81 55 82 52 83
REMARK H PARENT 15 7 22 26 72 45 46 56
REMARK Flexibility Score: inf
ROOT
ATOM      1  C   UNL     1      -1.370   5.037   2.893  1.00  0.00     0.002 C 
ENDROOT
BRANCH   1   2
ATOM      2  C   UNL     1      -0.601   4.752   1.599  1.00  0.00     0.021 C 
BRANCH   2   3
ATOM      3  C   UNL     1      -1.130   5.514   0.385  1.00  0.00     0.116 C 
BRANCH   3   4
ATOM      4  N   UNL     1      -0.462   6.796   0.260  1.00  0.00    -0.356 N 
ATOM      5  C   UNL     1       0.359   7.259  -0.719  1.00  0.00     0.220 C 
ATOM      6  O   UNL     1       0.905   8.353  -0.564  1.00  0.00    -0.275 OA
ATOM      7  H   UNL     1      -0.629   7.427   0.998  1.00  0.00     0.163 HD
BRANCH   5   8
ATOM      8  C   UNL     1       0.616   6.442  -1.964  1.00  0.00     0.110 C 
BRANCH   8   9
ATOM      9  C   UNL     1       1.923   5.666  -1.858  1.00  0.00     0.110 C 
BRANCH   9  10
ATOM     10  C   UNL     1       1.758   4.348  -1.199  1.00  0.00     0.227 A 
ATOM     11  C   UNL     1       1.275   2.413  -0.560  1.00  0.00     0.226 A 
ATOM     12  N   UNL     1       2.311   2.746   0.223  1.00  0.00    -0.055 NA
ATOM     13  N   UNL     1       0.899   3.387  -1.454  1.00  0.00    -0.190 NA
ATOM     14  O   UNL     1       2.635   4.037  -0.201  1.00  0.00    -0.339 OA
BRANCH  11  15
ATOM     15  C   UNL     1       0.537   1.157  -0.464  1.00  0.00     0.178 A 
ATOM     16  C   UNL     1       2.462  -0.555   0.062  1.00  0.00     0.073 C 
ATOM     17  C   UNL     1       1.070  -0.110  -0.168  1.00  0.00     0.113 A 
ATOM     18  N   UNL     1       0.076  -1.005  -0.137  1.00  0.00    -0.054 NA
ATOM     19  O   UNL     1      -1.073  -0.284  -0.441  1.00  0.00    -0.244 OA
ATOM     20  N   UNL     1      -0.786   1.063  -0.637  1.00  0.00    -0.046 NA
ENDBRANCH  11  15
ENDBRANCH   9  10
ENDBRANCH   8   9
ENDBRANCH   5   8
ENDBRANCH   3   4
ENDBRANCH   2   3
ENDBRANCH   1   2
BRANCH   1  21
ATOM     21  C   UNL     1      -2.823   4.545   2.907  1.00  0.00     0.002 C 
BRANCH  21  22
ATOM     22  C   UNL     1      -3.034   3.080   2.511  1.00  0.00     0.021 C 
BRANCH  22  23
ATOM     23  C   UNL     1      -2.221   2.064   3.310  1.00  0.00     0.116 C 
BRANCH  23  24
ATOM     24  N   UNL     1      -2.557   2.081   4.724  1.00  0.00    -0.352 N 
ATOM     25  C   UNL     1      -3.013   1.071   5.530  1.00  0.00     0.251 C 
ATOM     26  H   UNL     1      -2.438   2.950   5.171  1.00  0.00     0.163 HD
ATOM     27  O   UNL     1      -3.413   1.324   6.665  1.00  0.00    -0.269 OA
BRANCH  25  28
ATOM     28  C   UNL     1      -3.045  -0.324   5.041  1.00  0.00     0.039 A 
ATOM     29  C   UNL     1      -4.180  -1.099   5.297  1.00  0.00     0.014 A 
ATOM     30  C   UNL     1      -1.951  -0.883   4.373  1.00  0.00     0.014 A 
ATOM     31  C   UNL     1      -4.242  -2.417   4.838  1.00  0.00     0.010 A 
ATOM     32  C   UNL     1      -2.034  -2.180   3.868  1.00  0.00     0.010 A 
ATOM     33  C   UNL     1      -3.178  -2.959   4.100  1.00  0.00    -0.014 A 
BRANCH  33  34
ATOM     34  C   UNL     1      -3.242  -4.343   3.571  1.00  0.00     0.031 A 
ATOM     35  C   UNL     1      -2.334  -5.406   4.120  1.00  0.00     0.074 A 
ATOM     36  C   UNL     1      -4.079  -4.630   2.556  1.00  0.00     0.049 A 
ATOM     37  N   UNL     1      -2.193  -6.651   3.741  1.00  0.00    -0.248 NA
ATOM     38  C   UNL     1      -1.454  -5.012   5.231  1.00  0.00     0.031 C 
ATOM     39  C   UNL     1      -4.986  -3.679   1.913  1.00  0.00     0.029 A 
ATOM     40  N   UNL     1      -4.292  -5.805   1.880  1.00  0.00    -0.354 N 
ATOM     41  C   UNL     1      -1.198  -7.183   4.551  1.00  0.00     0.074 A 
ATOM     42  C   UNL     1      -0.746  -6.117   5.420  1.00  0.00     0.031 C 
ATOM     43  C   UNL     1      -5.668  -4.311   0.944  1.00  0.00     0.029 A 
ATOM     44  C   UNL     1      -5.225  -5.700   0.878  1.00  0.00     0.049 A 
ATOM     45  H   UNL     1      -3.822  -6.643   2.093  1.00  0.00     0.167 HD
ATOM     46  C   UNL     1      -0.717  -8.448   4.580  1.00  0.00     0.037 A 
ATOM     47  C   UNL     1      -5.668  -6.619   0.000  1.00  0.00     0.037 A 
ATOM     48  C   UNL     1      -1.184  -9.515   3.735  1.00  0.00     0.049 A 
ATOM     49  C   UNL     1      -5.120  -8.017   0.053  1.00  0.00     0.074 A 
ATOM     50  C   UNL     1      -0.797 -10.845   3.729  1.00  0.00     0.029 A 
ATOM     51  N   UNL     1      -2.143  -9.374   2.744  1.00  0.00    -0.354 N 
ATOM     52  N   UNL     1      -4.216  -8.519   0.859  1.00  0.00    -0.248 NA
ATOM     53  C   UNL     1      -5.655  -8.976  -0.923  1.00  0.00     0.031 C 
ATOM     54  C   UNL     1      -1.502 -11.501   2.714  1.00  0.00     0.029 A 
ATOM     55  C   UNL     1      -2.351 -10.588   2.110  1.00  0.00     0.049 A 
ATOM     56  H   UNL     1      -2.608  -8.534   2.523  1.00  0.00     0.167 HD
ATOM     57  C   UNL     1      -4.092  -9.855   0.504  1.00  0.00     0.074 A 
ATOM     58  C   UNL     1      -5.019 -10.088  -0.584  1.00  0.00     0.031 C 
ATOM     59  C   UNL     1      -3.282 -10.804   1.033  1.00  0.00     0.037 A 
BRANCH  46  60
ATOM     60  C   UNL     1       0.375  -8.745   5.563  1.00  0.00     0.057 A 
ATOM     61  C   UNL     1       0.123  -8.837   6.938  1.00  0.00     0.134 A 
ATOM     62  C   UNL     1       1.688  -8.966   5.130  1.00  0.00     0.134 A 
ATOM     63  F   UNL     1      -1.112  -8.624   7.418  1.00  0.00    -0.206 F 
ATOM     64  C   UNL     1       1.142  -9.114   7.850  1.00  0.00     0.040 A 
ATOM     65  C   UNL     1       2.712  -9.265   6.030  1.00  0.00     0.040 A 
ATOM     66  F   UNL     1       1.997  -8.897   3.826  1.00  0.00    -0.206 F 
ATOM     67  C   UNL     1       2.441  -9.334   7.396  1.00  0.00     0.006 A 
ENDBRANCH  46  60
BRANCH  47  68
ATOM     68  C   UNL     1      -6.708  -6.252  -0.990  1.00  0.00     0.057 A 
ATOM     69  C   UNL     1      -8.024  -6.706  -0.851  1.00  0.00     0.134 A 
ATOM     70  C   UNL     1      -6.415  -5.438  -2.091  1.00  0.00     0.134 A 
ATOM     71  F   UNL     1      -8.357  -7.504   0.173  1.00  0.00    -0.206 F 
ATOM     72  C   UNL     1      -9.012  -6.373  -1.778  1.00  0.00     0.040 A 
ATOM     73  C   UNL     1      -7.398  -5.081  -3.015  1.00  0.00     0.040 A 
ATOM     74  F   UNL     1      -5.173  -4.969  -2.275  1.00  0.00    -0.206 F 
ATOM     75  C   UNL     1      -8.701  -5.554  -2.862  1.00  0.00     0.006 A 
ENDBRANCH  47  68
BRANCH  59  76
ATOM     76  C   UNL     1      -3.385 -12.186   0.462  1.00  0.00     0.057 A 
ATOM     77  C   UNL     1      -2.832 -12.512  -0.782  1.00  0.00     0.134 A 
ATOM     78  C   UNL     1      -4.015 -13.209   1.182  1.00  0.00     0.134 A 
ATOM     79  F   UNL     1      -2.228 -11.572  -1.524  1.00  0.00    -0.206 F 
ATOM     80  C   UNL     1      -2.917 -13.805  -1.299  1.00  0.00     0.040 A 
ATOM     81  C   UNL     1      -4.088 -14.510   0.684  1.00  0.00     0.040 A 
ATOM     82  F   UNL     1      -4.560 -12.962   2.383  1.00  0.00    -0.206 F 
ATOM     83  C   UNL     1      -3.541 -14.810  -0.562  1.00  0.00     0.006 A 
ENDBRANCH  59  76
ENDBRANCH  33  34
ENDBRANCH  25  28
ENDBRANCH  23  24
ENDBRANCH  22  23
ENDBRANCH  21  22
ENDBRANCH   1  21
TORSDOF 16
