REMARK SMILES O=C1C[C@H](c2cn[nH]c2C(=O)NCCCCCCNC(=O)c2ccc(-c3c4nc(c(-c5c(F)cccc5F)c5ccc([nH]5)c(-c5c(F)cccc5F)c5nc(c(-c6c(F)cccc6F)c6ccc3[nH]6)C=C5)C=C4)cc2)c2c(-c3cccs3)n[nH]c2N1
REMARK SMILES IDX 15 1 14 2 13 3 12 4 10 5 11 6 9 8 5 9 6 10 7 11 8 12 4 14
REMARK SMILES IDX 1 15 2 16 3 17 86 18 85 19 76 21 84 22 77 23 83 24 78 26
REMARK SMILES IDX 79 27 82 28 80 29 81 30 16 31 17 32 18 33 19 34 20 35 21 37
REMARK SMILES IDX 22 38 23 39 75 40 24 41 74 42 25 43 26 44 27 45 68 46 28 47
REMARK SMILES IDX 73 48 67 49 69 50 29 51 72 52 66 53 65 54 30 56 56 57 39 58
REMARK SMILES IDX 55 59 40 60 43 61 54 62 70 63 41 64 42 65 53 67 71 68 44 69
REMARK SMILES IDX 31 70 32 71 37 72 33 73 34 74 36 75 38 76 35 77 57 78 58 79
REMARK SMILES IDX 63 80 59 81 60 82 62 83 64 84 61 85 45 86 46 87 51 88 47 89
REMARK SMILES IDX 48 90 50 91 52 92 49 93
REMARK H PARENT 12 7 8 13 86 20 84 25 19 36 69 55 43 66
REMARK Flexibility Score: inf
ROOT
ATOM      1  C   UNL     1       4.921  -3.592   1.342  1.00  0.00     0.002 C 
ENDROOT
BRANCH   1   2
ATOM      2  C   UNL     1       4.177  -2.355   0.837  1.00  0.00     0.021 C 
BRANCH   2   3
ATOM      3  C   UNL     1       5.237  -1.060   0.352  1.00  0.00     0.116 C 
BRANCH   3   4
ATOM      4  N   UNL     1       5.717  -0.406  -1.670  1.00  0.00    -0.351 N 
ATOM      5  C   UNL     1       5.734   0.448  -2.791  1.00  0.00     0.269 C 
ATOM      6  O   UNL     1       6.367   0.031  -3.767  1.00  0.00    -0.268 OA
ATOM      7  H   UNL     1       6.240  -1.171  -2.002  1.00  0.00     0.163 HD
BRANCH   5   8
ATOM      8  C   UNL     1       5.145   1.764  -2.813  1.00  0.00     0.126 A 
ATOM      9  C   UNL     1       4.482   2.505  -1.846  1.00  0.00     0.011 A 
ATOM     10  C   UNL     1       4.252   3.756  -2.446  1.00  0.00     0.140 A 
ATOM     11  N   UNL     1       4.693   3.803  -3.704  1.00  0.00    -0.183 NA
ATOM     12  N   UNL     1       5.231   2.586  -3.900  1.00  0.00    -0.273 N 
ATOM     13  H   UNL     1       5.648   2.313  -4.749  1.00  0.00     0.190 HD
BRANCH   9  14
ATOM     14  C   UNL     1       4.172   2.028  -0.474  1.00  0.00     0.069 C 
ATOM     15  O   UNL     1       0.707   0.408  -0.414  1.00  0.00    -0.275 OA
ATOM     16  C   UNL     1       1.920   0.506  -0.637  1.00  0.00     0.226 C 
ATOM     17  C   UNL     1       2.657   1.818  -0.236  1.00  0.00     0.114 C 
ATOM     18  N   UNL     1       2.564  -0.587  -1.165  1.00  0.00    -0.311 N 
ATOM     19  C   UNL     1       3.917  -0.636  -1.051  1.00  0.00     0.132 A 
ATOM     20  H   UNL     1       2.063  -1.309  -1.609  1.00  0.00     0.171 HD
ATOM     21  C   UNL     1       4.830   0.729  -0.396  1.00  0.00     0.031 A 
ATOM     22  N   UNL     1       5.093  -2.051  -1.280  1.00  0.00    -0.262 N 
ATOM     23  C   UNL     1       6.677   0.157  -0.173  1.00  0.00     0.108 A 
ATOM     24  N   UNL     1       6.809  -1.531  -0.690  1.00  0.00    -0.173 NA
ATOM     25  H   UNL     1       4.859  -2.933  -1.650  1.00  0.00     0.192 HD
BRANCH  23  26
ATOM     26  C   UNL     1       7.791   1.111   0.035  1.00  0.00     0.055 A 
ATOM     27  C   UNL     1       8.902   1.156  -0.772  1.00  0.00     0.022 A 
ATOM     28  S   UNL     1       7.751   2.363   1.183  1.00  0.00    -0.142 S 
ATOM     29  C   UNL     1       9.698   2.306  -0.490  1.00  0.00     0.012 A 
ATOM     30  C   UNL     1       9.221   3.014   0.594  1.00  0.00     0.065 A 
ENDBRANCH  23  26
ENDBRANCH   9  14
ENDBRANCH   5   8
ENDBRANCH   3   4
ENDBRANCH   2   3
ENDBRANCH   1   2
BRANCH   1  31
ATOM     31  C   UNL     1       6.089  -3.315   2.296  1.00  0.00     0.002 C 
BRANCH  31  32
ATOM     32  C   UNL     1       5.764  -2.391   3.483  1.00  0.00     0.021 C 
BRANCH  32  33
ATOM     33  C   UNL     1       4.585  -2.891   4.292  1.00  0.00     0.116 C 
BRANCH  33  34
ATOM     34  N   UNL     1       4.771  -4.290   4.690  1.00  0.00    -0.352 N 
ATOM     35  C   UNL     1       3.981  -5.084   5.485  1.00  0.00     0.251 C 
ATOM     36  H   UNL     1       5.580  -4.724   4.335  1.00  0.00     0.163 HD
ATOM     37  O   UNL     1       4.402  -6.112   5.997  1.00  0.00    -0.269 OA
BRANCH  35  38
ATOM     38  C   UNL     1       2.569  -4.729   5.573  1.00  0.00     0.039 A 
ATOM     39  C   UNL     1       1.724  -5.004   6.645  1.00  0.00     0.014 A 
ATOM     40  C   UNL     1       2.026  -4.223   4.409  1.00  0.00     0.014 A 
ATOM     41  C   UNL     1       0.357  -4.792   6.436  1.00  0.00     0.010 A 
ATOM     42  C   UNL     1       0.919  -3.474   4.540  1.00  0.00     0.010 A 
ATOM     43  C   UNL     1      -0.035  -4.145   5.253  1.00  0.00    -0.014 A 
BRANCH  43  44
ATOM     44  C   UNL     1      -1.360  -3.682   4.900  1.00  0.00     0.031 A 
ATOM     45  C   UNL     1      -1.800  -2.678   5.912  1.00  0.00     0.074 A 
ATOM     46  C   UNL     1      -1.928  -3.974   3.698  1.00  0.00     0.049 A 
ATOM     47  N   UNL     1      -2.514  -2.949   6.952  1.00  0.00    -0.248 NA
ATOM     48  C   UNL     1      -1.109  -1.370   6.033  1.00  0.00     0.031 C 
ATOM     49  C   UNL     1      -1.432  -4.764   2.554  1.00  0.00     0.029 A 
ATOM     50  N   UNL     1      -3.165  -3.600   3.246  1.00  0.00    -0.354 N 
ATOM     51  C   UNL     1      -2.640  -1.750   7.641  1.00  0.00     0.074 A 
ATOM     52  C   UNL     1      -1.526  -0.951   7.232  1.00  0.00     0.031 C 
ATOM     53  C   UNL     1      -2.243  -4.595   1.474  1.00  0.00     0.029 A 
ATOM     54  C   UNL     1      -3.392  -3.806   1.869  1.00  0.00     0.049 A 
ATOM     55  H   UNL     1      -3.848  -3.215   3.840  1.00  0.00     0.167 HD
ATOM     56  C   UNL     1      -3.843  -1.407   8.177  1.00  0.00     0.037 A 
ATOM     57  C   UNL     1      -4.493  -3.372   1.179  1.00  0.00     0.037 A 
ATOM     58  C   UNL     1      -4.708  -2.567   8.180  1.00  0.00     0.049 A 
ATOM     59  C   UNL     1      -5.543  -3.122   2.216  1.00  0.00     0.074 A 
ATOM     60  C   UNL     1      -4.654  -3.800   8.798  1.00  0.00     0.029 A 
ATOM     61  N   UNL     1      -5.501  -2.721   7.066  1.00  0.00    -0.354 N 
ATOM     62  N   UNL     1      -6.034  -4.090   2.947  1.00  0.00    -0.248 NA
ATOM     63  C   UNL     1      -5.521  -1.799   2.834  1.00  0.00     0.031 C 
ATOM     64  C   UNL     1      -5.024  -4.734   7.785  1.00  0.00     0.029 A 
ATOM     65  C   UNL     1      -5.455  -4.032   6.659  1.00  0.00     0.049 A 
ATOM     66  H   UNL     1      -6.018  -2.006   6.630  1.00  0.00     0.167 HD
ATOM     67  C   UNL     1      -5.949  -3.614   4.250  1.00  0.00     0.074 A 
ATOM     68  C   UNL     1      -5.610  -2.191   4.112  1.00  0.00     0.031 C 
ATOM     69  C   UNL     1      -5.792  -4.457   5.316  1.00  0.00     0.037 A 
BRANCH  56  70
ATOM     70  C   UNL     1      -4.396  -0.004   8.255  1.00  0.00     0.057 A 
ATOM     71  C   UNL     1      -5.633   0.188   8.897  1.00  0.00     0.134 A 
ATOM     72  C   UNL     1      -3.937   1.102   7.510  1.00  0.00     0.134 A 
ATOM     73  F   UNL     1      -6.179  -0.784   9.643  1.00  0.00    -0.206 F 
ATOM     74  C   UNL     1      -6.393   1.353   8.737  1.00  0.00     0.040 A 
ATOM     75  C   UNL     1      -4.669   2.286   7.377  1.00  0.00     0.040 A 
ATOM     76  F   UNL     1      -2.808   1.079   6.795  1.00  0.00    -0.206 F 
ATOM     77  C   UNL     1      -5.916   2.404   7.965  1.00  0.00     0.006 A 
ENDBRANCH  56  70
BRANCH  57  78
ATOM     78  C   UNL     1      -4.553  -2.719  -0.167  1.00  0.00     0.057 A 
ATOM     79  C   UNL     1      -5.759  -2.450  -0.848  1.00  0.00     0.134 A 
ATOM     80  C   UNL     1      -3.421  -2.065  -0.680  1.00  0.00     0.134 A 
ATOM     81  F   UNL     1      -6.917  -2.979  -0.424  1.00  0.00    -0.206 F 
ATOM     82  C   UNL     1      -5.827  -1.576  -1.953  1.00  0.00     0.040 A 
ATOM     83  C   UNL     1      -3.476  -1.183  -1.768  1.00  0.00     0.040 A 
ATOM     84  F   UNL     1      -2.229  -2.195  -0.082  1.00  0.00    -0.206 F 
ATOM     85  C   UNL     1      -4.682  -0.926  -2.406  1.00  0.00     0.006 A 
ENDBRANCH  57  78
BRANCH  69  86
ATOM     86  C   UNL     1      -5.865  -5.949   5.080  1.00  0.00     0.057 A 
ATOM     87  C   UNL     1      -4.920  -6.719   4.379  1.00  0.00     0.134 A 
ATOM     88  C   UNL     1      -6.856  -6.661   5.759  1.00  0.00     0.134 A 
ATOM     89  F   UNL     1      -3.862  -6.153   3.790  1.00  0.00    -0.206 F 
ATOM     90  C   UNL     1      -4.989  -8.119   4.319  1.00  0.00     0.040 A 
ATOM     91  C   UNL     1      -6.921  -8.056   5.735  1.00  0.00     0.040 A 
ATOM     92  F   UNL     1      -7.749  -6.006   6.516  1.00  0.00    -0.206 F 
ATOM     93  C   UNL     1      -5.996  -8.791   5.001  1.00  0.00     0.006 A 
ENDBRANCH  69  86
ENDBRANCH  43  44
ENDBRANCH  35  38
ENDBRANCH  33  34
ENDBRANCH  32  33
ENDBRANCH  31  32
ENDBRANCH   1  31
TORSDOF 15
