REMARK SMILES O=C(C[C@@H]1C(=O)NC(=S)N1c1ccccc1)NCCCCCCNC(=O)c1ccc(-c2c3nc(c(-c4c(F)cccc4F)c4ccc([nH]4)c(-c4c(F)cccc4F)c4nc(c(-c5c(F)cccc5F)c5ccc2[nH]5)C=C4)C=C3)cc1
REMARK SMILES IDX 20 1 19 2 18 3 17 4 1 5 2 6 3 8 4 9 5 10 10 11 6 12 7 13
REMARK SMILES IDX 8 14 9 16 11 17 12 18 16 19 13 20 15 21 14 22 21 23 22 24
REMARK SMILES IDX 23 25 24 26 25 27 26 29 27 30 28 31 80 32 29 33 79 34 30 35
REMARK SMILES IDX 31 36 32 37 73 38 33 39 78 40 72 41 74 42 34 43 77 44 71 45
REMARK SMILES IDX 70 46 35 48 61 49 44 50 60 51 45 52 48 53 59 54 75 55 46 56
REMARK SMILES IDX 47 57 58 59 76 60 49 61 36 62 37 63 42 64 38 65 39 66 41 67
REMARK SMILES IDX 43 68 40 69 62 70 63 71 68 72 64 73 65 74 67 75 69 76 66 77
REMARK SMILES IDX 50 78 51 79 56 80 52 81 53 82 55 83 57 84 54 85
REMARK H PARENT 17 7 7 15 24 28 74 47 48 58
REMARK Flexibility Score: inf
ROOT
ATOM      1  C   UNL     1       4.117   1.906   3.166  1.00  0.00     0.002 C 
ENDROOT
BRANCH   1   2
ATOM      2  C   UNL     1       2.609   1.633   3.041  1.00  0.00     0.021 C 
BRANCH   2   3
ATOM      3  C   UNL     1       2.056   1.718   1.616  1.00  0.00     0.116 C 
BRANCH   3   4
ATOM      4  N   UNL     1       2.780   0.829   0.733  1.00  0.00    -0.356 N 
ATOM      5  O   UNL     1       0.987  -0.259  -0.205  1.00  0.00    -0.275 OA
ATOM      6  C   UNL     1       2.196  -0.128  -0.059  1.00  0.00     0.222 C 
ATOM      7  H   UNL     1       3.760   0.916   0.699  1.00  0.00     0.163 HD
BRANCH   6   8
ATOM      8  C   UNL     1       3.195  -1.063  -0.709  1.00  0.00     0.135 C 
BRANCH   8   9
ATOM      9  C   UNL     1       3.859  -0.543  -1.976  1.00  0.00     0.188 C 
ATOM     10  C   UNL     1       4.160   0.953  -1.913  1.00  0.00     0.249 C 
ATOM     11  N   UNL     1       3.100  -0.607  -3.224  1.00  0.00    -0.306 N 
ATOM     12  O   UNL     1       4.794   1.509  -1.030  1.00  0.00    -0.272 OA
ATOM     13  N   UNL     1       3.611   1.563  -2.994  1.00  0.00    -0.301 N 
ATOM     14  C   UNL     1       3.002   0.662  -3.812  1.00  0.00     0.180 C 
ATOM     15  H   UNL     1       3.648   2.532  -3.164  1.00  0.00     0.172 HD
ATOM     16  S   UNL     1       2.280   1.123  -5.235  1.00  0.00    -0.040 S 
BRANCH  11  17
ATOM     17  C   UNL     1       3.001  -1.837  -3.918  1.00  0.00     0.044 A 
ATOM     18  C   UNL     1       3.749  -2.060  -5.081  1.00  0.00     0.026 A 
ATOM     19  C   UNL     1       2.191  -2.860  -3.421  1.00  0.00     0.026 A 
ATOM     20  C   UNL     1       3.688  -3.293  -5.734  1.00  0.00     0.002 A 
ATOM     21  C   UNL     1       2.127  -4.091  -4.078  1.00  0.00     0.002 A 
ATOM     22  C   UNL     1       2.877  -4.309  -5.232  1.00  0.00     0.000 A 
ENDBRANCH  11  17
ENDBRANCH   8   9
ENDBRANCH   6   8
ENDBRANCH   3   4
ENDBRANCH   2   3
ENDBRANCH   1   2
BRANCH   1  23
ATOM     23  C   UNL     1       4.582   3.271   2.654  1.00  0.00     0.002 C 
BRANCH  23  24
ATOM     24  C   UNL     1       3.926   4.476   3.331  1.00  0.00     0.021 C 
BRANCH  24  25
ATOM     25  C   UNL     1       4.075   4.524   4.849  1.00  0.00     0.116 C 
BRANCH  25  26
ATOM     26  N   UNL     1       5.462   4.625   5.273  1.00  0.00    -0.352 N 
ATOM     27  C   UNL     1       6.044   5.488   6.168  1.00  0.00     0.251 C 
ATOM     28  H   UNL     1       6.076   3.978   4.856  1.00  0.00     0.163 HD
ATOM     29  O   UNL     1       7.266   5.524   6.278  1.00  0.00    -0.269 OA
BRANCH  27  30
ATOM     30  C   UNL     1       5.208   6.399   6.982  1.00  0.00     0.039 A 
ATOM     31  C   UNL     1       5.624   7.723   7.142  1.00  0.00     0.014 A 
ATOM     32  C   UNL     1       4.030   5.959   7.592  1.00  0.00     0.014 A 
ATOM     33  C   UNL     1       4.828   8.619   7.858  1.00  0.00     0.010 A 
ATOM     34  C   UNL     1       3.198   6.871   8.240  1.00  0.00     0.010 A 
ATOM     35  C   UNL     1       3.588   8.211   8.380  1.00  0.00    -0.014 A 
BRANCH  35  36
ATOM     36  C   UNL     1       2.687   9.192   9.038  1.00  0.00     0.031 A 
ATOM     37  C   UNL     1       2.332   9.062  10.493  1.00  0.00     0.074 A 
ATOM     38  C   UNL     1       2.154  10.189   8.305  1.00  0.00     0.049 A 
ATOM     39  N   UNL     1       1.585   9.843  11.233  1.00  0.00    -0.248 NA
ATOM     40  C   UNL     1       2.864   7.891  11.205  1.00  0.00     0.031 C 
ATOM     41  C   UNL     1       2.371  10.391   6.871  1.00  0.00     0.029 A 
ATOM     42  N   UNL     1       1.327  11.223   8.663  1.00  0.00    -0.354 N 
ATOM     43  C   UNL     1       1.550   9.255  12.492  1.00  0.00     0.074 A 
ATOM     44  C   UNL     1       2.305   8.024  12.399  1.00  0.00     0.031 C 
ATOM     45  C   UNL     1       1.734  11.506   6.482  1.00  0.00     0.029 A 
ATOM     46  C   UNL     1       1.033  12.077   7.628  1.00  0.00     0.049 A 
ATOM     47  H   UNL     1       0.977  11.342   9.576  1.00  0.00     0.167 HD
ATOM     48  C   UNL     1       0.962   9.710  13.625  1.00  0.00     0.037 A 
ATOM     49  C   UNL     1       0.289  13.198   7.604  1.00  0.00     0.037 A 
ATOM     50  C   UNL     1       0.221  10.942  13.716  1.00  0.00     0.049 A 
ATOM     51  C   UNL     1      -0.358  13.678   8.873  1.00  0.00     0.074 A 
ATOM     52  C   UNL     1      -0.348  11.527  14.834  1.00  0.00     0.029 A 
ATOM     53  N   UNL     1      -0.067  11.773  12.643  1.00  0.00    -0.354 N 
ATOM     54  N   UNL     1      -0.303  13.162  10.076  1.00  0.00    -0.248 NA
ATOM     55  C   UNL     1      -1.165  14.901   8.778  1.00  0.00     0.031 C 
ATOM     56  C   UNL     1      -1.031  12.679  14.428  1.00  0.00     0.029 A 
ATOM     57  C   UNL     1      -0.837  12.846  13.066  1.00  0.00     0.049 A 
ATOM     58  H   UNL     1       0.232  11.624  11.717  1.00  0.00     0.167 HD
ATOM     59  C   UNL     1      -1.049  14.008  10.887  1.00  0.00     0.074 A 
ATOM     60  C   UNL     1      -1.523  15.084  10.040  1.00  0.00     0.031 C 
ATOM     61  C   UNL     1      -1.317  13.904  12.212  1.00  0.00     0.037 A 
BRANCH  48  62
ATOM     62  C   UNL     1       1.089   8.860  14.859  1.00  0.00     0.057 A 
ATOM     63  C   UNL     1       2.315   8.678  15.515  1.00  0.00     0.134 A 
ATOM     64  C   UNL     1      -0.034   8.231  15.412  1.00  0.00     0.134 A 
ATOM     65  F   UNL     1       3.433   9.243  15.035  1.00  0.00    -0.206 F 
ATOM     66  C   UNL     1       2.425   7.877  16.653  1.00  0.00     0.040 A 
ATOM     67  C   UNL     1       0.058   7.453  16.567  1.00  0.00     0.040 A 
ATOM     68  F   UNL     1      -1.241   8.367  14.843  1.00  0.00    -0.206 F 
ATOM     69  C   UNL     1       1.292   7.266  17.186  1.00  0.00     0.006 A 
ENDBRANCH  48  62
BRANCH  49  70
ATOM     70  C   UNL     1       0.149  13.969   6.342  1.00  0.00     0.057 A 
ATOM     71  C   UNL     1       0.748  15.226   6.196  1.00  0.00     0.134 A 
ATOM     72  C   UNL     1      -0.582  13.473   5.256  1.00  0.00     0.134 A 
ATOM     73  F   UNL     1       1.445  15.762   7.208  1.00  0.00    -0.206 F 
ATOM     74  C   UNL     1       0.611  15.970   5.024  1.00  0.00     0.040 A 
ATOM     75  C   UNL     1      -0.704  14.194   4.067  1.00  0.00     0.040 A 
ATOM     76  F   UNL     1      -1.173  12.271   5.330  1.00  0.00    -0.206 F 
ATOM     77  C   UNL     1      -0.112  15.450   3.952  1.00  0.00     0.006 A 
ENDBRANCH  49  70
BRANCH  61  78
ATOM     78  C   UNL     1      -2.148  14.996  12.826  1.00  0.00     0.057 A 
ATOM     79  C   UNL     1      -3.508  15.149  12.527  1.00  0.00     0.134 A 
ATOM     80  C   UNL     1      -1.581  15.903  13.730  1.00  0.00     0.134 A 
ATOM     81  F   UNL     1      -4.111  14.323  11.658  1.00  0.00    -0.206 F 
ATOM     82  C   UNL     1      -4.264  16.188  13.074  1.00  0.00     0.040 A 
ATOM     83  C   UNL     1      -2.334  16.926  14.309  1.00  0.00     0.040 A 
ATOM     84  F   UNL     1      -0.287  15.809  14.070  1.00  0.00    -0.206 F 
ATOM     85  C   UNL     1      -3.678  17.077  13.972  1.00  0.00     0.006 A 
ENDBRANCH  61  78
ENDBRANCH  35  36
ENDBRANCH  27  30
ENDBRANCH  25  26
ENDBRANCH  24  25
ENDBRANCH  23  24
ENDBRANCH   1  23
TORSDOF 15
