REMARK SMILES Cc1cc(C[N@@H+]2C[C@H](C)[C@H](C(=O)NCCCCCCNC(=O)c3ccc(-c4c5nc(c(-c6c(F)cccc6F)c6ccc([nH]6)c(-c6c(F)cccc6F)c6nc(c(-c7c(F)cccc7F)c7ccc4[nH]7)C=C6)C=C5)cc3)C2)ccc1Br
REMARK SMILES IDX 16 1 15 2 14 3 13 4 11 5 12 6 10 8 6 9 7 10 77 11 8 13 9 14
REMARK SMILES IDX 5 15 4 16 1 17 2 18 3 19 80 20 79 21 81 22 78 23 17 24 18 25
REMARK SMILES IDX 19 26 20 27 21 28 22 30 23 31 24 32 76 33 25 34 75 35 26 36
REMARK SMILES IDX 27 37 28 38 69 39 29 40 74 41 68 42 70 43 30 44 73 45 67 46
REMARK SMILES IDX 66 47 31 49 57 50 40 51 56 52 41 53 44 54 55 55 71 56 42 57
REMARK SMILES IDX 43 58 54 60 72 61 45 62 32 63 33 64 38 65 34 66 35 67 37 68
REMARK SMILES IDX 39 69 36 70 58 71 59 72 64 73 60 74 61 75 63 76 65 77 62 78
REMARK SMILES IDX 46 79 47 80 52 81 48 82 49 83 51 84 53 85 50 86
REMARK H PARENT 13 7 6 12 20 29 70 48 44 59
REMARK Flexibility Score: inf
ROOT
ATOM      1  C   UNL     1      -1.006  -0.240  -3.779  1.00  0.00     0.002 C 
ENDROOT
BRANCH   1   2
ATOM      2  C   UNL     1       0.046   0.405  -2.870  1.00  0.00     0.021 C 
BRANCH   2   3
ATOM      3  C   UNL     1       1.458  -0.166  -2.997  1.00  0.00     0.116 C 
BRANCH   3   4
ATOM      4  N   UNL     1       2.113   0.265  -4.216  1.00  0.00    -0.356 N 
ATOM      5  C   UNL     1       3.281   0.914  -4.449  1.00  0.00     0.229 C 
ATOM      6  O   UNL     1       3.528   1.181  -5.632  1.00  0.00    -0.275 OA
ATOM      7  H   UNL     1       1.613   0.042  -5.035  1.00  0.00     0.163 HD
BRANCH   5   8
ATOM      8  C   UNL     1       4.264   1.351  -3.370  1.00  0.00     0.142 C 
ATOM      9  N   UNL     1       5.077   1.086  -1.159  1.00  0.00    -0.330 N 
ATOM     10  C   UNL     1       4.843   2.508  -1.356  1.00  0.00     0.266 C 
ATOM     11  C   UNL     1       4.684   0.318  -2.333  1.00  0.00     0.276 C 
ATOM     12  H   UNL     1       6.090   0.991  -1.094  1.00  0.00     0.348 HD
ATOM     13  C   UNL     1       3.971   2.647  -2.607  1.00  0.00     0.059 C 
ATOM     14  C   UNL     1       2.521   2.943  -2.253  1.00  0.00     0.015 C 
BRANCH   9  15
ATOM     15  C   UNL     1       4.831   0.512   0.155  1.00  0.00     0.299 C 
BRANCH  15  16
ATOM     16  C   UNL     1       3.382   0.330   0.563  1.00  0.00     0.007 A 
ATOM     17  C   UNL     1       0.908  -2.548   0.845  1.00  0.00     0.045 C 
ATOM     18  C   UNL     1       1.438  -1.142   0.901  1.00  0.00    -0.036 A 
ATOM     19  C   UNL     1       2.773  -0.936   0.497  1.00  0.00     0.014 A 
ATOM     20  C   UNL     1       0.711  -0.043   1.377  1.00  0.00     0.020 A 
ATOM     21  C   UNL     1       1.304   1.221   1.445  1.00  0.00     0.016 A 
ATOM     22  Br  UNL     1      -1.085  -0.170   1.973  1.00  0.00    -0.051 Br
ATOM     23  C   UNL     1       2.631   1.401   1.057  1.00  0.00     0.011 A 
ENDBRANCH  15  16
ENDBRANCH   9  15
ENDBRANCH   5   8
ENDBRANCH   3   4
ENDBRANCH   2   3
ENDBRANCH   1   2
BRANCH   1  24
ATOM     24  C   UNL     1      -1.265  -1.734  -3.553  1.00  0.00     0.002 C 
BRANCH  24  25
ATOM     25  C   UNL     1      -1.513  -2.159  -2.104  1.00  0.00     0.021 C 
BRANCH  25  26
ATOM     26  C   UNL     1      -2.690  -1.484  -1.405  1.00  0.00     0.116 C 
BRANCH  26  27
ATOM     27  N   UNL     1      -3.973  -1.908  -1.935  1.00  0.00    -0.352 N 
ATOM     28  C   UNL     1      -5.054  -2.460  -1.291  1.00  0.00     0.251 C 
ATOM     29  H   UNL     1      -4.086  -1.781  -2.905  1.00  0.00     0.163 HD
ATOM     30  O   UNL     1      -5.989  -2.904  -1.952  1.00  0.00    -0.269 OA
BRANCH  28  31
ATOM     31  C   UNL     1      -5.104  -2.550   0.190  1.00  0.00     0.039 A 
ATOM     32  C   UNL     1      -5.618  -3.716   0.768  1.00  0.00     0.014 A 
ATOM     33  C   UNL     1      -4.713  -1.490   1.012  1.00  0.00     0.014 A 
ATOM     34  C   UNL     1      -5.696  -3.836   2.159  1.00  0.00     0.010 A 
ATOM     35  C   UNL     1      -4.733  -1.634   2.402  1.00  0.00     0.010 A 
ATOM     36  C   UNL     1      -5.233  -2.804   2.992  1.00  0.00    -0.014 A 
BRANCH  36  37
ATOM     37  C   UNL     1      -5.287  -2.939   4.473  1.00  0.00     0.031 A 
ATOM     38  C   UNL     1      -6.181  -2.046   5.292  1.00  0.00     0.074 A 
ATOM     39  C   UNL     1      -4.509  -3.848   5.093  1.00  0.00     0.049 A 
ATOM     40  N   UNL     1      -6.353  -2.014   6.591  1.00  0.00    -0.248 NA
ATOM     41  C   UNL     1      -6.971  -1.046   4.559  1.00  0.00     0.031 C 
ATOM     42  C   UNL     1      -3.563  -4.746   4.429  1.00  0.00     0.029 A 
ATOM     43  N   UNL     1      -4.390  -4.165   6.425  1.00  0.00    -0.354 N 
ATOM     44  C   UNL     1      -7.256  -0.986   6.829  1.00  0.00     0.074 A 
ATOM     45  C   UNL     1      -7.562  -0.389   5.547  1.00  0.00     0.031 C 
ATOM     46  C   UNL     1      -2.980  -5.529   5.352  1.00  0.00     0.029 A 
ATOM     47  C   UNL     1      -3.488  -5.171   6.673  1.00  0.00     0.049 A 
ATOM     48  H   UNL     1      -4.902  -3.714   7.134  1.00  0.00     0.167 HD
ATOM     49  C   UNL     1      -7.802  -0.589   8.004  1.00  0.00     0.037 A 
ATOM     50  C   UNL     1      -3.113  -5.744   7.833  1.00  0.00     0.037 A 
ATOM     51  C   UNL     1      -7.526  -1.196   9.280  1.00  0.00     0.049 A 
ATOM     52  C   UNL     1      -3.739  -5.291   9.123  1.00  0.00     0.074 A 
ATOM     53  C   UNL     1      -8.080  -0.900  10.514  1.00  0.00     0.029 A 
ATOM     54  N   UNL     1      -6.617  -2.222   9.486  1.00  0.00    -0.354 N 
ATOM     55  N   UNL     1      -4.645  -4.366   9.322  1.00  0.00    -0.248 NA
ATOM     56  C   UNL     1      -3.296  -5.971  10.349  1.00  0.00     0.031 C 
ATOM     57  C   UNL     1      -7.480  -1.723  11.473  1.00  0.00     0.029 A 
ATOM     58  C   UNL     1      -6.582  -2.558  10.830  1.00  0.00     0.049 A 
ATOM     59  H   UNL     1      -6.077  -2.649   8.782  1.00  0.00     0.167 HD
ATOM     60  C   UNL     1      -4.899  -4.369  10.688  1.00  0.00     0.074 A 
ATOM     61  C   UNL     1      -4.061  -5.398  11.267  1.00  0.00     0.031 C 
ATOM     62  C   UNL     1      -5.749  -3.588  11.396  1.00  0.00     0.037 A 
BRANCH  49  63
ATOM     63  C   UNL     1      -8.766   0.561   7.964  1.00  0.00     0.057 A 
ATOM     64  C   UNL     1     -10.052   0.425   7.425  1.00  0.00     0.134 A 
ATOM     65  C   UNL     1      -8.419   1.806   8.503  1.00  0.00     0.134 A 
ATOM     66  F   UNL     1     -10.443  -0.739   6.884  1.00  0.00    -0.206 F 
ATOM     67  C   UNL     1     -10.951   1.493   7.403  1.00  0.00     0.040 A 
ATOM     68  C   UNL     1      -9.318   2.875   8.509  1.00  0.00     0.040 A 
ATOM     69  F   UNL     1      -7.206   2.002   9.042  1.00  0.00    -0.206 F 
ATOM     70  C   UNL     1     -10.586   2.721   7.951  1.00  0.00     0.006 A 
ENDBRANCH  49  63
BRANCH  50  71
ATOM     71  C   UNL     1      -2.107  -6.836   7.829  1.00  0.00     0.057 A 
ATOM     72  C   UNL     1      -2.478  -8.159   8.097  1.00  0.00     0.134 A 
ATOM     73  C   UNL     1      -0.756  -6.583   7.570  1.00  0.00     0.134 A 
ATOM     74  F   UNL     1      -3.756  -8.458   8.373  1.00  0.00    -0.206 F 
ATOM     75  C   UNL     1      -1.539  -9.190   8.124  1.00  0.00     0.040 A 
ATOM     76  C   UNL     1       0.192  -7.608   7.572  1.00  0.00     0.040 A 
ATOM     77  F   UNL     1      -0.339  -5.337   7.302  1.00  0.00    -0.206 F 
ATOM     78  C   UNL     1      -0.199  -8.915   7.857  1.00  0.00     0.006 A 
ENDBRANCH  50  71
BRANCH  62  79
ATOM     79  C   UNL     1      -5.841  -3.836  12.873  1.00  0.00     0.057 A 
ATOM     80  C   UNL     1      -4.819  -3.453  13.751  1.00  0.00     0.134 A 
ATOM     81  C   UNL     1      -6.979  -4.436  13.427  1.00  0.00     0.134 A 
ATOM     82  F   UNL     1      -3.697  -2.886  13.282  1.00  0.00    -0.206 F 
ATOM     83  C   UNL     1      -4.916  -3.678  15.125  1.00  0.00     0.040 A 
ATOM     84  C   UNL     1      -7.097  -4.645  14.802  1.00  0.00     0.040 A 
ATOM     85  F   UNL     1      -7.997  -4.820  12.642  1.00  0.00    -0.206 F 
ATOM     86  C   UNL     1      -6.061  -4.271  15.654  1.00  0.00     0.006 A 
ENDBRANCH  62  79
ENDBRANCH  36  37
ENDBRANCH  28  31
ENDBRANCH  26  27
ENDBRANCH  25  26
ENDBRANCH  24  25
ENDBRANCH   1  24
TORSDOF 15
