REMARK SMILES O=C(/C=C/C(=O)Nc1ccccn1)NCCCCCCNC(=O)c1ccc(-c2c3nc(c(-c4c(F)cccc4F)c4ccc([nH]4)c(-c4c(F)cccc4F)c4nc(c(-c5c(F)cccc5F)c5ccc2[nH]5)C=C4)C=C3)cc1
REMARK SMILES IDX 17 1 16 2 15 3 14 4 1 5 2 6 3 8 4 9 5 10 6 11 7 12 8 14 9 15
REMARK SMILES IDX 13 16 10 17 12 18 11 19 18 20 19 21 20 22 21 23 22 24 23 26
REMARK SMILES IDX 24 27 25 28 77 29 26 30 76 31 27 32 28 33 29 34 70 35 30 36
REMARK SMILES IDX 75 37 69 38 71 39 31 40 74 41 68 42 67 43 32 45 58 46 41 47
REMARK SMILES IDX 57 48 42 49 45 50 56 51 72 52 43 53 44 54 55 56 73 57 46 58
REMARK SMILES IDX 33 59 34 60 39 61 35 62 36 63 38 64 40 65 37 66 59 67 60 68
REMARK SMILES IDX 65 69 61 70 62 71 64 72 66 73 63 74 47 75 48 76 53 77 49 78
REMARK SMILES IDX 50 79 52 80 54 81 51 82
REMARK H PARENT 14 7 7 13 21 25 71 44 45 55
REMARK Flexibility Score: inf
ROOT
ATOM      1  C   UNL     1       4.135  -0.581   3.774  1.00  0.00     0.002 C 
ENDROOT
BRANCH   1   2
ATOM      2  C   UNL     1       2.627  -0.635   3.489  1.00  0.00     0.021 C 
BRANCH   2   3
ATOM      3  C   UNL     1       2.153   0.427   2.496  1.00  0.00     0.116 C 
BRANCH   3   4
ATOM      4  N   UNL     1       2.833   0.260   1.230  1.00  0.00    -0.353 N 
ATOM      5  O   UNL     1       1.104  -0.853   0.217  1.00  0.00    -0.270 OA
ATOM      6  C   UNL     1       2.263  -0.456   0.218  1.00  0.00     0.244 C 
ATOM      7  H   UNL     1       3.719   0.669   1.097  1.00  0.00     0.163 HD
BRANCH   6   8
ATOM      8  C   UNL     1       3.155  -0.817  -0.900  1.00  0.00     0.077 C 
ATOM      9  C   UNL     1       4.197  -0.094  -1.339  1.00  0.00     0.077 C 
BRANCH   9  10
ATOM     10  C   UNL     1       4.910  -0.500  -2.577  1.00  0.00     0.249 C 
ATOM     11  O   UNL     1       6.136  -0.568  -2.552  1.00  0.00    -0.270 OA
ATOM     12  N   UNL     1       4.195  -0.842  -3.689  1.00  0.00    -0.307 N 
ATOM     13  H   UNL     1       4.715  -1.278  -4.403  1.00  0.00     0.171 HD
BRANCH  12  14
ATOM     14  C   UNL     1       2.838  -0.667  -3.965  1.00  0.00     0.132 A 
ATOM     15  C   UNL     1       2.111   0.421  -3.490  1.00  0.00     0.047 A 
ATOM     16  N   UNL     1       2.269  -1.682  -4.640  1.00  0.00    -0.239 NA
ATOM     17  C   UNL     1       0.724   0.393  -3.581  1.00  0.00     0.005 A 
ATOM     18  C   UNL     1       0.918  -1.690  -4.710  1.00  0.00     0.113 A 
ATOM     19  C   UNL     1       0.110  -0.699  -4.177  1.00  0.00     0.020 A 
ENDBRANCH  12  14
ENDBRANCH   9  10
ENDBRANCH   6   8
ENDBRANCH   3   4
ENDBRANCH   2   3
ENDBRANCH   1   2
BRANCH   1  20
ATOM     20  C   UNL     1       4.640   0.766   4.298  1.00  0.00     0.002 C 
BRANCH  20  21
ATOM     21  C   UNL     1       3.956   1.248   5.577  1.00  0.00     0.021 C 
BRANCH  21  22
ATOM     22  C   UNL     1       4.071   0.283   6.751  1.00  0.00     0.116 C 
BRANCH  22  23
ATOM     23  N   UNL     1       5.451   0.088   7.167  1.00  0.00    -0.352 N 
ATOM     24  C   UNL     1       6.001   0.199   8.418  1.00  0.00     0.251 C 
ATOM     25  H   UNL     1       6.078  -0.159   6.450  1.00  0.00     0.163 HD
ATOM     26  O   UNL     1       7.221   0.188   8.563  1.00  0.00    -0.269 OA
BRANCH  24  27
ATOM     27  C   UNL     1       5.120   0.355   9.594  1.00  0.00     0.039 A 
ATOM     28  C   UNL     1       5.444   1.310  10.560  1.00  0.00     0.014 A 
ATOM     29  C   UNL     1       3.974  -0.433   9.738  1.00  0.00     0.014 A 
ATOM     30  C   UNL     1       4.587   1.515  11.642  1.00  0.00     0.010 A 
ATOM     31  C   UNL     1       3.080  -0.170  10.771  1.00  0.00     0.010 A 
ATOM     32  C   UNL     1       3.380   0.802  11.737  1.00  0.00    -0.014 A 
BRANCH  32  33
ATOM     33  C   UNL     1       2.421   1.060  12.840  1.00  0.00     0.031 A 
ATOM     34  C   UNL     1       2.096  -0.022  13.832  1.00  0.00     0.074 A 
ATOM     35  C   UNL     1       1.798   2.252  12.914  1.00  0.00     0.049 A 
ATOM     36  N   UNL     1       1.259   0.002  14.838  1.00  0.00    -0.248 NA
ATOM     37  C   UNL     1       2.784  -1.310  13.654  1.00  0.00     0.031 C 
ATOM     38  C   UNL     1       1.994   3.369  11.988  1.00  0.00     0.029 A 
ATOM     39  N   UNL     1       0.871   2.723  13.809  1.00  0.00    -0.354 N 
ATOM     40  C   UNL     1       1.309  -1.267  15.402  1.00  0.00     0.074 A 
ATOM     41  C   UNL     1       2.213  -2.053  14.590  1.00  0.00     0.031 C 
ATOM     42  C   UNL     1       1.241   4.407  12.385  1.00  0.00     0.029 A 
ATOM     43  C   UNL     1       0.476   4.016  13.565  1.00  0.00     0.049 A 
ATOM     44  H   UNL     1       0.521   2.184  14.556  1.00  0.00     0.167 HD
ATOM     45  C   UNL     1       0.677  -1.730  16.507  1.00  0.00     0.037 A 
ATOM     46  C   UNL     1      -0.403   4.797  14.219  1.00  0.00     0.037 A 
ATOM     47  C   UNL     1      -0.210  -0.939  17.320  1.00  0.00     0.049 A 
ATOM     48  C   UNL     1      -1.115   4.251  15.426  1.00  0.00     0.074 A 
ATOM     49  C   UNL     1      -0.848  -1.293  18.495  1.00  0.00     0.029 A 
ATOM     50  N   UNL     1      -0.593   0.364  17.034  1.00  0.00    -0.354 N 
ATOM     51  N   UNL     1      -0.998   3.076  15.995  1.00  0.00    -0.248 NA
ATOM     52  C   UNL     1      -2.080   5.144  16.083  1.00  0.00     0.031 C 
ATOM     53  C   UNL     1      -1.665  -0.227  18.887  1.00  0.00     0.029 A 
ATOM     54  C   UNL     1      -1.487   0.815  17.991  1.00  0.00     0.049 A 
ATOM     55  H   UNL     1      -0.277   0.889  16.264  1.00  0.00     0.167 HD
ATOM     56  C   UNL     1      -1.846   3.100  17.096  1.00  0.00     0.074 A 
ATOM     57  C   UNL     1      -2.461   4.411  17.120  1.00  0.00     0.031 C 
ATOM     58  C   UNL     1      -2.090   2.125  18.006  1.00  0.00     0.037 A 
BRANCH  45  59
ATOM     59  C   UNL     1       0.917  -3.163  16.890  1.00  0.00     0.057 A 
ATOM     60  C   UNL     1       2.163  -3.613  17.348  1.00  0.00     0.134 A 
ATOM     61  C   UNL     1      -0.117  -4.105  16.813  1.00  0.00     0.134 A 
ATOM     62  F   UNL     1       3.201  -2.768  17.437  1.00  0.00    -0.206 F 
ATOM     63  C   UNL     1       2.383  -4.953  17.675  1.00  0.00     0.040 A 
ATOM     64  C   UNL     1       0.081  -5.440  17.170  1.00  0.00     0.040 A 
ATOM     65  F   UNL     1      -1.339  -3.744  16.393  1.00  0.00    -0.206 F 
ATOM     66  C   UNL     1       1.337  -5.870  17.592  1.00  0.00     0.006 A 
ENDBRANCH  45  59
BRANCH  46  67
ATOM     67  C   UNL     1      -0.637   6.194  13.770  1.00  0.00     0.057 A 
ATOM     68  C   UNL     1      -0.214   7.278  14.549  1.00  0.00     0.134 A 
ATOM     69  C   UNL     1      -1.291   6.481  12.566  1.00  0.00     0.134 A 
ATOM     70  F   UNL     1       0.402   7.067  15.721  1.00  0.00    -0.206 F 
ATOM     71  C   UNL     1      -0.451   8.597  14.158  1.00  0.00     0.040 A 
ATOM     72  C   UNL     1      -1.510   7.796  12.150  1.00  0.00     0.040 A 
ATOM     73  F   UNL     1      -1.714   5.489  11.770  1.00  0.00    -0.206 F 
ATOM     74  C   UNL     1      -1.096   8.858  12.951  1.00  0.00     0.006 A 
ENDBRANCH  46  67
BRANCH  58  75
ATOM     75  C   UNL     1      -3.031   2.454  19.130  1.00  0.00     0.057 A 
ATOM     76  C   UNL     1      -4.407   2.618  18.925  1.00  0.00     0.134 A 
ATOM     77  C   UNL     1      -2.555   2.579  20.442  1.00  0.00     0.134 A 
ATOM     78  F   UNL     1      -4.927   2.526  17.692  1.00  0.00    -0.206 F 
ATOM     79  C   UNL     1      -5.271   2.922  19.979  1.00  0.00     0.040 A 
ATOM     80  C   UNL     1      -3.413   2.850  21.509  1.00  0.00     0.040 A 
ATOM     81  F   UNL     1      -1.250   2.425  20.712  1.00  0.00    -0.206 F 
ATOM     82  C   UNL     1      -4.774   3.031  21.277  1.00  0.00     0.006 A 
ENDBRANCH  58  75
ENDBRANCH  32  33
ENDBRANCH  24  27
ENDBRANCH  22  23
ENDBRANCH  21  22
ENDBRANCH  20  21
ENDBRANCH   1  20
TORSDOF 15
