REMARK SMILES O=C(NCCCCCCNC(=O)c1ccc2nc(-c3c[nH]nc3-c3ccc(F)cc3F)[nH]c2c1)c1ccc(-c2c3nc(c(-c4c(F)cccc4F)c4ccc([nH]4)c(-c4c(F)cccc4F)c4nc(c(-c5c(F)cccc5F)c5ccc2[nH]5)C=C4)C=C3)cc1
REMARK SMILES IDX 6 1 5 2 4 3 3 4 1 5 2 6 35 8 36 9 88 10 37 11 87 12 38 13
REMARK SMILES IDX 39 14 40 15 81 16 41 17 86 18 80 19 82 20 42 21 85 22 79 23
REMARK SMILES IDX 78 24 43 26 69 27 52 28 68 29 53 30 56 31 67 32 83 33 54 34
REMARK SMILES IDX 55 35 66 37 84 38 57 39 44 40 45 41 50 42 46 43 47 44 49 45
REMARK SMILES IDX 51 46 48 47 70 48 71 49 76 50 72 51 73 52 75 53 77 54 74 55
REMARK SMILES IDX 58 56 59 57 64 58 60 59 61 60 63 61 65 62 62 63 7 64 8 65
REMARK SMILES IDX 9 66 10 67 11 68 12 70 13 71 14 72 34 73 15 74 33 75 16 76
REMARK SMILES IDX 32 77 17 78 18 79 19 81 20 82 23 83 21 84 22 85 24 87 25 88
REMARK SMILES IDX 30 89 26 90 29 91 31 92 27 93 28 94
REMARK H PARENT 3 7 82 25 56 36 10 69 32 80 21 86
REMARK Flexibility Score: inf
ROOT
ATOM      1  C   UNL     1       4.266   2.558   2.784  1.00  0.00     0.002 C 
ENDROOT
BRANCH   1   2
ATOM      2  C   UNL     1       4.745   2.179   1.383  1.00  0.00     0.021 C 
BRANCH   2   3
ATOM      3  C   UNL     1       4.477   0.731   0.996  1.00  0.00     0.116 C 
BRANCH   3   4
ATOM      4  N   UNL     1       3.055   0.439   0.915  1.00  0.00    -0.352 N 
ATOM      5  O   UNL     1       1.113  -0.075  -0.117  1.00  0.00    -0.269 OA
ATOM      6  C   UNL     1       2.341  -0.058  -0.145  1.00  0.00     0.251 C 
ATOM      7  H   UNL     1       2.535   0.623   1.730  1.00  0.00     0.163 HD
BRANCH   6   8
ATOM      8  C   UNL     1       3.061  -0.565  -1.331  1.00  0.00     0.039 A 
ATOM      9  C   UNL     1       4.167  -1.406  -1.179  1.00  0.00     0.014 A 
ATOM     10  C   UNL     1       2.616  -0.206  -2.605  1.00  0.00     0.014 A 
ATOM     11  C   UNL     1       4.894  -1.799  -2.295  1.00  0.00     0.010 A 
ATOM     12  C   UNL     1       3.297  -0.673  -3.731  1.00  0.00     0.010 A 
ATOM     13  C   UNL     1       4.446  -1.466  -3.583  1.00  0.00    -0.014 A 
BRANCH  13  14
ATOM     14  C   UNL     1       5.118  -2.062  -4.763  1.00  0.00     0.031 A 
ATOM     15  C   UNL     1       5.834  -1.211  -5.769  1.00  0.00     0.074 A 
ATOM     16  C   UNL     1       5.056  -3.400  -4.917  1.00  0.00     0.049 A 
ATOM     17  N   UNL     1       6.426  -1.578  -6.877  1.00  0.00    -0.248 NA
ATOM     18  C   UNL     1       5.892   0.236  -5.508  1.00  0.00     0.031 C 
ATOM     19  C   UNL     1       4.374  -4.320  -4.002  1.00  0.00     0.029 A 
ATOM     20  N   UNL     1       5.566  -4.220  -5.890  1.00  0.00    -0.354 N 
ATOM     21  C   UNL     1       6.912  -0.412  -7.453  1.00  0.00     0.074 A 
ATOM     22  C   UNL     1       6.532   0.680  -6.583  1.00  0.00     0.031 C 
ATOM     23  C   UNL     1       4.531  -5.576  -4.441  1.00  0.00     0.029 A 
ATOM     24  C   UNL     1       5.257  -5.546  -5.704  1.00  0.00     0.049 A 
ATOM     25  H   UNL     1       6.103  -3.892  -6.647  1.00  0.00     0.167 HD
ATOM     26  C   UNL     1       7.614  -0.276  -8.603  1.00  0.00     0.037 A 
ATOM     27  C   UNL     1       5.494  -6.619  -6.482  1.00  0.00     0.037 A 
ATOM     28  C   UNL     1       8.001  -1.378  -9.448  1.00  0.00     0.049 A 
ATOM     29  C   UNL     1       6.234  -6.428  -7.772  1.00  0.00     0.074 A 
ATOM     30  C   UNL     1       8.765  -1.345 -10.601  1.00  0.00     0.029 A 
ATOM     31  N   UNL     1       7.645  -2.702  -9.240  1.00  0.00    -0.354 N 
ATOM     32  N   UNL     1       6.735  -5.327  -8.277  1.00  0.00    -0.248 NA
ATOM     33  C   UNL     1       6.436  -7.620  -8.607  1.00  0.00     0.031 C 
ATOM     34  C   UNL     1       8.821  -2.639 -11.125  1.00  0.00     0.029 A 
ATOM     35  C   UNL     1       8.141  -3.488 -10.267  1.00  0.00     0.049 A 
ATOM     36  H   UNL     1       7.120  -3.034  -8.477  1.00  0.00     0.167 HD
ATOM     37  C   UNL     1       7.319  -5.692  -9.481  1.00  0.00     0.074 A 
ATOM     38  C   UNL     1       7.131  -7.122  -9.621  1.00  0.00     0.031 C 
ATOM     39  C   UNL     1       7.947  -4.910 -10.391  1.00  0.00     0.037 A 
BRANCH  26  40
ATOM     40  C   UNL     1       8.014   1.103  -9.040  1.00  0.00     0.057 A 
ATOM     41  C   UNL     1       7.442   1.678 -10.184  1.00  0.00     0.134 A 
ATOM     42  C   UNL     1       9.045   1.808  -8.410  1.00  0.00     0.134 A 
ATOM     43  F   UNL     1       6.455   1.049 -10.841  1.00  0.00    -0.206 F 
ATOM     44  C   UNL     1       7.898   2.893 -10.697  1.00  0.00     0.040 A 
ATOM     45  C   UNL     1       9.495   3.035  -8.902  1.00  0.00     0.040 A 
ATOM     46  F   UNL     1       9.631   1.316  -7.308  1.00  0.00    -0.206 F 
ATOM     47  C   UNL     1       8.930   3.574 -10.056  1.00  0.00     0.006 A 
ENDBRANCH  26  40
BRANCH  27  48
ATOM     48  C   UNL     1       4.993  -7.952  -6.065  1.00  0.00     0.057 A 
ATOM     49  C   UNL     1       3.620  -8.227  -6.001  1.00  0.00     0.134 A 
ATOM     50  C   UNL     1       5.871  -8.974  -5.691  1.00  0.00     0.134 A 
ATOM     51  F   UNL     1       2.724  -7.286  -6.337  1.00  0.00    -0.206 F 
ATOM     52  C   UNL     1       3.139  -9.460  -5.560  1.00  0.00     0.040 A 
ATOM     53  C   UNL     1       5.405 -10.223  -5.277  1.00  0.00     0.040 A 
ATOM     54  F   UNL     1       7.197  -8.778  -5.744  1.00  0.00    -0.206 F 
ATOM     55  C   UNL     1       4.034 -10.465  -5.203  1.00  0.00     0.006 A 
ENDBRANCH  27  48
BRANCH  39  56
ATOM     56  C   UNL     1       8.488  -5.576 -11.621  1.00  0.00     0.057 A 
ATOM     57  C   UNL     1       9.869  -5.701 -11.817  1.00  0.00     0.134 A 
ATOM     58  C   UNL     1       7.644  -6.006 -12.651  1.00  0.00     0.134 A 
ATOM     59  F   UNL     1      10.731  -5.299 -10.870  1.00  0.00    -0.206 F 
ATOM     60  C   UNL     1      10.393  -6.208 -13.006  1.00  0.00     0.040 A 
ATOM     61  C   UNL     1       8.155  -6.539 -13.835  1.00  0.00     0.040 A 
ATOM     62  F   UNL     1       6.311  -5.925 -12.517  1.00  0.00    -0.206 F 
ATOM     63  C   UNL     1       9.534  -6.629 -14.019  1.00  0.00     0.006 A 
ENDBRANCH  39  56
ENDBRANCH  13  14
ENDBRANCH   6   8
ENDBRANCH   3   4
ENDBRANCH   2   3
ENDBRANCH   1   2
BRANCH   1  64
ATOM     64  C   UNL     1       4.814   1.682   3.914  1.00  0.00     0.002 C 
BRANCH  64  65
ATOM     65  C   UNL     1       6.341   1.557   3.960  1.00  0.00     0.021 C 
BRANCH  65  66
ATOM     66  C   UNL     1       7.085   2.888   4.020  1.00  0.00     0.116 C 
BRANCH  66  67
ATOM     67  N   UNL     1       6.755   3.626   5.226  1.00  0.00    -0.352 N 
ATOM     68  C   UNL     1       7.595   4.053   6.218  1.00  0.00     0.251 C 
ATOM     69  H   UNL     1       5.803   3.848   5.345  1.00  0.00     0.163 HD
ATOM     70  O   UNL     1       7.155   4.478   7.280  1.00  0.00    -0.269 OA
BRANCH  68  71
ATOM     71  C   UNL     1       9.052   3.986   6.000  1.00  0.00     0.042 A 
ATOM     72  C   UNL     1       9.621   4.657   4.908  1.00  0.00     0.016 A 
ATOM     73  C   UNL     1       9.824   3.256   6.915  1.00  0.00     0.042 A 
ATOM     74  C   UNL     1      11.001   4.617   4.697  1.00  0.00     0.031 A 
ATOM     75  C   UNL     1      11.195   3.216   6.658  1.00  0.00     0.067 A 
ATOM     76  C   UNL     1      11.793   3.903   5.607  1.00  0.00     0.089 A 
ATOM     77  N   UNL     1      12.240   2.579   7.280  1.00  0.00    -0.338 N 
ATOM     78  N   UNL     1      13.152   3.784   5.660  1.00  0.00    -0.228 NA
ATOM     79  C   UNL     1      13.400   2.988   6.678  1.00  0.00     0.142 A 
ATOM     80  H   UNL     1      12.168   1.941   8.027  1.00  0.00     0.168 HD
BRANCH  79  81
ATOM     81  C   UNL     1      14.765   2.648   7.130  1.00  0.00     0.063 A 
ATOM     82  C   UNL     1      15.175   1.470   7.704  1.00  0.00     0.117 A 
ATOM     83  C   UNL     1      15.916   3.481   7.077  1.00  0.00     0.106 A 
ATOM     84  N   UNL     1      16.523   1.609   7.872  1.00  0.00    -0.284 N 
ATOM     85  N   UNL     1      16.988   2.828   7.557  1.00  0.00    -0.175 NA
ATOM     86  H   UNL     1      17.102   0.880   8.194  1.00  0.00     0.189 HD
BRANCH  83  87
ATOM     87  C   UNL     1      15.966   4.897   6.738  1.00  0.00     0.039 A 
ATOM     88  C   UNL     1      15.147   5.802   7.441  1.00  0.00     0.016 A 
ATOM     89  C   UNL     1      16.793   5.383   5.724  1.00  0.00     0.135 A 
ATOM     90  C   UNL     1      15.155   7.160   7.120  1.00  0.00     0.040 A 
ATOM     91  C   UNL     1      16.808   6.739   5.403  1.00  0.00     0.079 A 
ATOM     92  F   UNL     1      17.576   4.555   5.017  1.00  0.00    -0.206 F 
ATOM     93  C   UNL     1      15.986   7.614   6.104  1.00  0.00     0.126 A 
ATOM     94  F   UNL     1      15.992   8.917   5.794  1.00  0.00    -0.207 F 
ENDBRANCH  83  87
ENDBRANCH  79  81
ENDBRANCH  68  71
ENDBRANCH  66  67
ENDBRANCH  65  66
ENDBRANCH  64  65
ENDBRANCH   1  64
TORSDOF 15
