REMARK SMILES Cc1cc(OC(F)(F)F)cc2c1O[C@H](C(F)(F)F)C(C(=O)NCCCCCCNC(=O)c1ccc(-c3c4nc(c(-c5c(F)cccc5F)c5ccc([nH]5)c(-c5c(F)cccc5F)c5nc(c(-c6c(F)cccc6F)c6ccc3[nH]6)C=C5)C=C4)cc1)=C2
REMARK SMILES IDX 25 1 24 2 23 3 22 4 20 5 21 6 19 8 1 9 2 10 3 11 12 12 4 13
REMARK SMILES IDX 11 14 13 15 10 16 86 17 14 18 5 19 6 20 7 21 8 22 9 23 15 24
REMARK SMILES IDX 16 25 17 26 18 27 26 28 27 29 28 30 29 31 30 32 31 34 32 35
REMARK SMILES IDX 33 36 85 37 34 38 84 39 35 40 36 41 37 42 78 43 38 44 83 45
REMARK SMILES IDX 77 46 79 47 39 48 82 49 76 50 75 51 40 53 66 54 49 55 65 56
REMARK SMILES IDX 50 57 53 58 64 59 80 60 51 61 52 62 63 64 81 65 54 66 41 67
REMARK SMILES IDX 42 68 47 69 43 70 44 71 46 72 48 73 45 74 67 75 68 76 73 77
REMARK SMILES IDX 69 78 70 79 72 80 74 81 71 82 55 83 56 84 61 85 57 86 58 87
REMARK SMILES IDX 60 88 62 89 59 90
REMARK H PARENT 22 7 29 33 79 52 53 63
REMARK Flexibility Score: inf
ROOT
ATOM      1  C   UNL     1       7.529  -5.418   3.332  1.00  0.00     0.002 C 
ENDROOT
BRANCH   1   2
ATOM      2  C   UNL     1       6.369  -4.469   3.023  1.00  0.00     0.021 C 
BRANCH   2   3
ATOM      3  C   UNL     1       5.942  -4.485   1.558  1.00  0.00     0.116 C 
BRANCH   3   4
ATOM      4  N   UNL     1       4.971  -5.530   1.291  1.00  0.00    -0.352 N 
ATOM      5  C   UNL     1       3.694  -5.609   0.850  1.00  0.00     0.251 C 
ATOM      6  O   UNL     1       3.246  -6.756   0.742  1.00  0.00    -0.270 OA
ATOM      7  H   UNL     1       5.341  -6.422   1.483  1.00  0.00     0.163 HD
BRANCH   5   8
ATOM      8  C   UNL     1       2.827  -4.444   0.501  1.00  0.00     0.067 C 
ATOM      9  C   UNL     1       0.661   0.175  -0.149  1.00  0.00     0.048 C 
ATOM     10  C   UNL     1       0.219  -1.252  -0.323  1.00  0.00    -0.005 A 
ATOM     11  C   UNL     1      -1.085  -1.527  -0.759  1.00  0.00     0.054 A 
ATOM     12  C   UNL     1       1.065  -2.319  -0.003  1.00  0.00     0.131 A 
ATOM     13  C   UNL     1      -1.530  -2.845  -0.892  1.00  0.00     0.130 A 
ATOM     14  C   UNL     1       0.638  -3.642  -0.135  1.00  0.00     0.021 A 
ATOM     15  O   UNL     1       2.296  -2.005   0.491  1.00  0.00    -0.475 OA
ATOM     16  C   UNL     1      -0.660  -3.898  -0.583  1.00  0.00     0.058 A 
ATOM     17  C   UNL     1       1.538  -4.728   0.236  1.00  0.00     0.025 C 
ATOM     18  C   UNL     1       3.317  -3.029   0.404  1.00  0.00     0.314 C 
BRANCH  13  19
ATOM     19  O   UNL     1      -2.773  -3.238  -1.300  1.00  0.00    -0.406 OA
BRANCH  19  20
ATOM     20  C   UNL     1      -3.730  -2.225  -1.562  1.00  0.00     0.573 C 
ATOM     21  F   UNL     1      -3.955  -1.471  -0.465  1.00  0.00    -0.132 F 
ATOM     22  F   UNL     1      -3.333  -1.433  -2.581  1.00  0.00    -0.132 F 
ATOM     23  F   UNL     1      -4.896  -2.810  -1.915  1.00  0.00    -0.132 F 
ENDBRANCH  19  20
ENDBRANCH  13  19
BRANCH  18  24
ATOM     24  C   UNL     1       4.176  -2.778  -0.849  1.00  0.00     0.429 C 
ATOM     25  F   UNL     1       4.861  -1.612  -0.727  1.00  0.00    -0.167 F 
ATOM     26  F   UNL     1       5.105  -3.743  -1.048  1.00  0.00    -0.167 F 
ATOM     27  F   UNL     1       3.440  -2.700  -1.980  1.00  0.00    -0.167 F 
ENDBRANCH  18  24
ENDBRANCH   5   8
ENDBRANCH   3   4
ENDBRANCH   2   3
ENDBRANCH   1   2
BRANCH   1  28
ATOM     28  C   UNL     1       8.797  -5.190   2.497  1.00  0.00     0.002 C 
BRANCH  28  29
ATOM     29  C   UNL     1       9.290  -3.741   2.440  1.00  0.00     0.021 C 
BRANCH  29  30
ATOM     30  C   UNL     1       9.595  -3.133   3.803  1.00  0.00     0.116 C 
BRANCH  30  31
ATOM     31  N   UNL     1      10.672  -3.841   4.473  1.00  0.00    -0.352 N 
ATOM     32  C   UNL     1      11.886  -3.357   4.884  1.00  0.00     0.251 C 
ATOM     33  H   UNL     1      10.508  -4.794   4.656  1.00  0.00     0.163 HD
ATOM     34  O   UNL     1      12.782  -4.119   5.234  1.00  0.00    -0.269 OA
BRANCH  32  35
ATOM     35  C   UNL     1      12.106  -1.899   4.900  1.00  0.00     0.039 A 
ATOM     36  C   UNL     1      13.250  -1.376   4.295  1.00  0.00     0.014 A 
ATOM     37  C   UNL     1      11.177  -1.060   5.524  1.00  0.00     0.014 A 
ATOM     38  C   UNL     1      13.451   0.004   4.291  1.00  0.00     0.010 A 
ATOM     39  C   UNL     1      11.351   0.318   5.470  1.00  0.00     0.010 A 
ATOM     40  C   UNL     1      12.500   0.857   4.873  1.00  0.00    -0.014 A 
BRANCH  40  41
ATOM     41  C   UNL     1      12.732   2.317   4.943  1.00  0.00     0.031 A 
ATOM     42  C   UNL     1      13.036   2.948   6.272  1.00  0.00     0.074 A 
ATOM     43  C   UNL     1      12.634   3.071   3.834  1.00  0.00     0.049 A 
ATOM     44  N   UNL     1      13.242   4.206   6.564  1.00  0.00    -0.248 NA
ATOM     45  C   UNL     1      13.094   2.042   7.431  1.00  0.00     0.031 C 
ATOM     46  C   UNL     1      12.320   2.572   2.494  1.00  0.00     0.029 A 
ATOM     47  N   UNL     1      12.784   4.423   3.662  1.00  0.00    -0.354 N 
ATOM     48  C   UNL     1      13.458   4.240   7.935  1.00  0.00     0.074 A 
ATOM     49  C   UNL     1      13.290   2.891   8.427  1.00  0.00     0.031 C 
ATOM     50  C   UNL     1      12.316   3.605   1.634  1.00  0.00     0.029 A 
ATOM     51  C   UNL     1      12.601   4.836   2.366  1.00  0.00     0.049 A 
ATOM     52  H   UNL     1      13.002   5.039   4.398  1.00  0.00     0.167 HD
ATOM     53  C   UNL     1      13.794   5.297   8.712  1.00  0.00     0.037 A 
ATOM     54  C   UNL     1      12.656   6.072   1.836  1.00  0.00     0.037 A 
ATOM     55  C   UNL     1      13.960   6.637   8.219  1.00  0.00     0.049 A 
ATOM     56  C   UNL     1      12.975   7.239   2.730  1.00  0.00     0.074 A 
ATOM     57  C   UNL     1      14.339   7.773   8.912  1.00  0.00     0.029 A 
ATOM     58  N   UNL     1      13.747   7.022   6.903  1.00  0.00    -0.354 N 
ATOM     59  N   UNL     1      13.246   7.251   4.013  1.00  0.00    -0.248 NA
ATOM     60  C   UNL     1      13.000   8.566   2.099  1.00  0.00     0.031 C 
ATOM     61  C   UNL     1      14.311   8.854   8.023  1.00  0.00     0.029 A 
ATOM     62  C   UNL     1      13.958   8.383   6.768  1.00  0.00     0.049 A 
ATOM     63  H   UNL     1      13.485   6.416   6.173  1.00  0.00     0.167 HD
ATOM     64  C   UNL     1      13.500   8.578   4.337  1.00  0.00     0.074 A 
ATOM     65  C   UNL     1      13.365   9.339   3.111  1.00  0.00     0.031 C 
ATOM     66  C   UNL     1      13.818   9.120   5.538  1.00  0.00     0.037 A 
BRANCH  53  67
ATOM     67  C   UNL     1      13.997   5.029  10.175  1.00  0.00     0.057 A 
ATOM     68  C   UNL     1      13.087   5.505  11.125  1.00  0.00     0.134 A 
ATOM     69  C   UNL     1      15.091   4.288  10.642  1.00  0.00     0.134 A 
ATOM     70  F   UNL     1      12.019   6.223  10.747  1.00  0.00    -0.206 F 
ATOM     71  C   UNL     1      13.252   5.247  12.487  1.00  0.00     0.040 A 
ATOM     72  C   UNL     1      15.252   3.998  11.998  1.00  0.00     0.040 A 
ATOM     73  F   UNL     1      15.992   3.788   9.782  1.00  0.00    -0.206 F 
ATOM     74  C   UNL     1      14.332   4.482  12.925  1.00  0.00     0.006 A 
ENDBRANCH  53  67
BRANCH  54  75
ATOM     75  C   UNL     1      12.427   6.276   0.384  1.00  0.00     0.057 A 
ATOM     76  C   UNL     1      11.157   6.129  -0.187  1.00  0.00     0.134 A 
ATOM     77  C   UNL     1      13.475   6.655  -0.463  1.00  0.00     0.134 A 
ATOM     78  F   UNL     1      10.113   5.764   0.570  1.00  0.00    -0.206 F 
ATOM     79  C   UNL     1      10.938   6.353  -1.547  1.00  0.00     0.040 A 
ATOM     80  C   UNL     1      13.266   6.905  -1.820  1.00  0.00     0.040 A 
ATOM     81  F   UNL     1      14.710   6.830   0.030  1.00  0.00    -0.206 F 
ATOM     82  C   UNL     1      11.993   6.751  -2.366  1.00  0.00     0.006 A 
ENDBRANCH  54  75
BRANCH  66  83
ATOM     83  C   UNL     1      14.064  10.600   5.574  1.00  0.00     0.057 A 
ATOM     84  C   UNL     1      15.357  11.103   5.762  1.00  0.00     0.134 A 
ATOM     85  C   UNL     1      13.020  11.525   5.452  1.00  0.00     0.134 A 
ATOM     86  F   UNL     1      16.401  10.270   5.894  1.00  0.00    -0.206 F 
ATOM     87  C   UNL     1      15.603  12.475   5.830  1.00  0.00     0.040 A 
ATOM     88  C   UNL     1      13.257  12.900   5.491  1.00  0.00     0.040 A 
ATOM     89  F   UNL     1      11.760  11.107   5.255  1.00  0.00    -0.206 F 
ATOM     90  C   UNL     1      14.552  13.378   5.687  1.00  0.00     0.006 A 
ENDBRANCH  66  83
ENDBRANCH  40  41
ENDBRANCH  32  35
ENDBRANCH  30  31
ENDBRANCH  29  30
ENDBRANCH  28  29
ENDBRANCH   1  28
TORSDOF 16
