REMARK SMILES O=C(NCCCCCCNC(=O)[C@@H]1[C@H](C(=O)Nc2ccccc2Cc2ccccc2)[C@H]2C=C[C@@H]1O2)c1ccc(-c2c3nc(c(-c4c(F)cccc4F)c4ccc([nH]4)c(-c4c(F)cccc4F)c4nc(c(-c5c(F)cccc5F)c5ccc2[nH]5)C=C4)C=C3)cc1
REMARK SMILES IDX 7 1 6 2 5 3 4 4 3 5 1 6 2 7 36 9 37 10 89 11 38 12 88 13
REMARK SMILES IDX 39 14 40 15 41 16 82 17 42 18 87 19 81 20 83 21 43 22 86 23
REMARK SMILES IDX 80 24 79 25 44 27 70 28 53 29 69 30 54 31 57 32 68 33 84 34
REMARK SMILES IDX 55 35 56 36 67 38 85 39 58 40 45 41 46 42 51 43 47 44 48 45
REMARK SMILES IDX 50 46 52 47 49 48 71 49 72 50 77 51 73 52 74 53 76 54 78 55
REMARK SMILES IDX 75 56 59 57 60 58 65 59 61 60 62 61 64 62 66 63 63 64 8 65
REMARK SMILES IDX 9 66 10 67 11 68 12 70 13 71 14 72 34 73 31 74 33 75 35 76
REMARK SMILES IDX 32 77 15 78 16 79 17 80 18 82 19 83 23 84 20 85 22 86 21 87
REMARK SMILES IDX 24 88 25 89 26 90 30 91 27 92 29 93 28 94
REMARK H PARENT 3 8 83 26 57 37 10 69 17 81
REMARK Flexibility Score: inf
ROOT
ATOM      1  C   UNL     1       3.322  -3.111  -3.344  1.00  0.00     0.002 C 
ENDROOT
BRANCH   1   2
ATOM      2  C   UNL     1       3.199  -3.222  -1.817  1.00  0.00     0.002 C 
BRANCH   2   3
ATOM      3  C   UNL     1       4.104  -2.355  -0.940  1.00  0.00     0.021 C 
BRANCH   3   4
ATOM      4  C   UNL     1       3.964  -0.838  -1.036  1.00  0.00     0.116 C 
BRANCH   4   5
ATOM      5  N   UNL     1       2.597  -0.363  -0.884  1.00  0.00    -0.352 N 
ATOM      6  O   UNL     1       0.800   0.605   0.072  1.00  0.00    -0.269 OA
ATOM      7  C   UNL     1       2.025   0.450   0.062  1.00  0.00     0.251 C 
ATOM      8  H   UNL     1       1.976  -0.679  -1.579  1.00  0.00     0.163 HD
BRANCH   7   9
ATOM      9  C   UNL     1       2.847   1.134   1.083  1.00  0.00     0.039 A 
ATOM     10  C   UNL     1       4.061   1.732   0.745  1.00  0.00     0.014 A 
ATOM     11  C   UNL     1       2.377   1.217   2.400  1.00  0.00     0.014 A 
ATOM     12  C   UNL     1       4.874   2.263   1.740  1.00  0.00     0.010 A 
ATOM     13  C   UNL     1       3.151   1.842   3.383  1.00  0.00     0.010 A 
ATOM     14  C   UNL     1       4.424   2.341   3.069  1.00  0.00    -0.014 A 
BRANCH  14  15
ATOM     15  C   UNL     1       5.281   3.002   4.089  1.00  0.00     0.031 A 
ATOM     16  C   UNL     1       5.807   2.244   5.277  1.00  0.00     0.074 A 
ATOM     17  C   UNL     1       5.612   4.297   3.913  1.00  0.00     0.049 A 
ATOM     18  N   UNL     1       6.587   2.662   6.242  1.00  0.00    -0.248 NA
ATOM     19  C   UNL     1       5.397   0.838   5.408  1.00  0.00     0.031 C 
ATOM     20  C   UNL     1       5.150   5.140   2.807  1.00  0.00     0.029 A 
ATOM     21  N   UNL     1       6.427   5.125   4.640  1.00  0.00    -0.354 N 
ATOM     22  C   UNL     1       6.740   1.584   7.106  1.00  0.00     0.074 A 
ATOM     23  C   UNL     1       5.950   0.499   6.564  1.00  0.00     0.031 C 
ATOM     24  C   UNL     1       5.737   6.342   2.893  1.00  0.00     0.029 A 
ATOM     25  C   UNL     1       6.555   6.381   4.098  1.00  0.00     0.049 A 
ATOM     26  H   UNL     1       6.877   4.847   5.471  1.00  0.00     0.167 HD
ATOM     27  C   UNL     1       7.475   1.508   8.243  1.00  0.00     0.037 A 
ATOM     28  C   UNL     1       7.243   7.454   4.529  1.00  0.00     0.037 A 
ATOM     29  C   UNL     1       8.271   2.591   8.765  1.00  0.00     0.049 A 
ATOM     30  C   UNL     1       8.033   7.345   5.800  1.00  0.00     0.074 A 
ATOM     31  C   UNL     1       9.083   2.603   9.886  1.00  0.00     0.029 A 
ATOM     32  N   UNL     1       8.351   3.858   8.203  1.00  0.00    -0.354 N 
ATOM     33  N   UNL     1       8.195   6.308   6.585  1.00  0.00    -0.248 NA
ATOM     34  C   UNL     1       8.732   8.556   6.246  1.00  0.00     0.031 C 
ATOM     35  C   UNL     1       9.610   3.890  10.034  1.00  0.00     0.029 A 
ATOM     36  C   UNL     1       9.178   4.665   8.969  1.00  0.00     0.049 A 
ATOM     37  H   UNL     1       7.888   4.141   7.382  1.00  0.00     0.167 HD
ATOM     38  C   UNL     1       9.039   6.732   7.603  1.00  0.00     0.074 A 
ATOM     39  C   UNL     1       9.366   8.116   7.323  1.00  0.00     0.031 C 
ATOM     40  C   UNL     1       9.500   6.038   8.672  1.00  0.00     0.037 A 
BRANCH  27  41
ATOM     41  C   UNL     1       7.431   0.220   9.018  1.00  0.00     0.057 A 
ATOM     42  C   UNL     1       8.026  -0.958   8.546  1.00  0.00     0.134 A 
ATOM     43  C   UNL     1       6.816   0.168  10.276  1.00  0.00     0.134 A 
ATOM     44  F   UNL     1       8.624  -0.984   7.345  1.00  0.00    -0.206 F 
ATOM     45  C   UNL     1       7.986  -2.144   9.282  1.00  0.00     0.040 A 
ATOM     46  C   UNL     1       6.795  -1.004  11.034  1.00  0.00     0.040 A 
ATOM     47  F   UNL     1       6.234   1.259  10.795  1.00  0.00    -0.206 F 
ATOM     48  C   UNL     1       7.375  -2.168  10.534  1.00  0.00     0.006 A 
ENDBRANCH  27  41
BRANCH  28  49
ATOM     49  C   UNL     1       7.213   8.718   3.750  1.00  0.00     0.057 A 
ATOM     50  C   UNL     1       8.359   9.198   3.105  1.00  0.00     0.134 A 
ATOM     51  C   UNL     1       6.042   9.476   3.630  1.00  0.00     0.134 A 
ATOM     52  F   UNL     1       9.516   8.525   3.194  1.00  0.00    -0.206 F 
ATOM     53  C   UNL     1       8.346  10.393   2.384  1.00  0.00     0.040 A 
ATOM     54  C   UNL     1       6.006  10.656   2.887  1.00  0.00     0.040 A 
ATOM     55  F   UNL     1       4.907   9.066   4.216  1.00  0.00    -0.206 F 
ATOM     56  C   UNL     1       7.164  11.123   2.269  1.00  0.00     0.006 A 
ENDBRANCH  28  49
BRANCH  40  57
ATOM     57  C   UNL     1      10.451   6.755   9.587  1.00  0.00     0.057 A 
ATOM     58  C   UNL     1      10.037   7.799  10.424  1.00  0.00     0.134 A 
ATOM     59  C   UNL     1      11.802   6.386   9.635  1.00  0.00     0.134 A 
ATOM     60  F   UNL     1       8.760   8.212  10.416  1.00  0.00    -0.206 F 
ATOM     61  C   UNL     1      10.938   8.473  11.250  1.00  0.00     0.040 A 
ATOM     62  C   UNL     1      12.705   7.030  10.480  1.00  0.00     0.040 A 
ATOM     63  F   UNL     1      12.263   5.389   8.865  1.00  0.00    -0.206 F 
ATOM     64  C   UNL     1      12.276   8.084  11.283  1.00  0.00     0.006 A 
ENDBRANCH  40  57
ENDBRANCH  14  15
ENDBRANCH   7   9
ENDBRANCH   4   5
ENDBRANCH   3   4
ENDBRANCH   2   3
ENDBRANCH   1   2
BRANCH   1  65
ATOM     65  C   UNL     1       4.638  -3.534  -4.053  1.00  0.00     0.021 C 
BRANCH  65  66
ATOM     66  C   UNL     1       5.499  -4.694  -3.450  1.00  0.00     0.116 C 
BRANCH  66  67
ATOM     67  N   UNL     1       6.115  -5.869  -4.280  1.00  0.00    -0.356 N 
ATOM     68  C   UNL     1       7.199  -6.735  -4.494  1.00  0.00     0.227 C 
ATOM     69  H   UNL     1       5.439  -6.107  -4.955  1.00  0.00     0.163 HD
ATOM     70  O   UNL     1       6.729  -7.824  -4.918  1.00  0.00    -0.275 OA
BRANCH  68  71
ATOM     71  C   UNL     1       8.993  -6.770  -4.549  1.00  0.00     0.127 C 
ATOM     72  C   UNL     1       9.656  -7.935  -3.804  1.00  0.00     0.127 C 
ATOM     73  C   UNL     1      10.203  -5.787  -4.322  1.00  0.00     0.155 C 
ATOM     74  C   UNL     1      10.796  -7.348  -2.956  1.00  0.00     0.155 C 
ATOM     75  C   UNL     1      11.596  -6.245  -4.734  1.00  0.00     0.004 C 
ATOM     76  O   UNL     1      10.407  -5.966  -2.892  1.00  0.00    -0.365 OA
ATOM     77  C   UNL     1      11.985  -7.156  -3.833  1.00  0.00     0.004 C 
BRANCH  72  78
ATOM     78  C   UNL     1       8.696  -8.603  -2.962  1.00  0.00     0.231 C 
ATOM     79  O   UNL     1       8.602  -9.834  -2.987  1.00  0.00    -0.274 OA
ATOM     80  N   UNL     1       7.945  -7.921  -2.096  1.00  0.00    -0.325 N 
ATOM     81  H   UNL     1       7.346  -8.565  -1.653  1.00  0.00     0.169 HD
BRANCH  80  82
ATOM     82  C   UNL     1       7.663  -6.633  -1.556  1.00  0.00     0.044 A 
ATOM     83  C   UNL     1       6.981  -7.003  -0.333  1.00  0.00     0.026 A 
ATOM     84  C   UNL     1       7.827  -5.207  -1.866  1.00  0.00    -0.020 A 
ATOM     85  C   UNL     1       6.406  -6.131   0.560  1.00  0.00     0.002 A 
ATOM     86  C   UNL     1       7.278  -4.364  -0.825  1.00  0.00     0.006 A 
ATOM     87  C   UNL     1       6.551  -4.799   0.302  1.00  0.00     0.000 A 
BRANCH  84  88
ATOM     88  C   UNL     1       8.437  -4.154  -3.113  1.00  0.00     0.073 C 
BRANCH  88  89
ATOM     89  C   UNL     1       7.953  -3.719  -4.681  1.00  0.00    -0.044 A 
ATOM     90  C   UNL     1       7.923  -4.475  -5.888  1.00  0.00     0.004 A 
ATOM     91  C   UNL     1       7.543  -2.397  -4.933  1.00  0.00     0.004 A 
ATOM     92  C   UNL     1       7.194  -4.159  -7.052  1.00  0.00     0.000 A 
ATOM     93  C   UNL     1       6.889  -2.013  -6.144  1.00  0.00     0.000 A 
ATOM     94  C   UNL     1       6.628  -2.921  -7.164  1.00  0.00     0.000 A 
ENDBRANCH  88  89
ENDBRANCH  84  88
ENDBRANCH  80  82
ENDBRANCH  72  78
ENDBRANCH  68  71
ENDBRANCH  66  67
ENDBRANCH  65  66
ENDBRANCH   1  65
TORSDOF 17
