REMARK SMILES O=C(NCCCCCCNC(=O)c1cc2n(n1)[C@@H](C(F)(F)F)C[C@H](c1ccc3c(c1)OCO3)N2)c1ccc(-c2c3nc(c(-c4c(F)cccc4F)c4ccc([nH]4)c(-c4c(F)cccc4F)c4nc(c(-c5c(F)cccc5F)c5ccc2[nH]5)C=C4)C=C3)cc1
REMARK SMILES IDX 6 1 5 2 4 3 3 4 1 5 2 6 35 8 36 9 88 10 37 11 87 12 38 13
REMARK SMILES IDX 39 14 40 15 81 16 41 17 86 18 80 19 82 20 42 21 85 22 79 23
REMARK SMILES IDX 78 24 43 26 69 27 52 28 68 29 53 30 56 31 67 32 83 33 54 34
REMARK SMILES IDX 55 35 66 37 84 38 57 39 44 40 45 41 50 42 46 43 47 44 49 45
REMARK SMILES IDX 51 46 48 47 70 48 71 49 76 50 72 51 73 52 75 53 77 54 74 55
REMARK SMILES IDX 58 56 59 57 64 58 60 59 61 60 63 61 65 62 62 63 7 64 8 65
REMARK SMILES IDX 9 66 10 67 11 68 12 70 13 71 14 72 17 73 15 74 16 75 34 76
REMARK SMILES IDX 18 77 24 78 23 80 19 81 20 82 21 83 22 84 25 85 26 86 30 87
REMARK SMILES IDX 27 88 29 89 28 90 31 91 33 92 32 93
REMARK H PARENT 3 7 82 25 56 36 10 69 34 79
REMARK Flexibility Score: inf
ROOT
ATOM      1  C   UNL     1       4.283  -0.435   3.694  1.00  0.00     0.002 C 
ENDROOT
BRANCH   1   2
ATOM      2  C   UNL     1       4.763   0.324   2.457  1.00  0.00     0.021 C 
BRANCH   2   3
ATOM      3  C   UNL     1       4.487  -0.381   1.134  1.00  0.00     0.116 C 
BRANCH   3   4
ATOM      4  N   UNL     1       3.064  -0.539   0.884  1.00  0.00    -0.352 N 
ATOM      5  O   UNL     1       1.087  -0.134  -0.123  1.00  0.00    -0.269 OA
ATOM      6  C   UNL     1       2.311  -0.078  -0.166  1.00  0.00     0.251 C 
ATOM      7  H   UNL     1       2.571  -1.050   1.566  1.00  0.00     0.163 HD
BRANCH   6   8
ATOM      8  C   UNL     1       2.982   0.503  -1.346  1.00  0.00     0.039 A 
ATOM      9  C   UNL     1       4.089  -0.128  -1.920  1.00  0.00     0.014 A 
ATOM     10  C   UNL     1       2.481   1.685  -1.896  1.00  0.00     0.014 A 
ATOM     11  C   UNL     1       4.768   0.483  -2.968  1.00  0.00     0.010 A 
ATOM     12  C   UNL     1       3.115   2.255  -3.001  1.00  0.00     0.010 A 
ATOM     13  C   UNL     1       4.275   1.669  -3.533  1.00  0.00    -0.014 A 
BRANCH  13  14
ATOM     14  C   UNL     1       4.934   2.248  -4.729  1.00  0.00     0.031 A 
ATOM     15  C   UNL     1       5.575   3.603  -4.678  1.00  0.00     0.074 A 
ATOM     16  C   UNL     1       4.916   1.549  -5.879  1.00  0.00     0.049 A 
ATOM     17  N   UNL     1       6.129   4.290  -5.645  1.00  0.00    -0.248 NA
ATOM     18  C   UNL     1       5.587   4.282  -3.374  1.00  0.00     0.031 C 
ATOM     19  C   UNL     1       4.308   0.227  -6.049  1.00  0.00     0.029 A 
ATOM     20  N   UNL     1       5.405   1.855  -7.122  1.00  0.00    -0.354 N 
ATOM     21  C   UNL     1       6.535   5.489  -5.075  1.00  0.00     0.074 A 
ATOM     22  C   UNL     1       6.139   5.447  -3.683  1.00  0.00     0.031 C 
ATOM     23  C   UNL     1       4.466  -0.167  -7.320  1.00  0.00     0.029 A 
ATOM     24  C   UNL     1       5.124   0.898  -8.067  1.00  0.00     0.049 A 
ATOM     25  H   UNL     1       5.908   2.678  -7.319  1.00  0.00     0.167 HD
ATOM     26  C   UNL     1       7.180   6.527  -5.662  1.00  0.00     0.037 A 
ATOM     27  C   UNL     1       5.333   0.893  -9.396  1.00  0.00     0.037 A 
ATOM     28  C   UNL     1       7.564   6.556  -7.052  1.00  0.00     0.049 A 
ATOM     29  C   UNL     1       6.009   2.069 -10.034  1.00  0.00     0.074 A 
ATOM     30  C   UNL     1       8.265   7.536  -7.732  1.00  0.00     0.029 A 
ATOM     31  N   UNL     1       7.260   5.568  -7.979  1.00  0.00    -0.354 N 
ATOM     32  N   UNL     1       6.439   3.174  -9.475  1.00  0.00    -0.248 NA
ATOM     33  C   UNL     1       6.232   2.001 -11.484  1.00  0.00     0.031 C 
ATOM     34  C   UNL     1       8.327   7.173  -9.081  1.00  0.00     0.029 A 
ATOM     35  C   UNL     1       7.726   5.934  -9.231  1.00  0.00     0.049 A 
ATOM     36  H   UNL     1       6.783   4.731  -7.776  1.00  0.00     0.167 HD
ATOM     37  C   UNL     1       7.003   3.924 -10.498  1.00  0.00     0.074 A 
ATOM     38  C   UNL     1       6.867   3.143 -11.711  1.00  0.00     0.031 C 
ATOM     39  C   UNL     1       7.585   5.146 -10.433  1.00  0.00     0.037 A 
BRANCH  26  40
ATOM     40  C   UNL     1       7.473   7.731  -4.812  1.00  0.00     0.057 A 
ATOM     41  C   UNL     1       8.400   7.698  -3.761  1.00  0.00     0.134 A 
ATOM     42  C   UNL     1       6.824   8.949  -5.057  1.00  0.00     0.134 A 
ATOM     43  F   UNL     1       9.053   6.564  -3.465  1.00  0.00    -0.206 F 
ATOM     44  C   UNL     1       8.640   8.818  -2.962  1.00  0.00     0.040 A 
ATOM     45  C   UNL     1       7.079  10.084  -4.285  1.00  0.00     0.040 A 
ATOM     46  F   UNL     1       5.933   9.059  -6.054  1.00  0.00    -0.206 F 
ATOM     47  C   UNL     1       7.981  10.017  -3.226  1.00  0.00     0.006 A 
ENDBRANCH  26  40
BRANCH  27  48
ATOM     48  C   UNL     1       4.866  -0.266 -10.195  1.00  0.00     0.057 A 
ATOM     49  C   UNL     1       5.769  -1.177 -10.752  1.00  0.00     0.134 A 
ATOM     50  C   UNL     1       3.499  -0.520 -10.371  1.00  0.00     0.134 A 
ATOM     51  F   UNL     1       7.090  -0.980 -10.626  1.00  0.00    -0.206 F 
ATOM     52  C   UNL     1       5.331  -2.298 -11.459  1.00  0.00     0.040 A 
ATOM     53  C   UNL     1       3.047  -1.651 -11.051  1.00  0.00     0.040 A 
ATOM     54  F   UNL     1       2.584   0.309  -9.849  1.00  0.00    -0.206 F 
ATOM     55  C   UNL     1       3.966  -2.542 -11.601  1.00  0.00     0.006 A 
ENDBRANCH  27  48
BRANCH  39  56
ATOM     56  C   UNL     1       8.157   5.708 -11.702  1.00  0.00     0.057 A 
ATOM     57  C   UNL     1       7.343   6.195 -12.732  1.00  0.00     0.134 A 
ATOM     58  C   UNL     1       9.544   5.826 -11.862  1.00  0.00     0.134 A 
ATOM     59  F   UNL     1       6.008   6.098 -12.648  1.00  0.00    -0.206 F 
ATOM     60  C   UNL     1       7.889   6.772 -13.880  1.00  0.00     0.040 A 
ATOM     61  C   UNL     1      10.101   6.425 -12.992  1.00  0.00     0.040 A 
ATOM     62  F   UNL     1      10.380   5.384 -10.910  1.00  0.00    -0.206 F 
ATOM     63  C   UNL     1       9.272   6.898 -14.007  1.00  0.00     0.006 A 
ENDBRANCH  39  56
ENDBRANCH  13  14
ENDBRANCH   6   8
ENDBRANCH   3   4
ENDBRANCH   2   3
ENDBRANCH   1   2
BRANCH   1  64
ATOM     64  C   UNL     1       4.821  -1.863   3.833  1.00  0.00     0.002 C 
BRANCH  64  65
ATOM     65  C   UNL     1       6.345  -1.990   3.790  1.00  0.00     0.021 C 
BRANCH  65  66
ATOM     66  C   UNL     1       7.082  -1.163   4.839  1.00  0.00     0.116 C 
BRANCH  66  67
ATOM     67  N   UNL     1       6.776  -1.599   6.190  1.00  0.00    -0.351 N 
ATOM     68  C   UNL     1       7.629  -2.078   7.160  1.00  0.00     0.271 C 
ATOM     69  H   UNL     1       5.827  -1.544   6.449  1.00  0.00     0.163 HD
ATOM     70  O   UNL     1       7.140  -2.588   8.170  1.00  0.00    -0.267 OA
BRANCH  68  71
ATOM     71  C   UNL     1       9.074  -1.941   6.943  1.00  0.00     0.152 A 
ATOM     72  C   UNL     1       9.760  -0.791   6.452  1.00  0.00     0.082 A 
ATOM     73  N   UNL     1       9.941  -2.945   7.195  1.00  0.00    -0.165 NA
ATOM     74  C   UNL     1      11.057  -1.187   6.291  1.00  0.00     0.126 A 
ATOM     75  N   UNL     1      11.118  -2.461   6.775  1.00  0.00    -0.237 N 
ATOM     76  N   UNL     1      12.141  -0.570   5.785  1.00  0.00    -0.363 N 
ATOM     77  C   UNL     1      12.343  -3.231   6.849  1.00  0.00     0.217 C 
ATOM     78  C   UNL     1      13.463  -1.191   5.789  1.00  0.00     0.113 C 
ATOM     79  H   UNL     1      12.040   0.331   5.399  1.00  0.00     0.162 HD
ATOM     80  C   UNL     1      13.542  -2.263   6.899  1.00  0.00     0.066 C 
BRANCH  77  81
ATOM     81  C   UNL     1      12.422  -4.191   5.683  1.00  0.00     0.410 C 
ATOM     82  F   UNL     1      13.603  -4.864   5.725  1.00  0.00    -0.169 F 
ATOM     83  F   UNL     1      11.450  -5.126   5.699  1.00  0.00    -0.169 F 
ATOM     84  F   UNL     1      12.380  -3.575   4.481  1.00  0.00    -0.169 F 
ENDBRANCH  77  81
BRANCH  78  85
ATOM     85  C   UNL     1      14.566  -0.149   5.942  1.00  0.00    -0.022 A 
ATOM     86  C   UNL     1      15.910  -0.537   5.707  1.00  0.00     0.010 A 
ATOM     87  C   UNL     1      14.303   1.189   6.293  1.00  0.00     0.056 A 
ATOM     88  C   UNL     1      16.963   0.379   5.811  1.00  0.00     0.051 A 
ATOM     89  C   UNL     1      15.358   2.075   6.364  1.00  0.00     0.166 A 
ATOM     90  C   UNL     1      16.652   1.680   6.132  1.00  0.00     0.165 A 
ATOM     91  O   UNL     1      15.261   3.399   6.655  1.00  0.00    -0.454 OA
ATOM     92  O   UNL     1      17.537   2.705   6.257  1.00  0.00    -0.454 OA
ATOM     93  C   UNL     1      16.647   3.793   6.586  1.00  0.00     0.468 C 
ENDBRANCH  78  85
ENDBRANCH  68  71
ENDBRANCH  66  67
ENDBRANCH  65  66
ENDBRANCH  64  65
ENDBRANCH   1  64
TORSDOF 15
