REMARK SMILES CC1=C(CC(=O)NCCCCCCNC(=O)c2ccc(-c3c4nc(c(-c5c(F)cccc5F)c5ccc([nH]5)c(-c5c(F)cccc5F)c5nc(c(-c6c(F)cccc6F)c6ccc3[nH]6)C=C5)C=C4)cc2)c2cc(F)ccc2/C1=C\c1cccc(OCc2ccccc2)c1
REMARK SMILES IDX 9 1 8 2 7 3 5 4 6 5 4 7 3 8 1 9 2 10 78 11 71 12 77 13 79 14
REMARK SMILES IDX 72 15 76 16 73 17 75 18 74 19 80 20 81 21 93 22 82 23 84 24
REMARK SMILES IDX 83 25 85 26 86 27 87 28 88 29 92 30 89 31 91 32 90 33 10 34
REMARK SMILES IDX 11 35 12 36 13 37 14 38 15 39 16 41 17 42 18 43 70 44 19 45
REMARK SMILES IDX 69 46 20 47 21 48 22 49 63 50 23 51 68 52 62 53 64 54 24 55
REMARK SMILES IDX 67 56 61 57 60 58 25 60 51 61 34 62 50 63 35 64 38 65 49 66
REMARK SMILES IDX 65 67 36 68 37 69 48 71 66 72 39 73 26 74 27 75 32 76 28 77
REMARK SMILES IDX 29 78 31 79 33 80 30 81 52 82 53 83 58 84 54 85 55 86 57 87
REMARK SMILES IDX 59 88 56 89 40 90 41 91 46 92 42 93 43 94 45 95 47 96 44 97
REMARK H PARENT 7 6 14 40 64 59 38 70
REMARK Flexibility Score: inf
ROOT
ATOM      1  C   UNL     1       3.837  -0.954   2.667  1.00  0.00     0.021 C 
ENDROOT
BRANCH   1   2
ATOM      2  C   UNL     1       3.635  -1.836   1.434  1.00  0.00     0.116 C 
BRANCH   2   3
ATOM      3  N   UNL     1       3.248  -3.182   1.804  1.00  0.00    -0.356 N 
ATOM      4  C   UNL     1       2.011  -3.757   1.782  1.00  0.00     0.224 C 
ATOM      5  O   UNL     1       1.891  -4.900   2.226  1.00  0.00    -0.275 OA
ATOM      6  H   UNL     1       3.980  -3.762   2.116  1.00  0.00     0.163 HD
BRANCH   4   7
ATOM      7  C   UNL     1       0.824  -3.018   1.170  1.00  0.00     0.136 C 
BRANCH   7   8
ATOM      8  C   UNL     1       0.383  -1.825   1.954  1.00  0.00    -0.027 C 
ATOM      9  C   UNL     1       0.584   0.042   0.211  1.00  0.00     0.045 C 
ATOM     10  C   UNL     1       0.308  -0.530   1.564  1.00  0.00    -0.039 C 
ATOM     11  C   UNL     1      -0.145   0.298   2.692  1.00  0.00    -0.014 C 
ATOM     12  C   UNL     1      -0.101  -1.902   3.344  1.00  0.00    -0.011 A 
ATOM     13  C   UNL     1      -0.460  -0.617   3.799  1.00  0.00    -0.010 A 
ATOM     14  C   UNL     1      -0.211   1.639   2.652  1.00  0.00     0.017 C 
ATOM     15  C   UNL     1      -0.248  -3.009   4.168  1.00  0.00     0.048 A 
ATOM     16  C   UNL     1      -0.995  -0.434   5.067  1.00  0.00     0.012 A 
ATOM     17  C   UNL     1      -0.759  -2.813   5.447  1.00  0.00     0.123 A 
ATOM     18  C   UNL     1      -1.137  -1.546   5.899  1.00  0.00     0.040 A 
ATOM     19  F   UNL     1      -0.903  -3.864   6.265  1.00  0.00    -0.207 F 
BRANCH  14  20
ATOM     20  C   UNL     1      -0.724   2.532   3.688  1.00  0.00    -0.021 A 
ATOM     21  C   UNL     1       0.017   2.880   4.818  1.00  0.00     0.008 A 
ATOM     22  C   UNL     1      -2.005   3.064   3.501  1.00  0.00     0.054 A 
ATOM     23  C   UNL     1      -0.537   3.743   5.764  1.00  0.00     0.004 A 
ATOM     24  C   UNL     1      -2.544   3.966   4.413  1.00  0.00     0.120 A 
ATOM     25  C   UNL     1      -1.811   4.285   5.558  1.00  0.00     0.046 A 
BRANCH  24  26
ATOM     26  O   UNL     1      -3.753   4.596   4.291  1.00  0.00    -0.489 OA
BRANCH  26  27
ATOM     27  C   UNL     1      -4.464   4.474   3.051  1.00  0.00     0.265 C 
BRANCH  27  28
ATOM     28  C   UNL     1      -3.856   5.299   1.937  1.00  0.00    -0.011 A 
ATOM     29  C   UNL     1      -3.736   6.689   2.073  1.00  0.00     0.007 A 
ATOM     30  C   UNL     1      -3.393   4.694   0.757  1.00  0.00     0.007 A 
ATOM     31  C   UNL     1      -3.151   7.453   1.062  1.00  0.00     0.000 A 
ATOM     32  C   UNL     1      -2.792   5.457  -0.245  1.00  0.00     0.000 A 
ATOM     33  C   UNL     1      -2.672   6.836  -0.093  1.00  0.00     0.000 A 
ENDBRANCH  27  28
ENDBRANCH  26  27
ENDBRANCH  24  26
ENDBRANCH  14  20
ENDBRANCH   7   8
ENDBRANCH   4   7
ENDBRANCH   2   3
ENDBRANCH   1   2
BRANCH   1  34
ATOM     34  C   UNL     1       5.095  -1.294   3.478  1.00  0.00     0.002 C 
BRANCH  34  35
ATOM     35  C   UNL     1       6.419  -1.190   2.712  1.00  0.00     0.002 C 
BRANCH  35  36
ATOM     36  C   UNL     1       6.661   0.146   2.009  1.00  0.00     0.021 C 
BRANCH  36  37
ATOM     37  C   UNL     1       6.692   1.354   2.938  1.00  0.00     0.116 C 
BRANCH  37  38
ATOM     38  N   UNL     1       7.856   1.352   3.812  1.00  0.00    -0.352 N 
ATOM     39  C   UNL     1       8.793   2.339   4.001  1.00  0.00     0.251 C 
ATOM     40  H   UNL     1       7.989   0.532   4.341  1.00  0.00     0.163 HD
ATOM     41  O   UNL     1       9.810   2.124   4.654  1.00  0.00    -0.269 OA
BRANCH  39  42
ATOM     42  C   UNL     1       8.581   3.662   3.379  1.00  0.00     0.039 A 
ATOM     43  C   UNL     1       7.350   4.312   3.510  1.00  0.00     0.014 A 
ATOM     44  C   UNL     1       9.607   4.234   2.623  1.00  0.00     0.014 A 
ATOM     45  C   UNL     1       7.095   5.455   2.761  1.00  0.00     0.010 A 
ATOM     46  C   UNL     1       9.370   5.423   1.928  1.00  0.00     0.010 A 
ATOM     47  C   UNL     1       8.099   6.018   1.957  1.00  0.00    -0.014 A 
BRANCH  47  48
ATOM     48  C   UNL     1       7.801   7.225   1.146  1.00  0.00     0.031 A 
ATOM     49  C   UNL     1       7.803   7.158  -0.357  1.00  0.00     0.074 A 
ATOM     50  C   UNL     1       7.487   8.377   1.770  1.00  0.00     0.049 A 
ATOM     51  N   UNL     1       7.619   8.119  -1.227  1.00  0.00    -0.248 NA
ATOM     52  C   UNL     1       8.043   5.838  -0.963  1.00  0.00     0.031 C 
ATOM     53  C   UNL     1       7.428   8.562   3.221  1.00  0.00     0.029 A 
ATOM     54  N   UNL     1       7.152   9.606   1.263  1.00  0.00    -0.354 N 
ATOM     55  C   UNL     1       7.730   7.526  -2.479  1.00  0.00     0.074 A 
ATOM     56  C   UNL     1       8.026   6.126  -2.258  1.00  0.00     0.031 C 
ATOM     57  C   UNL     1       7.054   9.822   3.488  1.00  0.00     0.029 A 
ATOM     58  C   UNL     1       6.911  10.549   2.232  1.00  0.00     0.049 A 
ATOM     59  H   UNL     1       7.091   9.794   0.299  1.00  0.00     0.167 HD
ATOM     60  C   UNL     1       7.587   8.095  -3.700  1.00  0.00     0.037 A 
ATOM     61  C   UNL     1       6.639  11.862   2.122  1.00  0.00     0.037 A 
ATOM     62  C   UNL     1       7.287   9.486  -3.918  1.00  0.00     0.049 A 
ATOM     63  C   UNL     1       6.565  12.481   0.757  1.00  0.00     0.074 A 
ATOM     64  C   UNL     1       7.119  10.158  -5.118  1.00  0.00     0.029 A 
ATOM     65  N   UNL     1       7.110  10.422  -2.910  1.00  0.00    -0.354 N 
ATOM     66  N   UNL     1       6.685  11.911  -0.417  1.00  0.00    -0.248 NA
ATOM     67  C   UNL     1       6.334  13.931   0.704  1.00  0.00     0.031 C 
ATOM     68  C   UNL     1       6.875  11.507  -4.835  1.00  0.00     0.029 A 
ATOM     69  C   UNL     1       6.856  11.668  -3.460  1.00  0.00     0.049 A 
ATOM     70  H   UNL     1       7.158  10.229  -1.946  1.00  0.00     0.167 HD
ATOM     71  C   UNL     1       6.548  12.931  -1.348  1.00  0.00     0.074 A 
ATOM     72  C   UNL     1       6.301  14.149  -0.603  1.00  0.00     0.031 C 
ATOM     73  C   UNL     1       6.632  12.870  -2.699  1.00  0.00     0.037 A 
BRANCH  60  74
ATOM     74  C   UNL     1       7.761   7.212  -4.901  1.00  0.00     0.057 A 
ATOM     75  C   UNL     1       8.896   7.324  -5.714  1.00  0.00     0.134 A 
ATOM     76  C   UNL     1       6.785   6.280  -5.277  1.00  0.00     0.134 A 
ATOM     77  F   UNL     1       9.866   8.199  -5.412  1.00  0.00    -0.206 F 
ATOM     78  C   UNL     1       9.052   6.544  -6.862  1.00  0.00     0.040 A 
ATOM     79  C   UNL     1       6.939   5.480  -6.412  1.00  0.00     0.040 A 
ATOM     80  F   UNL     1       5.681   6.114  -4.533  1.00  0.00    -0.206 F 
ATOM     81  C   UNL     1       8.072   5.616  -7.211  1.00  0.00     0.006 A 
ENDBRANCH  60  74
BRANCH  61  82
ATOM     82  C   UNL     1       6.474  12.690   3.341  1.00  0.00     0.057 A 
ATOM     83  C   UNL     1       7.560  12.969   4.180  1.00  0.00     0.134 A 
ATOM     84  C   UNL     1       5.234  13.237   3.684  1.00  0.00     0.134 A 
ATOM     85  F   UNL     1       8.774  12.471   3.904  1.00  0.00    -0.206 F 
ATOM     86  C   UNL     1       7.417  13.755   5.323  1.00  0.00     0.040 A 
ATOM     87  C   UNL     1       5.082  14.047   4.811  1.00  0.00     0.040 A 
ATOM     88  F   UNL     1       4.162  13.024   2.906  1.00  0.00    -0.206 F 
ATOM     89  C   UNL     1       6.175  14.303   5.636  1.00  0.00     0.006 A 
ENDBRANCH  61  82
BRANCH  73  90
ATOM     90  C   UNL     1       6.458  14.160  -3.442  1.00  0.00     0.057 A 
ATOM     91  C   UNL     1       5.279  14.433  -4.144  1.00  0.00     0.134 A 
ATOM     92  C   UNL     1       7.465  15.134  -3.456  1.00  0.00     0.134 A 
ATOM     93  F   UNL     1       4.279  13.539  -4.171  1.00  0.00    -0.206 F 
ATOM     94  C   UNL     1       5.105  15.633  -4.833  1.00  0.00     0.040 A 
ATOM     95  C   UNL     1       7.294  16.347  -4.124  1.00  0.00     0.040 A 
ATOM     96  F   UNL     1       8.611  14.937  -2.786  1.00  0.00    -0.206 F 
ATOM     97  C   UNL     1       6.112  16.597  -4.818  1.00  0.00     0.006 A 
ENDBRANCH  73  90
ENDBRANCH  47  48
ENDBRANCH  39  42
ENDBRANCH  37  38
ENDBRANCH  36  37
ENDBRANCH  35  36
ENDBRANCH  34  35
ENDBRANCH   1  34
TORSDOF 18
