REMARK SMILES CC(=O)N1CC2(CC[NH+](C3Cc4ccccc4C3)CC2)C[C@H]1C(=O)NCCCCCCNC(=O)c1ccc(-c2c3nc(c(-c4c(F)cccc4F)c4ccc([nH]4)c(-c4c(F)cccc4F)c4nc(c(-c5c(F)cccc5F)c5ccc2[nH]5)C=C4)C=C3)cc1
REMARK SMILES IDX 29 1 28 2 27 3 26 4 25 5 23 6 24 7 22 9 4 10 5 11 6 12 21 13
REMARK SMILES IDX 7 14 20 15 8 16 19 17 9 18 2 20 1 21 3 22 10 23 11 24 18 25
REMARK SMILES IDX 12 26 17 27 13 28 16 29 14 30 15 31 30 32 31 33 32 34 33 35
REMARK SMILES IDX 34 37 35 38 36 39 88 40 37 41 87 42 38 43 39 44 40 45 81 46
REMARK SMILES IDX 41 47 86 48 80 49 82 50 42 51 85 52 79 53 78 54 43 56 69 57
REMARK SMILES IDX 52 58 68 59 53 60 56 61 67 62 83 63 54 64 55 65 66 67 84 68
REMARK SMILES IDX 57 69 44 70 45 71 50 72 46 73 47 74 49 75 51 76 48 77 70 78
REMARK SMILES IDX 71 79 76 80 72 81 73 82 75 83 77 84 74 85 58 86 59 87 64 88
REMARK SMILES IDX 60 89 61 90 63 91 65 92 62 93
REMARK H PARENT 25 8 9 19 32 36 82 55 56 66
REMARK Flexibility Score: inf
ROOT
ATOM      1  C   UNL     1       4.459   1.212  -7.244  1.00  0.00     0.002 C 
ENDROOT
BRANCH   1   2
ATOM      2  C   UNL     1       3.736  -0.045  -6.738  1.00  0.00     0.002 C 
BRANCH   2   3
ATOM      3  C   UNL     1       3.133   0.037  -5.336  1.00  0.00     0.021 C 
BRANCH   3   4
ATOM      4  C   UNL     1       2.158   1.184  -5.124  1.00  0.00     0.116 C 
BRANCH   4   5
ATOM      5  N   UNL     1       0.762   0.881  -5.255  1.00  0.00    -0.354 N 
ATOM      6  C   UNL     1      -0.262   1.364  -4.485  1.00  0.00     0.242 C 
ATOM      7  O   UNL     1      -1.359   1.474  -5.049  1.00  0.00    -0.273 OA
ATOM      8  H   UNL     1       0.514   0.258  -5.976  1.00  0.00     0.163 HD
BRANCH   6   9
ATOM      9  C   UNL     1      -0.070   1.935  -3.042  1.00  0.00     0.175 C 
ATOM     10  N   UNL     1       0.803   1.225  -2.117  1.00  0.00    -0.330 N 
ATOM     11  C   UNL     1       1.985   1.985  -1.738  1.00  0.00     0.127 C 
ATOM     12  C   UNL     1       1.761   3.433  -2.231  1.00  0.00     0.001 C 
ATOM     13  C   UNL     1       0.395   3.393  -2.977  1.00  0.00     0.044 C 
ATOM     14  C   UNL     1       2.853   3.966  -3.190  1.00  0.00     0.070 C 
ATOM     15  C   UNL     1       1.718   4.354  -0.983  1.00  0.00     0.070 C 
ATOM     16  C   UNL     1       4.195   4.163  -2.506  1.00  0.00     0.263 C 
ATOM     17  C   UNL     1       3.119   4.664  -0.411  1.00  0.00     0.263 C 
ATOM     18  N   UNL     1       4.120   5.100  -1.394  1.00  0.00    -0.332 N 
ATOM     19  H   UNL     1       5.039   5.051  -0.953  1.00  0.00     0.348 HD
BRANCH  10  20
ATOM     20  C   UNL     1       0.339   0.070  -1.519  1.00  0.00     0.220 C 
ATOM     21  C   UNL     1       1.090  -0.421  -0.310  1.00  0.00     0.114 C 
ATOM     22  O   UNL     1      -0.674  -0.511  -1.905  1.00  0.00    -0.275 OA
ENDBRANCH  10  20
BRANCH  18  23
ATOM     23  C   UNL     1       4.085   6.545  -1.718  1.00  0.00     0.192 C 
ATOM     24  C   UNL     1       5.058   7.052  -2.831  1.00  0.00     0.101 C 
ATOM     25  C   UNL     1       2.712   7.209  -2.014  1.00  0.00     0.101 C 
ATOM     26  C   UNL     1       4.385   8.299  -3.321  1.00  0.00    -0.039 A 
ATOM     27  C   UNL     1       3.069   8.377  -2.871  1.00  0.00    -0.039 A 
ATOM     28  C   UNL     1       4.886   9.239  -4.207  1.00  0.00     0.004 A 
ATOM     29  C   UNL     1       2.216   9.381  -3.301  1.00  0.00     0.004 A 
ATOM     30  C   UNL     1       4.038  10.262  -4.641  1.00  0.00     0.000 A 
ATOM     31  C   UNL     1       2.711  10.330  -4.194  1.00  0.00     0.000 A 
ENDBRANCH  18  23
ENDBRANCH   6   9
ENDBRANCH   4   5
ENDBRANCH   3   4
ENDBRANCH   2   3
ENDBRANCH   1   2
BRANCH   1  32
ATOM     32  C   UNL     1       5.577   1.769  -6.356  1.00  0.00     0.021 C 
BRANCH  32  33
ATOM     33  C   UNL     1       6.702   0.794  -6.014  1.00  0.00     0.116 C 
BRANCH  33  34
ATOM     34  N   UNL     1       7.304   0.197  -7.193  1.00  0.00    -0.352 N 
ATOM     35  C   UNL     1       8.619   0.091  -7.568  1.00  0.00     0.251 C 
ATOM     36  H   UNL     1       6.662  -0.197  -7.827  1.00  0.00     0.163 HD
ATOM     37  O   UNL     1       8.898  -0.320  -8.690  1.00  0.00    -0.269 OA
BRANCH  35  38
ATOM     38  C   UNL     1       9.707   0.476  -6.641  1.00  0.00     0.039 A 
ATOM     39  C   UNL     1      10.812   1.159  -7.158  1.00  0.00     0.014 A 
ATOM     40  C   UNL     1       9.674   0.125  -5.290  1.00  0.00     0.014 A 
ATOM     41  C   UNL     1      11.860   1.531  -6.313  1.00  0.00     0.010 A 
ATOM     42  C   UNL     1      10.688   0.553  -4.435  1.00  0.00     0.010 A 
ATOM     43  C   UNL     1      11.795   1.252  -4.939  1.00  0.00    -0.014 A 
BRANCH  43  44
ATOM     44  C   UNL     1      12.883   1.671  -4.020  1.00  0.00     0.031 A 
ATOM     45  C   UNL     1      13.720   0.638  -3.317  1.00  0.00     0.074 A 
ATOM     46  C   UNL     1      13.083   2.981  -3.778  1.00  0.00     0.049 A 
ATOM     47  N   UNL     1      14.673   0.806  -2.435  1.00  0.00    -0.248 NA
ATOM     48  C   UNL     1      13.429  -0.771  -3.626  1.00  0.00     0.031 C 
ATOM     49  C   UNL     1      12.312   4.077  -4.368  1.00  0.00     0.029 A 
ATOM     50  N   UNL     1      13.991   3.611  -2.966  1.00  0.00    -0.354 N 
ATOM     51  C   UNL     1      15.083  -0.472  -2.074  1.00  0.00     0.074 A 
ATOM     52  C   UNL     1      14.242  -1.404  -2.793  1.00  0.00     0.031 C 
ATOM     53  C   UNL     1      12.796   5.245  -3.916  1.00  0.00     0.029 A 
ATOM     54  C   UNL     1      13.884   4.981  -2.981  1.00  0.00     0.049 A 
ATOM     55  H   UNL     1      14.655   3.128  -2.423  1.00  0.00     0.167 HD
ATOM     56  C   UNL     1      16.085  -0.836  -1.238  1.00  0.00     0.037 A 
ATOM     57  C   UNL     1      14.585   5.917  -2.314  1.00  0.00     0.037 A 
ATOM     58  C   UNL     1      16.938   0.094  -0.545  1.00  0.00     0.049 A 
ATOM     59  C   UNL     1      15.689   5.488  -1.389  1.00  0.00     0.074 A 
ATOM     60  C   UNL     1      18.015  -0.174   0.282  1.00  0.00     0.029 A 
ATOM     61  N   UNL     1      16.808   1.474  -0.598  1.00  0.00    -0.354 N 
ATOM     62  N   UNL     1      16.106   4.278  -1.104  1.00  0.00    -0.248 NA
ATOM     63  C   UNL     1      16.426   6.556  -0.698  1.00  0.00     0.031 C 
ATOM     64  C   UNL     1      18.514   1.044   0.759  1.00  0.00     0.029 A 
ATOM     65  C   UNL     1      17.775   2.071   0.194  1.00  0.00     0.049 A 
ATOM     66  H   UNL     1      16.130   1.958  -1.122  1.00  0.00     0.167 HD
ATOM     67  C   UNL     1      17.171   4.439  -0.227  1.00  0.00     0.074 A 
ATOM     68  C   UNL     1      17.343   5.864  -0.036  1.00  0.00     0.031 C 
ATOM     69  C   UNL     1      17.938   3.492   0.366  1.00  0.00     0.037 A 
BRANCH  56  70
ATOM     70  C   UNL     1      16.313  -2.305  -1.032  1.00  0.00     0.057 A 
ATOM     71  C   UNL     1      16.838  -3.120  -2.044  1.00  0.00     0.134 A 
ATOM     72  C   UNL     1      16.028  -2.909   0.199  1.00  0.00     0.134 A 
ATOM     73  F   UNL     1      17.122  -2.608  -3.251  1.00  0.00    -0.206 F 
ATOM     74  C   UNL     1      17.042  -4.488  -1.849  1.00  0.00     0.040 A 
ATOM     75  C   UNL     1      16.254  -4.270   0.415  1.00  0.00     0.040 A 
ATOM     76  F   UNL     1      15.529  -2.187   1.214  1.00  0.00    -0.206 F 
ATOM     77  C   UNL     1      16.756  -5.065  -0.614  1.00  0.00     0.006 A 
ENDBRANCH  56  70
BRANCH  57  78
ATOM     78  C   UNL     1      14.285   7.356  -2.519  1.00  0.00     0.057 A 
ATOM     79  C   UNL     1      15.180   8.185  -3.205  1.00  0.00     0.134 A 
ATOM     80  C   UNL     1      13.108   7.938  -2.034  1.00  0.00     0.134 A 
ATOM     81  F   UNL     1      16.332   7.689  -3.679  1.00  0.00    -0.206 F 
ATOM     82  C   UNL     1      14.925   9.546  -3.385  1.00  0.00     0.040 A 
ATOM     83  C   UNL     1      12.830   9.292  -2.227  1.00  0.00     0.040 A 
ATOM     84  F   UNL     1      12.207   7.194  -1.375  1.00  0.00    -0.206 F 
ATOM     85  C   UNL     1      13.744  10.101  -2.898  1.00  0.00     0.006 A 
ENDBRANCH  57  78
BRANCH  69  86
ATOM     86  C   UNL     1      19.057   3.969   1.244  1.00  0.00     0.057 A 
ATOM     87  C   UNL     1      18.821   4.528   2.506  1.00  0.00     0.134 A 
ATOM     88  C   UNL     1      20.390   3.837   0.832  1.00  0.00     0.134 A 
ATOM     89  F   UNL     1      17.567   4.694   2.952  1.00  0.00    -0.206 F 
ATOM     90  C   UNL     1      19.871   4.960   3.318  1.00  0.00     0.040 A 
ATOM     91  C   UNL     1      21.448   4.241   1.646  1.00  0.00     0.040 A 
ATOM     92  F   UNL     1      20.684   3.302  -0.362  1.00  0.00    -0.206 F 
ATOM     93  C   UNL     1      21.189   4.811   2.891  1.00  0.00     0.006 A 
ENDBRANCH  69  86
ENDBRANCH  43  44
ENDBRANCH  35  38
ENDBRANCH  33  34
ENDBRANCH  32  33
ENDBRANCH   1  32
TORSDOF 15
