REMARK SMILES CCc1cc(C[NH+]2CCC(CC(=O)NCCCCCCNC(=O)c3ccc(-c4c5nc(c(-c6c(F)cccc6F)c6ccc([nH]6)c(-c6c(F)cccc6F)c6nc(c(-c7c(F)cccc7F)c7ccc4[nH]7)C=C6)C=C5)cc3)CC2)n(C)n1
REMARK SMILES IDX 16 1 15 2 14 3 12 4 13 5 11 7 10 8 7 9 8 10 79 11 9 13 78 14
REMARK SMILES IDX 6 15 5 16 3 17 4 18 82 19 80 20 81 21 2 22 1 23 17 24 18 25
REMARK SMILES IDX 19 26 20 27 21 28 22 29 23 31 24 32 25 33 77 34 26 35 76 36
REMARK SMILES IDX 27 37 28 38 29 39 70 40 30 41 75 42 69 43 71 44 31 45 74 46
REMARK SMILES IDX 68 47 67 48 32 50 58 51 41 52 57 53 42 54 45 55 56 56 72 57
REMARK SMILES IDX 43 58 44 59 55 61 73 62 46 63 33 64 34 65 39 66 35 67 36 68
REMARK SMILES IDX 38 69 40 70 37 71 59 72 60 73 65 74 61 75 62 76 64 77 66 78
REMARK SMILES IDX 63 79 47 80 48 81 53 82 49 83 50 84 52 85 54 86 51 87
REMARK H PARENT 14 6 7 12 21 30 71 49 45 60
REMARK Flexibility Score: inf
ROOT
ATOM      1  C   UNL     1       5.293   6.568  -1.745  1.00  0.00     0.021 C 
ENDROOT
BRANCH   1   2
ATOM      2  C   UNL     1       4.450   7.165  -2.881  1.00  0.00     0.116 C 
BRANCH   2   3
ATOM      3  N   UNL     1       4.018   6.133  -3.811  1.00  0.00    -0.356 N 
ATOM      4  C   UNL     1       2.787   5.593  -4.044  1.00  0.00     0.220 C 
ATOM      5  O   UNL     1       2.708   4.658  -4.844  1.00  0.00    -0.275 OA
ATOM      6  H   UNL     1       4.739   5.760  -4.369  1.00  0.00     0.163 HD
BRANCH   4   7
ATOM      7  C   UNL     1       1.544   6.116  -3.339  1.00  0.00     0.104 C 
BRANCH   7   8
ATOM      8  C   UNL     1       1.202   5.335  -2.057  1.00  0.00     0.009 C 
ATOM      9  N   UNL     1       0.514   5.420   0.813  1.00  0.00    -0.330 N 
ATOM     10  C   UNL     1       1.856   5.029   0.384  1.00  0.00     0.262 C 
ATOM     11  C   UNL     1      -0.489   5.012  -0.181  1.00  0.00     0.262 C 
ATOM     12  H   UNL     1       0.480   6.438   0.865  1.00  0.00     0.348 HD
ATOM     13  C   UNL     1       2.211   5.641  -0.955  1.00  0.00     0.066 C 
ATOM     14  C   UNL     1      -0.211   5.658  -1.549  1.00  0.00     0.066 C 
BRANCH   9  15
ATOM     15  C   UNL     1       0.208   4.953   2.180  1.00  0.00     0.319 C 
BRANCH  15  16
ATOM     16  C   UNL     1       0.544   3.517   2.415  1.00  0.00     0.093 A 
ATOM     17  C   UNL     1       0.764   1.320   2.226  1.00  0.00     0.063 A 
ATOM     18  C   UNL     1      -0.139   2.383   2.024  1.00  0.00     0.055 A 
ATOM     19  N   UNL     1       1.869   1.726   2.856  1.00  0.00    -0.178 NA
ATOM     20  N   UNL     1       1.707   3.058   2.990  1.00  0.00    -0.267 N 
ATOM     21  C   UNL     1       2.800   3.801   3.572  1.00  0.00     0.174 C 
BRANCH  17  22
ATOM     22  C   UNL     1       0.632  -0.081   1.740  1.00  0.00     0.055 C 
ATOM     23  C   UNL     1       1.120  -0.216   0.301  1.00  0.00     0.011 C 
ENDBRANCH  17  22
ENDBRANCH  15  16
ENDBRANCH   9  15
ENDBRANCH   7   8
ENDBRANCH   4   7
ENDBRANCH   2   3
ENDBRANCH   1   2
BRANCH   1  24
ATOM     24  C   UNL     1       6.804   6.736  -1.896  1.00  0.00     0.002 C 
BRANCH  24  25
ATOM     25  C   UNL     1       7.324   8.163  -1.725  1.00  0.00     0.002 C 
BRANCH  25  26
ATOM     26  C   UNL     1       6.954   8.863  -0.411  1.00  0.00     0.021 C 
BRANCH  26  27
ATOM     27  C   UNL     1       7.281   8.098   0.871  1.00  0.00     0.116 C 
BRANCH  27  28
ATOM     28  N   UNL     1       8.690   7.765   0.978  1.00  0.00    -0.352 N 
ATOM     29  C   UNL     1       9.623   8.115   1.920  1.00  0.00     0.251 C 
ATOM     30  H   UNL     1       9.033   7.193   0.253  1.00  0.00     0.163 HD
ATOM     31  O   UNL     1      10.809   7.870   1.716  1.00  0.00    -0.269 OA
BRANCH  29  32
ATOM     32  C   UNL     1       9.227   8.793   3.175  1.00  0.00     0.039 A 
ATOM     33  C   UNL     1      10.038   9.827   3.655  1.00  0.00     0.014 A 
ATOM     34  C   UNL     1       8.118   8.378   3.919  1.00  0.00     0.014 A 
ATOM     35  C   UNL     1       9.717  10.468   4.853  1.00  0.00     0.010 A 
ATOM     36  C   UNL     1       7.763   9.059   5.085  1.00  0.00     0.010 A 
ATOM     37  C   UNL     1       8.567  10.102   5.570  1.00  0.00    -0.014 A 
BRANCH  37  38
ATOM     38  C   UNL     1       8.214  10.799   6.832  1.00  0.00     0.031 A 
ATOM     39  C   UNL     1       8.282  10.079   8.150  1.00  0.00     0.074 A 
ATOM     40  C   UNL     1       7.812  12.084   6.791  1.00  0.00     0.049 A 
ATOM     41  N   UNL     1       8.051  10.536   9.355  1.00  0.00    -0.248 NA
ATOM     42  C   UNL     1       8.631   8.651   8.107  1.00  0.00     0.031 C 
ATOM     43  C   UNL     1       7.657  12.881   5.573  1.00  0.00     0.029 A 
ATOM     44  N   UNL     1       7.470  12.947   7.801  1.00  0.00    -0.354 N 
ATOM     45  C   UNL     1       8.214   9.454  10.210  1.00  0.00     0.074 A 
ATOM     46  C   UNL     1       8.515   8.306   9.381  1.00  0.00     0.031 C 
ATOM     47  C   UNL     1       7.293  14.129   5.910  1.00  0.00     0.029 A 
ATOM     48  C   UNL     1       7.169  14.213   7.362  1.00  0.00     0.049 A 
ATOM     49  H   UNL     1       7.443  12.684   8.749  1.00  0.00     0.167 HD
ATOM     50  C   UNL     1       8.143   9.421  11.563  1.00  0.00     0.037 A 
ATOM     51  C   UNL     1       6.849  15.322   8.054  1.00  0.00     0.037 A 
ATOM     52  C   UNL     1       7.873  10.568  12.390  1.00  0.00     0.049 A 
ATOM     53  C   UNL     1       6.799  15.268   9.554  1.00  0.00     0.074 A 
ATOM     54  C   UNL     1       7.850  10.652  13.771  1.00  0.00     0.029 A 
ATOM     55  N   UNL     1       7.579  11.835  11.908  1.00  0.00    -0.354 N 
ATOM     56  N   UNL     1       7.032  14.256  10.354  1.00  0.00    -0.248 NA
ATOM     57  C   UNL     1       6.450  16.516  10.248  1.00  0.00     0.031 C 
ATOM     58  C   UNL     1       7.508  11.963  14.125  1.00  0.00     0.029 A 
ATOM     59  C   UNL     1       7.355  12.703  12.964  1.00  0.00     0.049 A 
ATOM     60  H   UNL     1       7.536  12.081  10.956  1.00  0.00     0.167 HD
ATOM     61  C   UNL     1       6.891  14.750  11.643  1.00  0.00     0.074 A 
ATOM     62  C   UNL     1       6.559  16.155  11.519  1.00  0.00     0.031 C 
ATOM     63  C   UNL     1       7.029  14.100  12.825  1.00  0.00     0.037 A 
BRANCH  50  64
ATOM     64  C   UNL     1       8.361   8.094  12.229  1.00  0.00     0.057 A 
ATOM     65  C   UNL     1       9.624   7.490  12.277  1.00  0.00     0.134 A 
ATOM     66  C   UNL     1       7.298   7.416  12.838  1.00  0.00     0.134 A 
ATOM     67  F   UNL     1      10.682   8.081  11.701  1.00  0.00    -0.206 F 
ATOM     68  C   UNL     1       9.816   6.244  12.877  1.00  0.00     0.040 A 
ATOM     69  C   UNL     1       7.482   6.181  13.464  1.00  0.00     0.040 A 
ATOM     70  F   UNL     1       6.063   7.940  12.835  1.00  0.00    -0.206 F 
ATOM     71  C   UNL     1       8.743   5.588  13.476  1.00  0.00     0.006 A 
ENDBRANCH  50  64
BRANCH  51  72
ATOM     72  C   UNL     1       6.621  16.598   7.335  1.00  0.00     0.057 A 
ATOM     73  C   UNL     1       7.573  17.623   7.382  1.00  0.00     0.134 A 
ATOM     74  C   UNL     1       5.464  16.823   6.582  1.00  0.00     0.134 A 
ATOM     75  F   UNL     1       8.694  17.470   8.102  1.00  0.00    -0.206 F 
ATOM     76  C   UNL     1       7.378  18.833   6.714  1.00  0.00     0.040 A 
ATOM     77  C   UNL     1       5.264  18.020   5.894  1.00  0.00     0.040 A 
ATOM     78  F   UNL     1       4.519  15.875   6.495  1.00  0.00    -0.206 F 
ATOM     79  C   UNL     1       6.221  19.031   5.962  1.00  0.00     0.006 A 
ENDBRANCH  51  72
BRANCH  63  80
ATOM     80  C   UNL     1       6.854  14.912  14.073  1.00  0.00     0.057 A 
ATOM     81  C   UNL     1       5.593  15.344  14.502  1.00  0.00     0.134 A 
ATOM     82  C   UNL     1       7.960  15.253  14.862  1.00  0.00     0.134 A 
ATOM     83  F   UNL     1       4.497  15.062  13.783  1.00  0.00    -0.206 F 
ATOM     84  C   UNL     1       5.441  16.108  15.660  1.00  0.00     0.040 A 
ATOM     85  C   UNL     1       7.818  15.998  16.033  1.00  0.00     0.040 A 
ATOM     86  F   UNL     1       9.194  14.865  14.508  1.00  0.00    -0.206 F 
ATOM     87  C   UNL     1       6.555  16.433  16.431  1.00  0.00     0.006 A 
ENDBRANCH  63  80
ENDBRANCH  37  38
ENDBRANCH  29  32
ENDBRANCH  27  28
ENDBRANCH  26  27
ENDBRANCH  25  26
ENDBRANCH  24  25
ENDBRANCH   1  24
TORSDOF 17
