REMARK SMILES O=C(NCCCCCCNC(=O)c1cc(N2CC[NH2+]CC2)nc2ccccc12)c1ccc(-c2c3nc(c(-c4c(F)cccc4F)c4ccc([nH]4)c(-c4c(F)cccc4F)c4nc(c(-c5c(F)cccc5F)c5ccc2[nH]5)C=C4)C=C3)cc1
REMARK SMILES IDX 6 1 5 2 4 3 3 4 1 5 2 6 29 8 30 9 82 10 31 11 81 12 32 13
REMARK SMILES IDX 33 14 34 15 75 16 35 17 80 18 74 19 76 20 36 21 79 22 73 23
REMARK SMILES IDX 72 24 37 26 63 27 46 28 62 29 47 30 50 31 61 32 77 33 48 34
REMARK SMILES IDX 49 35 60 37 78 38 51 39 38 40 39 41 44 42 40 43 41 44 43 45
REMARK SMILES IDX 45 46 42 47 64 48 65 49 70 50 66 51 67 52 69 53 71 54 68 55
REMARK SMILES IDX 52 56 53 57 58 58 54 59 55 60 57 61 59 62 56 63 7 64 8 65
REMARK SMILES IDX 9 66 10 67 11 68 12 70 13 71 14 72 28 73 15 74 23 75 27 76
REMARK SMILES IDX 22 77 24 78 26 79 25 80 16 81 17 82 21 83 18 84 20 85 19 86
REMARK H PARENT 3 7 76 25 50 36 10 69 19 87 19 88
REMARK Flexibility Score: inf
ROOT
ATOM      1  C   UNL     1       4.151  -2.296  -3.197  1.00  0.00     0.002 C 
ENDROOT
BRANCH   1   2
ATOM      2  C   UNL     1       4.625  -2.128  -1.754  1.00  0.00     0.021 C 
BRANCH   2   3
ATOM      3  C   UNL     1       4.362  -0.764  -1.131  1.00  0.00     0.116 C 
BRANCH   3   4
ATOM      4  N   UNL     1       2.948  -0.452  -1.011  1.00  0.00    -0.352 N 
ATOM      5  O   UNL     1       1.030   0.117   0.036  1.00  0.00    -0.269 OA
ATOM      6  C   UNL     1       2.252   0.016   0.079  1.00  0.00     0.251 C 
ATOM      7  H   UNL     1       2.412  -0.596  -1.824  1.00  0.00     0.163 HD
BRANCH   6   8
ATOM      8  C   UNL     1       2.977   0.368   1.320  1.00  0.00     0.039 A 
ATOM      9  C   UNL     1       4.153   1.120   1.276  1.00  0.00     0.014 A 
ATOM     10  C   UNL     1       2.468  -0.064   2.549  1.00  0.00     0.014 A 
ATOM     11  C   UNL     1       4.893   1.314   2.437  1.00  0.00     0.010 A 
ATOM     12  C   UNL     1       3.170   0.206   3.727  1.00  0.00     0.010 A 
ATOM     13  C   UNL     1       4.406   0.868   3.677  1.00  0.00    -0.014 A 
BRANCH  13  14
ATOM     14  C   UNL     1       5.183   1.158   4.909  1.00  0.00     0.031 A 
ATOM     15  C   UNL     1       5.794   0.054   5.726  1.00  0.00     0.074 A 
ATOM     16  C   UNL     1       5.363   2.444   5.269  1.00  0.00     0.049 A 
ATOM     17  N   UNL     1       6.532   0.140   6.804  1.00  0.00    -0.248 NA
ATOM     18  C   UNL     1       5.540  -1.325   5.282  1.00  0.00     0.031 C 
ATOM     19  C   UNL     1       4.808   3.601   4.564  1.00  0.00     0.029 A 
ATOM     20  N   UNL     1       6.079   2.995   6.300  1.00  0.00    -0.354 N 
ATOM     21  C   UNL     1       6.816  -1.167   7.179  1.00  0.00     0.074 A 
ATOM     22  C   UNL     1       6.149  -2.030   6.226  1.00  0.00     0.031 C 
ATOM     23  C   UNL     1       5.246   4.724   5.149  1.00  0.00     0.029 A 
ATOM     24  C   UNL     1       6.064   4.369   6.303  1.00  0.00     0.049 A 
ATOM     25  H   UNL     1       6.557   2.459   6.973  1.00  0.00     0.167 HD
ATOM     26  C   UNL     1       7.569  -1.606   8.217  1.00  0.00     0.037 A 
ATOM     27  C   UNL     1       6.636   5.247   7.145  1.00  0.00     0.037 A 
ATOM     28  C   UNL     1       8.243  -0.743   9.154  1.00  0.00     0.049 A 
ATOM     29  C   UNL     1       7.449   4.732   8.296  1.00  0.00     0.074 A 
ATOM     30  C   UNL     1       9.060  -1.093  10.216  1.00  0.00     0.029 A 
ATOM     31  N   UNL     1       8.175   0.642   9.144  1.00  0.00    -0.354 N 
ATOM     32  N   UNL     1       7.736   3.494   8.615  1.00  0.00    -0.248 NA
ATOM     33  C   UNL     1       8.012   5.738   9.207  1.00  0.00     0.031 C 
ATOM     34  C   UNL     1       9.452   0.079  10.873  1.00  0.00     0.029 A 
ATOM     35  C   UNL     1       8.916   1.161  10.194  1.00  0.00     0.049 A 
ATOM     36  H   UNL     1       7.673   1.178   8.488  1.00  0.00     0.167 HD
ATOM     37  C   UNL     1       8.526   3.570   9.753  1.00  0.00     0.074 A 
ATOM     38  C   UNL     1       8.689   4.978  10.056  1.00  0.00     0.031 C 
ATOM     39  C   UNL     1       9.066   2.564  10.483  1.00  0.00     0.037 A 
BRANCH  26  40
ATOM     40  C   UNL     1       7.693  -3.090   8.407  1.00  0.00     0.057 A 
ATOM     41  C   UNL     1       8.466  -3.885   7.551  1.00  0.00     0.134 A 
ATOM     42  C   UNL     1       7.065  -3.726   9.486  1.00  0.00     0.134 A 
ATOM     43  F   UNL     1       9.085  -3.341   6.492  1.00  0.00    -0.206 F 
ATOM     44  C   UNL     1       8.593  -5.262   7.750  1.00  0.00     0.040 A 
ATOM     45  C   UNL     1       7.203  -5.097   9.708  1.00  0.00     0.040 A 
ATOM     46  F   UNL     1       6.315  -3.023  10.348  1.00  0.00    -0.206 F 
ATOM     47  C   UNL     1       7.966  -5.870   8.835  1.00  0.00     0.006 A 
ENDBRANCH  26  40
BRANCH  27  48
ATOM     48  C   UNL     1       6.463   6.703   6.921  1.00  0.00     0.057 A 
ATOM     49  C   UNL     1       7.531   7.501   6.500  1.00  0.00     0.134 A 
ATOM     50  C   UNL     1       5.223   7.326   7.107  1.00  0.00     0.134 A 
ATOM     51  F   UNL     1       8.746   6.962   6.320  1.00  0.00    -0.206 F 
ATOM     52  C   UNL     1       7.377   8.870   6.281  1.00  0.00     0.040 A 
ATOM     53  C   UNL     1       5.048   8.689   6.868  1.00  0.00     0.040 A 
ATOM     54  F   UNL     1       4.158   6.612   7.503  1.00  0.00    -0.206 F 
ATOM     55  C   UNL     1       6.130   9.466   6.459  1.00  0.00     0.006 A 
ENDBRANCH  27  48
BRANCH  39  56
ATOM     56  C   UNL     1       9.902   2.958  11.664  1.00  0.00     0.057 A 
ATOM     57  C   UNL     1       9.329   3.464  12.838  1.00  0.00     0.134 A 
ATOM     58  C   UNL     1      11.295   2.818  11.630  1.00  0.00     0.134 A 
ATOM     59  F   UNL     1       8.001   3.638  12.925  1.00  0.00    -0.206 F 
ATOM     60  C   UNL     1      10.114   3.841  13.928  1.00  0.00     0.040 A 
ATOM     61  C   UNL     1      12.089   3.169  12.723  1.00  0.00     0.040 A 
ATOM     62  F   UNL     1      11.905   2.335  10.538  1.00  0.00    -0.206 F 
ATOM     63  C   UNL     1      11.499   3.689  13.873  1.00  0.00     0.006 A 
ENDBRANCH  39  56
ENDBRANCH  13  14
ENDBRANCH   6   8
ENDBRANCH   3   4
ENDBRANCH   2   3
ENDBRANCH   1   2
BRANCH   1  64
ATOM     64  C   UNL     1       4.635  -1.235  -4.190  1.00  0.00     0.002 C 
BRANCH  64  65
ATOM     65  C   UNL     1       6.148  -0.994  -4.243  1.00  0.00     0.021 C 
BRANCH  65  66
ATOM     66  C   UNL     1       7.007  -2.236  -4.459  1.00  0.00     0.116 C 
BRANCH  66  67
ATOM     67  N   UNL     1       6.699  -2.923  -5.699  1.00  0.00    -0.352 N 
ATOM     68  C   UNL     1       7.559  -3.499  -6.599  1.00  0.00     0.252 C 
ATOM     69  H   UNL     1       5.743  -2.985  -5.925  1.00  0.00     0.163 HD
ATOM     70  O   UNL     1       7.129  -4.009  -7.628  1.00  0.00    -0.269 OA
BRANCH  68  71
ATOM     71  C   UNL     1       9.014  -3.461  -6.357  1.00  0.00     0.052 A 
ATOM     72  C   UNL     1       9.769  -2.762  -7.297  1.00  0.00     0.061 A 
ATOM     73  C   UNL     1       9.627  -4.101  -5.263  1.00  0.00     0.013 A 
ATOM     74  C   UNL     1      11.141  -2.704  -7.143  1.00  0.00     0.130 A 
ATOM     75  C   UNL     1      11.015  -3.921  -5.153  1.00  0.00     0.073 A 
ATOM     76  C   UNL     1       8.952  -4.889  -4.295  1.00  0.00     0.011 A 
ATOM     77  N   UNL     1      11.744  -3.265  -6.075  1.00  0.00    -0.231 NA
ATOM     78  C   UNL     1      11.664  -4.441  -4.040  1.00  0.00     0.029 A 
ATOM     79  C   UNL     1       9.627  -5.404  -3.192  1.00  0.00     0.001 A 
ATOM     80  C   UNL     1      10.985  -5.162  -3.054  1.00  0.00     0.002 A 
BRANCH  74  81
ATOM     81  N   UNL     1      11.920  -2.097  -8.099  1.00  0.00    -0.345 N 
ATOM     82  C   UNL     1      11.711  -0.697  -8.460  1.00  0.00     0.179 C 
ATOM     83  C   UNL     1      13.162  -2.741  -8.524  1.00  0.00     0.179 C 
ATOM     84  C   UNL     1      12.999   0.127  -8.218  1.00  0.00     0.282 C 
ATOM     85  C   UNL     1      14.382  -1.828  -8.293  1.00  0.00     0.282 C 
ATOM     86  N   UNL     1      14.207  -0.461  -8.836  1.00  0.00    -0.343 N 
ATOM     87  H   UNL     1      15.023   0.107  -8.610  1.00  0.00     0.346 HD
ATOM     88  H   UNL     1      14.105  -0.494  -9.850  1.00  0.00     0.346 HD
ENDBRANCH  74  81
ENDBRANCH  68  71
ENDBRANCH  66  67
ENDBRANCH  65  66
ENDBRANCH  64  65
ENDBRANCH   1  64
TORSDOF 14
