REMARK SMILES N#CCS(=O)(=O)NC[C@H]1CC[C@H](C(=O)NCCCCCCNC(=O)c2ccc(-c3c4nc(c(-c5c(F)cccc5F)c5ccc([nH]5)c(-c5c(F)cccc5F)c5nc(c(-c6c(F)cccc6F)c6ccc3[nH]6)C=C5)C=C4)cc2)O1
REMARK SMILES IDX 17 1 16 2 15 3 13 4 14 5 12 7 9 8 10 9 79 10 11 11 8 12 7 13
REMARK SMILES IDX 4 15 5 16 6 17 3 18 2 19 1 20 18 21 19 22 20 23 21 24 22 25
REMARK SMILES IDX 23 26 24 28 25 29 26 30 78 31 27 32 77 33 28 34 29 35 30 36
REMARK SMILES IDX 71 37 31 38 76 39 70 40 72 41 32 42 75 43 69 44 68 45 33 47
REMARK SMILES IDX 59 48 42 49 58 50 43 51 46 52 57 53 73 54 44 55 45 56 56 58
REMARK SMILES IDX 74 59 47 60 34 61 35 62 40 63 36 64 37 65 39 66 41 67 38 68
REMARK SMILES IDX 60 69 61 70 66 71 62 72 63 73 65 74 67 75 64 76 48 77 49 78
REMARK SMILES IDX 54 79 50 80 51 81 53 82 55 83 52 84
REMARK H PARENT 15 6 7 14 22 27 72 46 46 57
REMARK Flexibility Score: inf
ROOT
ATOM      1  C   UNL     1       4.508  -4.365   4.455  1.00  0.00     0.021 C 
ENDROOT
BRANCH   1   2
ATOM      2  C   UNL     1       4.663  -3.542   3.184  1.00  0.00     0.116 C 
BRANCH   2   3
ATOM      3  N   UNL     1       5.097  -4.383   2.103  1.00  0.00    -0.354 N 
ATOM      4  C   UNL     1       4.344  -4.952   1.125  1.00  0.00     0.249 C 
ATOM      5  O   UNL     1       4.895  -5.780   0.394  1.00  0.00    -0.272 OA
ATOM      6  H   UNL     1       6.062  -4.572   2.066  1.00  0.00     0.163 HD
BRANCH   4   7
ATOM      7  C   UNL     1       2.853  -4.597   0.954  1.00  0.00     0.207 C 
ATOM      8  C   UNL     1       1.465  -2.967   1.971  1.00  0.00     0.134 C 
ATOM      9  C   UNL     1       1.195  -4.292   2.670  1.00  0.00     0.037 C 
ATOM     10  O   UNL     1       2.525  -3.210   1.039  1.00  0.00    -0.364 OA
ATOM     11  C   UNL     1       1.880  -5.349   1.834  1.00  0.00     0.045 C 
BRANCH   8  12
ATOM     12  C   UNL     1       0.230  -2.364   1.289  1.00  0.00     0.130 C 
BRANCH  12  13
ATOM     13  N   UNL     1       0.344  -0.924   0.940  1.00  0.00    -0.212 NA
ATOM     14  H   UNL     1      -0.526  -0.692   0.460  1.00  0.00     0.141 HD
BRANCH  13  15
ATOM     15  S   UNL     1       1.560  -0.248   0.009  1.00  0.00     0.225 S 
ATOM     16  O   UNL     1       2.846  -0.585   0.562  1.00  0.00    -0.211 OA
ATOM     17  O   UNL     1       1.187   1.156  -0.056  1.00  0.00    -0.211 OA
BRANCH  15  18
ATOM     18  C   UNL     1       1.367  -0.888  -1.646  1.00  0.00     0.273 C 
BRANCH  18  19
ATOM     19  C   UNL     1       1.464  -2.404  -1.588  1.00  0.00     0.080 C 
ATOM     20  N   UNL     1       1.544  -3.661  -1.540  1.00  0.00    -0.197 NA
ENDBRANCH  18  19
ENDBRANCH  15  18
ENDBRANCH  13  15
ENDBRANCH  12  13
ENDBRANCH   8  12
ENDBRANCH   4   7
ENDBRANCH   2   3
ENDBRANCH   1   2
BRANCH   1  21
ATOM     21  C   UNL     1       5.840  -4.554   5.179  1.00  0.00     0.002 C 
BRANCH  21  22
ATOM     22  C   UNL     1       6.510  -3.237   5.588  1.00  0.00     0.002 C 
BRANCH  22  23
ATOM     23  C   UNL     1       5.613  -2.301   6.405  1.00  0.00     0.021 C 
BRANCH  23  24
ATOM     24  C   UNL     1       5.098  -2.927   7.696  1.00  0.00     0.116 C 
BRANCH  24  25
ATOM     25  N   UNL     1       6.199  -3.351   8.546  1.00  0.00    -0.352 N 
ATOM     26  C   UNL     1       6.533  -2.935   9.805  1.00  0.00     0.251 C 
ATOM     27  H   UNL     1       6.789  -4.037   8.159  1.00  0.00     0.163 HD
ATOM     28  O   UNL     1       7.652  -3.162  10.255  1.00  0.00    -0.269 OA
BRANCH  26  29
ATOM     29  C   UNL     1       5.539  -2.214  10.621  1.00  0.00     0.039 A 
ATOM     30  C   UNL     1       5.960  -1.132  11.395  1.00  0.00     0.014 A 
ATOM     31  C   UNL     1       4.202  -2.625  10.644  1.00  0.00     0.014 A 
ATOM     32  C   UNL     1       5.029  -0.436  12.164  1.00  0.00     0.010 A 
ATOM     33  C   UNL     1       3.261  -1.879  11.344  1.00  0.00     0.010 A 
ATOM     34  C   UNL     1       3.668  -0.786  12.121  1.00  0.00    -0.014 A 
BRANCH  34  35
ATOM     35  C   UNL     1       2.666  -0.003  12.881  1.00  0.00     0.031 A 
ATOM     36  C   UNL     1       1.874  -0.640  13.987  1.00  0.00     0.074 A 
ATOM     37  C   UNL     1       2.440   1.278  12.538  1.00  0.00     0.049 A 
ATOM     38  N   UNL     1       0.962  -0.108  14.761  1.00  0.00    -0.248 NA
ATOM     39  C   UNL     1       2.116  -2.068  14.238  1.00  0.00     0.031 C 
ATOM     40  C   UNL     1       3.095   1.984  11.434  1.00  0.00     0.029 A 
ATOM     41  N   UNL     1       1.596   2.213  13.078  1.00  0.00    -0.354 N 
ATOM     42  C   UNL     1       0.522  -1.135  15.586  1.00  0.00     0.074 A 
ATOM     43  C   UNL     1       1.213  -2.335  15.169  1.00  0.00     0.031 C 
ATOM     44  C   UNL     1       2.649   3.248  11.397  1.00  0.00     0.029 A 
ATOM     45  C   UNL     1       1.653   3.431  12.448  1.00  0.00     0.049 A 
ATOM     46  H   UNL     1       1.006   2.029  13.844  1.00  0.00     0.167 HD
ATOM     47  C   UNL     1      -0.358  -1.077  16.615  1.00  0.00     0.037 A 
ATOM     48  C   UNL     1       0.975   4.569  12.686  1.00  0.00     0.037 A 
ATOM     49  C   UNL     1      -1.044   0.124  17.020  1.00  0.00     0.049 A 
ATOM     50  C   UNL     1       0.006   4.615  13.831  1.00  0.00     0.074 A 
ATOM     51  C   UNL     1      -1.911   0.306  18.084  1.00  0.00     0.029 A 
ATOM     52  N   UNL     1      -0.952   1.345  16.367  1.00  0.00    -0.354 N 
ATOM     53  N   UNL     1      -0.337   3.660  14.663  1.00  0.00    -0.248 NA
ATOM     54  C   UNL     1      -0.660   5.899  14.080  1.00  0.00     0.031 C 
ATOM     55  C   UNL     1      -2.389   1.621  18.037  1.00  0.00     0.029 A 
ATOM     56  C   UNL     1      -1.772   2.278  16.984  1.00  0.00     0.049 A 
ATOM     57  H   UNL     1      -0.387   1.524  15.581  1.00  0.00     0.167 HD
ATOM     58  C   UNL     1      -1.248   4.230  15.542  1.00  0.00     0.074 A 
ATOM     59  C   UNL     1      -1.381   5.621  15.157  1.00  0.00     0.031 C 
ATOM     60  C   UNL     1      -1.915   3.654  16.574  1.00  0.00     0.037 A 
BRANCH  47  61
ATOM     61  C   UNL     1      -0.631  -2.357  17.356  1.00  0.00     0.057 A 
ATOM     62  C   UNL     1       0.354  -2.995  18.125  1.00  0.00     0.134 A 
ATOM     63  C   UNL     1      -1.891  -2.966  17.296  1.00  0.00     0.134 A 
ATOM     64  F   UNL     1       1.587  -2.474  18.220  1.00  0.00    -0.206 F 
ATOM     65  C   UNL     1       0.110  -4.212  18.765  1.00  0.00     0.040 A 
ATOM     66  C   UNL     1      -2.157  -4.165  17.960  1.00  0.00     0.040 A 
ATOM     67  F   UNL     1      -2.884  -2.409  16.586  1.00  0.00    -0.206 F 
ATOM     68  C   UNL     1      -1.151  -4.798  18.686  1.00  0.00     0.006 A 
ENDBRANCH  47  61
BRANCH  48  69
ATOM     69  C   UNL     1       1.216   5.753  11.825  1.00  0.00     0.057 A 
ATOM     70  C   UNL     1       1.895   6.877  12.306  1.00  0.00     0.134 A 
ATOM     71  C   UNL     1       0.806   5.771  10.486  1.00  0.00     0.134 A 
ATOM     72  F   UNL     1       2.300   6.926  13.584  1.00  0.00    -0.206 F 
ATOM     73  C   UNL     1       2.150   7.981  11.491  1.00  0.00     0.040 A 
ATOM     74  C   UNL     1       1.077   6.855   9.652  1.00  0.00     0.040 A 
ATOM     75  F   UNL     1       0.161   4.717   9.961  1.00  0.00    -0.206 F 
ATOM     76  C   UNL     1       1.748   7.968  10.156  1.00  0.00     0.006 A 
ENDBRANCH  48  69
BRANCH  60  77
ATOM     77  C   UNL     1      -2.843   4.537  17.360  1.00  0.00     0.057 A 
ATOM     78  C   UNL     1      -4.036   5.031  16.813  1.00  0.00     0.134 A 
ATOM     79  C   UNL     1      -2.547   4.889  18.683  1.00  0.00     0.134 A 
ATOM     80  F   UNL     1      -4.375   4.743  15.547  1.00  0.00    -0.206 F 
ATOM     81  C   UNL     1      -4.879   5.873  17.541  1.00  0.00     0.040 A 
ATOM     82  C   UNL     1      -3.398   5.702  19.431  1.00  0.00     0.040 A 
ATOM     83  F   UNL     1      -1.428   4.442  19.273  1.00  0.00    -0.206 F 
ATOM     84  C   UNL     1      -4.563   6.206  18.857  1.00  0.00     0.006 A 
ENDBRANCH  60  77
ENDBRANCH  34  35
ENDBRANCH  26  29
ENDBRANCH  24  25
ENDBRANCH  23  24
ENDBRANCH  22  23
ENDBRANCH  21  22
ENDBRANCH   1  21
TORSDOF 18
