REMARK SMILES C[C@]12CC[C@H]3[C@@H](CCC4=CC(=O)C=C[C@@]43C)[C@@H]1CC[C@H]2O[C@@H]1O[C@H](C(=O)NCCCCCCNC(=O)c2ccc(-c3c4nc(c(-c5c(F)cccc5F)c5ccc([nH]5)c(-c5c(F)cccc5F)c5nc(c(-c6c(F)cccc6F)c6ccc3[nH]6)C=C5)C=C4)cc2)[C@@H](O)[C@H](O)[C@H]1O
REMARK SMILES IDX 30 1 29 2 28 3 27 4 25 5 26 6 24 8 22 9 23 10 95 11 93 12
REMARK SMILES IDX 91 13 21 14 20 15 1 16 2 17 3 18 17 19 4 20 6 21 18 22 19 23
REMARK SMILES IDX 5 24 7 25 15 26 8 27 9 28 14 29 16 30 10 31 13 32 11 33
REMARK SMILES IDX 12 34 96 35 94 37 92 39 31 41 32 42 33 43 34 44 35 45 36 47
REMARK SMILES IDX 37 48 38 49 90 50 39 51 89 52 40 53 41 54 42 55 83 56 43 57
REMARK SMILES IDX 88 58 82 59 84 60 44 61 87 62 81 63 80 64 45 66 71 67 54 68
REMARK SMILES IDX 70 69 55 70 58 71 69 72 85 73 56 74 57 75 68 77 86 78 59 79
REMARK SMILES IDX 46 80 47 81 52 82 48 83 49 84 51 85 53 86 50 87 72 88 73 89
REMARK SMILES IDX 78 90 74 91 75 92 77 93 79 94 76 95 60 96 61 97 66 98 62 99
REMARK SMILES IDX 63 100 65 101 67 102 64 103
REMARK H PARENT 27 7 96 36 94 38 92 40 34 46 84 65 58 76
REMARK Flexibility Score: inf
ROOT
ATOM      1  C   UNL     1       1.941  -6.970  -4.919  1.00  0.00     0.002 C 
ENDROOT
BRANCH   1   2
ATOM      2  C   UNL     1       2.075  -5.487  -4.175  1.00  0.00     0.021 C 
BRANCH   2   3
ATOM      3  C   UNL     1       2.728  -4.430  -2.469  1.00  0.00     0.116 C 
BRANCH   3   4
ATOM      4  N   UNL     1       4.042  -4.104  -1.766  1.00  0.00    -0.354 N 
ATOM      5  C   UNL     1       4.595  -2.960  -1.238  1.00  0.00     0.252 C 
ATOM      6  O   UNL     1       5.706  -3.094  -0.706  1.00  0.00    -0.272 OA
ATOM      7  H   UNL     1       4.626  -4.891  -1.668  1.00  0.00     0.163 HD
BRANCH   5   8
ATOM      8  C   UNL     1       3.934  -1.548  -1.258  1.00  0.00     0.241 C 
ATOM      9  C   UNL     1       3.165   0.327  -2.606  1.00  0.00     0.282 C 
ATOM     10  O   UNL     1       3.743  -0.985  -2.553  1.00  0.00    -0.334 OA
ATOM     11  C   UNL     1       1.945   0.540  -1.665  1.00  0.00     0.202 C 
ATOM     12  C   UNL     1       2.151  -0.102  -0.292  1.00  0.00     0.180 C 
ATOM     13  C   UNL     1       2.651  -1.541  -0.424  1.00  0.00     0.184 C 
BRANCH   9  14
ATOM     14  O   UNL     1       2.943   0.781  -3.961  1.00  0.00    -0.346 OA
BRANCH  14  15
ATOM     15  C   UNL     1       2.034   0.232  -4.934  1.00  0.00     0.127 C 
ATOM     16  C   UNL     1       1.529  -1.518  -6.729  1.00  0.00     0.014 C 
ATOM     17  C   UNL     1       2.265  -1.240  -5.375  1.00  0.00    -0.003 C 
ATOM     18  C   UNL     1       3.744  -1.654  -5.626  1.00  0.00     0.010 C 
ATOM     19  C   UNL     1       1.518  -1.907  -4.195  1.00  0.00     0.001 C 
ATOM     20  C   UNL     1       4.013  -3.187  -5.697  1.00  0.00     0.006 C 
ATOM     21  C   UNL     1       1.645  -3.398  -4.203  1.00  0.00    -0.003 C 
ATOM     22  C   UNL     1       0.166  -1.207  -4.140  1.00  0.00     0.007 C 
ATOM     23  C   UNL     1       0.528   0.248  -4.544  1.00  0.00     0.033 C 
ATOM     24  C   UNL     1       3.565  -3.795  -4.371  1.00  0.00     0.006 C 
ATOM     25  C   UNL     1       0.610  -4.368  -2.861  1.00  0.00     0.009 C 
ATOM     26  C   UNL     1       4.242  -5.550  -3.833  1.00  0.00     0.010 C 
ATOM     27  C   UNL     1       1.321  -6.096  -2.268  1.00  0.00     0.032 C 
ATOM     28  C   UNL     1       3.150  -6.571  -2.631  1.00  0.00    -0.056 C 
ATOM     29  C   UNL     1       5.654  -5.548  -3.198  1.00  0.00    -0.012 C 
ATOM     30  C   UNL     1       4.733  -6.367  -5.101  1.00  0.00     0.021 C 
ATOM     31  C   UNL     1       3.765  -7.416  -1.785  1.00  0.00     0.052 C 
ATOM     32  C   UNL     1       6.090  -6.480  -2.331  1.00  0.00     0.048 C 
ATOM     33  C   UNL     1       5.244  -7.551  -1.735  1.00  0.00     0.178 C 
ATOM     34  O   UNL     1       5.757  -8.470  -1.105  1.00  0.00    -0.290 OA
ENDBRANCH  14  15
ENDBRANCH   9  14
BRANCH  11  35
ATOM     35  O   UNL     1       1.606   1.926  -1.518  1.00  0.00    -0.385 OA
ATOM     36  H   UNL     1       2.338   2.394  -1.087  1.00  0.00     0.211 HD
ENDBRANCH  11  35
BRANCH  12  37
ATOM     37  O   UNL     1       0.931  -0.137   0.475  1.00  0.00    -0.387 OA
ATOM     38  H   UNL     1       0.277  -0.687   0.016  1.00  0.00     0.211 HD
ENDBRANCH  12  37
BRANCH  13  39
ATOM     39  O   UNL     1       2.870  -2.077   0.883  1.00  0.00    -0.387 OA
ATOM     40  H   UNL     1       3.525  -1.535   1.350  1.00  0.00     0.211 HD
ENDBRANCH  13  39
ENDBRANCH   5   8
ENDBRANCH   3   4
ENDBRANCH   2   3
ENDBRANCH   1   2
BRANCH   1  41
ATOM     41  C   UNL     1       0.932  -8.074  -4.623  1.00  0.00     0.002 C 
BRANCH  41  42
ATOM     42  C   UNL     1      -0.474  -7.785  -5.147  1.00  0.00     0.021 C 
BRANCH  42  43
ATOM     43  C   UNL     1      -0.552  -7.546  -6.659  1.00  0.00     0.116 C 
BRANCH  43  44
ATOM     44  N   UNL     1       0.203  -8.535  -7.428  1.00  0.00    -0.352 N 
ATOM     45  C   UNL     1      -0.195  -9.180  -8.568  1.00  0.00     0.251 C 
ATOM     46  H   UNL     1       1.099  -8.762  -7.087  1.00  0.00     0.163 HD
ATOM     47  O   UNL     1       0.426 -10.116  -9.056  1.00  0.00    -0.269 OA
BRANCH  45  48
ATOM     48  C   UNL     1      -1.399  -8.650  -9.205  1.00  0.00     0.039 A 
ATOM     49  C   UNL     1      -2.591  -9.367  -9.140  1.00  0.00     0.014 A 
ATOM     50  C   UNL     1      -1.345  -7.328  -9.657  1.00  0.00     0.014 A 
ATOM     51  C   UNL     1      -3.767  -8.732  -9.523  1.00  0.00     0.010 A 
ATOM     52  C   UNL     1      -2.526  -6.678  -9.958  1.00  0.00     0.010 A 
ATOM     53  C   UNL     1      -3.740  -7.382  -9.916  1.00  0.00    -0.014 A 
BRANCH  53  54
ATOM     54  C   UNL     1      -4.969  -6.698 -10.364  1.00  0.00     0.031 A 
ATOM     55  C   UNL     1      -5.067  -6.263 -11.797  1.00  0.00     0.074 A 
ATOM     56  C   UNL     1      -5.948  -6.431  -9.480  1.00  0.00     0.049 A 
ATOM     57  N   UNL     1      -6.027  -5.612 -12.398  1.00  0.00    -0.248 NA
ATOM     58  C   UNL     1      -3.912  -6.563 -12.661  1.00  0.00     0.031 C 
ATOM     59  C   UNL     1      -5.917  -6.758  -8.053  1.00  0.00     0.029 A 
ATOM     60  N   UNL     1      -7.161  -5.822  -9.656  1.00  0.00    -0.354 N 
ATOM     61  C   UNL     1      -5.583  -5.416 -13.699  1.00  0.00     0.074 A 
ATOM     62  C   UNL     1      -4.240  -5.941 -13.780  1.00  0.00     0.031 C 
ATOM     63  C   UNL     1      -7.075  -6.376  -7.490  1.00  0.00     0.029 A 
ATOM     64  C   UNL     1      -7.915  -5.755  -8.510  1.00  0.00     0.049 A 
ATOM     65  H   UNL     1      -7.465  -5.465 -10.522  1.00  0.00     0.167 HD
ATOM     66  C   UNL     1      -6.253  -4.882 -14.744  1.00  0.00     0.037 A 
ATOM     67  C   UNL     1      -9.149  -5.253  -8.318  1.00  0.00     0.037 A 
ATOM     68  C   UNL     1      -7.604  -4.402 -14.654  1.00  0.00     0.049 A 
ATOM     69  C   UNL     1      -9.882  -4.678  -9.500  1.00  0.00     0.074 A 
ATOM     70  C   UNL     1      -8.411  -3.900 -15.657  1.00  0.00     0.029 A 
ATOM     71  N   UNL     1      -8.347  -4.372 -13.482  1.00  0.00    -0.354 N 
ATOM     72  N   UNL     1      -9.484  -4.569 -10.746  1.00  0.00    -0.248 NA
ATOM     73  C   UNL     1     -11.235  -4.165  -9.253  1.00  0.00     0.031 C 
ATOM     74  C   UNL     1      -9.630  -3.527 -15.083  1.00  0.00     0.029 A 
ATOM     75  C   UNL     1      -9.598  -3.840 -13.732  1.00  0.00     0.049 A 
ATOM     76  H   UNL     1      -8.030  -4.683 -12.604  1.00  0.00     0.167 HD
ATOM     77  C   UNL     1     -10.545  -4.000 -11.437  1.00  0.00     0.074 A 
ATOM     78  C   UNL     1     -11.610  -3.804 -10.472  1.00  0.00     0.031 C 
ATOM     79  C   UNL     1     -10.636  -3.665 -12.747  1.00  0.00     0.037 A 
BRANCH  66  80
ATOM     80  C   UNL     1      -5.535  -4.808 -16.059  1.00  0.00     0.057 A 
ATOM     81  C   UNL     1      -5.210  -5.960 -16.790  1.00  0.00     0.134 A 
ATOM     82  C   UNL     1      -5.160  -3.573 -16.601  1.00  0.00     0.134 A 
ATOM     83  F   UNL     1      -5.521  -7.176 -16.317  1.00  0.00    -0.206 F 
ATOM     84  C   UNL     1      -4.512  -5.888 -17.997  1.00  0.00     0.040 A 
ATOM     85  C   UNL     1      -4.489  -3.486 -17.822  1.00  0.00     0.040 A 
ATOM     86  F   UNL     1      -5.437  -2.432 -15.953  1.00  0.00    -0.206 F 
ATOM     87  C   UNL     1      -4.155  -4.646 -18.519  1.00  0.00     0.006 A 
ENDBRANCH  66  80
BRANCH  67  88
ATOM     88  C   UNL     1      -9.780  -5.309  -6.975  1.00  0.00     0.057 A 
ATOM     89  C   UNL     1     -10.872  -6.149  -6.724  1.00  0.00     0.134 A 
ATOM     90  C   UNL     1      -9.314  -4.527  -5.912  1.00  0.00     0.134 A 
ATOM     91  F   UNL     1     -11.373  -6.915  -7.705  1.00  0.00    -0.206 F 
ATOM     92  C   UNL     1     -11.492  -6.192  -5.474  1.00  0.00     0.040 A 
ATOM     93  C   UNL     1      -9.909  -4.577  -4.649  1.00  0.00     0.040 A 
ATOM     94  F   UNL     1      -8.263  -3.710  -6.081  1.00  0.00    -0.206 F 
ATOM     95  C   UNL     1     -11.007  -5.406  -4.431  1.00  0.00     0.006 A 
ENDBRANCH  67  88
BRANCH  79  96
ATOM     96  C   UNL     1     -11.934  -3.078 -13.213  1.00  0.00     0.057 A 
ATOM     97  C   UNL     1     -12.314  -1.773 -12.879  1.00  0.00     0.134 A 
ATOM     98  C   UNL     1     -12.786  -3.810 -14.051  1.00  0.00     0.134 A 
ATOM     99  F   UNL     1     -11.545  -1.027 -12.071  1.00  0.00    -0.206 F 
ATOM    100  C   UNL     1     -13.508  -1.223 -13.344  1.00  0.00     0.040 A 
ATOM    101  C   UNL     1     -13.967  -3.260 -14.546  1.00  0.00     0.040 A 
ATOM    102  F   UNL     1     -12.471  -5.062 -14.417  1.00  0.00    -0.206 F 
ATOM    103  C   UNL     1     -14.334  -1.964 -14.187  1.00  0.00     0.006 A 
ENDBRANCH  79  96
ENDBRANCH  53  54
ENDBRANCH  45  48
ENDBRANCH  43  44
ENDBRANCH  42  43
ENDBRANCH  41  42
ENDBRANCH   1  41
TORSDOF 18
