REMARK SMILES CC(C)C[C@H](NC(=O)[C@@H](NC(=O)[C@H](C)NC(=O)CNC(=O)OCc1ccccc1)C(C)C)C(=O)NCCCCCCNC(=O)c1ccc(-c2c3nc(c(-c4c(F)cccc4F)c4ccc([nH]4)c(-c4c(F)cccc4F)c4nc(c(-c5c(F)cccc5F)c5ccc2[nH]5)C=C4)C=C3)cc1
REMARK SMILES IDX 33 1 34 2 35 3 5 5 4 6 2 7 1 8 3 9 6 10 7 11 8 13 9 14 10 15
REMARK SMILES IDX 11 16 12 18 13 19 14 20 15 21 16 22 17 24 18 25 19 26 20 27
REMARK SMILES IDX 21 29 22 30 23 31 24 32 25 33 29 34 26 35 28 36 27 37 30 38
REMARK SMILES IDX 31 39 32 40 36 41 37 42 38 43 39 44 40 45 41 46 42 47 43 48
REMARK SMILES IDX 44 50 45 51 46 52 98 53 47 54 97 55 48 56 49 57 50 58 91 59
REMARK SMILES IDX 51 60 96 61 90 62 92 63 52 64 95 65 89 66 88 67 53 69 79 70
REMARK SMILES IDX 62 71 78 72 63 73 66 74 77 75 93 76 64 77 65 78 76 80 94 81
REMARK SMILES IDX 67 82 54 83 55 84 60 85 56 86 57 87 59 88 61 89 58 90 80 91
REMARK SMILES IDX 81 92 86 93 82 94 83 95 85 96 87 97 84 98 68 99 69 100
REMARK SMILES IDX 74 101 70 102 71 103 73 104 75 105 72 106
REMARK H PARENT 35 4 6 12 10 17 15 23 19 28 42 49 92 68 66 79
REMARK Flexibility Score: inf
ROOT
ATOM      1  C   UNL     1      -5.056   2.728   1.585  1.00  0.00     0.242 C 
ATOM      2  O   UNL     1      -5.969   2.222   0.923  1.00  0.00    -0.273 OA
ATOM      3  N   UNL     1      -3.833   2.804   0.984  1.00  0.00    -0.354 N 
ATOM      4  H   UNL     1      -3.919   2.667   0.013  1.00  0.00     0.163 HD
ENDROOT
BRANCH   1   5
ATOM      5  C   UNL     1      -5.344   3.332   2.949  1.00  0.00     0.171 C 
BRANCH   5   6
ATOM      6  C   UNL     1      -5.111   4.866   3.068  1.00  0.00     0.038 C 
BRANCH   6   7
ATOM      7  C   UNL     1      -4.501   5.550   1.819  1.00  0.00    -0.015 C 
ATOM      8  C   UNL     1      -5.453   5.619   0.619  1.00  0.00     0.007 C 
ATOM      9  C   UNL     1      -3.720   6.830   2.083  1.00  0.00     0.007 C 
ENDBRANCH   6   7
ENDBRANCH   5   6
BRANCH   5  10
ATOM     10  N   UNL     1      -5.049   2.487   4.101  1.00  0.00    -0.343 N 
ATOM     11  C   UNL     1      -4.106   1.534   4.324  1.00  0.00     0.243 C 
ATOM     12  H   UNL     1      -5.649   2.637   4.866  1.00  0.00     0.164 HD
ATOM     13  O   UNL     1      -4.239   0.844   5.341  1.00  0.00    -0.273 OA
BRANCH  11  14
ATOM     14  C   UNL     1      -2.819   1.415   3.473  1.00  0.00     0.174 C 
BRANCH  14  15
ATOM     15  N   UNL     1      -3.086   0.620   1.935  1.00  0.00    -0.342 N 
ATOM     16  C   UNL     1      -3.142   0.478   0.495  1.00  0.00     0.242 C 
ATOM     17  H   UNL     1      -3.370  -0.276   2.228  1.00  0.00     0.164 HD
ATOM     18  O   UNL     1      -3.542  -0.668   0.183  1.00  0.00    -0.273 OA
BRANCH  16  19
ATOM     19  C   UNL     1      -2.796   1.523  -0.997  1.00  0.00     0.168 C 
ATOM     20  C   UNL     1      -1.986   0.769  -2.076  1.00  0.00     0.041 C 
BRANCH  19  21
ATOM     21  N   UNL     1      -2.172   2.942  -1.115  1.00  0.00    -0.343 N 
ATOM     22  C   UNL     1      -2.479   4.260  -1.339  1.00  0.00     0.240 C 
ATOM     23  H   UNL     1      -1.200   2.867  -0.978  1.00  0.00     0.164 HD
ATOM     24  O   UNL     1      -1.631   5.087  -0.955  1.00  0.00    -0.273 OA
BRANCH  22  25
ATOM     25  C   UNL     1      -3.608   4.779  -2.201  1.00  0.00     0.219 C 
BRANCH  25  26
ATOM     26  N   UNL     1      -2.863   4.982  -3.427  1.00  0.00    -0.312 N 
ATOM     27  C   UNL     1      -2.637   3.915  -4.214  1.00  0.00     0.407 C 
ATOM     28  H   UNL     1      -2.532   5.875  -3.677  1.00  0.00     0.167 HD
ATOM     29  O   UNL     1      -1.620   3.806  -4.927  1.00  0.00    -0.225 OA
BRANCH  27  30
ATOM     30  O   UNL     1      -3.657   3.048  -4.130  1.00  0.00    -0.445 OA
BRANCH  30  31
ATOM     31  C   UNL     1      -3.751   2.035  -5.123  1.00  0.00     0.270 C 
BRANCH  31  32
ATOM     32  C   UNL     1      -3.850   2.601  -6.511  1.00  0.00    -0.011 A 
ATOM     33  C   UNL     1      -4.207   3.937  -6.761  1.00  0.00     0.007 A 
ATOM     34  C   UNL     1      -3.471   1.780  -7.574  1.00  0.00     0.007 A 
ATOM     35  C   UNL     1      -4.055   4.475  -8.032  1.00  0.00     0.000 A 
ATOM     36  C   UNL     1      -3.359   2.310  -8.853  1.00  0.00     0.000 A 
ATOM     37  C   UNL     1      -3.622   3.662  -9.075  1.00  0.00     0.000 A 
ENDBRANCH  31  32
ENDBRANCH  30  31
ENDBRANCH  27  30
ENDBRANCH  25  26
ENDBRANCH  22  25
ENDBRANCH  19  21
ENDBRANCH  16  19
ENDBRANCH  14  15
BRANCH  14  38
ATOM     38  C   UNL     1      -1.914   2.808   4.133  1.00  0.00     0.015 C 
ATOM     39  C   UNL     1      -1.447   2.511   5.575  1.00  0.00     0.010 C 
ATOM     40  C   UNL     1      -0.689   3.650   3.602  1.00  0.00     0.010 C 
ENDBRANCH  14  38
ENDBRANCH  11  14
ENDBRANCH   5  10
ENDBRANCH   1   5
BRANCH   3  41
ATOM     41  C   UNL     1      -2.380   3.036   1.360  1.00  0.00     0.116 C 
BRANCH  41  42
ATOM     42  C   UNL     1      -0.988   1.972   1.411  1.00  0.00     0.021 C 
BRANCH  42  43
ATOM     43  C   UNL     1      -0.324   0.816   0.592  1.00  0.00     0.002 C 
BRANCH  43  44
ATOM     44  C   UNL     1       1.053   1.171   0.006  1.00  0.00     0.002 C 
BRANCH  44  45
ATOM     45  C   UNL     1       2.074   1.651   1.043  1.00  0.00     0.021 C 
BRANCH  45  46
ATOM     46  C   UNL     1       2.236   0.714   2.236  1.00  0.00     0.116 C 
BRANCH  46  47
ATOM     47  N   UNL     1       2.976  -0.478   1.859  1.00  0.00    -0.352 N 
ATOM     48  C   UNL     1       4.337  -0.660   1.903  1.00  0.00     0.251 C 
ATOM     49  H   UNL     1       2.442  -1.240   1.535  1.00  0.00     0.163 HD
ATOM     50  O   UNL     1       4.877  -1.532   1.232  1.00  0.00    -0.269 OA
BRANCH  48  51
ATOM     51  C   UNL     1       5.145   0.217   2.775  1.00  0.00     0.039 A 
ATOM     52  C   UNL     1       6.326   0.780   2.290  1.00  0.00     0.014 A 
ATOM     53  C   UNL     1       4.726   0.470   4.085  1.00  0.00     0.014 A 
ATOM     54  C   UNL     1       7.074   1.622   3.116  1.00  0.00     0.010 A 
ATOM     55  C   UNL     1       5.417   1.384   4.868  1.00  0.00     0.010 A 
ATOM     56  C   UNL     1       6.617   1.944   4.406  1.00  0.00    -0.014 A 
BRANCH  56  57
ATOM     57  C   UNL     1       7.407   2.811   5.315  1.00  0.00     0.031 A 
ATOM     58  C   UNL     1       7.921   2.250   6.616  1.00  0.00     0.074 A 
ATOM     59  C   UNL     1       7.610   4.106   5.006  1.00  0.00     0.049 A 
ATOM     60  N   UNL     1       8.567   2.854   7.581  1.00  0.00    -0.248 NA
ATOM     61  C   UNL     1       7.642   0.829   6.884  1.00  0.00     0.031 C 
ATOM     62  C   UNL     1       7.118   4.777   3.801  1.00  0.00     0.029 A 
ATOM     63  N   UNL     1       8.277   5.093   5.686  1.00  0.00    -0.354 N 
ATOM     64  C   UNL     1       8.744   1.896   8.573  1.00  0.00     0.074 A 
ATOM     65  C   UNL     1       8.088   0.691   8.123  1.00  0.00     0.031 C 
ATOM     66  C   UNL     1       7.525   6.057   3.813  1.00  0.00     0.029 A 
ATOM     67  C   UNL     1       8.269   6.308   5.043  1.00  0.00     0.049 A 
ATOM     68  H   UNL     1       8.720   4.945   6.552  1.00  0.00     0.167 HD
ATOM     69  C   UNL     1       9.417   2.004   9.743  1.00  0.00     0.037 A 
ATOM     70  C   UNL     1       8.799   7.490   5.411  1.00  0.00     0.037 A 
ATOM     71  C   UNL     1      10.105   3.194  10.164  1.00  0.00     0.049 A 
ATOM     72  C   UNL     1       9.549   7.580   6.713  1.00  0.00     0.074 A 
ATOM     73  C   UNL     1      10.885   3.385  11.291  1.00  0.00     0.029 A 
ATOM     74  N   UNL     1      10.095   4.397   9.474  1.00  0.00    -0.354 N 
ATOM     75  N   UNL     1       9.779   6.644   7.602  1.00  0.00    -0.248 NA
ATOM     76  C   UNL     1      10.119   8.890   7.059  1.00  0.00     0.031 C 
ATOM     77  C   UNL     1      11.301   4.720  11.311  1.00  0.00     0.029 A 
ATOM     78  C   UNL     1      10.830   5.343  10.166  1.00  0.00     0.049 A 
ATOM     79  H   UNL     1       9.633   4.554   8.619  1.00  0.00     0.167 HD
ATOM     80  C   UNL     1      10.547   7.242   8.594  1.00  0.00     0.074 A 
ATOM     81  C   UNL     1      10.756   8.616   8.188  1.00  0.00     0.031 C 
ATOM     82  C   UNL     1      11.036   6.703   9.738  1.00  0.00     0.037 A 
BRANCH  69  83
ATOM     83  C   UNL     1       9.444   0.805  10.648  1.00  0.00     0.057 A 
ATOM     84  C   UNL     1      10.147  -0.362  10.317  1.00  0.00     0.134 A 
ATOM     85  C   UNL     1       8.790   0.832  11.886  1.00  0.00     0.134 A 
ATOM     86  F   UNL     1      10.786  -0.461   9.141  1.00  0.00    -0.206 F 
ATOM     87  C   UNL     1      10.175  -1.466  11.171  1.00  0.00     0.040 A 
ATOM     88  C   UNL     1       8.837  -0.253  12.763  1.00  0.00     0.040 A 
ATOM     89  F   UNL     1       8.102   1.919  12.270  1.00  0.00    -0.206 F 
ATOM     90  C   UNL     1       9.526  -1.410  12.403  1.00  0.00     0.006 A 
ENDBRANCH  69  83
BRANCH  70  91
ATOM     91  C   UNL     1       8.660   8.681   4.532  1.00  0.00     0.057 A 
ATOM     92  C   UNL     1       9.773   9.243   3.894  1.00  0.00     0.134 A 
ATOM     93  C   UNL     1       7.421   9.300   4.325  1.00  0.00     0.134 A 
ATOM     94  F   UNL     1      10.991   8.708   4.065  1.00  0.00    -0.206 F 
ATOM     95  C   UNL     1       9.665  10.392   3.109  1.00  0.00     0.040 A 
ATOM     96  C   UNL     1       7.293  10.432   3.519  1.00  0.00     0.040 A 
ATOM     97  F   UNL     1       6.314   8.807   4.899  1.00  0.00    -0.206 F 
ATOM     98  C   UNL     1       8.420  10.988   2.916  1.00  0.00     0.006 A 
ENDBRANCH  70  91
BRANCH  82  99
ATOM     99  C   UNL     1      11.878   7.588  10.610  1.00  0.00     0.057 A 
ATOM    100  C   UNL     1      11.329   8.644  11.347  1.00  0.00     0.134 A 
ATOM    101  C   UNL     1      13.252   7.350  10.746  1.00  0.00     0.134 A 
ATOM    102  F   UNL     1      10.021   8.932  11.253  1.00  0.00    -0.206 F 
ATOM    103  C   UNL     1      12.120   9.448  12.169  1.00  0.00     0.040 A 
ATOM    104  C   UNL     1      14.048   8.127  11.588  1.00  0.00     0.040 A 
ATOM    105  F   UNL     1      13.840   6.347  10.077  1.00  0.00    -0.206 F 
ATOM    106  C   UNL     1      13.483   9.185  12.297  1.00  0.00     0.006 A 
ENDBRANCH  82  99
ENDBRANCH  56  57
ENDBRANCH  48  51
ENDBRANCH  46  47
ENDBRANCH  45  46
ENDBRANCH  44  45
ENDBRANCH  43  44
ENDBRANCH  42  43
ENDBRANCH  41  42
ENDBRANCH   3  41
TORSDOF 26
