REMARK SMILES CCCOc1ccccc1O[C@@H]1CC[C@@]([NH3+])(C(=O)NCCCCCCNC(=O)c2ccc(-c3c4nc(c(-c5c(F)cccc5F)c5ccc([nH]5)c(-c5c(F)cccc5F)c5nc(c(-c6c(F)cccc6F)c6ccc3[nH]6)C=C5)C=C4)cc2)C1
REMARK SMILES IDX 21 1 20 2 19 3 17 4 18 5 15 7 12 8 13 9 83 10 14 11 11 12
REMARK SMILES IDX 10 13 5 14 6 15 7 16 9 17 8 18 4 19 3 20 2 21 1 22 16 23
REMARK SMILES IDX 22 27 23 28 24 29 25 30 26 31 27 32 28 34 29 35 30 36 82 37
REMARK SMILES IDX 31 38 81 39 32 40 33 41 34 42 75 43 35 44 80 45 74 46 76 47
REMARK SMILES IDX 36 48 79 49 73 50 72 51 37 53 63 54 46 55 62 56 47 57 50 58
REMARK SMILES IDX 61 59 77 60 48 61 49 62 60 64 78 65 51 66 38 67 39 68 44 69
REMARK SMILES IDX 40 70 41 71 43 72 45 73 42 74 64 75 65 76 70 77 66 78 67 79
REMARK SMILES IDX 69 80 71 81 68 82 52 83 53 84 58 85 54 86 55 87 57 88 59 89
REMARK SMILES IDX 56 90
REMARK H PARENT 19 6 16 24 16 25 16 26 26 33 76 52 50 63
REMARK Flexibility Score: inf
ROOT
ATOM      1  C   UNL     1      -0.895  -6.633  -0.939  1.00  0.00     0.021 C 
ENDROOT
BRANCH   1   2
ATOM      2  C   UNL     1       0.534  -6.293  -0.496  1.00  0.00     0.116 C 
BRANCH   2   3
ATOM      3  N   UNL     1       1.258  -5.414  -1.411  1.00  0.00    -0.351 N 
ATOM      4  C   UNL     1       1.860  -4.196  -1.150  1.00  0.00     0.281 C 
ATOM      5  O   UNL     1       2.696  -3.752  -1.936  1.00  0.00    -0.268 OA
ATOM      6  H   UNL     1       1.327  -5.732  -2.341  1.00  0.00     0.163 HD
BRANCH   4   7
ATOM      7  C   UNL     1       1.450  -3.414   0.210  1.00  0.00     0.177 C 
ATOM      8  C   UNL     1       0.246  -0.366   0.560  1.00  0.00     0.180 C 
ATOM      9  C   UNL     1      -1.290  -1.662   0.672  1.00  0.00     0.052 C 
ATOM     10  C   UNL     1       1.967  -1.455   0.350  1.00  0.00     0.124 C 
ATOM     11  C   UNL     1      -0.564  -3.479   0.295  1.00  0.00     0.083 C 
BRANCH   8  12
ATOM     12  O   UNL     1       0.259   0.871   1.243  1.00  0.00    -0.486 OA
BRANCH  12  13
ATOM     13  C   UNL     1       0.686   0.817   2.512  1.00  0.00     0.161 A 
ATOM     14  C   UNL     1       0.623  -0.355   3.229  1.00  0.00     0.161 A 
ATOM     15  C   UNL     1       1.029  -0.370   4.557  1.00  0.00     0.050 A 
ATOM     16  C   UNL     1       1.483   0.818   5.151  1.00  0.00     0.004 A 
ATOM     17  C   UNL     1       1.086   2.011   3.100  1.00  0.00     0.050 A 
ATOM     18  C   UNL     1       1.488   2.014   4.429  1.00  0.00     0.004 A 
BRANCH  14  19
ATOM     19  O   UNL     1      -0.103  -1.368   2.680  1.00  0.00    -0.490 OA
BRANCH  19  20
ATOM     20  C   UNL     1       0.493  -2.131   1.506  1.00  0.00     0.229 C 
BRANCH  20  21
ATOM     21  C   UNL     1       0.308  -1.900  -0.656  1.00  0.00     0.038 C 
ATOM     22  C   UNL     1       1.070  -0.837  -1.828  1.00  0.00     0.007 C 
ENDBRANCH  20  21
ENDBRANCH  19  20
ENDBRANCH  14  19
ENDBRANCH  12  13
ENDBRANCH   8  12
BRANCH   7  23
ATOM     23  N   UNL     1       2.191  -4.268   1.205  1.00  0.00    -0.345 N 
ATOM     24  H   UNL     1       1.902  -5.241   1.100  1.00  0.00     0.345 HD
ATOM     25  H   UNL     1       1.979  -3.950   2.151  1.00  0.00     0.345 HD
ATOM     26  H   UNL     1       3.194  -4.192   1.037  1.00  0.00     0.345 HD
ENDBRANCH   7  23
ENDBRANCH   4   7
ENDBRANCH   2   3
ENDBRANCH   1   2
BRANCH   1  27
ATOM     27  C   UNL     1      -0.997  -7.441  -2.231  1.00  0.00     0.002 C 
BRANCH  27  28
ATOM     28  C   UNL     1      -0.228  -8.761  -2.212  1.00  0.00     0.002 C 
BRANCH  28  29
ATOM     29  C   UNL     1      -0.614  -9.707  -1.072  1.00  0.00     0.021 C 
BRANCH  29  30
ATOM     30  C   UNL     1      -2.083 -10.113  -1.063  1.00  0.00     0.116 C 
BRANCH  30  31
ATOM     31  N   UNL     1      -2.452 -10.816  -2.281  1.00  0.00    -0.352 N 
ATOM     32  C   UNL     1      -3.003 -12.061  -2.432  1.00  0.00     0.251 C 
ATOM     33  H   UNL     1      -2.281 -10.327  -3.118  1.00  0.00     0.163 HD
ATOM     34  O   UNL     1      -3.015 -12.599  -3.535  1.00  0.00    -0.269 OA
BRANCH  32  35
ATOM     35  C   UNL     1      -3.582 -12.758  -1.265  1.00  0.00     0.039 A 
ATOM     36  C   UNL     1      -3.398 -14.136  -1.143  1.00  0.00     0.014 A 
ATOM     37  C   UNL     1      -4.335 -12.063  -0.313  1.00  0.00     0.014 A 
ATOM     38  C   UNL     1      -3.952 -14.811  -0.057  1.00  0.00     0.010 A 
ATOM     39  C   UNL     1      -4.798 -12.720   0.821  1.00  0.00     0.010 A 
ATOM     40  C   UNL     1      -4.642 -14.107   0.945  1.00  0.00    -0.014 A 
BRANCH  40  41
ATOM     41  C   UNL     1      -5.242 -14.823   2.098  1.00  0.00     0.031 A 
ATOM     42  C   UNL     1      -6.733 -14.802   2.310  1.00  0.00     0.074 A 
ATOM     43  C   UNL     1      -4.446 -15.484   2.960  1.00  0.00     0.049 A 
ATOM     44  N   UNL     1      -7.443 -15.381   3.245  1.00  0.00    -0.248 NA
ATOM     45  C   UNL     1      -7.531 -14.007   1.362  1.00  0.00     0.031 C 
ATOM     46  C   UNL     1      -2.985 -15.542   2.887  1.00  0.00     0.029 A 
ATOM     47  N   UNL     1      -4.754 -16.242   4.061  1.00  0.00    -0.354 N 
ATOM     48  C   UNL     1      -8.762 -15.019   2.998  1.00  0.00     0.074 A 
ATOM     49  C   UNL     1      -8.747 -14.110   1.874  1.00  0.00     0.031 C 
ATOM     50  C   UNL     1      -2.527 -16.331   3.872  1.00  0.00     0.029 A 
ATOM     51  C   UNL     1      -3.655 -16.796   4.672  1.00  0.00     0.049 A 
ATOM     52  H   UNL     1      -5.675 -16.376   4.382  1.00  0.00     0.167 HD
ATOM     53  C   UNL     1      -9.887 -15.430   3.629  1.00  0.00     0.037 A 
ATOM     54  C   UNL     1      -3.569 -17.589   5.756  1.00  0.00     0.037 A 
ATOM     55  C   UNL     1      -9.898 -16.338   4.746  1.00  0.00     0.049 A 
ATOM     56  C   UNL     1      -4.833 -18.004   6.459  1.00  0.00     0.074 A 
ATOM     57  C   UNL     1     -10.985 -16.845   5.434  1.00  0.00     0.029 A 
ATOM     58  N   UNL     1      -8.763 -16.867   5.344  1.00  0.00    -0.354 N 
ATOM     59  N   UNL     1      -6.078 -17.706   6.175  1.00  0.00    -0.248 NA
ATOM     60  C   UNL     1      -4.677 -18.882   7.626  1.00  0.00     0.031 C 
ATOM     61  C   UNL     1     -10.507 -17.625   6.492  1.00  0.00     0.029 A 
ATOM     62  C   UNL     1      -9.125 -17.675   6.410  1.00  0.00     0.049 A 
ATOM     63  H   UNL     1      -7.838 -16.695   5.054  1.00  0.00     0.167 HD
ATOM     64  C   UNL     1      -6.855 -18.394   7.100  1.00  0.00     0.074 A 
ATOM     65  C   UNL     1      -5.939 -19.135   7.941  1.00  0.00     0.031 C 
ATOM     66  C   UNL     1      -8.204 -18.415   7.236  1.00  0.00     0.037 A 
BRANCH  53  67
ATOM     67  C   UNL     1     -11.200 -14.892   3.128  1.00  0.00     0.057 A 
ATOM     68  C   UNL     1     -11.708 -15.227   1.865  1.00  0.00     0.134 A 
ATOM     69  C   UNL     1     -11.981 -14.052   3.931  1.00  0.00     0.134 A 
ATOM     70  F   UNL     1     -11.008 -16.018   1.037  1.00  0.00    -0.206 F 
ATOM     71  C   UNL     1     -12.926 -14.720   1.407  1.00  0.00     0.040 A 
ATOM     72  C   UNL     1     -13.217 -13.568   3.499  1.00  0.00     0.040 A 
ATOM     73  F   UNL     1     -11.562 -13.694   5.154  1.00  0.00    -0.206 F 
ATOM     74  C   UNL     1     -13.688 -13.894   2.229  1.00  0.00     0.006 A 
ENDBRANCH  53  67
BRANCH  54  75
ATOM     75  C   UNL     1      -2.243 -18.061   6.235  1.00  0.00     0.057 A 
ATOM     76  C   UNL     1      -1.894 -19.417   6.191  1.00  0.00     0.134 A 
ATOM     77  C   UNL     1      -1.304 -17.174   6.775  1.00  0.00     0.134 A 
ATOM     78  F   UNL     1      -2.755 -20.320   5.698  1.00  0.00    -0.206 F 
ATOM     79  C   UNL     1      -0.678 -19.877   6.698  1.00  0.00     0.040 A 
ATOM     80  C   UNL     1      -0.070 -17.615   7.254  1.00  0.00     0.040 A 
ATOM     81  F   UNL     1      -1.570 -15.861   6.837  1.00  0.00    -0.206 F 
ATOM     82  C   UNL     1       0.240 -18.973   7.229  1.00  0.00     0.006 A 
ENDBRANCH  54  75
BRANCH  66  83
ATOM     83  C   UNL     1      -8.774 -19.324   8.291  1.00  0.00     0.057 A 
ATOM     84  C   UNL     1      -8.581 -19.102   9.661  1.00  0.00     0.134 A 
ATOM     85  C   UNL     1      -9.536 -20.441   7.922  1.00  0.00     0.134 A 
ATOM     86  F   UNL     1      -7.857 -18.056  10.087  1.00  0.00    -0.206 F 
ATOM     87  C   UNL     1      -9.080 -19.985  10.621  1.00  0.00     0.040 A 
ATOM     88  C   UNL     1     -10.076 -21.307   8.874  1.00  0.00     0.040 A 
ATOM     89  F   UNL     1      -9.777 -20.707   6.629  1.00  0.00    -0.206 F 
ATOM     90  C   UNL     1      -9.835 -21.089  10.228  1.00  0.00     0.006 A 
ENDBRANCH  66  83
ENDBRANCH  40  41
ENDBRANCH  32  35
ENDBRANCH  30  31
ENDBRANCH  29  30
ENDBRANCH  28  29
ENDBRANCH  27  28
ENDBRANCH   1  27
TORSDOF 19
