REMARK SMILES CC1=Nc2c(c(C)nn2-c2ccc(F)cc2)[C@H](c2ccc(C(=O)NCCCCCCNC(=O)c3ccc(-c4c5nc(c(-c6c(F)cccc6F)c6ccc([nH]6)c(-c6c(F)cccc6F)c6nc(c(-c7c(F)cccc7F)c7ccc4[nH]7)C=C6)C=C5)cc3)cc2)S1
REMARK SMILES IDX 27 1 26 2 25 3 24 4 22 5 23 6 21 8 18 9 19 10 89 11 20 12
REMARK SMILES IDX 88 13 17 14 1 15 2 16 3 17 90 18 4 19 5 20 9 21 6 22 8 23
REMARK SMILES IDX 7 24 10 25 11 26 16 27 12 28 15 29 13 30 14 31 28 32 29 33
REMARK SMILES IDX 30 34 31 35 32 36 33 38 34 39 35 40 87 41 36 42 86 43 37 44
REMARK SMILES IDX 38 45 39 46 80 47 40 48 85 49 79 50 81 51 41 52 84 53 78 54
REMARK SMILES IDX 77 55 42 57 68 58 51 59 67 60 52 61 55 62 66 63 82 64 53 65
REMARK SMILES IDX 54 66 65 68 83 69 56 70 43 71 44 72 49 73 45 74 46 75 48 76
REMARK SMILES IDX 50 77 47 78 69 79 70 80 75 81 71 82 72 83 74 84 76 85 73 86
REMARK SMILES IDX 57 87 58 88 63 89 59 90 60 91 62 92 64 93 61 94
REMARK H PARENT 24 7 31 37 81 56 55 67
REMARK Flexibility Score: inf
ROOT
ATOM      1  C   UNL     1      -5.649  -6.351   3.079  1.00  0.00     0.002 C 
ENDROOT
BRANCH   1   2
ATOM      2  C   UNL     1      -4.612  -5.453   2.389  1.00  0.00     0.021 C 
BRANCH   2   3
ATOM      3  C   UNL     1      -3.380  -6.221   1.909  1.00  0.00     0.116 C 
BRANCH   3   4
ATOM      4  N   UNL     1      -3.723  -7.004   0.740  1.00  0.00    -0.352 N 
ATOM      5  C   UNL     1      -3.392  -6.872  -0.580  1.00  0.00     0.251 C 
ATOM      6  O   UNL     1      -3.873  -7.670  -1.384  1.00  0.00    -0.269 OA
ATOM      7  H   UNL     1      -4.304  -7.775   0.931  1.00  0.00     0.163 HD
BRANCH   5   8
ATOM      8  C   UNL     1      -2.408  -5.870  -1.057  1.00  0.00     0.039 A 
ATOM      9  C   UNL     1      -0.389  -4.143  -2.025  1.00  0.00    -0.030 A 
ATOM     10  C   UNL     1      -0.550  -5.435  -2.552  1.00  0.00     0.006 A 
ATOM     11  C   UNL     1      -1.287  -3.720  -1.029  1.00  0.00     0.006 A 
ATOM     12  C   UNL     1      -1.553  -6.281  -2.083  1.00  0.00     0.014 A 
ATOM     13  C   UNL     1      -2.301  -4.567  -0.566  1.00  0.00     0.014 A 
BRANCH   9  14
ATOM     14  C   UNL     1       0.686  -3.241  -2.615  1.00  0.00     0.119 C 
ATOM     15  C   UNL     1       1.071   0.017  -0.072  1.00  0.00     0.075 C 
ATOM     16  C   UNL     1       0.832  -0.781  -1.327  1.00  0.00     0.074 C 
ATOM     17  N   UNL     1       0.063  -0.269  -2.235  1.00  0.00    -0.227 NA
ATOM     18  S   UNL     1       1.655  -2.333  -1.372  1.00  0.00    -0.098 SA
ATOM     19  C   UNL     1      -0.229  -1.012  -3.330  1.00  0.00     0.161 A 
ATOM     20  C   UNL     1      -0.022  -2.351  -3.562  1.00  0.00     0.038 A 
ATOM     21  N   UNL     1      -0.944  -0.537  -4.418  1.00  0.00    -0.215 N 
ATOM     22  C   UNL     1      -0.651  -2.610  -4.809  1.00  0.00     0.067 A 
ATOM     23  N   UNL     1      -1.301  -1.533  -5.266  1.00  0.00    -0.171 NA
ATOM     24  C   UNL     1      -0.705  -3.878  -5.580  1.00  0.00     0.069 C 
BRANCH  21  25
ATOM     25  C   UNL     1      -1.295   0.806  -4.683  1.00  0.00     0.067 A 
ATOM     26  C   UNL     1      -0.368   1.827  -4.425  1.00  0.00     0.031 A 
ATOM     27  C   UNL     1      -2.566   1.103  -5.190  1.00  0.00     0.031 A 
ATOM     28  C   UNL     1      -0.721   3.153  -4.664  1.00  0.00     0.041 A 
ATOM     29  C   UNL     1      -2.928   2.438  -5.375  1.00  0.00     0.041 A 
ATOM     30  C   UNL     1      -2.003   3.447  -5.116  1.00  0.00     0.123 A 
ATOM     31  F   UNL     1      -2.353   4.726  -5.303  1.00  0.00    -0.207 F 
ENDBRANCH  21  25
ENDBRANCH   9  14
ENDBRANCH   5   8
ENDBRANCH   3   4
ENDBRANCH   2   3
ENDBRANCH   1   2
BRANCH   1  32
ATOM     32  C   UNL     1      -5.118  -7.181   4.263  1.00  0.00     0.002 C 
BRANCH  32  33
ATOM     33  C   UNL     1      -4.336  -6.408   5.337  1.00  0.00     0.021 C 
BRANCH  33  34
ATOM     34  C   UNL     1      -5.208  -5.451   6.128  1.00  0.00     0.116 C 
BRANCH  34  35
ATOM     35  N   UNL     1      -6.182  -6.146   6.983  1.00  0.00    -0.352 N 
ATOM     36  C   UNL     1      -7.149  -5.602   7.821  1.00  0.00     0.251 C 
ATOM     37  H   UNL     1      -6.145  -7.130   6.958  1.00  0.00     0.163 HD
ATOM     38  O   UNL     1      -7.655  -6.243   8.723  1.00  0.00    -0.269 OA
BRANCH  36  39
ATOM     39  C   UNL     1      -7.569  -4.216   7.555  1.00  0.00     0.039 A 
ATOM     40  C   UNL     1      -7.846  -3.270   8.545  1.00  0.00     0.014 A 
ATOM     41  C   UNL     1      -7.598  -3.868   6.217  1.00  0.00     0.014 A 
ATOM     42  C   UNL     1      -8.128  -1.966   8.139  1.00  0.00     0.010 A 
ATOM     43  C   UNL     1      -7.455  -2.563   5.890  1.00  0.00     0.010 A 
ATOM     44  C   UNL     1      -7.939  -1.638   6.789  1.00  0.00    -0.014 A 
BRANCH  44  45
ATOM     45  C   UNL     1      -8.217  -0.341   6.207  1.00  0.00     0.031 A 
ATOM     46  C   UNL     1      -7.413   0.766   6.763  1.00  0.00     0.074 A 
ATOM     47  C   UNL     1      -8.921  -0.230   5.055  1.00  0.00     0.049 A 
ATOM     48  N   UNL     1      -7.830   1.758   7.473  1.00  0.00    -0.248 NA
ATOM     49  C   UNL     1      -5.949   0.685   6.642  1.00  0.00     0.031 C 
ATOM     50  C   UNL     1      -9.491  -1.280   4.191  1.00  0.00     0.029 A 
ATOM     51  N   UNL     1      -9.185   0.896   4.346  1.00  0.00    -0.354 N 
ATOM     52  C   UNL     1      -6.710   2.545   7.714  1.00  0.00     0.074 A 
ATOM     53  C   UNL     1      -5.567   1.746   7.356  1.00  0.00     0.031 C 
ATOM     54  C   UNL     1      -9.815  -0.760   2.986  1.00  0.00     0.029 A 
ATOM     55  C   UNL     1      -9.649   0.676   3.051  1.00  0.00     0.049 A 
ATOM     56  H   UNL     1      -9.059   1.798   4.718  1.00  0.00     0.167 HD
ATOM     57  C   UNL     1      -6.825   3.878   7.962  1.00  0.00     0.037 A 
ATOM     58  C   UNL     1      -9.825   1.639   2.112  1.00  0.00     0.037 A 
ATOM     59  C   UNL     1      -8.187   4.243   8.263  1.00  0.00     0.049 A 
ATOM     60  C   UNL     1      -9.934   2.929   2.852  1.00  0.00     0.074 A 
ATOM     61  C   UNL     1      -9.089   3.862   9.239  1.00  0.00     0.029 A 
ATOM     62  N   UNL     1      -8.946   4.784   7.252  1.00  0.00    -0.354 N 
ATOM     63  N   UNL     1     -10.916   3.206   3.669  1.00  0.00    -0.248 NA
ATOM     64  C   UNL     1      -8.698   3.665   3.084  1.00  0.00     0.031 C 
ATOM     65  C   UNL     1     -10.327   3.703   8.547  1.00  0.00     0.029 A 
ATOM     66  C   UNL     1     -10.126   4.080   7.218  1.00  0.00     0.049 A 
ATOM     67  H   UNL     1      -8.693   5.532   6.664  1.00  0.00     0.167 HD
ATOM     68  C   UNL     1     -10.316   3.837   4.752  1.00  0.00     0.074 A 
ATOM     69  C   UNL     1      -8.950   4.127   4.312  1.00  0.00     0.031 C 
ATOM     70  C   UNL     1     -10.861   3.794   6.005  1.00  0.00     0.037 A 
BRANCH  57  71
ATOM     71  C   UNL     1      -5.780   4.893   7.598  1.00  0.00     0.057 A 
ATOM     72  C   UNL     1      -4.856   4.727   6.546  1.00  0.00     0.134 A 
ATOM     73  C   UNL     1      -5.856   6.188   8.135  1.00  0.00     0.134 A 
ATOM     74  F   UNL     1      -4.753   3.582   5.859  1.00  0.00    -0.206 F 
ATOM     75  C   UNL     1      -4.057   5.768   6.070  1.00  0.00     0.040 A 
ATOM     76  C   UNL     1      -5.098   7.251   7.630  1.00  0.00     0.040 A 
ATOM     77  F   UNL     1      -6.719   6.473   9.121  1.00  0.00    -0.206 F 
ATOM     78  C   UNL     1      -4.196   7.043   6.593  1.00  0.00     0.006 A 
ENDBRANCH  57  71
BRANCH  58  79
ATOM     79  C   UNL     1      -9.464   1.567   0.673  1.00  0.00     0.057 A 
ATOM     80  C   UNL     1      -8.466   0.694   0.201  1.00  0.00     0.134 A 
ATOM     81  C   UNL     1      -9.883   2.558  -0.228  1.00  0.00     0.134 A 
ATOM     82  F   UNL     1      -7.941  -0.253   0.993  1.00  0.00    -0.206 F 
ATOM     83  C   UNL     1      -7.897   0.817  -1.072  1.00  0.00     0.040 A 
ATOM     84  C   UNL     1      -9.319   2.695  -1.505  1.00  0.00     0.040 A 
ATOM     85  F   UNL     1     -10.805   3.461   0.139  1.00  0.00    -0.206 F 
ATOM     86  C   UNL     1      -8.312   1.832  -1.925  1.00  0.00     0.006 A 
ENDBRANCH  58  79
BRANCH  70  87
ATOM     87  C   UNL     1     -12.227   3.177   6.181  1.00  0.00     0.057 A 
ATOM     88  C   UNL     1     -13.232   3.928   6.796  1.00  0.00     0.134 A 
ATOM     89  C   UNL     1     -12.509   1.819   5.961  1.00  0.00     0.134 A 
ATOM     90  F   UNL     1     -13.021   5.220   7.093  1.00  0.00    -0.206 F 
ATOM     91  C   UNL     1     -14.450   3.361   7.183  1.00  0.00     0.040 A 
ATOM     92  C   UNL     1     -13.734   1.243   6.316  1.00  0.00     0.040 A 
ATOM     93  F   UNL     1     -11.585   0.991   5.465  1.00  0.00    -0.206 F 
ATOM     94  C   UNL     1     -14.707   2.014   6.940  1.00  0.00     0.006 A 
ENDBRANCH  70  87
ENDBRANCH  44  45
ENDBRANCH  36  39
ENDBRANCH  34  35
ENDBRANCH  33  34
ENDBRANCH  32  33
ENDBRANCH   1  32
TORSDOF 15
