REMARK SMILES CCCC[C@@H](Sc1nc(OCCC2CCCCC2)cc(OCCC2CCCCC2)n1)C(=O)NCCCCCCNC(=O)c1ccc(-c2c3nc(c(-c4c(F)cccc4F)c4ccc([nH]4)c(-c4c(F)cccc4F)c4nc(c(-c5c(F)cccc5F)c5ccc2[nH]5)C=C4)C=C3)cc1
REMARK SMILES IDX 34 1 33 2 31 3 32 4 5 6 4 7 3 8 2 9 1 10 6 11 7 12 8 13
REMARK SMILES IDX 30 14 9 15 20 16 19 17 10 18 11 19 12 20 13 21 14 22 18 23
REMARK SMILES IDX 15 24 17 25 16 26 21 27 22 28 23 29 24 30 25 31 29 32 26 33
REMARK SMILES IDX 28 34 27 35 35 36 36 37 37 38 38 39 39 40 40 41 41 42 42 44
REMARK SMILES IDX 43 45 44 46 96 47 45 48 95 49 46 50 47 51 48 52 89 53 49 54
REMARK SMILES IDX 94 55 88 56 90 57 50 58 93 59 87 60 86 61 51 63 77 64 60 65
REMARK SMILES IDX 76 66 61 67 64 68 75 69 91 70 62 71 63 72 74 74 92 75 65 76
REMARK SMILES IDX 52 77 53 78 58 79 54 80 55 81 57 82 59 83 56 84 78 85 79 86
REMARK SMILES IDX 84 87 80 88 81 89 83 90 85 91 82 92 66 93 67 94 72 95 68 96
REMARK SMILES IDX 69 97 71 98 73 99 70 100
REMARK H PARENT 33 5 40 43 90 62 64 73
REMARK Flexibility Score: inf
ROOT
ATOM      1  C   UNL     1      -0.477  -2.747   5.082  1.00  0.00     0.116 C 
ENDROOT
BRANCH   1   2
ATOM      2  N   UNL     1      -1.267  -1.571   4.747  1.00  0.00    -0.355 N 
ATOM      3  C   UNL     1      -1.517  -1.010   3.519  1.00  0.00     0.233 C 
ATOM      4  O   UNL     1      -2.220   0.003   3.474  1.00  0.00    -0.274 OA
ATOM      5  H   UNL     1      -1.682  -1.111   5.512  1.00  0.00     0.163 HD
BRANCH   3   6
ATOM      6  C   UNL     1      -0.904  -1.629   2.239  1.00  0.00     0.144 C 
BRANCH   6   7
ATOM      7  C   UNL     1       0.627  -1.401   2.341  1.00  0.00     0.025 C 
BRANCH   7   8
ATOM      8  C   UNL     1       1.524  -1.382   1.099  1.00  0.00     0.001 C 
BRANCH   8   9
ATOM      9  C   UNL     1       0.991  -0.663  -0.138  1.00  0.00    -0.003 C 
ATOM     10  C   UNL     1       1.099   0.847  -0.024  1.00  0.00     0.004 C 
ENDBRANCH   8   9
ENDBRANCH   7   8
ENDBRANCH   6   7
BRANCH   6  11
ATOM     11  S   UNL     1      -1.733  -3.301   2.177  1.00  0.00    -0.073 SA
BRANCH  11  12
ATOM     12  C   UNL     1      -0.999  -4.190   0.866  1.00  0.00     0.195 A 
ATOM     13  N   UNL     1      -0.017  -3.639   0.159  1.00  0.00    -0.187 NA
ATOM     14  N   UNL     1      -1.578  -5.370   0.600  1.00  0.00    -0.187 NA
ATOM     15  C   UNL     1       0.367  -4.280  -0.943  1.00  0.00     0.221 A 
ATOM     16  C   UNL     1      -1.218  -5.967  -0.534  1.00  0.00     0.221 A 
ATOM     17  C   UNL     1      -0.258  -5.427  -1.341  1.00  0.00     0.136 A 
BRANCH  15  18
ATOM     18  O   UNL     1       1.403  -3.686  -1.616  1.00  0.00    -0.477 OA
BRANCH  18  19
ATOM     19  C   UNL     1       1.519  -3.887  -3.027  1.00  0.00     0.231 C 
BRANCH  19  20
ATOM     20  C   UNL     1       2.626  -4.890  -3.453  1.00  0.00     0.045 C 
BRANCH  20  21
ATOM     21  C   UNL     1       2.571  -6.234  -2.719  1.00  0.00    -0.008 C 
ATOM     22  C   UNL     1       2.982  -7.483  -3.498  1.00  0.00     0.004 C 
ATOM     23  C   UNL     1       3.273  -6.210  -1.359  1.00  0.00     0.004 C 
ATOM     24  C   UNL     1       2.524  -8.719  -2.698  1.00  0.00     0.000 C 
ATOM     25  C   UNL     1       2.805  -7.397  -0.524  1.00  0.00     0.000 C 
ATOM     26  C   UNL     1       3.033  -8.720  -1.252  1.00  0.00     0.000 C 
ENDBRANCH  20  21
ENDBRANCH  19  20
ENDBRANCH  18  19
ENDBRANCH  15  18
BRANCH  16  27
ATOM     27  O   UNL     1      -2.019  -7.019  -0.895  1.00  0.00    -0.477 OA
BRANCH  27  28
ATOM     28  C   UNL     1      -1.916  -7.547  -2.221  1.00  0.00     0.231 C 
BRANCH  28  29
ATOM     29  C   UNL     1      -2.784  -6.845  -3.301  1.00  0.00     0.045 C 
BRANCH  29  30
ATOM     30  C   UNL     1      -2.577  -5.329  -3.493  1.00  0.00    -0.008 C 
ATOM     31  C   UNL     1      -3.038  -4.777  -4.852  1.00  0.00     0.004 C 
ATOM     32  C   UNL     1      -3.275  -4.475  -2.423  1.00  0.00     0.004 C 
ATOM     33  C   UNL     1      -2.612  -3.302  -4.994  1.00  0.00     0.000 C 
ATOM     34  C   UNL     1      -2.705  -3.062  -2.460  1.00  0.00     0.000 C 
ATOM     35  C   UNL     1      -2.997  -2.414  -3.804  1.00  0.00     0.000 C 
ENDBRANCH  29  30
ENDBRANCH  28  29
ENDBRANCH  27  28
ENDBRANCH  16  27
ENDBRANCH  11  12
ENDBRANCH   6  11
ENDBRANCH   3   6
ENDBRANCH   1   2
BRANCH   1  36
ATOM     36  C   UNL     1       0.735  -2.375   5.922  1.00  0.00     0.021 C 
BRANCH  36  37
ATOM     37  C   UNL     1       0.373  -2.037   7.366  1.00  0.00     0.002 C 
BRANCH  37  38
ATOM     38  C   UNL     1      -0.364  -3.158   8.108  1.00  0.00     0.002 C 
BRANCH  38  39
ATOM     39  C   UNL     1       0.345  -4.515   8.086  1.00  0.00     0.021 C 
BRANCH  39  40
ATOM     40  C   UNL     1       1.757  -4.486   8.658  1.00  0.00     0.116 C 
BRANCH  40  41
ATOM     41  N   UNL     1       1.763  -4.055  10.046  1.00  0.00    -0.352 N 
ATOM     42  C   UNL     1       2.265  -4.693  11.152  1.00  0.00     0.251 C 
ATOM     43  H   UNL     1       1.347  -3.180  10.217  1.00  0.00     0.163 HD
ATOM     44  O   UNL     1       1.979  -4.304  12.276  1.00  0.00    -0.269 OA
BRANCH  42  45
ATOM     45  C   UNL     1       3.146  -5.864  10.973  1.00  0.00     0.039 A 
ATOM     46  C   UNL     1       2.940  -6.990  11.772  1.00  0.00     0.014 A 
ATOM     47  C   UNL     1       4.171  -5.848  10.023  1.00  0.00     0.014 A 
ATOM     48  C   UNL     1       3.730  -8.124  11.579  1.00  0.00     0.010 A 
ATOM     49  C   UNL     1       4.904  -7.004   9.778  1.00  0.00     0.010 A 
ATOM     50  C   UNL     1       4.694  -8.152  10.557  1.00  0.00    -0.014 A 
BRANCH  50  51
ATOM     51  C   UNL     1       5.480  -9.379  10.282  1.00  0.00     0.031 A 
ATOM     52  C   UNL     1       6.973  -9.380  10.456  1.00  0.00     0.074 A 
ATOM     53  C   UNL     1       4.852 -10.476   9.817  1.00  0.00     0.049 A 
ATOM     54  N   UNL     1       7.831 -10.339  10.218  1.00  0.00    -0.248 NA
ATOM     55  C   UNL     1       7.585  -8.132  10.937  1.00  0.00     0.031 C 
ATOM     56  C   UNL     1       3.414 -10.582   9.559  1.00  0.00     0.029 A 
ATOM     57  N   UNL     1       5.343 -11.710   9.470  1.00  0.00    -0.354 N 
ATOM     58  C   UNL     1       9.081  -9.808  10.509  1.00  0.00     0.074 A 
ATOM     59  C   UNL     1       8.876  -8.426  10.886  1.00  0.00     0.031 C 
ATOM     60  C   UNL     1       3.136 -11.819   9.119  1.00  0.00     0.029 A 
ATOM     61  C   UNL     1       4.378 -12.580   9.023  1.00  0.00     0.049 A 
ATOM     62  H   UNL     1       6.295 -11.948   9.535  1.00  0.00     0.167 HD
ATOM     63  C   UNL     1      10.288 -10.423  10.485  1.00  0.00     0.037 A 
ATOM     64  C   UNL     1       4.484 -13.845   8.574  1.00  0.00     0.037 A 
ATOM     65  C   UNL     1      10.483 -11.802  10.122  1.00  0.00     0.049 A 
ATOM     66  C   UNL     1       5.837 -14.499   8.541  1.00  0.00     0.074 A 
ATOM     67  C   UNL     1      11.657 -12.536  10.126  1.00  0.00     0.029 A 
ATOM     68  N   UNL     1       9.481 -12.654   9.681  1.00  0.00    -0.354 N 
ATOM     69  N   UNL     1       7.002 -14.009   8.892  1.00  0.00    -0.248 NA
ATOM     70  C   UNL     1       5.890 -15.884   8.053  1.00  0.00     0.031 C 
ATOM     71  C   UNL     1      11.376 -13.813   9.631  1.00  0.00     0.029 A 
ATOM     72  C   UNL     1      10.016 -13.896   9.379  1.00  0.00     0.049 A 
ATOM     73  H   UNL     1       8.531 -12.412   9.595  1.00  0.00     0.167 HD
ATOM     74  C   UNL     1       7.920 -15.032   8.694  1.00  0.00     0.074 A 
ATOM     75  C   UNL     1       7.174 -16.174   8.209  1.00  0.00     0.031 C 
ATOM     76  C   UNL     1       9.261 -15.025   8.897  1.00  0.00     0.037 A 
BRANCH  63  77
ATOM     77  C   UNL     1      11.492  -9.605  10.858  1.00  0.00     0.057 A 
ATOM     78  C   UNL     1      11.707  -9.155  12.168  1.00  0.00     0.134 A 
ATOM     79  C   UNL     1      12.467  -9.293   9.902  1.00  0.00     0.134 A 
ATOM     80  F   UNL     1      10.808  -9.409  13.131  1.00  0.00    -0.206 F 
ATOM     81  C   UNL     1      12.832  -8.402  12.507  1.00  0.00     0.040 A 
ATOM     82  C   UNL     1      13.612  -8.567  10.236  1.00  0.00     0.040 A 
ATOM     83  F   UNL     1      12.330  -9.697   8.630  1.00  0.00    -0.206 F 
ATOM     84  C   UNL     1      13.793  -8.113  11.540  1.00  0.00     0.006 A 
ENDBRANCH  63  77
BRANCH  64  85
ATOM     85  C   UNL     1       3.271 -14.580   8.134  1.00  0.00     0.057 A 
ATOM     86  C   UNL     1       2.779 -15.668   8.864  1.00  0.00     0.134 A 
ATOM     87  C   UNL     1       2.579 -14.219   6.972  1.00  0.00     0.134 A 
ATOM     88  F   UNL     1       3.409 -16.075   9.976  1.00  0.00    -0.206 F 
ATOM     89  C   UNL     1       1.657 -16.384   8.444  1.00  0.00     0.040 A 
ATOM     90  C   UNL     1       1.438 -14.907   6.556  1.00  0.00     0.040 A 
ATOM     91  F   UNL     1       2.993 -13.180   6.231  1.00  0.00    -0.206 F 
ATOM     92  C   UNL     1       0.979 -15.999   7.289  1.00  0.00     0.006 A 
ENDBRANCH  64  85
BRANCH  76  93
ATOM     93  C   UNL     1      10.003 -16.302   8.624  1.00  0.00     0.057 A 
ATOM     94  C   UNL     1      10.195 -16.787   7.324  1.00  0.00     0.134 A 
ATOM     95  C   UNL     1      10.563 -17.038   9.677  1.00  0.00     0.134 A 
ATOM     96  F   UNL     1       9.674 -16.137   6.272  1.00  0.00    -0.206 F 
ATOM     97  C   UNL     1      10.896 -17.970   7.082  1.00  0.00     0.040 A 
ATOM     98  C   UNL     1      11.292 -18.206   9.445  1.00  0.00     0.040 A 
ATOM     99  F   UNL     1      10.425 -16.627  10.946  1.00  0.00    -0.206 F 
ATOM    100  C   UNL     1      11.453 -18.679   8.145  1.00  0.00     0.006 A 
ENDBRANCH  76  93
ENDBRANCH  50  51
ENDBRANCH  42  45
ENDBRANCH  40  41
ENDBRANCH  39  40
ENDBRANCH  38  39
ENDBRANCH  37  38
ENDBRANCH  36  37
ENDBRANCH   1  36
TORSDOF 26
