REMARK SMILES COc1cccc([C@H](CC(=O)NCCCCCCNC(=O)c2ccc(-c3c4nc(c(-c5c(F)cccc5F)c5ccc([nH]5)c(-c5c(F)cccc5F)c5nc(c(-c6c(F)cccc6F)c6ccc3[nH]6)C=C5)C=C4)cc2)NS(=O)(=O)c2ccc3c(c2)C[C@@H](C)N3C(C)=O)c1
REMARK SMILES IDX 14 1 13 2 12 3 10 4 11 5 9 7 8 8 7 9 3 10 4 11 93 12 5 13
REMARK SMILES IDX 6 14 2 15 1 16 76 17 77 19 78 20 79 21 80 22 81 23 85 24
REMARK SMILES IDX 82 25 84 26 83 27 86 28 89 29 87 30 88 31 90 32 91 33 92 34
REMARK SMILES IDX 15 35 16 36 17 37 18 38 19 39 20 40 21 42 22 43 23 44 75 45
REMARK SMILES IDX 24 46 74 47 25 48 26 49 27 50 68 51 28 52 73 53 67 54 69 55
REMARK SMILES IDX 29 56 72 57 66 58 65 59 30 61 56 62 39 63 55 64 40 65 43 66
REMARK SMILES IDX 54 67 70 68 41 69 42 70 53 72 71 73 44 74 31 75 32 76 37 77
REMARK SMILES IDX 33 78 34 79 36 80 38 81 35 82 57 83 58 84 63 85 59 86 60 87
REMARK SMILES IDX 62 88 64 89 61 90 45 91 46 92 51 93 47 94 48 95 50 96 52 97
REMARK SMILES IDX 49 98
REMARK H PARENT 12 6 76 18 19 41 69 60 43 71
REMARK Flexibility Score: inf
ROOT
ATOM      1  C   UNL     1       3.980   0.408  -5.113  1.00  0.00     0.021 C 
ENDROOT
BRANCH   1   2
ATOM      2  C   UNL     1       2.753   1.272  -4.792  1.00  0.00     0.116 C 
BRANCH   2   3
ATOM      3  N   UNL     1       2.371   1.117  -3.398  1.00  0.00    -0.356 N 
ATOM      4  C   UNL     1       2.364   2.001  -2.364  1.00  0.00     0.221 C 
ATOM      5  O   UNL     1       2.030   1.582  -1.254  1.00  0.00    -0.275 OA
ATOM      6  H   UNL     1       2.064   0.212  -3.160  1.00  0.00     0.163 HD
BRANCH   4   7
ATOM      7  C   UNL     1       2.751   3.457  -2.553  1.00  0.00     0.124 C 
BRANCH   7   8
ATOM      8  C   UNL     1       4.278   3.652  -2.490  1.00  0.00     0.109 C 
BRANCH   8   9
ATOM      9  C   UNL     1       4.818   4.124  -3.825  1.00  0.00    -0.026 A 
ATOM     10  C   UNL     1       5.474   5.879  -5.332  1.00  0.00     0.119 A 
ATOM     11  C   UNL     1       6.091   4.966  -6.184  1.00  0.00     0.046 A 
ATOM     12  C   UNL     1       4.739   5.464  -4.225  1.00  0.00     0.051 A 
ATOM     13  C   UNL     1       6.146   3.632  -5.812  1.00  0.00     0.004 A 
ATOM     14  C   UNL     1       5.579   3.239  -4.601  1.00  0.00     0.005 A 
BRANCH  10  15
ATOM     15  O   UNL     1       5.747   7.213  -5.496  1.00  0.00    -0.497 OA
ATOM     16  C   UNL     1       6.942   7.506  -4.747  1.00  0.00     0.278 C 
ENDBRANCH  10  15
ENDBRANCH   8   9
BRANCH   8  17
ATOM     17  N   UNL     1       4.649   4.568  -1.389  1.00  0.00    -0.203 NA
ATOM     18  H   UNL     1       4.389   4.091  -0.525  1.00  0.00     0.142 HD
BRANCH  17  19
ATOM     19  S   UNL     1       6.225   5.120  -1.163  1.00  0.00     0.241 S 
ATOM     20  O   UNL     1       7.025   5.061  -2.350  1.00  0.00    -0.207 OA
ATOM     21  O   UNL     1       6.039   6.374  -0.445  1.00  0.00    -0.207 OA
BRANCH  19  22
ATOM     22  C   UNL     1       6.946   3.978  -0.029  1.00  0.00     0.082 A 
ATOM     23  C   UNL     1       6.858   2.583  -0.237  1.00  0.00     0.024 A 
ATOM     24  C   UNL     1       7.587   4.517   1.084  1.00  0.00     0.027 A 
ATOM     25  C   UNL     1       7.331   1.695   0.731  1.00  0.00     0.028 A 
ATOM     26  C   UNL     1       8.003   3.635   2.045  1.00  0.00    -0.021 A 
ATOM     27  C   UNL     1       7.838   2.252   1.885  1.00  0.00     0.047 A 
ATOM     28  C   UNL     1       8.632   3.940   3.370  1.00  0.00     0.063 C 
ATOM     29  N   UNL     1       8.228   1.619   3.080  1.00  0.00    -0.309 N 
ATOM     30  C   UNL     1       8.163   2.685   4.121  1.00  0.00     0.092 C 
ATOM     31  C   UNL     1       6.692   2.866   4.585  1.00  0.00     0.032 C 
BRANCH  29  32
ATOM     32  C   UNL     1       9.104   0.553   3.018  1.00  0.00     0.224 C 
ATOM     33  C   UNL     1      10.505   0.877   3.489  1.00  0.00     0.115 C 
ATOM     34  O   UNL     1       8.854  -0.512   2.455  1.00  0.00    -0.275 OA
ENDBRANCH  29  32
ENDBRANCH  19  22
ENDBRANCH  17  19
ENDBRANCH   8  17
ENDBRANCH   7   8
ENDBRANCH   4   7
ENDBRANCH   2   3
ENDBRANCH   1   2
BRANCH   1  35
ATOM     35  C   UNL     1       3.733  -0.765  -6.057  1.00  0.00     0.002 C 
BRANCH  35  36
ATOM     36  C   UNL     1       3.302  -0.370  -7.474  1.00  0.00     0.002 C 
BRANCH  36  37
ATOM     37  C   UNL     1       4.179   0.665  -8.190  1.00  0.00     0.021 C 
BRANCH  37  38
ATOM     38  C   UNL     1       5.662   0.316  -8.300  1.00  0.00     0.116 C 
BRANCH  38  39
ATOM     39  N   UNL     1       5.878  -0.933  -9.007  1.00  0.00    -0.352 N 
ATOM     40  C   UNL     1       6.479  -1.182 -10.213  1.00  0.00     0.251 C 
ATOM     41  H   UNL     1       5.538  -1.732  -8.544  1.00  0.00     0.163 HD
ATOM     42  O   UNL     1       6.340  -2.284 -10.739  1.00  0.00    -0.269 OA
BRANCH  40  43
ATOM     43  C   UNL     1       7.298  -0.151 -10.892  1.00  0.00     0.039 A 
ATOM     44  C   UNL     1       7.249  -0.071 -12.287  1.00  0.00     0.014 A 
ATOM     45  C   UNL     1       8.180   0.667 -10.181  1.00  0.00     0.014 A 
ATOM     46  C   UNL     1       8.069   0.834 -12.965  1.00  0.00     0.010 A 
ATOM     47  C   UNL     1       8.940   1.625 -10.852  1.00  0.00     0.010 A 
ATOM     48  C   UNL     1       8.918   1.696 -12.253  1.00  0.00    -0.014 A 
BRANCH  48  49
ATOM     49  C   UNL     1       9.832   2.627 -12.965  1.00  0.00     0.031 A 
ATOM     50  C   UNL     1      11.323   2.450 -12.862  1.00  0.00     0.074 A 
ATOM     51  C   UNL     1       9.327   3.648 -13.683  1.00  0.00     0.049 A 
ATOM     52  N   UNL     1      12.284   3.158 -13.402  1.00  0.00    -0.248 NA
ATOM     53  C   UNL     1      11.799   1.344 -12.016  1.00  0.00     0.031 C 
ATOM     54  C   UNL     1       7.905   3.952 -13.837  1.00  0.00     0.029 A 
ATOM     55  N   UNL     1       9.958   4.618 -14.421  1.00  0.00    -0.354 N 
ATOM     56  C   UNL     1      13.471   2.595 -12.947  1.00  0.00     0.074 A 
ATOM     57  C   UNL     1      13.109   1.530 -12.037  1.00  0.00     0.031 C 
ATOM     58  C   UNL     1       7.769   5.009 -14.653  1.00  0.00     0.029 A 
ATOM     59  C   UNL     1       9.093   5.478 -15.051  1.00  0.00     0.049 A 
ATOM     60  H   UNL     1      10.937   4.690 -14.492  1.00  0.00     0.167 HD
ATOM     61  C   UNL     1      14.746   2.917 -13.274  1.00  0.00     0.037 A 
ATOM     62  C   UNL     1       9.340   6.521 -15.866  1.00  0.00     0.037 A 
ATOM     63  C   UNL     1      15.104   3.966 -14.193  1.00  0.00     0.049 A 
ATOM     64  C   UNL     1      10.762   6.870 -16.207  1.00  0.00     0.074 A 
ATOM     65  C   UNL     1      16.361   4.338 -14.634  1.00  0.00     0.029 A 
ATOM     66  N   UNL     1      14.197   4.818 -14.808  1.00  0.00    -0.354 N 
ATOM     67  N   UNL     1      11.873   6.289 -15.824  1.00  0.00    -0.248 NA
ATOM     68  C   UNL     1      10.961   8.015 -17.106  1.00  0.00     0.031 C 
ATOM     69  C   UNL     1      16.220   5.448 -15.475  1.00  0.00     0.029 A 
ATOM     70  C   UNL     1      14.869   5.729 -15.607  1.00  0.00     0.049 A 
ATOM     71  H   UNL     1      13.220   4.780 -14.694  1.00  0.00     0.167 HD
ATOM     72  C   UNL     1      12.900   6.969 -16.467  1.00  0.00     0.074 A 
ATOM     73  C   UNL     1      12.277   8.004 -17.266  1.00  0.00     0.031 C 
ATOM     74  C   UNL     1      14.237   6.750 -16.407  1.00  0.00     0.037 A 
BRANCH  61  75
ATOM     75  C   UNL     1      15.843   2.127 -12.613  1.00  0.00     0.057 A 
ATOM     76  C   UNL     1      16.043   0.765 -12.878  1.00  0.00     0.134 A 
ATOM     77  C   UNL     1      16.703   2.733 -11.688  1.00  0.00     0.134 A 
ATOM     78  F   UNL     1      15.251   0.117 -13.745  1.00  0.00    -0.206 F 
ATOM     79  C   UNL     1      17.022   0.025 -12.211  1.00  0.00     0.040 A 
ATOM     80  C   UNL     1      17.708   2.012 -11.041  1.00  0.00     0.040 A 
ATOM     81  F   UNL     1      16.578   4.036 -11.393  1.00  0.00    -0.206 F 
ATOM     82  C   UNL     1      17.860   0.650 -11.291  1.00  0.00     0.006 A 
ENDBRANCH  61  75
BRANCH  62  83
ATOM     83  C   UNL     1       8.208   7.272 -16.466  1.00  0.00     0.057 A 
ATOM     84  C   UNL     1       7.916   7.158 -17.830  1.00  0.00     0.134 A 
ATOM     85  C   UNL     1       7.388   8.106 -15.697  1.00  0.00     0.134 A 
ATOM     86  F   UNL     1       8.677   6.387 -18.621  1.00  0.00    -0.206 F 
ATOM     87  C   UNL     1       6.857   7.855 -18.412  1.00  0.00     0.040 A 
ATOM     88  C   UNL     1       6.310   8.791 -16.262  1.00  0.00     0.040 A 
ATOM     89  F   UNL     1       7.611   8.252 -14.383  1.00  0.00    -0.206 F 
ATOM     90  C   UNL     1       6.046   8.670 -17.625  1.00  0.00     0.006 A 
ENDBRANCH  62  83
BRANCH  74  91
ATOM     91  C   UNL     1      15.115   7.608 -17.273  1.00  0.00     0.057 A 
ATOM     92  C   UNL     1      15.322   8.969 -17.013  1.00  0.00     0.134 A 
ATOM     93  C   UNL     1      15.782   7.053 -18.373  1.00  0.00     0.134 A 
ATOM     94  F   UNL     1      14.704   9.567 -15.983  1.00  0.00    -0.206 F 
ATOM     95  C   UNL     1      16.136   9.753 -17.834  1.00  0.00     0.040 A 
ATOM     96  C   UNL     1      16.622   7.819 -19.182  1.00  0.00     0.040 A 
ATOM     97  F   UNL     1      15.637   5.754 -18.674  1.00  0.00    -0.206 F 
ATOM     98  C   UNL     1      16.794   9.176 -18.919  1.00  0.00     0.006 A 
ENDBRANCH  74  91
ENDBRANCH  48  49
ENDBRANCH  40  43
ENDBRANCH  38  39
ENDBRANCH  37  38
ENDBRANCH  36  37
ENDBRANCH  35  36
ENDBRANCH   1  35
TORSDOF 20
