REMARK SMILES [NH3+]C[C@H]1CC[C@@H](C(=O)N[C@H](C(=O)NCCCCCCNC(=O)c2ccc(-c3c4nc(c(-c5c(F)cccc5F)c5ccc([nH]5)c(-c5c(F)cccc5F)c5nc(c(-c6c(F)cccc6F)c6ccc3[nH]6)C=C5)C=C4)cc2)C2CCCCC2)O1
REMARK SMILES IDX 15 1 14 2 13 3 11 4 12 5 10 7 9 8 7 9 8 10 6 12 3 13 4 14
REMARK SMILES IDX 83 15 5 16 2 17 1 18 77 22 78 23 82 24 79 25 81 26 80 27
REMARK SMILES IDX 16 28 17 29 18 30 19 31 20 32 21 33 22 35 23 36 24 37 76 38
REMARK SMILES IDX 25 39 75 40 26 41 27 42 28 43 69 44 29 45 74 46 68 47 70 48
REMARK SMILES IDX 30 49 73 50 67 51 66 52 31 54 57 55 40 56 56 57 41 58 44 59
REMARK SMILES IDX 55 60 71 61 42 62 43 63 54 65 72 66 45 67 32 68 33 69 38 70
REMARK SMILES IDX 34 71 35 72 37 73 39 74 36 75 58 76 59 77 64 78 60 79 61 80
REMARK SMILES IDX 63 81 65 82 62 83 46 84 47 85 52 86 48 87 49 88 51 89 53 90
REMARK SMILES IDX 50 91
REMARK H PARENT 13 6 9 11 1 19 1 20 1 21 20 34 70 53 44 64
REMARK Flexibility Score: inf
ROOT
ATOM      1  C   UNL     1       6.919   1.241  -2.279  1.00  0.00     0.021 C 
ENDROOT
BRANCH   1   2
ATOM      2  C   UNL     1       6.075   0.498  -1.235  1.00  0.00     0.116 C 
BRANCH   2   3
ATOM      3  N   UNL     1       6.563  -0.865  -1.101  1.00  0.00    -0.354 N 
ATOM      4  C   UNL     1       7.370  -1.419  -0.141  1.00  0.00     0.242 C 
ATOM      5  O   UNL     1       7.954  -2.467  -0.418  1.00  0.00    -0.273 OA
ATOM      6  H   UNL     1       6.268  -1.485  -1.806  1.00  0.00     0.163 HD
BRANCH   4   7
ATOM      7  C   UNL     1       7.488  -0.749   1.253  1.00  0.00     0.174 C 
BRANCH   7   8
ATOM      8  N   UNL     1       7.495  -1.809   2.280  1.00  0.00    -0.342 N 
ATOM      9  C   UNL     1       6.512  -2.666   2.685  1.00  0.00     0.249 C 
ATOM     10  O   UNL     1       6.746  -3.384   3.661  1.00  0.00    -0.272 OA
ATOM     11  H   UNL     1       8.352  -1.916   2.752  1.00  0.00     0.164 HD
BRANCH   9  12
ATOM     12  C   UNL     1       5.181  -2.745   1.924  1.00  0.00     0.207 C 
ATOM     13  C   UNL     1       3.682  -4.532   1.611  1.00  0.00     0.174 C 
ATOM     14  C   UNL     1       2.908  -3.343   2.159  1.00  0.00     0.041 C 
ATOM     15  O   UNL     1       5.010  -4.050   1.340  1.00  0.00    -0.359 OA
ATOM     16  C   UNL     1       3.987  -2.532   2.840  1.00  0.00     0.045 C 
BRANCH  13  17
ATOM     17  C   UNL     1       3.737  -5.734   2.579  1.00  0.00     0.291 C 
BRANCH  17  18
ATOM     18  N   UNL     1       2.499  -6.521   2.603  1.00  0.00    -0.355 N 
ATOM     19  H   UNL     1       2.602  -7.295   3.259  1.00  0.00     0.344 HD
ATOM     20  H   UNL     1       2.311  -6.888   1.670  1.00  0.00     0.344 HD
ATOM     21  H   UNL     1       1.724  -5.926   2.897  1.00  0.00     0.344 HD
ENDBRANCH  17  18
ENDBRANCH  13  17
ENDBRANCH   9  12
ENDBRANCH   7   8
BRANCH   7  22
ATOM     22  C   UNL     1       8.778   0.121   1.412  1.00  0.00     0.021 C 
ATOM     23  C   UNL     1       9.122   0.962   0.175  1.00  0.00     0.006 C 
ATOM     24  C   UNL     1       8.657   1.040   2.649  1.00  0.00     0.006 C 
ATOM     25  C   UNL     1      10.324   1.879   0.363  1.00  0.00     0.000 C 
ATOM     26  C   UNL     1       9.849   1.986   2.815  1.00  0.00     0.000 C 
ATOM     27  C   UNL     1      10.111   2.800   1.554  1.00  0.00     0.000 C 
ENDBRANCH   7  22
ENDBRANCH   4   7
ENDBRANCH   2   3
ENDBRANCH   1   2
BRANCH   1  28
ATOM     28  C   UNL     1       6.365   1.160  -3.700  1.00  0.00     0.002 C 
BRANCH  28  29
ATOM     29  C   UNL     1       5.230   2.144  -3.990  1.00  0.00     0.002 C 
BRANCH  29  30
ATOM     30  C   UNL     1       5.550   3.623  -3.734  1.00  0.00     0.021 C 
BRANCH  30  31
ATOM     31  C   UNL     1       6.850   4.132  -4.354  1.00  0.00     0.116 C 
BRANCH  31  32
ATOM     32  N   UNL     1       6.854   3.998  -5.800  1.00  0.00    -0.352 N 
ATOM     33  C   UNL     1       6.959   4.958  -6.769  1.00  0.00     0.251 C 
ATOM     34  H   UNL     1       6.767   3.076  -6.133  1.00  0.00     0.163 HD
ATOM     35  O   UNL     1       6.720   4.669  -7.942  1.00  0.00    -0.269 OA
BRANCH  33  36
ATOM     36  C   UNL     1       7.353   6.341  -6.426  1.00  0.00     0.039 A 
ATOM     37  C   UNL     1       6.697   7.400  -7.059  1.00  0.00     0.014 A 
ATOM     38  C   UNL     1       8.408   6.600  -5.544  1.00  0.00     0.014 A 
ATOM     39  C   UNL     1       7.082   8.716  -6.794  1.00  0.00     0.010 A 
ATOM     40  C   UNL     1       8.749   7.915  -5.231  1.00  0.00     0.010 A 
ATOM     41  C   UNL     1       8.107   8.985  -5.872  1.00  0.00    -0.014 A 
BRANCH  41  42
ATOM     42  C   UNL     1       8.548  10.381  -5.622  1.00  0.00     0.031 A 
ATOM     43  C   UNL     1       9.918  10.827  -6.056  1.00  0.00     0.074 A 
ATOM     44  C   UNL     1       7.721  11.245  -5.003  1.00  0.00     0.049 A 
ATOM     45  N   UNL     1      10.482  12.003  -5.938  1.00  0.00    -0.248 NA
ATOM     46  C   UNL     1      10.777   9.813  -6.688  1.00  0.00     0.031 C 
ATOM     47  C   UNL     1       6.383  10.927  -4.502  1.00  0.00     0.029 A 
ATOM     48  N   UNL     1       7.884  12.573  -4.698  1.00  0.00    -0.354 N 
ATOM     49  C   UNL     1      11.755  11.868  -6.477  1.00  0.00     0.074 A 
ATOM     50  C   UNL     1      11.906  10.483  -6.865  1.00  0.00     0.031 C 
ATOM     51  C   UNL     1       5.834  12.037  -3.981  1.00  0.00     0.029 A 
ATOM     52  C   UNL     1       6.788  13.136  -4.091  1.00  0.00     0.049 A 
ATOM     53  H   UNL     1       8.708  13.074  -4.894  1.00  0.00     0.167 HD
ATOM     54  C   UNL     1      12.704  12.817  -6.663  1.00  0.00     0.037 A 
ATOM     55  C   UNL     1       6.575  14.401  -3.681  1.00  0.00     0.037 A 
ATOM     56  C   UNL     1      12.549  14.200  -6.300  1.00  0.00     0.049 A 
ATOM     57  C   UNL     1       7.646  15.434  -3.895  1.00  0.00     0.074 A 
ATOM     58  C   UNL     1      13.439  15.246  -6.473  1.00  0.00     0.029 A 
ATOM     59  N   UNL     1      11.421  14.732  -5.693  1.00  0.00    -0.354 N 
ATOM     60  N   UNL     1       8.825  15.302  -4.454  1.00  0.00    -0.248 NA
ATOM     61  C   UNL     1       7.351  16.797  -3.430  1.00  0.00     0.031 C 
ATOM     62  C   UNL     1      12.861  16.406  -5.946  1.00  0.00     0.029 A 
ATOM     63  C   UNL     1      11.596  16.089  -5.478  1.00  0.00     0.049 A 
ATOM     64  H   UNL     1      10.615  14.221  -5.451  1.00  0.00     0.167 HD
ATOM     65  C   UNL     1       9.398  16.567  -4.434  1.00  0.00     0.074 A 
ATOM     66  C   UNL     1       8.431  17.455  -3.824  1.00  0.00     0.031 C 
ATOM     67  C   UNL     1      10.617  16.959  -4.879  1.00  0.00     0.037 A 
BRANCH  54  68
ATOM     68  C   UNL     1      13.990  12.388  -7.308  1.00  0.00     0.057 A 
ATOM     69  C   UNL     1      14.052  12.052  -8.667  1.00  0.00     0.134 A 
ATOM     70  C   UNL     1      15.181  12.335  -6.575  1.00  0.00     0.134 A 
ATOM     71  F   UNL     1      12.943  12.069  -9.422  1.00  0.00    -0.206 F 
ATOM     72  C   UNL     1      15.247  11.653  -9.268  1.00  0.00     0.040 A 
ATOM     73  C   UNL     1      16.388  11.962  -7.170  1.00  0.00     0.040 A 
ATOM     74  F   UNL     1      15.194  12.648  -5.271  1.00  0.00    -0.206 F 
ATOM     75  C   UNL     1      16.421  11.614  -8.520  1.00  0.00     0.006 A 
ENDBRANCH  54  68
BRANCH  55  76
ATOM     76  C   UNL     1       5.281  14.779  -3.060  1.00  0.00     0.057 A 
ATOM     77  C   UNL     1       4.375  15.608  -3.733  1.00  0.00     0.134 A 
ATOM     78  C   UNL     1       4.932  14.351  -1.774  1.00  0.00     0.134 A 
ATOM     79  F   UNL     1       4.663  16.065  -4.961  1.00  0.00    -0.206 F 
ATOM     80  C   UNL     1       3.181  16.020  -3.140  1.00  0.00     0.040 A 
ATOM     81  C   UNL     1       3.730  14.737  -1.178  1.00  0.00     0.040 A 
ATOM     82  F   UNL     1       5.753  13.551  -1.080  1.00  0.00    -0.206 F 
ATOM     83  C   UNL     1       2.855  15.582  -1.859  1.00  0.00     0.006 A 
ENDBRANCH  55  76
BRANCH  67  84
ATOM     84  C   UNL     1      10.953  18.415  -4.751  1.00  0.00     0.057 A 
ATOM     85  C   UNL     1      11.241  19.000  -3.511  1.00  0.00     0.134 A 
ATOM     86  C   UNL     1      11.004  19.237  -5.883  1.00  0.00     0.134 A 
ATOM     87  F   UNL     1      11.194  18.268  -2.387  1.00  0.00    -0.206 F 
ATOM     88  C   UNL     1      11.540  20.358  -3.399  1.00  0.00     0.040 A 
ATOM     89  C   UNL     1      11.326  20.591  -5.787  1.00  0.00     0.040 A 
ATOM     90  F   UNL     1      10.746  18.737  -7.101  1.00  0.00    -0.206 F 
ATOM     91  C   UNL     1      11.588  21.157  -4.540  1.00  0.00     0.006 A 
ENDBRANCH  67  84
ENDBRANCH  41  42
ENDBRANCH  33  36
ENDBRANCH  31  32
ENDBRANCH  30  31
ENDBRANCH  29  30
ENDBRANCH  28  29
ENDBRANCH   1  28
TORSDOF 18
