REMARK SMILES CCOc1cc(NC(=O)c2c(C(=O)NCCCCCCNC(=O)c3ccc(-c4c5nc(c(-c6c(F)cccc6F)c6ccc([nH]6)c(-c6c(F)cccc6F)c6nc(c(-c7c(F)cccc7F)c7ccc4[nH]7)C=C6)C=C5)cc3)cnn2C)ccc1OC(F)F
REMARK SMILES IDX 16 1 15 2 14 3 12 4 13 5 11 7 10 8 80 9 78 10 79 11 81 12
REMARK SMILES IDX 8 13 7 14 9 16 6 17 4 18 5 19 84 20 83 21 82 22 3 23 2 24
REMARK SMILES IDX 1 25 85 26 86 27 87 28 88 29 17 30 18 31 19 32 20 33 21 34
REMARK SMILES IDX 22 35 23 37 24 38 25 39 77 40 26 41 76 42 27 43 28 44 29 45
REMARK SMILES IDX 70 46 30 47 75 48 69 49 71 50 31 51 74 52 68 53 67 54 32 56
REMARK SMILES IDX 58 57 41 58 57 59 42 60 45 61 56 62 72 63 43 64 44 65 55 67
REMARK SMILES IDX 73 68 46 69 33 70 34 71 39 72 35 73 36 74 38 75 40 76 37 77
REMARK SMILES IDX 59 78 60 79 65 80 61 81 62 82 64 83 66 84 63 85 47 86 48 87
REMARK SMILES IDX 53 88 49 89 50 90 52 91 54 92 51 93
REMARK H PARENT 14 6 7 15 21 36 71 55 45 66
REMARK Flexibility Score: inf
ROOT
ATOM      1  C   UNL     1       3.942   6.251  -5.007  1.00  0.00     0.021 C 
ENDROOT
BRANCH   1   2
ATOM      2  C   UNL     1       3.497   6.555  -3.578  1.00  0.00     0.116 C 
BRANCH   2   3
ATOM      3  N   UNL     1       2.361   7.436  -3.481  1.00  0.00    -0.352 N 
ATOM      4  C   UNL     1       1.436   7.613  -2.487  1.00  0.00     0.255 C 
ATOM      5  O   UNL     1       0.529   8.414  -2.725  1.00  0.00    -0.269 OA
ATOM      6  H   UNL     1       2.227   8.012  -4.268  1.00  0.00     0.163 HD
BRANCH   4   7
ATOM      7  C   UNL     1       1.441   6.875  -1.230  1.00  0.00     0.090 A 
ATOM      8  C   UNL     1       2.447   6.357  -0.415  1.00  0.00     0.138 A 
ATOM      9  N   UNL     1       1.812   5.930   0.730  1.00  0.00    -0.262 N 
ATOM     10  C   UNL     1       0.252   6.600  -0.501  1.00  0.00     0.149 A 
ATOM     11  N   UNL     1       0.472   5.965   0.649  1.00  0.00    -0.180 NA
ATOM     12  C   UNL     1       2.411   5.452   1.958  1.00  0.00     0.174 C 
BRANCH   8  13
ATOM     13  C   UNL     1       3.870   6.379  -0.548  1.00  0.00     0.274 C 
ATOM     14  N   UNL     1       4.588   5.214  -0.718  1.00  0.00    -0.321 N 
ATOM     15  H   UNL     1       5.561   5.365  -0.708  1.00  0.00     0.170 HD
ATOM     16  O   UNL     1       4.511   7.430  -0.510  1.00  0.00    -0.267 OA
BRANCH  14  17
ATOM     17  C   UNL     1       4.253   3.856  -0.902  1.00  0.00     0.045 A 
ATOM     18  C   UNL     1       2.740   1.944  -1.087  1.00  0.00     0.163 A 
ATOM     19  C   UNL     1       2.962   3.328  -0.949  1.00  0.00     0.076 A 
ATOM     20  C   UNL     1       3.821   1.080  -1.278  1.00  0.00     0.168 A 
ATOM     21  C   UNL     1       5.112   1.611  -1.295  1.00  0.00     0.053 A 
ATOM     22  C   UNL     1       5.327   2.976  -1.082  1.00  0.00     0.030 A 
BRANCH  18  23
ATOM     23  O   UNL     1       1.465   1.444  -1.126  1.00  0.00    -0.490 OA
BRANCH  23  24
ATOM     24  C   UNL     1       0.625   1.916  -0.063  1.00  0.00     0.226 C 
ATOM     25  C   UNL     1      -0.450   0.877   0.202  1.00  0.00     0.049 C 
ENDBRANCH  23  24
ENDBRANCH  18  23
BRANCH  20  26
ATOM     26  O   UNL     1       3.760  -0.262  -1.523  1.00  0.00    -0.431 OA
BRANCH  26  27
ATOM     27  C   UNL     1       2.847  -1.030  -0.744  1.00  0.00     0.542 C 
ATOM     28  F   UNL     1       2.674  -0.496   0.490  1.00  0.00    -0.167 F 
ATOM     29  F   UNL     1       1.651  -1.106  -1.369  1.00  0.00    -0.167 F 
ENDBRANCH  26  27
ENDBRANCH  20  26
ENDBRANCH  14  17
ENDBRANCH   8  13
ENDBRANCH   4   7
ENDBRANCH   2   3
ENDBRANCH   1   2
BRANCH   1  30
ATOM     30  C   UNL     1       4.260   7.444  -5.916  1.00  0.00     0.002 C 
BRANCH  30  31
ATOM     31  C   UNL     1       5.122   8.573  -5.347  1.00  0.00     0.002 C 
BRANCH  31  32
ATOM     32  C   UNL     1       6.476   8.202  -4.736  1.00  0.00     0.021 C 
BRANCH  32  33
ATOM     33  C   UNL     1       7.384   7.283  -5.547  1.00  0.00     0.116 C 
BRANCH  33  34
ATOM     34  N   UNL     1       7.691   7.780  -6.874  1.00  0.00    -0.352 N 
ATOM     35  C   UNL     1       8.866   7.744  -7.584  1.00  0.00     0.251 C 
ATOM     36  H   UNL     1       6.939   8.213  -7.340  1.00  0.00     0.163 HD
ATOM     37  O   UNL     1       8.914   8.267  -8.695  1.00  0.00    -0.269 OA
BRANCH  35  38
ATOM     38  C   UNL     1      10.094   7.125  -7.024  1.00  0.00     0.039 A 
ATOM     39  C   UNL     1      11.311   7.789  -7.226  1.00  0.00     0.014 A 
ATOM     40  C   UNL     1      10.082   5.902  -6.347  1.00  0.00     0.014 A 
ATOM     41  C   UNL     1      12.494   7.271  -6.692  1.00  0.00     0.010 A 
ATOM     42  C   UNL     1      11.259   5.403  -5.779  1.00  0.00     0.010 A 
ATOM     43  C   UNL     1      12.473   6.090  -5.937  1.00  0.00    -0.014 A 
BRANCH  43  44
ATOM     44  C   UNL     1      13.707   5.583  -5.287  1.00  0.00     0.031 A 
ATOM     45  C   UNL     1      14.395   4.352  -5.800  1.00  0.00     0.074 A 
ATOM     46  C   UNL     1      14.190   6.215  -4.200  1.00  0.00     0.049 A 
ATOM     47  N   UNL     1      15.426   3.718  -5.301  1.00  0.00    -0.248 NA
ATOM     48  C   UNL     1      13.845   3.748  -7.023  1.00  0.00     0.031 C 
ATOM     49  C   UNL     1      13.606   7.407  -3.582  1.00  0.00     0.029 A 
ATOM     50  N   UNL     1      15.284   5.936  -3.422  1.00  0.00    -0.354 N 
ATOM     51  C   UNL     1      15.628   2.620  -6.124  1.00  0.00     0.074 A 
ATOM     52  C   UNL     1      14.619   2.679  -7.162  1.00  0.00     0.031 C 
ATOM     53  C   UNL     1      14.360   7.767  -2.530  1.00  0.00     0.029 A 
ATOM     54  C   UNL     1      15.464   6.822  -2.390  1.00  0.00     0.049 A 
ATOM     55  H   UNL     1      15.883   5.172  -3.588  1.00  0.00     0.167 HD
ATOM     56  C   UNL     1      16.565   1.649  -6.021  1.00  0.00     0.037 A 
ATOM     57  C   UNL     1      16.412   6.868  -1.437  1.00  0.00     0.037 A 
ATOM     58  C   UNL     1      17.600   1.600  -5.024  1.00  0.00     0.049 A 
ATOM     59  C   UNL     1      17.488   5.826  -1.395  1.00  0.00     0.074 A 
ATOM     60  C   UNL     1      18.596   0.652  -4.857  1.00  0.00     0.029 A 
ATOM     61  N   UNL     1      17.783   2.552  -4.036  1.00  0.00    -0.354 N 
ATOM     62  N   UNL     1      17.651   4.783  -2.170  1.00  0.00    -0.248 NA
ATOM     63  C   UNL     1      18.508   5.968  -0.346  1.00  0.00     0.031 C 
ATOM     64  C   UNL     1      19.387   1.035  -3.766  1.00  0.00     0.029 A 
ATOM     65  C   UNL     1      18.882   2.222  -3.261  1.00  0.00     0.049 A 
ATOM     66  H   UNL     1      17.217   3.346  -3.904  1.00  0.00     0.167 HD
ATOM     67  C   UNL     1      18.788   4.143  -1.702  1.00  0.00     0.074 A 
ATOM     68  C   UNL     1      19.283   4.918  -0.583  1.00  0.00     0.031 C 
ATOM     69  C   UNL     1      19.365   3.006  -2.159  1.00  0.00     0.037 A 
BRANCH  56  70
ATOM     70  C   UNL     1      16.501   0.541  -7.021  1.00  0.00     0.057 A 
ATOM     71  C   UNL     1      17.121   0.651  -8.272  1.00  0.00     0.134 A 
ATOM     72  C   UNL     1      15.836  -0.655  -6.718  1.00  0.00     0.134 A 
ATOM     73  F   UNL     1      17.761   1.779  -8.620  1.00  0.00    -0.206 F 
ATOM     74  C   UNL     1      17.075  -0.397  -9.195  1.00  0.00     0.040 A 
ATOM     75  C   UNL     1      15.792  -1.709  -7.633  1.00  0.00     0.040 A 
ATOM     76  F   UNL     1      15.220  -0.813  -5.536  1.00  0.00    -0.206 F 
ATOM     77  C   UNL     1      16.412  -1.583  -8.877  1.00  0.00     0.006 A 
ENDBRANCH  56  70
BRANCH  57  78
ATOM     78  C   UNL     1      16.389   7.959  -0.440  1.00  0.00     0.057 A 
ATOM     79  C   UNL     1      17.155   9.114  -0.627  1.00  0.00     0.134 A 
ATOM     80  C   UNL     1      15.598   7.871   0.711  1.00  0.00     0.134 A 
ATOM     81  F   UNL     1      17.941   9.239  -1.708  1.00  0.00    -0.206 F 
ATOM     82  C   UNL     1      17.138  10.152   0.306  1.00  0.00     0.040 A 
ATOM     83  C   UNL     1      15.570   8.906   1.648  1.00  0.00     0.040 A 
ATOM     84  F   UNL     1      14.848   6.782   0.937  1.00  0.00    -0.206 F 
ATOM     85  C   UNL     1      16.342  10.051   1.448  1.00  0.00     0.006 A 
ENDBRANCH  57  78
BRANCH  69  86
ATOM     86  C   UNL     1      20.595   2.543  -1.449  1.00  0.00     0.057 A 
ATOM     87  C   UNL     1      20.511   1.723  -0.317  1.00  0.00     0.134 A 
ATOM     88  C   UNL     1      21.869   2.901  -1.908  1.00  0.00     0.134 A 
ATOM     89  F   UNL     1      19.316   1.358   0.173  1.00  0.00    -0.206 F 
ATOM     90  C   UNL     1      21.660   1.276   0.340  1.00  0.00     0.040 A 
ATOM     91  C   UNL     1      23.023   2.457  -1.259  1.00  0.00     0.040 A 
ATOM     92  F   UNL     1      22.008   3.691  -2.983  1.00  0.00    -0.206 F 
ATOM     93  C   UNL     1      22.921   1.641  -0.131  1.00  0.00     0.006 A 
ENDBRANCH  69  86
ENDBRANCH  43  44
ENDBRANCH  35  38
ENDBRANCH  33  34
ENDBRANCH  32  33
ENDBRANCH  31  32
ENDBRANCH  30  31
ENDBRANCH   1  30
TORSDOF 19
