REMARK SMILES C[C@@H](Oc1ccc(-c2ccccc2)cc1)C(=O)N1CCC[C@H](C(=O)NCCCCCCNC(=O)c2ccc(-c3c4nc(c(-c5c(F)cccc5F)c5ccc([nH]5)c(-c5c(F)cccc5F)c5nc(c(-c6c(F)cccc6F)c6ccc3[nH]6)C=C5)C=C4)cc2)C1
REMARK SMILES IDX 27 1 26 2 25 3 23 4 24 5 22 7 18 8 19 9 89 10 20 11 21 12
REMARK SMILES IDX 16 13 17 14 2 15 1 16 3 17 4 18 5 19 15 20 6 21 14 22 7 23
REMARK SMILES IDX 8 24 9 25 13 26 10 27 12 28 11 29 28 30 29 31 30 32 31 33
REMARK SMILES IDX 32 34 33 35 34 37 35 38 36 39 88 40 37 41 87 42 38 43 39 44
REMARK SMILES IDX 40 45 81 46 41 47 86 48 80 49 82 50 42 51 85 52 79 53 78 54
REMARK SMILES IDX 43 56 69 57 52 58 68 59 53 60 56 61 67 62 83 63 54 64 55 65
REMARK SMILES IDX 66 67 84 68 57 69 44 70 45 71 50 72 46 73 47 74 49 75 51 76
REMARK SMILES IDX 48 77 70 78 71 79 76 80 72 81 73 82 75 83 77 84 74 85 58 86
REMARK SMILES IDX 59 87 64 88 60 89 61 90 63 91 65 92 62 93
REMARK H PARENT 25 6 32 36 82 55 56 66
REMARK Flexibility Score: inf
ROOT
ATOM      1  C   UNL     1      -4.940  -0.957  -1.307  1.00  0.00     0.021 C 
ENDROOT
BRANCH   1   2
ATOM      2  C   UNL     1      -3.555  -0.450  -0.913  1.00  0.00     0.116 C 
BRANCH   2   3
ATOM      3  N   UNL     1      -3.437   0.990  -0.953  1.00  0.00    -0.356 N 
ATOM      4  C   UNL     1      -3.019   1.888  -0.027  1.00  0.00     0.224 C 
ATOM      5  O   UNL     1      -2.846   3.043  -0.436  1.00  0.00    -0.275 OA
ATOM      6  H   UNL     1      -3.709   1.392  -1.809  1.00  0.00     0.163 HD
BRANCH   4   7
ATOM      7  C   UNL     1      -2.764   1.579   1.455  1.00  0.00     0.098 C 
ATOM      8  N   UNL     1      -1.754  -0.671   1.786  1.00  0.00    -0.339 N 
ATOM      9  C   UNL     1      -2.816  -1.088   2.701  1.00  0.00     0.119 C 
ATOM     10  C   UNL     1      -1.502   0.762   1.743  1.00  0.00     0.133 C 
ATOM     11  C   UNL     1      -4.139  -0.360   2.479  1.00  0.00     0.022 C 
ATOM     12  C   UNL     1      -3.992   1.143   2.258  1.00  0.00     0.017 C 
BRANCH   8  13
ATOM     13  C   UNL     1      -1.036  -1.644   1.095  1.00  0.00     0.263 C 
ATOM     14  O   UNL     1      -1.550  -2.743   0.848  1.00  0.00    -0.271 OA
BRANCH  13  15
ATOM     15  C   UNL     1       0.433  -1.397   0.682  1.00  0.00     0.259 C 
ATOM     16  C   UNL     1       0.645  -0.375  -0.432  1.00  0.00     0.064 C 
BRANCH  15  17
ATOM     17  O   UNL     1       1.121  -1.013   1.879  1.00  0.00    -0.481 OA
BRANCH  17  18
ATOM     18  C   UNL     1       2.425  -1.419   1.898  1.00  0.00     0.120 A 
ATOM     19  C   UNL     1       2.780  -2.691   2.343  1.00  0.00     0.047 A 
ATOM     20  C   UNL     1       3.401  -0.472   1.619  1.00  0.00     0.047 A 
ATOM     21  C   UNL     1       4.133  -3.006   2.533  1.00  0.00     0.012 A 
ATOM     22  C   UNL     1       4.744  -0.791   1.800  1.00  0.00     0.012 A 
ATOM     23  C   UNL     1       5.135  -2.049   2.295  1.00  0.00    -0.018 A 
BRANCH  23  24
ATOM     24  C   UNL     1       6.549  -2.295   2.627  1.00  0.00    -0.018 A 
ATOM     25  C   UNL     1       7.254  -3.402   2.136  1.00  0.00     0.009 A 
ATOM     26  C   UNL     1       7.238  -1.390   3.457  1.00  0.00     0.009 A 
ATOM     27  C   UNL     1       8.607  -3.584   2.447  1.00  0.00     0.001 A 
ATOM     28  C   UNL     1       8.587  -1.569   3.768  1.00  0.00     0.001 A 
ATOM     29  C   UNL     1       9.272  -2.666   3.258  1.00  0.00     0.000 A 
ENDBRANCH  23  24
ENDBRANCH  17  18
ENDBRANCH  15  17
ENDBRANCH  13  15
ENDBRANCH   8  13
ENDBRANCH   4   7
ENDBRANCH   2   3
ENDBRANCH   1   2
BRANCH   1  30
ATOM     30  C   UNL     1      -5.031  -1.494  -2.737  1.00  0.00     0.002 C 
BRANCH  30  31
ATOM     31  C   UNL     1      -4.064  -2.634  -3.085  1.00  0.00     0.002 C 
BRANCH  31  32
ATOM     32  C   UNL     1      -4.068  -3.839  -2.138  1.00  0.00     0.021 C 
BRANCH  32  33
ATOM     33  C   UNL     1      -5.420  -4.524  -1.948  1.00  0.00     0.116 C 
BRANCH  33  34
ATOM     34  N   UNL     1      -6.017  -4.930  -3.209  1.00  0.00    -0.352 N 
ATOM     35  C   UNL     1      -6.441  -6.159  -3.644  1.00  0.00     0.251 C 
ATOM     36  H   UNL     1      -6.137  -4.201  -3.860  1.00  0.00     0.163 HD
ATOM     37  O   UNL     1      -6.752  -6.308  -4.822  1.00  0.00    -0.269 OA
BRANCH  35  38
ATOM     38  C   UNL     1      -6.526  -7.310  -2.718  1.00  0.00     0.039 A 
ATOM     39  C   UNL     1      -6.140  -8.569  -3.188  1.00  0.00     0.014 A 
ATOM     40  C   UNL     1      -7.044  -7.177  -1.427  1.00  0.00     0.014 A 
ATOM     41  C   UNL     1      -6.234  -9.685  -2.353  1.00  0.00     0.010 A 
ATOM     42  C   UNL     1      -7.080  -8.280  -0.573  1.00  0.00     0.010 A 
ATOM     43  C   UNL     1      -6.687  -9.546  -1.032  1.00  0.00    -0.014 A 
BRANCH  43  44
ATOM     44  C   UNL     1      -6.763 -10.723  -0.130  1.00  0.00     0.031 A 
ATOM     45  C   UNL     1      -8.095 -11.231   0.348  1.00  0.00     0.074 A 
ATOM     46  C   UNL     1      -5.627 -11.313   0.287  1.00  0.00     0.049 A 
ATOM     47  N   UNL     1      -8.359 -12.234   1.148  1.00  0.00    -0.248 NA
ATOM     48  C   UNL     1      -9.287 -10.504  -0.116  1.00  0.00     0.031 C 
ATOM     49  C   UNL     1      -4.273 -10.883  -0.065  1.00  0.00     0.029 A 
ATOM     50  N   UNL     1      -5.431 -12.399   1.102  1.00  0.00    -0.354 N 
ATOM     51  C   UNL     1      -9.740 -12.250   1.292  1.00  0.00     0.074 A 
ATOM     52  C   UNL     1     -10.256 -11.128   0.538  1.00  0.00     0.031 C 
ATOM     53  C   UNL     1      -3.386 -11.712   0.510  1.00  0.00     0.029 A 
ATOM     54  C   UNL     1      -4.107 -12.713   1.290  1.00  0.00     0.049 A 
ATOM     55  H   UNL     1      -6.169 -12.906   1.512  1.00  0.00     0.167 HD
ATOM     56  C   UNL     1     -10.511 -13.132   1.973  1.00  0.00     0.037 A 
ATOM     57  C   UNL     1      -3.540 -13.699   2.009  1.00  0.00     0.037 A 
ATOM     58  C   UNL     1      -9.998 -14.263   2.702  1.00  0.00     0.049 A 
ATOM     59  C   UNL     1      -4.417 -14.673   2.744  1.00  0.00     0.074 A 
ATOM     60  C   UNL     1     -10.701 -15.249   3.372  1.00  0.00     0.029 A 
ATOM     61  N   UNL     1      -8.652 -14.557   2.856  1.00  0.00    -0.354 N 
ATOM     62  N   UNL     1      -5.725 -14.717   2.814  1.00  0.00    -0.248 NA
ATOM     63  C   UNL     1      -3.738 -15.741   3.491  1.00  0.00     0.031 C 
ATOM     64  C   UNL     1      -9.779 -16.121   3.962  1.00  0.00     0.029 A 
ATOM     65  C   UNL     1      -8.503 -15.700   3.626  1.00  0.00     0.049 A 
ATOM     66  H   UNL     1      -7.912 -14.032   2.475  1.00  0.00     0.167 HD
ATOM     67  C   UNL     1      -6.026 -15.825   3.595  1.00  0.00     0.074 A 
ATOM     68  C   UNL     1      -4.764 -16.437   3.958  1.00  0.00     0.031 C 
ATOM     69  C   UNL     1      -7.239 -16.293   3.980  1.00  0.00     0.037 A 
BRANCH  56  70
ATOM     70  C   UNL     1     -11.995 -12.909   1.955  1.00  0.00     0.057 A 
ATOM     71  C   UNL     1     -12.759 -13.131   0.801  1.00  0.00     0.134 A 
ATOM     72  C   UNL     1     -12.672 -12.495   3.108  1.00  0.00     0.134 A 
ATOM     73  F   UNL     1     -12.170 -13.517  -0.341  1.00  0.00    -0.206 F 
ATOM     74  C   UNL     1     -14.140 -12.925   0.789  1.00  0.00     0.040 A 
ATOM     75  C   UNL     1     -14.056 -12.309   3.115  1.00  0.00     0.040 A 
ATOM     76  F   UNL     1     -12.003 -12.270   4.249  1.00  0.00    -0.206 F 
ATOM     77  C   UNL     1     -14.793 -12.518   1.950  1.00  0.00     0.006 A 
ENDBRANCH  56  70
BRANCH  57  78
ATOM     78  C   UNL     1      -2.063 -13.835   2.043  1.00  0.00     0.057 A 
ATOM     79  C   UNL     1      -1.421 -14.886   1.379  1.00  0.00     0.134 A 
ATOM     80  C   UNL     1      -1.261 -12.925   2.741  1.00  0.00     0.134 A 
ATOM     81  F   UNL     1      -2.139 -15.800   0.710  1.00  0.00    -0.206 F 
ATOM     82  C   UNL     1      -0.034 -15.038   1.421  1.00  0.00     0.040 A 
ATOM     83  C   UNL     1       0.129 -13.052   2.773  1.00  0.00     0.040 A 
ATOM     84  F   UNL     1      -1.817 -11.893   3.393  1.00  0.00    -0.206 F 
ATOM     85  C   UNL     1       0.745 -14.116   2.116  1.00  0.00     0.006 A 
ENDBRANCH  57  78
BRANCH  69  86
ATOM     86  C   UNL     1      -7.253 -17.535   4.821  1.00  0.00     0.057 A 
ATOM     87  C   UNL     1      -6.860 -17.519   6.165  1.00  0.00     0.134 A 
ATOM     88  C   UNL     1      -7.684 -18.755   4.285  1.00  0.00     0.134 A 
ATOM     89  F   UNL     1      -6.424 -16.384   6.732  1.00  0.00    -0.206 F 
ATOM     90  C   UNL     1      -6.869 -18.679   6.940  1.00  0.00     0.040 A 
ATOM     91  C   UNL     1      -7.721 -19.917   5.058  1.00  0.00     0.040 A 
ATOM     92  F   UNL     1      -8.080 -18.837   3.007  1.00  0.00    -0.206 F 
ATOM     93  C   UNL     1      -7.306 -19.882   6.388  1.00  0.00     0.006 A 
ENDBRANCH  69  86
ENDBRANCH  43  44
ENDBRANCH  35  38
ENDBRANCH  33  34
ENDBRANCH  32  33
ENDBRANCH  31  32
ENDBRANCH  30  31
ENDBRANCH   1  30
TORSDOF 18
