REMARK SMILES COc1cccc(Cn2c(=O)c(=O)n(CC(=O)NCCCCCCNC(=O)c3ccc(-c4c5nc(c(-c6c(F)cccc6F)c6ccc([nH]6)c(-c6c(F)cccc6F)c6nc(c(-c7c(F)cccc7F)c7ccc4[nH]7)C=C6)C=C5)cc3)c3ccccc32)c1
REMARK SMILES IDX 20 1 19 2 18 3 16 4 17 5 15 7 14 8 9 9 10 10 87 11 11 12
REMARK SMILES IDX 12 13 82 14 86 15 13 16 83 17 85 18 84 19 8 20 7 21 3 22
REMARK SMILES IDX 4 23 88 24 5 25 6 26 2 27 1 28 21 29 22 30 23 31 24 32 25 33
REMARK SMILES IDX 26 34 27 36 28 37 29 38 81 39 30 40 80 41 31 42 32 43 33 44
REMARK SMILES IDX 74 45 34 46 79 47 73 48 75 49 35 50 78 51 72 52 71 53 36 55
REMARK SMILES IDX 62 56 45 57 61 58 46 59 49 60 60 61 76 62 47 63 48 64 59 66
REMARK SMILES IDX 77 67 50 68 37 69 38 70 43 71 39 72 40 73 42 74 44 75 41 76
REMARK SMILES IDX 63 77 64 78 69 79 65 80 66 81 68 82 70 83 67 84 51 85 52 86
REMARK SMILES IDX 57 87 53 88 54 89 56 90 58 91 55 92
REMARK H PARENT 18 6 25 35 75 54 49 65
REMARK Flexibility Score: inf
ROOT
ATOM      1  C   UNL     1       1.185   6.905   3.100  1.00  0.00     0.021 C 
ENDROOT
BRANCH   1   2
ATOM      2  C   UNL     1       1.026   6.644   1.602  1.00  0.00     0.116 C 
BRANCH   2   3
ATOM      3  N   UNL     1       1.515   7.771   0.837  1.00  0.00    -0.355 N 
ATOM      4  C   UNL     1       2.749   8.047   0.347  1.00  0.00     0.240 C 
ATOM      5  O   UNL     1       2.869   9.130  -0.242  1.00  0.00    -0.273 OA
ATOM      6  H   UNL     1       0.835   8.454   0.637  1.00  0.00     0.163 HD
BRANCH   4   7
ATOM      7  C   UNL     1       3.898   7.032   0.269  1.00  0.00     0.226 C 
BRANCH   7   8
ATOM      8  N   UNL     1       4.305   6.101   1.314  1.00  0.00    -0.293 N 
ATOM      9  N   UNL     1       5.334   4.100   3.025  1.00  0.00    -0.298 N 
ATOM     10  C   UNL     1       5.044   3.798   1.708  1.00  0.00     0.317 A 
ATOM     11  C   UNL     1       5.654   5.461   3.289  1.00  0.00     0.068 A 
ATOM     12  O   UNL     1       5.489   2.833   1.084  1.00  0.00    -0.263 OA
ATOM     13  C   UNL     1       4.075   4.759   1.049  1.00  0.00     0.317 A 
ATOM     14  C   UNL     1       5.180   6.466   2.393  1.00  0.00     0.069 A 
ATOM     15  C   UNL     1       6.562   5.804   4.302  1.00  0.00     0.028 A 
ATOM     16  O   UNL     1       3.220   4.321   0.276  1.00  0.00    -0.263 OA
ATOM     17  C   UNL     1       5.603   7.789   2.573  1.00  0.00     0.028 A 
ATOM     18  C   UNL     1       7.025   7.117   4.413  1.00  0.00     0.002 A 
ATOM     19  C   UNL     1       6.541   8.105   3.560  1.00  0.00     0.002 A 
BRANCH   9  20
ATOM     20  C   UNL     1       5.445   2.986   3.969  1.00  0.00     0.162 C 
BRANCH  20  21
ATOM     21  C   UNL     1       4.079   2.292   4.064  1.00  0.00    -0.024 A 
ATOM     22  C   UNL     1       2.239   1.334   2.800  1.00  0.00     0.119 A 
ATOM     23  C   UNL     1       1.349   1.708   3.798  1.00  0.00     0.046 A 
ATOM     24  C   UNL     1       3.605   1.533   2.973  1.00  0.00     0.052 A 
ATOM     25  C   UNL     1       1.825   2.299   4.967  1.00  0.00     0.004 A 
ATOM     26  C   UNL     1       3.180   2.624   5.087  1.00  0.00     0.006 A 
BRANCH  22  27
ATOM     27  O   UNL     1       1.714   1.062   1.566  1.00  0.00    -0.497 OA
ATOM     28  C   UNL     1       1.925  -0.274   1.137  1.00  0.00     0.278 C 
ENDBRANCH  22  27
ENDBRANCH  20  21
ENDBRANCH   9  20
ENDBRANCH   7   8
ENDBRANCH   4   7
ENDBRANCH   2   3
ENDBRANCH   1   2
BRANCH   1  29
ATOM     29  C   UNL     1       0.090   7.818   3.671  1.00  0.00     0.002 C 
BRANCH  29  30
ATOM     30  C   UNL     1      -1.267   7.129   3.866  1.00  0.00     0.002 C 
BRANCH  30  31
ATOM     31  C   UNL     1      -1.294   6.039   4.945  1.00  0.00     0.021 C 
BRANCH  31  32
ATOM     32  C   UNL     1      -0.962   6.522   6.357  1.00  0.00     0.116 C 
BRANCH  32  33
ATOM     33  N   UNL     1      -1.903   7.532   6.815  1.00  0.00    -0.352 N 
ATOM     34  C   UNL     1      -2.777   7.508   7.870  1.00  0.00     0.251 C 
ATOM     35  H   UNL     1      -1.915   8.361   6.284  1.00  0.00     0.163 HD
ATOM     36  O   UNL     1      -3.675   8.343   7.938  1.00  0.00    -0.269 OA
BRANCH  34  37
ATOM     37  C   UNL     1      -2.640   6.497   8.940  1.00  0.00     0.039 A 
ATOM     38  C   UNL     1      -3.798   5.932   9.484  1.00  0.00     0.014 A 
ATOM     39  C   UNL     1      -1.387   6.176   9.472  1.00  0.00     0.014 A 
ATOM     40  C   UNL     1      -3.700   5.033  10.547  1.00  0.00     0.010 A 
ATOM     41  C   UNL     1      -1.285   5.237  10.496  1.00  0.00     0.010 A 
ATOM     42  C   UNL     1      -2.442   4.677  11.057  1.00  0.00    -0.014 A 
BRANCH  42  43
ATOM     43  C   UNL     1      -2.327   3.753  12.210  1.00  0.00     0.031 A 
ATOM     44  C   UNL     1      -1.856   4.263  13.543  1.00  0.00     0.074 A 
ATOM     45  C   UNL     1      -2.593   2.445  12.043  1.00  0.00     0.049 A 
ATOM     46  N   UNL     1      -1.678   3.610  14.662  1.00  0.00    -0.248 NA
ATOM     47  C   UNL     1      -1.510   5.691  13.618  1.00  0.00     0.031 C 
ATOM     48  C   UNL     1      -2.987   1.818  10.781  1.00  0.00     0.029 A 
ATOM     49  N   UNL     1      -2.559   1.407  12.938  1.00  0.00    -0.354 N 
ATOM     50  C   UNL     1      -1.178   4.538  15.566  1.00  0.00     0.074 A 
ATOM     51  C   UNL     1      -1.042   5.791  14.854  1.00  0.00     0.031 C 
ATOM     52  C   UNL     1      -3.169   0.503  10.984  1.00  0.00     0.029 A 
ATOM     53  C   UNL     1      -2.896   0.197  12.386  1.00  0.00     0.049 A 
ATOM     54  H   UNL     1      -2.316   1.519  13.885  1.00  0.00     0.167 HD
ATOM     55  C   UNL     1      -0.880   4.368  16.876  1.00  0.00     0.037 A 
ATOM     56  C   UNL     1      -2.986  -1.021  12.951  1.00  0.00     0.037 A 
ATOM     57  C   UNL     1      -1.060   3.134  17.592  1.00  0.00     0.049 A 
ATOM     58  C   UNL     1      -2.727  -1.172  14.421  1.00  0.00     0.074 A 
ATOM     59  C   UNL     1      -0.878   2.883  18.941  1.00  0.00     0.029 A 
ATOM     60  N   UNL     1      -1.467   1.942  17.013  1.00  0.00    -0.354 N 
ATOM     61  N   UNL     1      -2.345  -0.266  15.288  1.00  0.00    -0.248 NA
ATOM     62  C   UNL     1      -2.930  -2.509  14.997  1.00  0.00     0.031 C 
ATOM     63  C   UNL     1      -1.152   1.529  19.173  1.00  0.00     0.029 A 
ATOM     64  C   UNL     1      -1.530   0.947  17.974  1.00  0.00     0.049 A 
ATOM     65  H   UNL     1      -1.680   1.821  16.060  1.00  0.00     0.167 HD
ATOM     66  C   UNL     1      -2.277  -0.915  16.512  1.00  0.00     0.074 A 
ATOM     67  C   UNL     1      -2.670  -2.290  16.279  1.00  0.00     0.031 C 
ATOM     68  C   UNL     1      -1.921  -0.416  17.721  1.00  0.00     0.037 A 
BRANCH  55  69
ATOM     69  C   UNL     1      -0.333   5.554  17.613  1.00  0.00     0.057 A 
ATOM     70  C   UNL     1      -1.139   6.649  17.951  1.00  0.00     0.134 A 
ATOM     71  C   UNL     1       1.014   5.600  17.994  1.00  0.00     0.134 A 
ATOM     72  F   UNL     1      -2.434   6.672  17.603  1.00  0.00    -0.206 F 
ATOM     73  C   UNL     1      -0.618   7.762  18.613  1.00  0.00     0.040 A 
ATOM     74  C   UNL     1       1.542   6.698  18.677  1.00  0.00     0.040 A 
ATOM     75  F   UNL     1       1.839   4.583  17.704  1.00  0.00    -0.206 F 
ATOM     76  C   UNL     1       0.726   7.786  18.981  1.00  0.00     0.006 A 
ENDBRANCH  55  69
BRANCH  56  77
ATOM     77  C   UNL     1      -3.390  -2.178  12.119  1.00  0.00     0.057 A 
ATOM     78  C   UNL     1      -4.689  -2.694  12.188  1.00  0.00     0.134 A 
ATOM     79  C   UNL     1      -2.506  -2.764  11.207  1.00  0.00     0.134 A 
ATOM     80  F   UNL     1      -5.574  -2.179  13.053  1.00  0.00    -0.206 F 
ATOM     81  C   UNL     1      -5.094  -3.757  11.380  1.00  0.00     0.040 A 
ATOM     82  C   UNL     1      -2.902  -3.817  10.382  1.00  0.00     0.040 A 
ATOM     83  F   UNL     1      -1.252  -2.304  11.090  1.00  0.00    -0.206 F 
ATOM     84  C   UNL     1      -4.201  -4.318  10.469  1.00  0.00     0.006 A 
ENDBRANCH  56  77
BRANCH  68  85
ATOM     85  C   UNL     1      -1.950  -1.361  18.883  1.00  0.00     0.057 A 
ATOM     86  C   UNL     1      -0.945  -2.316  19.075  1.00  0.00     0.134 A 
ATOM     87  C   UNL     1      -2.970  -1.287  19.839  1.00  0.00     0.134 A 
ATOM     88  F   UNL     1       0.052  -2.442  18.186  1.00  0.00    -0.206 F 
ATOM     89  C   UNL     1      -0.961  -3.178  20.172  1.00  0.00     0.040 A 
ATOM     90  C   UNL     1      -2.987  -2.131  20.950  1.00  0.00     0.040 A 
ATOM     91  F   UNL     1      -3.958  -0.389  19.714  1.00  0.00    -0.206 F 
ATOM     92  C   UNL     1      -1.982  -3.082  21.117  1.00  0.00     0.006 A 
ENDBRANCH  68  85
ENDBRANCH  42  43
ENDBRANCH  34  37
ENDBRANCH  32  33
ENDBRANCH  31  32
ENDBRANCH  30  31
ENDBRANCH  29  30
ENDBRANCH   1  29
TORSDOF 17
