REMARK SMILES O=C(NCCCCCCNC(=O)[C@H]1CC[C@@H](CNc2ccccc2C(F)(F)F)O1)c1ccc(-c2c3nc(c(-c4c(F)cccc4F)c4ccc([nH]4)c(-c4c(F)cccc4F)c4nc(c(-c5c(F)cccc5F)c5ccc2[nH]5)C=C4)C=C3)cc1
REMARK SMILES IDX 7 1 6 2 5 3 4 4 3 5 1 6 2 7 30 9 31 10 83 11 32 12 82 13
REMARK SMILES IDX 33 14 34 15 35 16 76 17 36 18 81 19 75 20 77 21 37 22 80 23
REMARK SMILES IDX 74 24 73 25 38 27 64 28 47 29 63 30 48 31 51 32 62 33 78 34
REMARK SMILES IDX 49 35 50 36 61 38 79 39 52 40 39 41 40 42 45 43 41 44 42 45
REMARK SMILES IDX 44 46 46 47 43 48 65 49 66 50 71 51 67 52 68 53 70 54 72 55
REMARK SMILES IDX 69 56 53 57 54 58 59 59 55 60 56 61 58 62 60 63 57 64 8 65
REMARK SMILES IDX 9 66 10 67 11 68 12 70 13 71 14 72 29 73 15 74 16 75 17 76
REMARK SMILES IDX 18 77 19 79 20 80 24 81 21 82 23 83 22 84 25 85 26 86 27 87
REMARK SMILES IDX 28 88
REMARK H PARENT 3 8 77 26 51 37 10 69 18 78
REMARK Flexibility Score: inf
ROOT
ATOM      1  C   UNL     1      11.724   8.854   7.233  1.00  0.00     0.002 C 
ENDROOT
BRANCH   1   2
ATOM      2  C   UNL     1      13.233   8.672   7.029  1.00  0.00     0.002 C 
BRANCH   2   3
ATOM      3  C   UNL     1      13.785   9.238   5.720  1.00  0.00     0.021 C 
BRANCH   3   4
ATOM      4  C   UNL     1      13.505  10.718   5.509  1.00  0.00     0.116 C 
BRANCH   4   5
ATOM      5  N   UNL     1      14.170  11.538   6.505  1.00  0.00    -0.352 N 
ATOM      6  O   UNL     1      15.735  12.974   7.266  1.00  0.00    -0.269 OA
ATOM      7  C   UNL     1      15.099  12.529   6.319  1.00  0.00     0.251 C 
ATOM      8  H   UNL     1      13.921  11.358   7.441  1.00  0.00     0.163 HD
BRANCH   7   9
ATOM      9  C   UNL     1      15.327  13.057   4.957  1.00  0.00     0.039 A 
ATOM     10  C   UNL     1      14.242  13.357   4.128  1.00  0.00     0.014 A 
ATOM     11  C   UNL     1      16.634  13.287   4.523  1.00  0.00     0.014 A 
ATOM     12  C   UNL     1      14.464  13.799   2.831  1.00  0.00     0.010 A 
ATOM     13  C   UNL     1      16.854  13.815   3.250  1.00  0.00     0.010 A 
ATOM     14  C   UNL     1      15.770  14.075   2.397  1.00  0.00    -0.014 A 
BRANCH  14  15
ATOM     15  C   UNL     1      15.968  14.782   1.109  1.00  0.00     0.031 A 
ATOM     16  C   UNL     1      16.691  14.137  -0.034  1.00  0.00     0.074 A 
ATOM     17  C   UNL     1      15.498  16.041   1.006  1.00  0.00     0.049 A 
ATOM     18  N   UNL     1      16.992  14.645  -1.202  1.00  0.00    -0.248 NA
ATOM     19  C   UNL     1      17.143  12.750   0.152  1.00  0.00     0.031 C 
ATOM     20  C   UNL     1      14.796  16.768   2.070  1.00  0.00     0.029 A 
ATOM     21  N   UNL     1      15.543  16.937  -0.029  1.00  0.00    -0.354 N 
ATOM     22  C   UNL     1      17.687  13.654  -1.881  1.00  0.00     0.074 A 
ATOM     23  C   UNL     1      17.773  12.515  -0.992  1.00  0.00     0.031 C 
ATOM     24  C   UNL     1      14.462  17.987   1.627  1.00  0.00     0.029 A 
ATOM     25  C   UNL     1      14.990  18.157   0.280  1.00  0.00     0.049 A 
ATOM     26  H   UNL     1      15.933  16.728  -0.909  1.00  0.00     0.167 HD
ATOM     27  C   UNL     1      18.204  13.703  -3.131  1.00  0.00     0.037 A 
ATOM     28  C   UNL     1      14.952  19.303  -0.422  1.00  0.00     0.037 A 
ATOM     29  C   UNL     1      18.094  14.842  -4.007  1.00  0.00     0.049 A 
ATOM     30  C   UNL     1      15.575  19.333  -1.787  1.00  0.00     0.074 A 
ATOM     31  C   UNL     1      18.514  14.959  -5.321  1.00  0.00     0.029 A 
ATOM     32  N   UNL     1      17.544  16.065  -3.653  1.00  0.00    -0.354 N 
ATOM     33  N   UNL     1      16.156  18.361  -2.449  1.00  0.00    -0.248 NA
ATOM     34  C   UNL     1      15.548  20.616  -2.500  1.00  0.00     0.031 C 
ATOM     35  C   UNL     1      18.281  16.272  -5.739  1.00  0.00     0.029 A 
ATOM     36  C   UNL     1      17.661  16.957  -4.707  1.00  0.00     0.049 A 
ATOM     37  H   UNL     1      17.132  16.268  -2.783  1.00  0.00     0.167 HD
ATOM     38  C   UNL     1      16.553  18.913  -3.658  1.00  0.00     0.074 A 
ATOM     39  C   UNL     1      16.120  20.295  -3.651  1.00  0.00     0.031 C 
ATOM     40  C   UNL     1      17.225  18.329  -4.680  1.00  0.00     0.037 A 
BRANCH  27  41
ATOM     41  C   UNL     1      18.962  12.509  -3.636  1.00  0.00     0.057 A 
ATOM     42  C   UNL     1      18.319  11.325  -4.014  1.00  0.00     0.134 A 
ATOM     43  C   UNL     1      20.346  12.588  -3.841  1.00  0.00     0.134 A 
ATOM     44  F   UNL     1      16.997  11.181  -3.838  1.00  0.00    -0.206 F 
ATOM     45  C   UNL     1      19.027  10.258  -4.574  1.00  0.00     0.040 A 
ATOM     46  C   UNL     1      21.061  11.539  -4.421  1.00  0.00     0.040 A 
ATOM     47  F   UNL     1      21.021  13.698  -3.508  1.00  0.00    -0.206 F 
ATOM     48  C   UNL     1      20.401  10.369  -4.789  1.00  0.00     0.006 A 
ENDBRANCH  27  41
BRANCH  28  49
ATOM     49  C   UNL     1      14.356  20.525   0.175  1.00  0.00     0.057 A 
ATOM     50  C   UNL     1      13.198  21.103  -0.355  1.00  0.00     0.134 A 
ATOM     51  C   UNL     1      14.943  21.154   1.280  1.00  0.00     0.134 A 
ATOM     52  F   UNL     1      12.597  20.556  -1.422  1.00  0.00    -0.206 F 
ATOM     53  C   UNL     1      12.662  22.279   0.174  1.00  0.00     0.040 A 
ATOM     54  C   UNL     1      14.399  22.310   1.840  1.00  0.00     0.040 A 
ATOM     55  F   UNL     1      16.050  20.645   1.842  1.00  0.00    -0.206 F 
ATOM     56  C   UNL     1      13.261  22.883   1.278  1.00  0.00     0.006 A 
ENDBRANCH  28  49
BRANCH  40  57
ATOM     57  C   UNL     1      17.520  19.183  -5.877  1.00  0.00     0.057 A 
ATOM     58  C   UNL     1      18.488  20.194  -5.837  1.00  0.00     0.134 A 
ATOM     59  C   UNL     1      16.864  18.960  -7.094  1.00  0.00     0.134 A 
ATOM     60  F   UNL     1      19.138  20.469  -4.696  1.00  0.00    -0.206 F 
ATOM     61  C   UNL     1      18.781  20.966  -6.962  1.00  0.00     0.040 A 
ATOM     62  C   UNL     1      17.169  19.705  -8.233  1.00  0.00     0.040 A 
ATOM     63  F   UNL     1      15.931  18.002  -7.199  1.00  0.00    -0.206 F 
ATOM     64  C   UNL     1      18.127  20.714  -8.167  1.00  0.00     0.006 A 
ENDBRANCH  40  57
ENDBRANCH  14  15
ENDBRANCH   7   9
ENDBRANCH   4   5
ENDBRANCH   3   4
ENDBRANCH   2   3
ENDBRANCH   1   2
BRANCH   1  65
ATOM     65  C   UNL     1      10.849   8.416   6.056  1.00  0.00     0.021 C 
BRANCH  65  66
ATOM     66  C   UNL     1      11.058   6.969   5.623  1.00  0.00     0.116 C 
BRANCH  66  67
ATOM     67  N   UNL     1      10.435   6.041   6.537  1.00  0.00    -0.354 N 
ATOM     68  C   UNL     1       9.472   5.096   6.427  1.00  0.00     0.249 C 
ATOM     69  H   UNL     1      10.795   6.110   7.451  1.00  0.00     0.163 HD
ATOM     70  O   UNL     1       9.180   4.534   7.494  1.00  0.00    -0.272 OA
BRANCH  68  71
ATOM     71  C   UNL     1       8.773   4.638   5.123  1.00  0.00     0.207 C 
ATOM     72  C   UNL     1       8.846   5.411   3.829  1.00  0.00     0.045 C 
ATOM     73  O   UNL     1       9.225   3.311   4.792  1.00  0.00    -0.363 OA
ATOM     74  C   UNL     1      10.049   4.804   3.141  1.00  0.00     0.037 C 
ATOM     75  C   UNL     1       9.998   3.347   3.574  1.00  0.00     0.138 C 
BRANCH  75  76
ATOM     76  C   UNL     1      11.344   2.631   3.820  1.00  0.00     0.145 C 
BRANCH  76  77
ATOM     77  N   UNL     1      12.493   3.249   3.155  1.00  0.00    -0.382 N 
ATOM     78  H   UNL     1      12.518   3.288   2.171  1.00  0.00     0.160 HD
BRANCH  77  79
ATOM     79  C   UNL     1      13.548   3.782   3.885  1.00  0.00     0.046 A 
ATOM     80  C   UNL     1      13.878   5.130   3.640  1.00  0.00     0.026 A 
ATOM     81  C   UNL     1      14.247   3.109   4.902  1.00  0.00     0.079 A 
ATOM     82  C   UNL     1      14.828   5.813   4.402  1.00  0.00     0.002 A 
ATOM     83  C   UNL     1      15.191   3.822   5.683  1.00  0.00     0.015 A 
ATOM     84  C   UNL     1      15.473   5.163   5.442  1.00  0.00     0.001 A 
BRANCH  81  85
ATOM     85  C   UNL     1      14.124   1.632   5.200  1.00  0.00     0.418 C 
ATOM     86  F   UNL     1      15.349   1.027   5.271  1.00  0.00    -0.166 F 
ATOM     87  F   UNL     1      13.543   1.400   6.413  1.00  0.00    -0.166 F 
ATOM     88  F   UNL     1      13.422   0.888   4.303  1.00  0.00    -0.166 F 
ENDBRANCH  81  85
ENDBRANCH  77  79
ENDBRANCH  76  77
ENDBRANCH  75  76
ENDBRANCH  68  71
ENDBRANCH  66  67
ENDBRANCH  65  66
ENDBRANCH   1  65
TORSDOF 17
