REMARK SMILES COC(=O)c1c(NC(=O)CCC(=O)NCCCCCCNC(=O)c2ccc(-c3c4nc(c(-c5c(F)cccc5F)c5ccc([nH]5)c(-c5c(F)cccc5F)c5nc(c(-c6c(F)cccc6F)c6ccc3[nH]6)C=C5)C=C4)cc2)sc2c1CCCCCC2
REMARK SMILES IDX 15 1 14 2 12 3 13 4 11 6 10 7 8 8 7 9 9 11 6 12 5 13 80 14
REMARK SMILES IDX 78 15 79 16 3 17 4 18 2 19 1 20 81 21 82 22 86 24 85 25
REMARK SMILES IDX 84 26 83 27 16 29 17 30 18 31 19 32 20 33 21 34 22 35 23 37
REMARK SMILES IDX 24 38 25 39 77 40 26 41 76 42 27 43 28 44 29 45 70 46 30 47
REMARK SMILES IDX 75 48 69 49 71 50 31 51 74 52 68 53 67 54 32 56 58 57 41 58
REMARK SMILES IDX 57 59 42 60 45 61 56 62 72 63 43 64 44 65 55 67 73 68 46 69
REMARK SMILES IDX 33 70 34 71 39 72 35 73 36 74 38 75 40 76 37 77 59 78 60 79
REMARK SMILES IDX 65 80 61 81 62 82 64 83 66 84 63 85 47 86 48 87 53 88 49 89
REMARK SMILES IDX 50 90 52 91 54 92 51 93
REMARK H PARENT 14 5 7 10 21 36 71 55 45 66
REMARK Flexibility Score: 90.00
ROOT
ATOM      1  C   UNL     1      -2.711   2.090   3.523  1.00  0.00     0.116 C 
ENDROOT
BRANCH   1   2
ATOM      2  N   UNL     1      -1.289   1.896   3.711  1.00  0.00    -0.356 N 
ATOM      3  C   UNL     1      -0.324   1.724   2.769  1.00  0.00     0.220 C 
ATOM      4  O   UNL     1       0.855   1.807   3.113  1.00  0.00    -0.275 OA
ATOM      5  H   UNL     1      -0.980   1.887   4.646  1.00  0.00     0.163 HD
BRANCH   3   6
ATOM      6  C   UNL     1      -0.708   1.471   1.330  1.00  0.00     0.110 C 
BRANCH   6   7
ATOM      7  C   UNL     1      -1.081   0.046   0.935  1.00  0.00     0.110 C 
BRANCH   7   8
ATOM      8  C   UNL     1      -2.043  -0.727   1.791  1.00  0.00     0.225 C 
ATOM      9  N   UNL     1      -1.700  -1.442   2.892  1.00  0.00    -0.317 N 
ATOM     10  H   UNL     1      -2.371  -2.110   3.165  1.00  0.00     0.170 HD
ATOM     11  O   UNL     1      -3.246  -0.708   1.494  1.00  0.00    -0.275 OA
BRANCH   9  12
ATOM     12  C   UNL     1      -0.586  -1.405   3.695  1.00  0.00     0.110 A 
ATOM     13  C   UNL     1       0.786  -1.320   3.594  1.00  0.00     0.098 A 
ATOM     14  C   UNL     1       1.388  -1.026   4.905  1.00  0.00    -0.017 A 
ATOM     15  S   UNL     1      -1.082  -1.553   5.316  1.00  0.00    -0.122 S 
ATOM     16  C   UNL     1       0.424  -1.000   5.912  1.00  0.00     0.011 A 
BRANCH  13  17
ATOM     17  C   UNL     1       1.526  -1.625   2.376  1.00  0.00     0.341 C 
ATOM     18  O   UNL     1       1.750  -2.775   2.021  1.00  0.00    -0.246 OA
BRANCH  17  19
ATOM     19  O   UNL     1       1.890  -0.519   1.670  1.00  0.00    -0.465 OA
ATOM     20  C   UNL     1       2.333  -0.772   0.331  1.00  0.00     0.282 C 
ENDBRANCH  17  19
ENDBRANCH  13  17
BRANCH  14  21
ATOM     21  C   UNL     1       2.869  -0.832   5.114  1.00  0.00     0.037 C 
BRANCH  21  22
ATOM     22  C   UNL     1       3.312   0.593   5.436  1.00  0.00     0.005 CG0
ATOM     23  G   UNL     1       2.663   1.285   6.633  1.00  0.00     0.000 G0
ENDBRANCH  21  22
ENDBRANCH  14  21
BRANCH  16  24
ATOM     24  C   UNL     1       0.453  -0.631   7.377  1.00  0.00     0.047 C 
BRANCH  24  25
ATOM     25  C   UNL     1       1.801  -0.725   8.076  1.00  0.00     0.006 C 
BRANCH  25  26
ATOM     26  C   UNL     1       2.691   0.517   7.954  1.00  0.00     0.000 C 
BRANCH  26  27
ATOM     27  C   UNL     1       2.663   1.285   6.633  1.00  0.00     0.000 CG0
ATOM     28  G   UNL     1       3.312   0.593   5.436  1.00  0.00     0.000 G0
ENDBRANCH  26  27
ENDBRANCH  25  26
ENDBRANCH  24  25
ENDBRANCH  16  24
ENDBRANCH   9  12
ENDBRANCH   7   8
ENDBRANCH   6   7
ENDBRANCH   3   6
ENDBRANCH   1   2
BRANCH   1  29
ATOM     29  C   UNL     1      -3.552   1.185   4.414  1.00  0.00     0.021 C 
BRANCH  29  30
ATOM     30  C   UNL     1      -3.466   1.481   5.912  1.00  0.00     0.002 C 
BRANCH  30  31
ATOM     31  C   UNL     1      -3.902   2.888   6.331  1.00  0.00     0.002 C 
BRANCH  31  32
ATOM     32  C   UNL     1      -5.223   3.390   5.734  1.00  0.00     0.021 C 
BRANCH  32  33
ATOM     33  C   UNL     1      -6.418   2.476   5.970  1.00  0.00     0.116 C 
BRANCH  33  34
ATOM     34  N   UNL     1      -6.748   2.341   7.378  1.00  0.00    -0.352 N 
ATOM     35  C   UNL     1      -7.705   1.533   7.947  1.00  0.00     0.251 C 
ATOM     36  H   UNL     1      -6.223   2.894   8.001  1.00  0.00     0.163 HD
ATOM     37  O   UNL     1      -8.119   1.760   9.078  1.00  0.00    -0.269 OA
BRANCH  35  38
ATOM     38  C   UNL     1      -8.253   0.403   7.173  1.00  0.00     0.039 A 
ATOM     39  C   UNL     1      -9.631   0.185   7.165  1.00  0.00     0.014 A 
ATOM     40  C   UNL     1      -7.398  -0.439   6.458  1.00  0.00     0.014 A 
ATOM     41  C   UNL     1     -10.149  -0.838   6.378  1.00  0.00     0.010 A 
ATOM     42  C   UNL     1      -7.920  -1.397   5.607  1.00  0.00     0.010 A 
ATOM     43  C   UNL     1      -9.296  -1.616   5.574  1.00  0.00    -0.014 A 
BRANCH  43  44
ATOM     44  C   UNL     1      -9.893  -2.567   4.635  1.00  0.00     0.031 A 
ATOM     45  C   UNL     1     -10.989  -2.021   3.782  1.00  0.00     0.074 A 
ATOM     46  C   UNL     1      -9.457  -3.820   4.392  1.00  0.00     0.049 A 
ATOM     47  N   UNL     1     -12.242  -2.339   3.814  1.00  0.00    -0.248 NA
ATOM     48  C   UNL     1     -10.672  -0.934   2.845  1.00  0.00     0.031 C 
ATOM     49  C   UNL     1      -8.239  -4.482   4.862  1.00  0.00     0.029 A 
ATOM     50  N   UNL     1     -10.014  -4.756   3.568  1.00  0.00    -0.354 N 
ATOM     51  C   UNL     1     -12.854  -1.623   2.790  1.00  0.00     0.074 A 
ATOM     52  C   UNL     1     -11.870  -0.685   2.311  1.00  0.00     0.031 C 
ATOM     53  C   UNL     1      -8.041  -5.615   4.152  1.00  0.00     0.029 A 
ATOM     54  C   UNL     1      -9.195  -5.842   3.299  1.00  0.00     0.049 A 
ATOM     55  H   UNL     1     -10.921  -4.667   3.196  1.00  0.00     0.167 HD
ATOM     56  C   UNL     1     -14.067  -1.993   2.290  1.00  0.00     0.037 A 
ATOM     57  C   UNL     1      -9.436  -6.847   2.422  1.00  0.00     0.037 A 
ATOM     58  C   UNL     1     -14.760  -2.884   3.187  1.00  0.00     0.049 A 
ATOM     59  C   UNL     1     -10.898  -6.897   2.180  1.00  0.00     0.074 A 
ATOM     60  C   UNL     1     -15.153  -2.816   4.511  1.00  0.00     0.029 A 
ATOM     61  N   UNL     1     -14.839  -4.215   2.856  1.00  0.00    -0.354 N 
ATOM     62  N   UNL     1     -11.771  -7.297   3.061  1.00  0.00    -0.248 NA
ATOM     63  C   UNL     1     -11.437  -6.109   1.083  1.00  0.00     0.031 C 
ATOM     64  C   UNL     1     -14.919  -4.126   5.029  1.00  0.00     0.029 A 
ATOM     65  C   UNL     1     -14.462  -4.915   3.973  1.00  0.00     0.049 A 
ATOM     66  H   UNL     1     -15.113  -4.591   1.989  1.00  0.00     0.167 HD
ATOM     67  C   UNL     1     -12.853  -6.449   2.889  1.00  0.00     0.074 A 
ATOM     68  C   UNL     1     -12.638  -5.819   1.589  1.00  0.00     0.031 C 
ATOM     69  C   UNL     1     -13.674  -6.123   3.931  1.00  0.00     0.037 A 
BRANCH  56  70
ATOM     70  C   UNL     1     -14.480  -1.831   0.847  1.00  0.00     0.057 A 
ATOM     71  C   UNL     1     -15.808  -2.112   0.471  1.00  0.00     0.134 A 
ATOM     72  C   UNL     1     -13.570  -1.709  -0.221  1.00  0.00     0.134 A 
ATOM     73  F   UNL     1     -16.768  -2.265   1.395  1.00  0.00    -0.206 F 
ATOM     74  C   UNL     1     -16.181  -2.336  -0.860  1.00  0.00     0.040 A 
ATOM     75  C   UNL     1     -13.943  -1.879  -1.558  1.00  0.00     0.040 A 
ATOM     76  F   UNL     1     -12.259  -1.522  -0.027  1.00  0.00    -0.206 F 
ATOM     77  C   UNL     1     -15.245  -2.229  -1.880  1.00  0.00     0.006 A 
ENDBRANCH  56  70
BRANCH  57  78
ATOM     78  C   UNL     1      -8.475  -7.628   1.617  1.00  0.00     0.057 A 
ATOM     79  C   UNL     1      -8.849  -8.831   1.002  1.00  0.00     0.134 A 
ATOM     80  C   UNL     1      -7.250  -7.077   1.203  1.00  0.00     0.134 A 
ATOM     81  F   UNL     1     -10.016  -9.417   1.302  1.00  0.00    -0.206 F 
ATOM     82  C   UNL     1      -8.065  -9.434   0.009  1.00  0.00     0.040 A 
ATOM     83  C   UNL     1      -6.454  -7.673   0.220  1.00  0.00     0.040 A 
ATOM     84  F   UNL     1      -6.827  -5.894   1.674  1.00  0.00    -0.206 F 
ATOM     85  C   UNL     1      -6.870  -8.848  -0.394  1.00  0.00     0.006 A 
ENDBRANCH  57  78
BRANCH  69  86
ATOM     86  C   UNL     1     -13.560  -6.913   5.206  1.00  0.00     0.057 A 
ATOM     87  C   UNL     1     -12.387  -7.025   5.969  1.00  0.00     0.134 A 
ATOM     88  C   UNL     1     -14.720  -7.475   5.754  1.00  0.00     0.134 A 
ATOM     89  F   UNL     1     -11.249  -6.427   5.591  1.00  0.00    -0.206 F 
ATOM     90  C   UNL     1     -12.359  -7.715   7.184  1.00  0.00     0.040 A 
ATOM     91  C   UNL     1     -14.714  -8.134   6.986  1.00  0.00     0.040 A 
ATOM     92  F   UNL     1     -15.896  -7.360   5.114  1.00  0.00    -0.206 F 
ATOM     93  C   UNL     1     -13.527  -8.269   7.699  1.00  0.00     0.006 A 
ENDBRANCH  69  86
ENDBRANCH  43  44
ENDBRANCH  35  38
ENDBRANCH  33  34
ENDBRANCH  32  33
ENDBRANCH  31  32
ENDBRANCH  30  31
ENDBRANCH  29  30
ENDBRANCH   1  29
TORSDOF 18
