REMARK SMILES CC(C)(C)[NH2+]Cc1cc(C(=O)NCCCCCCNC(=O)c2ccc(-c3c4nc(c(-c5c(F)cccc5F)c5ccc([nH]5)c(-c5c(F)cccc5F)c5nc(c(-c6c(F)cccc6F)c6ccc3[nH]6)C=C5)C=C4)cc2)cs1
REMARK SMILES IDX 15 1 14 2 13 3 12 4 10 5 11 6 9 8 7 9 8 10 77 11 76 12 6 13
REMARK SMILES IDX 5 14 2 17 1 18 3 19 4 20 16 21 17 22 18 23 19 24 20 25 21 27
REMARK SMILES IDX 22 28 23 29 75 30 24 31 74 32 25 33 26 34 27 35 68 36 28 37
REMARK SMILES IDX 73 38 67 39 69 40 29 41 72 42 66 43 65 44 30 46 56 47 39 48
REMARK SMILES IDX 55 49 40 50 43 51 54 52 70 53 41 54 42 55 53 57 71 58 44 59
REMARK SMILES IDX 31 60 32 61 37 62 33 63 34 64 36 65 38 66 35 67 57 68 58 69
REMARK SMILES IDX 63 70 59 71 60 72 62 73 64 74 61 75 45 76 46 77 51 78 47 79
REMARK SMILES IDX 48 80 50 81 52 82 49 83
REMARK H PARENT 12 7 5 15 5 16 19 26 69 45 43 56
REMARK Flexibility Score: inf
ROOT
ATOM      1  C   UNL     1       6.279   6.023  -6.011  1.00  0.00     0.002 C 
ENDROOT
BRANCH   1   2
ATOM      2  C   UNL     1       5.882   5.198  -4.784  1.00  0.00     0.021 C 
BRANCH   2   3
ATOM      3  C   UNL     1       4.477   4.602  -4.823  1.00  0.00     0.116 C 
BRANCH   3   4
ATOM      4  N   UNL     1       4.349   3.545  -5.810  1.00  0.00    -0.352 N 
ATOM      5  C   UNL     1       4.245   2.191  -5.633  1.00  0.00     0.252 C 
ATOM      6  O   UNL     1       4.365   1.453  -6.622  1.00  0.00    -0.269 OA
ATOM      7  H   UNL     1       4.335   3.846  -6.747  1.00  0.00     0.163 HD
BRANCH   5   8
ATOM      8  C   UNL     1       4.032   1.652  -4.298  1.00  0.00     0.051 A 
ATOM      9  C   UNL     1       3.219   1.449  -2.097  1.00  0.00     0.059 A 
ATOM     10  C   UNL     1       3.119   2.127  -3.296  1.00  0.00     0.035 A 
ATOM     11  S   UNL     1       4.338   0.159  -2.213  1.00  0.00    -0.142 S 
ATOM     12  C   UNL     1       4.686   0.521  -3.846  1.00  0.00     0.079 A 
BRANCH   9  13
ATOM     13  C   UNL     1       2.528   1.743  -0.798  1.00  0.00     0.308 C 
BRANCH  13  14
ATOM     14  N   UNL     1       1.076   1.849  -0.906  1.00  0.00    -0.338 N 
ATOM     15  H   UNL     1       0.751   2.372  -0.092  1.00  0.00     0.347 HD
ATOM     16  H   UNL     1       0.925   2.290  -1.813  1.00  0.00     0.347 HD
BRANCH  14  17
ATOM     17  C   UNL     1       0.282   0.612  -0.971  1.00  0.00     0.088 C 
ATOM     18  C   UNL     1       0.669  -0.409   0.111  1.00  0.00     0.078 C 
ATOM     19  C   UNL     1       0.341  -0.048  -2.358  1.00  0.00     0.078 C 
ATOM     20  C   UNL     1      -1.175   1.052  -0.718  1.00  0.00     0.078 C 
ENDBRANCH  14  17
ENDBRANCH  13  14
ENDBRANCH   9  13
ENDBRANCH   5   8
ENDBRANCH   3   4
ENDBRANCH   2   3
ENDBRANCH   1   2
BRANCH   1  21
ATOM     21  C   UNL     1       5.318   7.147  -6.407  1.00  0.00     0.002 C 
BRANCH  21  22
ATOM     22  C   UNL     1       4.899   8.110  -5.291  1.00  0.00     0.021 C 
BRANCH  22  23
ATOM     23  C   UNL     1       6.035   8.800  -4.540  1.00  0.00     0.116 C 
BRANCH  23  24
ATOM     24  N   UNL     1       6.857   9.627  -5.403  1.00  0.00    -0.352 N 
ATOM     25  C   UNL     1       7.296  10.915  -5.235  1.00  0.00     0.251 C 
ATOM     26  H   UNL     1       7.144   9.196  -6.240  1.00  0.00     0.163 HD
ATOM     27  O   UNL     1       7.881  11.477  -6.158  1.00  0.00    -0.269 OA
BRANCH  25  28
ATOM     28  C   UNL     1       7.063  11.651  -3.969  1.00  0.00     0.039 A 
ATOM     29  C   UNL     1       6.723  13.006  -4.048  1.00  0.00     0.014 A 
ATOM     30  C   UNL     1       7.235  11.052  -2.717  1.00  0.00     0.014 A 
ATOM     31  C   UNL     1       6.522  13.748  -2.881  1.00  0.00     0.010 A 
ATOM     32  C   UNL     1       6.980  11.780  -1.552  1.00  0.00     0.010 A 
ATOM     33  C   UNL     1       6.634  13.137  -1.623  1.00  0.00    -0.014 A 
BRANCH  33  34
ATOM     34  C   UNL     1       6.413  13.921  -0.381  1.00  0.00     0.031 A 
ATOM     35  C   UNL     1       7.562  14.225   0.540  1.00  0.00     0.074 A 
ATOM     36  C   UNL     1       5.173  14.339  -0.067  1.00  0.00     0.049 A 
ATOM     37  N   UNL     1       7.562  14.888   1.670  1.00  0.00    -0.248 NA
ATOM     38  C   UNL     1       8.879  13.698   0.153  1.00  0.00     0.031 C 
ATOM     39  C   UNL     1       3.966  14.072  -0.851  1.00  0.00     0.029 A 
ATOM     40  N   UNL     1       4.722  15.076   1.000  1.00  0.00    -0.354 N 
ATOM     41  C   UNL     1       8.870  14.844   2.134  1.00  0.00     0.074 A 
ATOM     42  C   UNL     1       9.629  14.058   1.185  1.00  0.00     0.031 C 
ATOM     43  C   UNL     1       2.916  14.658  -0.251  1.00  0.00     0.029 A 
ATOM     44  C   UNL     1       3.372  15.323   0.966  1.00  0.00     0.049 A 
ATOM     45  H   UNL     1       5.311  15.397   1.720  1.00  0.00     0.167 HD
ATOM     46  C   UNL     1       9.397  15.421   3.241  1.00  0.00     0.037 A 
ATOM     47  C   UNL     1       2.591  16.017   1.815  1.00  0.00     0.037 A 
ATOM     48  C   UNL     1       8.655  16.231   4.170  1.00  0.00     0.049 A 
ATOM     49  C   UNL     1       3.207  16.685   3.011  1.00  0.00     0.074 A 
ATOM     50  C   UNL     1       9.113  16.897   5.295  1.00  0.00     0.029 A 
ATOM     51  N   UNL     1       7.297  16.492   4.077  1.00  0.00    -0.354 N 
ATOM     52  N   UNL     1       4.456  16.681   3.407  1.00  0.00    -0.248 NA
ATOM     53  C   UNL     1       2.306  17.467   3.870  1.00  0.00     0.031 C 
ATOM     54  C   UNL     1       8.027  17.545   5.893  1.00  0.00     0.029 A 
ATOM     55  C   UNL     1       6.899  17.305   5.125  1.00  0.00     0.049 A 
ATOM     56  H   UNL     1       6.703  16.150   3.370  1.00  0.00     0.167 HD
ATOM     57  C   UNL     1       4.497  17.477   4.543  1.00  0.00     0.074 A 
ATOM     58  C   UNL     1       3.149  17.956   4.769  1.00  0.00     0.031 C 
ATOM     59  C   UNL     1       5.557  17.785   5.328  1.00  0.00     0.037 A 
BRANCH  46  60
ATOM     60  C   UNL     1      10.856  15.198   3.503  1.00  0.00     0.057 A 
ATOM     61  C   UNL     1      11.844  15.842   2.748  1.00  0.00     0.134 A 
ATOM     62  C   UNL     1      11.278  14.353   4.536  1.00  0.00     0.134 A 
ATOM     63  F   UNL     1      11.504  16.654   1.735  1.00  0.00    -0.206 F 
ATOM     64  C   UNL     1      13.202  15.637   2.997  1.00  0.00     0.040 A 
ATOM     65  C   UNL     1      12.633  14.156   4.809  1.00  0.00     0.040 A 
ATOM     66  F   UNL     1      10.382  13.709   5.299  1.00  0.00    -0.206 F 
ATOM     67  C   UNL     1      13.599  14.795   4.035  1.00  0.00     0.006 A 
ENDBRANCH  46  60
BRANCH  47  68
ATOM     68  C   UNL     1       1.142  16.157   1.536  1.00  0.00     0.057 A 
ATOM     69  C   UNL     1       0.615  17.364   1.064  1.00  0.00     0.134 A 
ATOM     70  C   UNL     1       0.255  15.094   1.730  1.00  0.00     0.134 A 
ATOM     71  F   UNL     1       1.417  18.423   0.876  1.00  0.00    -0.206 F 
ATOM     72  C   UNL     1      -0.748  17.515   0.808  1.00  0.00     0.040 A 
ATOM     73  C   UNL     1      -1.108  15.224   1.462  1.00  0.00     0.040 A 
ATOM     74  F   UNL     1       0.703  13.910   2.175  1.00  0.00    -0.206 F 
ATOM     75  C   UNL     1      -1.614  16.440   1.004  1.00  0.00     0.006 A 
ENDBRANCH  47  68
BRANCH  59  76
ATOM     76  C   UNL     1       5.308  18.708   6.481  1.00  0.00     0.057 A 
ATOM     77  C   UNL     1       4.672  18.273   7.649  1.00  0.00     0.134 A 
ATOM     78  C   UNL     1       5.734  20.041   6.430  1.00  0.00     0.134 A 
ATOM     79  F   UNL     1       4.229  17.010   7.752  1.00  0.00    -0.206 F 
ATOM     80  C   UNL     1       4.452  19.137   8.723  1.00  0.00     0.040 A 
ATOM     81  C   UNL     1       5.535  20.910   7.503  1.00  0.00     0.040 A 
ATOM     82  F   UNL     1       6.354  20.517   5.340  1.00  0.00    -0.206 F 
ATOM     83  C   UNL     1       4.888  20.459   8.652  1.00  0.00     0.006 A 
ENDBRANCH  59  76
ENDBRANCH  33  34
ENDBRANCH  25  28
ENDBRANCH  23  24
ENDBRANCH  22  23
ENDBRANCH  21  22
ENDBRANCH   1  21
TORSDOF 16
