REMARK SMILES C[C@@H](Oc1ccc(/C=N/NC(=O)c2ccc(I)c(O)c2)cc1)C(=O)NCCCCCCNC(=O)c1ccc(-c2c3nc(c(-c4c(F)cccc4F)c4ccc([nH]4)c(-c4c(F)cccc4F)c4nc(c(-c5c(F)cccc5F)c5ccc2[nH]5)C=C4)C=C3)cc1
REMARK SMILES IDX 26 1 25 2 23 3 24 4 2 6 1 7 3 8 4 9 5 10 22 11 6 12 21 13
REMARK SMILES IDX 7 14 8 15 9 16 10 17 11 18 12 20 13 21 14 22 20 23 15 24
REMARK SMILES IDX 18 25 16 26 17 27 19 28 27 30 28 31 29 32 30 33 31 34 32 35
REMARK SMILES IDX 33 36 34 38 35 39 36 40 88 41 37 42 87 43 38 44 39 45 40 46
REMARK SMILES IDX 81 47 41 48 86 49 80 50 82 51 42 52 85 53 79 54 78 55 43 57
REMARK SMILES IDX 69 58 52 59 68 60 53 61 56 62 67 63 83 64 54 65 55 66 66 68
REMARK SMILES IDX 84 69 57 70 44 71 45 72 50 73 46 74 47 75 49 76 51 77 48 78
REMARK SMILES IDX 70 79 71 80 76 81 72 82 73 83 75 84 77 85 74 86 58 87 59 88
REMARK SMILES IDX 64 89 60 90 61 91 63 92 65 93 62 94
REMARK H PARENT 25 5 10 19 19 29 32 37 82 56 56 67
REMARK Flexibility Score: inf
ROOT
ATOM      1  C   UNL     1      -1.161  -0.092  -2.249  1.00  0.00     0.116 C 
ENDROOT
BRANCH   1   2
ATOM      2  N   UNL     1      -1.678   0.852  -1.273  1.00  0.00    -0.353 N 
ATOM      3  C   UNL     1      -0.997   1.628  -0.375  1.00  0.00     0.260 C 
ATOM      4  O   UNL     1      -1.646   2.361   0.375  1.00  0.00    -0.271 OA
ATOM      5  H   UNL     1      -2.658   0.946  -1.254  1.00  0.00     0.163 HD
BRANCH   3   6
ATOM      6  C   UNL     1       0.530   1.525  -0.266  1.00  0.00     0.258 C 
ATOM      7  C   UNL     1       0.864   0.196   0.414  1.00  0.00     0.064 C 
BRANCH   6   8
ATOM      8  O   UNL     1       1.038   1.692  -1.599  1.00  0.00    -0.481 OA
BRANCH   8   9
ATOM      9  C   UNL     1       2.369   1.941  -1.715  1.00  0.00     0.120 A 
ATOM     10  C   UNL     1       2.754   3.119  -2.361  1.00  0.00     0.047 A 
ATOM     11  C   UNL     1       3.324   0.993  -1.360  1.00  0.00     0.047 A 
ATOM     12  C   UNL     1       4.107   3.380  -2.592  1.00  0.00     0.013 A 
ATOM     13  C   UNL     1       4.673   1.270  -1.536  1.00  0.00     0.013 A 
ATOM     14  C   UNL     1       5.058   2.463  -2.147  1.00  0.00    -0.005 A 
BRANCH  14  15
ATOM     15  C   UNL     1       6.496   2.682  -2.324  1.00  0.00     0.141 C 
ATOM     16  N   UNL     1       6.994   3.115  -3.437  1.00  0.00    -0.180 NA
BRANCH  16  17
ATOM     17  N   UNL     1       8.361   3.122  -3.538  1.00  0.00    -0.243 N 
ATOM     18  C   UNL     1       9.282   2.159  -3.149  1.00  0.00     0.271 C 
ATOM     19  H   UNL     1       8.746   3.930  -3.948  1.00  0.00     0.194 HD
ATOM     20  O   UNL     1      10.489   2.395  -3.188  1.00  0.00    -0.267 OA
BRANCH  18  21
ATOM     21  C   UNL     1       8.836   0.823  -2.679  1.00  0.00     0.045 A 
ATOM     22  C   UNL     1       9.444   0.283  -1.538  1.00  0.00     0.015 A 
ATOM     23  C   UNL     1       7.812   0.121  -3.326  1.00  0.00     0.061 A 
ATOM     24  C   UNL     1       8.982  -0.922  -1.004  1.00  0.00     0.019 A 
ATOM     25  C   UNL     1       7.336  -1.069  -2.774  1.00  0.00     0.129 A 
ATOM     26  C   UNL     1       7.914  -1.589  -1.611  1.00  0.00     0.055 A 
ATOM     27  I   UNL     1       7.200  -3.335  -0.710  1.00  0.00    -0.040 I 
BRANCH  25  28
ATOM     28  O   UNL     1       6.263  -1.692  -3.349  1.00  0.00    -0.507 OA
ATOM     29  H   UNL     1       5.936  -2.491  -2.986  1.00  0.00     0.293 HD
ENDBRANCH  25  28
ENDBRANCH  18  21
ENDBRANCH  16  17
ENDBRANCH  14  15
ENDBRANCH   8   9
ENDBRANCH   6   8
ENDBRANCH   3   6
ENDBRANCH   1   2
BRANCH   1  30
ATOM     30  C   UNL     1      -1.669  -1.505  -1.987  1.00  0.00     0.021 C 
BRANCH  30  31
ATOM     31  C   UNL     1      -3.168  -1.681  -2.237  1.00  0.00     0.002 C 
BRANCH  31  32
ATOM     32  C   UNL     1      -3.632  -1.309  -3.649  1.00  0.00     0.002 C 
BRANCH  32  33
ATOM     33  C   UNL     1      -2.895  -2.026  -4.782  1.00  0.00     0.021 C 
BRANCH  33  34
ATOM     34  C   UNL     1      -2.974  -3.548  -4.723  1.00  0.00     0.116 C 
BRANCH  34  35
ATOM     35  N   UNL     1      -4.341  -4.028  -4.845  1.00  0.00    -0.352 N 
ATOM     36  C   UNL     1      -4.885  -4.894  -5.761  1.00  0.00     0.251 C 
ATOM     37  H   UNL     1      -4.970  -3.681  -4.171  1.00  0.00     0.163 HD
ATOM     38  O   UNL     1      -6.099  -5.028  -5.843  1.00  0.00    -0.269 OA
BRANCH  36  39
ATOM     39  C   UNL     1      -3.995  -5.648  -6.669  1.00  0.00     0.039 A 
ATOM     40  C   UNL     1      -4.314  -5.710  -8.028  1.00  0.00     0.014 A 
ATOM     41  C   UNL     1      -2.849  -6.282  -6.183  1.00  0.00     0.014 A 
ATOM     42  C   UNL     1      -3.440  -6.345  -8.912  1.00  0.00     0.010 A 
ATOM     43  C   UNL     1      -1.943  -6.849  -7.075  1.00  0.00     0.010 A 
ATOM     44  C   UNL     1      -2.226  -6.879  -8.449  1.00  0.00    -0.014 A 
BRANCH  44  45
ATOM     45  C   UNL     1      -1.226  -7.440  -9.390  1.00  0.00     0.031 A 
ATOM     46  C   UNL     1      -0.837  -8.889  -9.317  1.00  0.00     0.074 A 
ATOM     47  C   UNL     1      -0.608  -6.620 -10.263  1.00  0.00     0.049 A 
ATOM     48  N   UNL     1       0.071  -9.537 -10.002  1.00  0.00    -0.248 NA
ATOM     49  C   UNL     1      -1.544  -9.712  -8.324  1.00  0.00     0.031 C 
ATOM     50  C   UNL     1      -0.859  -5.184 -10.394  1.00  0.00     0.029 A 
ATOM     51  N   UNL     1       0.371  -6.873 -11.191  1.00  0.00    -0.354 N 
ATOM     52  C   UNL     1       0.048 -10.839  -9.521  1.00  0.00     0.074 A 
ATOM     53  C   UNL     1      -0.919 -10.874  -8.444  1.00  0.00     0.031 C 
ATOM     54  C   UNL     1      -0.064  -4.685 -11.354  1.00  0.00     0.029 A 
ATOM     55  C   UNL     1       0.782  -5.755 -11.874  1.00  0.00     0.049 A 
ATOM     56  H   UNL     1       0.743  -7.770 -11.351  1.00  0.00     0.167 HD
ATOM     57  C   UNL     1       0.752 -11.914  -9.952  1.00  0.00     0.037 A 
ATOM     58  C   UNL     1       1.746  -5.600 -12.801  1.00  0.00     0.037 A 
ATOM     59  C   UNL     1       1.714 -11.873 -11.023  1.00  0.00     0.049 A 
ATOM     60  C   UNL     1       2.537  -6.799 -13.245  1.00  0.00     0.074 A 
ATOM     61  C   UNL     1       2.441 -12.916 -11.570  1.00  0.00     0.029 A 
ATOM     62  N   UNL     1       2.096 -10.723 -11.700  1.00  0.00    -0.354 N 
ATOM     63  N   UNL     1       2.451  -8.042 -12.836  1.00  0.00    -0.248 NA
ATOM     64  C   UNL     1       3.554  -6.576 -14.281  1.00  0.00     0.031 C 
ATOM     65  C   UNL     1       3.304 -12.389 -12.536  1.00  0.00     0.029 A 
ATOM     66  C   UNL     1       3.073 -11.026 -12.635  1.00  0.00     0.049 A 
ATOM     67  H   UNL     1       1.727  -9.825 -11.539  1.00  0.00     0.167 HD
ATOM     68  C   UNL     1       3.388  -8.752 -13.575  1.00  0.00     0.074 A 
ATOM     69  C   UNL     1       4.017  -7.804 -14.472  1.00  0.00     0.031 C 
ATOM     70  C   UNL     1       3.698 -10.070 -13.516  1.00  0.00     0.037 A 
BRANCH  57  71
ATOM     71  C   UNL     1       0.508 -13.222  -9.252  1.00  0.00     0.057 A 
ATOM     72  C   UNL     1      -0.713 -13.903  -9.358  1.00  0.00     0.134 A 
ATOM     73  C   UNL     1       1.509 -13.814  -8.471  1.00  0.00     0.134 A 
ATOM     74  F   UNL     1      -1.718 -13.388 -10.083  1.00  0.00    -0.206 F 
ATOM     75  C   UNL     1      -0.943 -15.103  -8.683  1.00  0.00     0.040 A 
ATOM     76  C   UNL     1       1.302 -15.030  -7.817  1.00  0.00     0.040 A 
ATOM     77  F   UNL     1       2.705 -13.224  -8.332  1.00  0.00    -0.206 F 
ATOM     78  C   UNL     1       0.069 -15.672  -7.913  1.00  0.00     0.006 A 
ENDBRANCH  57  71
BRANCH  58  79
ATOM     79  C   UNL     1       2.012  -4.254 -13.367  1.00  0.00     0.057 A 
ATOM     80  C   UNL     1       1.688  -3.946 -14.693  1.00  0.00     0.134 A 
ATOM     81  C   UNL     1       2.579  -3.236 -12.589  1.00  0.00     0.134 A 
ATOM     82  F   UNL     1       1.158  -4.883 -15.493  1.00  0.00    -0.206 F 
ATOM     83  C   UNL     1       1.928  -2.680 -15.229  1.00  0.00     0.040 A 
ATOM     84  C   UNL     1       2.800  -1.958 -13.104  1.00  0.00     0.040 A 
ATOM     85  F   UNL     1       2.903  -3.464 -11.307  1.00  0.00    -0.206 F 
ATOM     86  C   UNL     1       2.479  -1.679 -14.430  1.00  0.00     0.006 A 
ENDBRANCH  58  79
BRANCH  70  87
ATOM     87  C   UNL     1       4.756 -10.571 -14.458  1.00  0.00     0.057 A 
ATOM     88  C   UNL     1       6.109 -10.249 -14.291  1.00  0.00     0.134 A 
ATOM     89  C   UNL     1       4.421 -11.422 -15.520  1.00  0.00     0.134 A 
ATOM     90  F   UNL     1       6.495  -9.428 -13.303  1.00  0.00    -0.206 F 
ATOM     91  C   UNL     1       7.088 -10.739 -15.157  1.00  0.00     0.040 A 
ATOM     92  C   UNL     1       5.394 -11.942 -16.375  1.00  0.00     0.040 A 
ATOM     93  F   UNL     1       3.145 -11.777 -15.733  1.00  0.00    -0.206 F 
ATOM     94  C   UNL     1       6.732 -11.595 -16.198  1.00  0.00     0.006 A 
ENDBRANCH  70  87
ENDBRANCH  44  45
ENDBRANCH  36  39
ENDBRANCH  34  35
ENDBRANCH  33  34
ENDBRANCH  32  33
ENDBRANCH  31  32
ENDBRANCH  30  31
ENDBRANCH   1  30
TORSDOF 19
