REMARK SMILES CCn1cnc(S(=O)(=O)NC[C@H]2CC[C@@H](C(=O)NCCCCCCNC(=O)c3ccc(-c4c5nc(c(-c6c(F)cccc6F)c6ccc([nH]6)c(-c6c(F)cccc6F)c6nc(c(-c7c(F)cccc7F)c7ccc4[nH]7)C=C6)C=C5)cc3)O2)c1
REMARK SMILES IDX 20 1 19 2 18 3 16 4 17 5 15 7 12 8 13 9 82 10 14 11 11 12
REMARK SMILES IDX 10 13 7 15 8 16 9 17 6 18 3 19 4 20 83 21 5 22 2 23 1 24
REMARK SMILES IDX 21 25 22 26 23 27 24 28 25 29 26 30 27 32 28 33 29 34 81 35
REMARK SMILES IDX 30 36 80 37 31 38 32 39 33 40 74 41 34 42 79 43 73 44 75 45
REMARK SMILES IDX 35 46 78 47 72 48 71 49 36 51 62 52 45 53 61 54 46 55 49 56
REMARK SMILES IDX 60 57 76 58 47 59 48 60 59 62 77 63 50 64 37 65 38 66 43 67
REMARK SMILES IDX 39 68 40 69 42 70 44 71 41 72 63 73 64 74 69 75 65 76 66 77
REMARK SMILES IDX 68 78 70 79 67 80 51 81 52 82 57 83 53 84 54 85 56 86 58 87
REMARK SMILES IDX 55 88
REMARK H PARENT 18 6 10 14 25 31 75 50 49 61
REMARK Flexibility Score: inf
ROOT
ATOM      1  C   UNL     1       1.115   3.709  -7.257  1.00  0.00     0.021 C 
ENDROOT
BRANCH   1   2
ATOM      2  C   UNL     1       0.301   2.525  -6.747  1.00  0.00     0.116 C 
BRANCH   2   3
ATOM      3  N   UNL     1      -0.590   2.001  -7.765  1.00  0.00    -0.354 N 
ATOM      4  C   UNL     1      -0.622   0.739  -8.293  1.00  0.00     0.249 C 
ATOM      5  O   UNL     1      -1.468   0.473  -9.146  1.00  0.00    -0.272 OA
ATOM      6  H   UNL     1      -1.255   2.634  -8.122  1.00  0.00     0.163 HD
BRANCH   4   7
ATOM      7  C   UNL     1       0.421  -0.270  -7.806  1.00  0.00     0.207 C 
ATOM      8  C   UNL     1       0.417  -1.978  -6.184  1.00  0.00     0.134 C 
ATOM      9  C   UNL     1       0.971  -2.516  -7.487  1.00  0.00     0.037 C 
ATOM     10  O   UNL     1       0.229  -0.560  -6.409  1.00  0.00    -0.364 OA
ATOM     11  C   UNL     1       0.368  -1.604  -8.521  1.00  0.00     0.045 C 
BRANCH   8  12
ATOM     12  C   UNL     1      -0.883  -2.546  -5.586  1.00  0.00     0.131 C 
BRANCH  12  13
ATOM     13  N   UNL     1      -1.734  -3.380  -6.442  1.00  0.00    -0.207 NA
ATOM     14  H   UNL     1      -2.699  -3.167  -6.190  1.00  0.00     0.141 HD
BRANCH  13  15
ATOM     15  S   UNL     1      -1.590  -5.062  -6.422  1.00  0.00     0.259 S 
ATOM     16  O   UNL     1      -0.256  -5.393  -6.891  1.00  0.00    -0.205 OA
ATOM     17  O   UNL     1      -2.773  -5.586  -7.050  1.00  0.00    -0.205 OA
BRANCH  15  18
ATOM     18  C   UNL     1      -1.631  -5.657  -4.781  1.00  0.00     0.188 A 
ATOM     19  N   UNL     1      -1.942  -5.830  -2.627  1.00  0.00    -0.336 N 
ATOM     20  C   UNL     1      -1.137  -6.847  -3.067  1.00  0.00     0.201 A 
ATOM     21  C   UNL     1      -2.285  -5.073  -3.712  1.00  0.00     0.129 A 
ATOM     22  N   UNL     1      -0.920  -6.768  -4.357  1.00  0.00    -0.224 NA
BRANCH  19  23
ATOM     23  C   UNL     1      -2.276  -5.615  -1.234  1.00  0.00     0.120 C 
ATOM     24  C   UNL     1      -3.425  -4.654  -0.975  1.00  0.00     0.027 C 
ENDBRANCH  19  23
ENDBRANCH  15  18
ENDBRANCH  13  15
ENDBRANCH  12  13
ENDBRANCH   8  12
ENDBRANCH   4   7
ENDBRANCH   2   3
ENDBRANCH   1   2
BRANCH   1  25
ATOM     25  C   UNL     1       0.283   4.911  -7.709  1.00  0.00     0.002 C 
BRANCH  25  26
ATOM     26  C   UNL     1      -0.750   5.449  -6.712  1.00  0.00     0.002 C 
BRANCH  26  27
ATOM     27  C   UNL     1      -0.279   5.741  -5.281  1.00  0.00     0.021 C 
BRANCH  27  28
ATOM     28  C   UNL     1       0.765   6.841  -5.133  1.00  0.00     0.116 C 
BRANCH  28  29
ATOM     29  N   UNL     1       0.294   8.144  -5.598  1.00  0.00    -0.352 N 
ATOM     30  C   UNL     1       1.031   9.254  -5.964  1.00  0.00     0.251 C 
ATOM     31  H   UNL     1      -0.684   8.245  -5.659  1.00  0.00     0.163 HD
ATOM     32  O   UNL     1       0.519  10.367  -5.996  1.00  0.00    -0.269 OA
BRANCH  30  33
ATOM     33  C   UNL     1       2.452   9.084  -6.312  1.00  0.00     0.039 A 
ATOM     34  C   UNL     1       3.429   9.970  -5.858  1.00  0.00     0.014 A 
ATOM     35  C   UNL     1       2.807   7.983  -7.080  1.00  0.00     0.014 A 
ATOM     36  C   UNL     1       4.774   9.681  -6.104  1.00  0.00     0.010 A 
ATOM     37  C   UNL     1       4.128   7.617  -7.184  1.00  0.00     0.010 A 
ATOM     38  C   UNL     1       5.125   8.486  -6.750  1.00  0.00    -0.014 A 
BRANCH  38  39
ATOM     39  C   UNL     1       6.530   8.109  -6.926  1.00  0.00     0.031 A 
ATOM     40  C   UNL     1       7.402   8.129  -5.714  1.00  0.00     0.074 A 
ATOM     41  C   UNL     1       7.006   7.538  -8.055  1.00  0.00     0.049 A 
ATOM     42  N   UNL     1       8.484   8.813  -5.520  1.00  0.00    -0.248 NA
ATOM     43  C   UNL     1       7.006   7.305  -4.562  1.00  0.00     0.031 C 
ATOM     44  C   UNL     1       6.271   7.121  -9.256  1.00  0.00     0.029 A 
ATOM     45  N   UNL     1       8.269   7.093  -8.308  1.00  0.00    -0.354 N 
ATOM     46  C   UNL     1       9.002   8.393  -4.295  1.00  0.00     0.074 A 
ATOM     47  C   UNL     1       7.997   7.548  -3.701  1.00  0.00     0.031 C 
ATOM     48  C   UNL     1       7.034   6.277  -9.981  1.00  0.00     0.029 A 
ATOM     49  C   UNL     1       8.364   6.253  -9.405  1.00  0.00     0.049 A 
ATOM     50  H   UNL     1       9.046   7.347  -7.759  1.00  0.00     0.167 HD
ATOM     51  C   UNL     1      10.298   8.627  -3.938  1.00  0.00     0.037 A 
ATOM     52  C   UNL     1       9.453   5.566  -9.816  1.00  0.00     0.037 A 
ATOM     53  C   UNL     1      10.902   9.648  -4.753  1.00  0.00     0.049 A 
ATOM     54  C   UNL     1      10.644   6.223  -9.231  1.00  0.00     0.074 A 
ATOM     55  C   UNL     1      10.618  10.971  -5.031  1.00  0.00     0.029 A 
ATOM     56  N   UNL     1      11.813   9.267  -5.706  1.00  0.00    -0.354 N 
ATOM     57  N   UNL     1      11.065   7.410  -9.566  1.00  0.00    -0.248 NA
ATOM     58  C   UNL     1      11.153   5.715  -7.967  1.00  0.00     0.031 C 
ATOM     59  C   UNL     1      10.957  11.137  -6.407  1.00  0.00     0.029 A 
ATOM     60  C   UNL     1      11.460   9.917  -6.860  1.00  0.00     0.049 A 
ATOM     61  H   UNL     1      12.570   8.650  -5.585  1.00  0.00     0.167 HD
ATOM     62  C   UNL     1      11.537   7.964  -8.386  1.00  0.00     0.074 A 
ATOM     63  C   UNL     1      11.677   6.837  -7.469  1.00  0.00     0.031 C 
ATOM     64  C   UNL     1      11.505   9.313  -8.171  1.00  0.00     0.037 A 
BRANCH  51  65
ATOM     65  C   UNL     1      11.127   7.724  -3.058  1.00  0.00     0.057 A 
ATOM     66  C   UNL     1      12.378   8.165  -2.585  1.00  0.00     0.134 A 
ATOM     67  C   UNL     1      10.880   6.347  -2.895  1.00  0.00     0.134 A 
ATOM     68  F   UNL     1      12.745   9.450  -2.703  1.00  0.00    -0.206 F 
ATOM     69  C   UNL     1      13.333   7.291  -2.050  1.00  0.00     0.040 A 
ATOM     70  C   UNL     1      11.805   5.474  -2.314  1.00  0.00     0.040 A 
ATOM     71  F   UNL     1       9.778   5.760  -3.379  1.00  0.00    -0.206 F 
ATOM     72  C   UNL     1      13.049   5.938  -1.917  1.00  0.00     0.006 A 
ENDBRANCH  51  65
BRANCH  52  73
ATOM     73  C   UNL     1       9.501   4.260 -10.502  1.00  0.00     0.057 A 
ATOM     74  C   UNL     1      10.640   3.847 -11.201  1.00  0.00     0.134 A 
ATOM     75  C   UNL     1       8.517   3.279 -10.279  1.00  0.00     0.134 A 
ATOM     76  F   UNL     1      11.647   4.702 -11.427  1.00  0.00    -0.206 F 
ATOM     77  C   UNL     1      10.803   2.527 -11.640  1.00  0.00     0.040 A 
ATOM     78  C   UNL     1       8.662   1.960 -10.719  1.00  0.00     0.040 A 
ATOM     79  F   UNL     1       7.421   3.547  -9.554  1.00  0.00    -0.206 F 
ATOM     80  C   UNL     1       9.816   1.577 -11.391  1.00  0.00     0.006 A 
ENDBRANCH  52  73
BRANCH  64  81
ATOM     81  C   UNL     1      11.205  10.213  -9.338  1.00  0.00     0.057 A 
ATOM     82  C   UNL     1       9.989  10.208 -10.037  1.00  0.00     0.134 A 
ATOM     83  C   UNL     1      12.112  11.230  -9.659  1.00  0.00     0.134 A 
ATOM     84  F   UNL     1       9.015   9.344  -9.730  1.00  0.00    -0.206 F 
ATOM     85  C   UNL     1       9.708  11.141 -11.040  1.00  0.00     0.040 A 
ATOM     86  C   UNL     1      11.830  12.188 -10.637  1.00  0.00     0.040 A 
ATOM     87  F   UNL     1      13.271  11.339  -8.991  1.00  0.00    -0.206 F 
ATOM     88  C   UNL     1      10.629  12.140 -11.338  1.00  0.00     0.006 A 
ENDBRANCH  64  81
ENDBRANCH  38  39
ENDBRANCH  30  33
ENDBRANCH  28  29
ENDBRANCH  27  28
ENDBRANCH  26  27
ENDBRANCH  25  26
ENDBRANCH   1  25
TORSDOF 18
