REMARK SMILES COc1ccc([C@@H]2CC[NH2+][C@H]2C(=O)NCCCCCCNC(=O)c2ccc(-c3c4nc(c(-c5c(F)cccc5F)c5ccc([nH]5)c(-c5c(F)cccc5F)c5nc(c(-c6c(F)cccc6F)c6ccc3[nH]6)C=C5)C=C4)cc2)c2ccccc12
REMARK SMILES IDX 17 1 16 2 15 3 14 4 12 5 13 6 11 8 7 9 8 10 9 11 10 12 6 15
REMARK SMILES IDX 3 16 4 17 83 18 5 19 78 20 82 21 79 22 81 23 80 24 2 25 1 26
REMARK SMILES IDX 18 27 19 28 20 29 21 30 22 31 23 33 24 34 25 35 77 36 26 37
REMARK SMILES IDX 76 38 27 39 28 40 29 41 70 42 30 43 75 44 69 45 71 46 31 47
REMARK SMILES IDX 74 48 68 49 67 50 32 52 58 53 41 54 57 55 42 56 45 57 56 58
REMARK SMILES IDX 72 59 43 60 44 61 55 63 73 64 46 65 33 66 34 67 39 68 35 69
REMARK SMILES IDX 36 70 38 71 40 72 37 73 59 74 60 75 65 76 61 77 62 78 64 79
REMARK SMILES IDX 66 80 63 81 47 82 48 83 53 84 49 85 50 86 52 87 54 88 51 89
REMARK H PARENT 14 7 10 13 10 14 21 32 71 51 45 62
REMARK Flexibility Score: inf
ROOT
ATOM      1  C   UNL     1       0.965 -10.225  -4.769  1.00  0.00     0.002 C 
ENDROOT
BRANCH   1   2
ATOM      2  C   UNL     1       1.689  -9.328  -3.760  1.00  0.00     0.021 C 
BRANCH   2   3
ATOM      3  C   UNL     1       2.779  -8.450  -4.369  1.00  0.00     0.116 C 
BRANCH   3   4
ATOM      4  N   UNL     1       2.223  -7.335  -5.108  1.00  0.00    -0.351 N 
ATOM      5  C   UNL     1       2.257  -5.989  -4.883  1.00  0.00     0.278 C 
ATOM      6  O   UNL     1       1.621  -5.279  -5.668  1.00  0.00    -0.268 OA
ATOM      7  H   UNL     1       1.732  -7.595  -5.921  1.00  0.00     0.163 HD
BRANCH   5   8
ATOM      8  C   UNL     1       3.049  -5.365  -3.714  1.00  0.00     0.280 C 
ATOM      9  C   UNL     1       2.514  -5.753  -2.323  1.00  0.00     0.094 C 
ATOM     10  C   UNL     1       3.734  -6.319  -1.581  1.00  0.00     0.076 C 
ATOM     11  C   UNL     1       4.943  -5.912  -2.405  1.00  0.00     0.262 C 
ATOM     12  N   UNL     1       4.488  -5.737  -3.781  1.00  0.00    -0.335 N 
ATOM     13  H   UNL     1       4.602  -6.606  -4.302  1.00  0.00     0.346 HD
ATOM     14  H   UNL     1       5.030  -5.016  -4.257  1.00  0.00     0.346 HD
BRANCH   9  15
ATOM     15  C   UNL     1       1.873  -4.579  -1.575  1.00  0.00    -0.030 A 
ATOM     16  C   UNL     1       0.868  -2.337  -0.183  1.00  0.00     0.126 A 
ATOM     17  C   UNL     1       2.197  -2.366  -0.592  1.00  0.00     0.047 A 
ATOM     18  C   UNL     1       0.015  -3.435  -0.440  1.00  0.00     0.024 A 
ATOM     19  C   UNL     1       2.686  -3.466  -1.283  1.00  0.00     0.009 A 
ATOM     20  C   UNL     1       0.505  -4.569  -1.153  1.00  0.00    -0.011 A 
ATOM     21  C   UNL     1      -1.331  -3.418  -0.008  1.00  0.00     0.012 A 
ATOM     22  C   UNL     1      -0.414  -5.622  -1.398  1.00  0.00     0.009 A 
ATOM     23  C   UNL     1      -2.200  -4.474  -0.263  1.00  0.00     0.001 A 
ATOM     24  C   UNL     1      -1.742  -5.577  -0.961  1.00  0.00     0.001 A 
BRANCH  16  25
ATOM     25  O   UNL     1       0.347  -1.277   0.525  1.00  0.00    -0.496 OA
ATOM     26  C   UNL     1       0.843   0.004   0.148  1.00  0.00     0.278 C 
ENDBRANCH  16  25
ENDBRANCH   9  15
ENDBRANCH   5   8
ENDBRANCH   3   4
ENDBRANCH   2   3
ENDBRANCH   1   2
BRANCH   1  27
ATOM     27  C   UNL     1       1.864 -11.188  -5.553  1.00  0.00     0.002 C 
BRANCH  27  28
ATOM     28  C   UNL     1       2.790 -12.067  -4.706  1.00  0.00     0.021 C 
BRANCH  28  29
ATOM     29  C   UNL     1       2.086 -12.949  -3.678  1.00  0.00     0.116 C 
BRANCH  29  30
ATOM     30  N   UNL     1       1.176 -13.896  -4.299  1.00  0.00    -0.352 N 
ATOM     31  C   UNL     1       1.084 -15.253  -4.146  1.00  0.00     0.251 C 
ATOM     32  H   UNL     1       0.527 -13.502  -4.925  1.00  0.00     0.163 HD
ATOM     33  O   UNL     1       0.361 -15.903  -4.904  1.00  0.00    -0.269 OA
BRANCH  31  34
ATOM     34  C   UNL     1       1.850 -15.954  -3.093  1.00  0.00     0.039 A 
ATOM     35  C   UNL     1       2.453 -17.175  -3.408  1.00  0.00     0.014 A 
ATOM     36  C   UNL     1       1.941 -15.446  -1.793  1.00  0.00     0.014 A 
ATOM     37  C   UNL     1       3.181 -17.864  -2.437  1.00  0.00     0.010 A 
ATOM     38  C   UNL     1       2.720 -16.103  -0.840  1.00  0.00     0.010 A 
ATOM     39  C   UNL     1       3.340 -17.322  -1.151  1.00  0.00    -0.014 A 
BRANCH  39  40
ATOM     40  C   UNL     1       4.160 -18.027  -0.134  1.00  0.00     0.031 A 
ATOM     41  C   UNL     1       3.521 -18.612   1.096  1.00  0.00     0.074 A 
ATOM     42  C   UNL     1       5.492 -18.115  -0.305  1.00  0.00     0.049 A 
ATOM     43  N   UNL     1       4.077 -19.274   2.079  1.00  0.00    -0.248 NA
ATOM     44  C   UNL     1       2.074 -18.406   1.253  1.00  0.00     0.031 C 
ATOM     45  C   UNL     1       6.240 -17.538  -1.425  1.00  0.00     0.029 A 
ATOM     46  N   UNL     1       6.455 -18.723   0.460  1.00  0.00    -0.354 N 
ATOM     47  C   UNL     1       3.053 -19.556   2.974  1.00  0.00     0.074 A 
ATOM     48  C   UNL     1       1.851 -18.950   2.441  1.00  0.00     0.031 C 
ATOM     49  C   UNL     1       7.540 -17.847  -1.289  1.00  0.00     0.029 A 
ATOM     50  C   UNL     1       7.720 -18.622  -0.066  1.00  0.00     0.049 A 
ATOM     51  H   UNL     1       6.258 -19.188   1.305  1.00  0.00     0.167 HD
ATOM     52  C   UNL     1       3.103 -20.273   4.122  1.00  0.00     0.037 A 
ATOM     53  C   UNL     1       8.891 -19.109   0.382  1.00  0.00     0.037 A 
ATOM     54  C   UNL     1       4.293 -20.896   4.639  1.00  0.00     0.049 A 
ATOM     55  C   UNL     1       8.916 -19.926   1.642  1.00  0.00     0.074 A 
ATOM     56  C   UNL     1       4.432 -21.696   5.761  1.00  0.00     0.029 A 
ATOM     57  N   UNL     1       5.552 -20.789   4.067  1.00  0.00    -0.354 N 
ATOM     58  N   UNL     1       7.925 -20.248   2.438  1.00  0.00    -0.248 NA
ATOM     59  C   UNL     1      10.221 -20.459   2.059  1.00  0.00     0.031 C 
ATOM     60  C   UNL     1       5.782 -22.044   5.886  1.00  0.00     0.029 A 
ATOM     61  C   UNL     1       6.477 -21.493   4.822  1.00  0.00     0.049 A 
ATOM     62  H   UNL     1       5.758 -20.286   3.247  1.00  0.00     0.167 HD
ATOM     63  C   UNL     1       8.482 -21.034   3.438  1.00  0.00     0.074 A 
ATOM     64  C   UNL     1       9.893 -21.158   3.135  1.00  0.00     0.031 C 
ATOM     65  C   UNL     1       7.879 -21.601   4.511  1.00  0.00     0.037 A 
BRANCH  52  66
ATOM     66  C   UNL     1       1.825 -20.428   4.894  1.00  0.00     0.057 A 
ATOM     67  C   UNL     1       0.782 -21.243   4.434  1.00  0.00     0.134 A 
ATOM     68  C   UNL     1       1.646 -19.780   6.122  1.00  0.00     0.134 A 
ATOM     69  F   UNL     1       0.885 -21.882   3.259  1.00  0.00    -0.206 F 
ATOM     70  C   UNL     1      -0.404 -21.388   5.157  1.00  0.00     0.040 A 
ATOM     71  C   UNL     1       0.474 -19.937   6.865  1.00  0.00     0.040 A 
ATOM     72  F   UNL     1       2.607 -18.990   6.622  1.00  0.00    -0.206 F 
ATOM     73  C   UNL     1      -0.557 -20.738   6.379  1.00  0.00     0.006 A 
ENDBRANCH  52  66
BRANCH  53  74
ATOM     74  C   UNL     1      10.134 -18.873  -0.392  1.00  0.00     0.057 A 
ATOM     75  C   UNL     1      10.747 -19.910  -1.105  1.00  0.00     0.134 A 
ATOM     76  C   UNL     1      10.738 -17.611  -0.438  1.00  0.00     0.134 A 
ATOM     77  F   UNL     1      10.223 -21.144  -1.083  1.00  0.00    -0.206 F 
ATOM     78  C   UNL     1      11.925 -19.706  -1.823  1.00  0.00     0.040 A 
ATOM     79  C   UNL     1      11.905 -17.387  -1.170  1.00  0.00     0.040 A 
ATOM     80  F   UNL     1      10.194 -16.575   0.218  1.00  0.00    -0.206 F 
ATOM     81  C   UNL     1      12.505 -18.439  -1.860  1.00  0.00     0.006 A 
ENDBRANCH  53  74
BRANCH  65  82
ATOM     82  C   UNL     1       8.746 -22.417   5.423  1.00  0.00     0.057 A 
ATOM     83  C   UNL     1       9.675 -21.820   6.285  1.00  0.00     0.134 A 
ATOM     84  C   UNL     1       8.645 -23.814   5.446  1.00  0.00     0.134 A 
ATOM     85  F   UNL     1       9.830 -20.487   6.299  1.00  0.00    -0.206 F 
ATOM     86  C   UNL     1      10.493 -22.585   7.117  1.00  0.00     0.040 A 
ATOM     87  C   UNL     1       9.441 -24.588   6.291  1.00  0.00     0.040 A 
ATOM     88  F   UNL     1       7.770 -24.447   4.650  1.00  0.00    -0.206 F 
ATOM     89  C   UNL     1      10.374 -23.974   7.124  1.00  0.00     0.006 A 
ENDBRANCH  65  82
ENDBRANCH  39  40
ENDBRANCH  31  34
ENDBRANCH  29  30
ENDBRANCH  28  29
ENDBRANCH  27  28
ENDBRANCH   1  27
TORSDOF 15
