REMARK SMILES CCCn1cc(S(=O)(=O)N[C@H]2C=C[C@@H](C(=O)NCCCCCCNC(=O)c3ccc(-c4c5nc(c(-c6c(F)cccc6F)c6ccc([nH]6)c(-c6c(F)cccc6F)c6nc(c(-c7c(F)cccc7F)c7ccc4[nH]7)C=C6)C=C5)cc3)C2)nc1C
REMARK SMILES IDX 19 1 18 2 17 3 15 4 16 5 14 7 11 8 12 9 81 10 13 11 10 12
REMARK SMILES IDX 7 14 8 15 9 16 6 17 4 18 5 19 83 20 82 21 84 22 3 23 2 24
REMARK SMILES IDX 1 25 20 26 21 27 22 28 23 29 24 30 25 31 26 33 27 34 28 35
REMARK SMILES IDX 80 36 29 37 79 38 30 39 31 40 32 41 73 42 33 43 78 44 72 45
REMARK SMILES IDX 74 46 34 47 77 48 71 49 70 50 35 52 61 53 44 54 60 55 45 56
REMARK SMILES IDX 48 57 59 58 75 59 46 60 47 61 58 63 76 64 49 65 36 66 37 67
REMARK SMILES IDX 42 68 38 69 39 70 41 71 43 72 40 73 62 74 63 75 68 76 64 77
REMARK SMILES IDX 65 78 67 79 69 80 66 81 50 82 51 83 56 84 52 85 53 86 55 87
REMARK SMILES IDX 57 88 54 89
REMARK H PARENT 17 6 10 13 24 32 74 51 48 62
REMARK Flexibility Score: inf
ROOT
ATOM      1  C   UNL     1       1.933  -8.570   3.955  1.00  0.00     0.021 C 
ENDROOT
BRANCH   1   2
ATOM      2  C   UNL     1       2.856  -7.414   3.580  1.00  0.00     0.116 C 
BRANCH   2   3
ATOM      3  N   UNL     1       4.245  -7.814   3.496  1.00  0.00    -0.356 N 
ATOM      4  C   UNL     1       5.120  -7.687   2.458  1.00  0.00     0.226 C 
ATOM      5  O   UNL     1       6.293  -8.018   2.658  1.00  0.00    -0.274 OA
ATOM      6  H   UNL     1       4.611  -8.238   4.305  1.00  0.00     0.163 HD
BRANCH   4   7
ATOM      7  C   UNL     1       4.707  -7.129   1.086  1.00  0.00     0.103 C 
ATOM      8  C   UNL     1       2.628  -6.739  -0.180  1.00  0.00     0.093 C 
ATOM      9  C   UNL     1       3.115  -5.503   0.490  1.00  0.00    -0.011 C 
ATOM     10  C   UNL     1       3.550  -7.847   0.374  1.00  0.00     0.042 C 
ATOM     11  C   UNL     1       4.260  -5.702   1.153  1.00  0.00    -0.016 C 
BRANCH   8  12
ATOM     12  N   UNL     1       1.224  -7.088  -0.017  1.00  0.00    -0.203 NA
ATOM     13  H   UNL     1       0.862  -7.133  -0.969  1.00  0.00     0.142 HD
BRANCH  12  14
ATOM     14  S   UNL     1       0.034  -6.289   0.842  1.00  0.00     0.260 S 
ATOM     15  O   UNL     1       0.436  -6.213   2.233  1.00  0.00    -0.205 OA
ATOM     16  O   UNL     1      -1.205  -6.923   0.462  1.00  0.00    -0.205 OA
BRANCH  14  17
ATOM     17  C   UNL     1      -0.131  -4.634   0.339  1.00  0.00     0.188 A 
ATOM     18  N   UNL     1       0.199  -2.714  -0.674  1.00  0.00    -0.334 N 
ATOM     19  C   UNL     1       0.332  -4.082  -0.832  1.00  0.00     0.129 A 
ATOM     20  C   UNL     1      -0.503  -2.510   0.495  1.00  0.00     0.107 A 
ATOM     21  N   UNL     1      -0.678  -3.653   1.131  1.00  0.00    -0.221 NA
ATOM     22  C   UNL     1      -0.995  -1.227   1.058  1.00  0.00     0.088 C 
BRANCH  18  23
ATOM     23  C   UNL     1       0.828  -1.818  -1.630  1.00  0.00     0.123 C 
BRANCH  23  24
ATOM     24  C   UNL     1       0.723  -0.303  -1.498  1.00  0.00     0.018 C 
ATOM     25  C   UNL     1       1.618   0.278  -0.413  1.00  0.00     0.006 C 
ENDBRANCH  23  24
ENDBRANCH  18  23
ENDBRANCH  14  17
ENDBRANCH  12  14
ENDBRANCH   8  12
ENDBRANCH   4   7
ENDBRANCH   2   3
ENDBRANCH   1   2
BRANCH   1  26
ATOM     26  C   UNL     1       1.877  -8.875   5.452  1.00  0.00     0.002 C 
BRANCH  26  27
ATOM     27  C   UNL     1       1.464  -7.710   6.363  1.00  0.00     0.002 C 
BRANCH  27  28
ATOM     28  C   UNL     1       0.170  -6.965   6.001  1.00  0.00     0.021 C 
BRANCH  28  29
ATOM     29  C   UNL     1      -1.089  -7.824   6.015  1.00  0.00     0.116 C 
BRANCH  29  30
ATOM     30  N   UNL     1      -1.354  -8.392   7.333  1.00  0.00    -0.352 N 
ATOM     31  C   UNL     1      -2.255  -9.367   7.694  1.00  0.00     0.251 C 
ATOM     32  H   UNL     1      -0.811  -8.026   8.068  1.00  0.00     0.163 HD
ATOM     33  O   UNL     1      -2.575  -9.512   8.870  1.00  0.00    -0.269 OA
BRANCH  31  34
ATOM     34  C   UNL     1      -2.866 -10.217   6.656  1.00  0.00     0.039 A 
ATOM     35  C   UNL     1      -4.237 -10.474   6.698  1.00  0.00     0.014 A 
ATOM     36  C   UNL     1      -2.081 -10.742   5.631  1.00  0.00     0.014 A 
ATOM     37  C   UNL     1      -4.827 -11.176   5.650  1.00  0.00     0.010 A 
ATOM     38  C   UNL     1      -2.682 -11.351   4.543  1.00  0.00     0.010 A 
ATOM     39  C   UNL     1      -4.057 -11.584   4.546  1.00  0.00    -0.014 A 
BRANCH  39  40
ATOM     40  C   UNL     1      -4.743 -12.128   3.368  1.00  0.00     0.031 A 
ATOM     41  C   UNL     1      -5.928 -11.352   2.900  1.00  0.00     0.074 A 
ATOM     42  C   UNL     1      -4.315 -13.150   2.597  1.00  0.00     0.049 A 
ATOM     43  N   UNL     1      -7.164 -11.731   2.895  1.00  0.00    -0.248 NA
ATOM     44  C   UNL     1      -5.724  -9.967   2.451  1.00  0.00     0.031 C 
ATOM     45  C   UNL     1      -3.039 -13.867   2.663  1.00  0.00     0.029 A 
ATOM     46  N   UNL     1      -4.924 -13.707   1.504  1.00  0.00    -0.354 N 
ATOM     47  C   UNL     1      -7.880 -10.709   2.276  1.00  0.00     0.074 A 
ATOM     48  C   UNL     1      -6.970  -9.601   2.141  1.00  0.00     0.031 C 
ATOM     49  C   UNL     1      -2.875 -14.597   1.539  1.00  0.00     0.029 A 
ATOM     50  C   UNL     1      -4.100 -14.540   0.762  1.00  0.00     0.049 A 
ATOM     51  H   UNL     1      -5.863 -13.533   1.267  1.00  0.00     0.167 HD
ATOM     52  C   UNL     1      -9.102 -10.940   1.723  1.00  0.00     0.037 A 
ATOM     53  C   UNL     1      -4.388 -15.147  -0.411  1.00  0.00     0.037 A 
ATOM     54  C   UNL     1      -9.666 -12.182   2.184  1.00  0.00     0.049 A 
ATOM     55  C   UNL     1      -5.858 -15.260  -0.516  1.00  0.00     0.074 A 
ATOM     56  C   UNL     1     -10.073 -12.708   3.393  1.00  0.00     0.029 A 
ATOM     57  N   UNL     1      -9.587 -13.237   1.315  1.00  0.00    -0.354 N 
ATOM     58  N   UNL     1      -6.588 -16.046   0.223  1.00  0.00    -0.248 NA
ATOM     59  C   UNL     1      -6.597 -14.275  -1.293  1.00  0.00     0.031 C 
ATOM     60  C   UNL     1      -9.842 -14.114   3.295  1.00  0.00     0.029 A 
ATOM     61  C   UNL     1      -9.328 -14.378   2.025  1.00  0.00     0.049 A 
ATOM     62  H   UNL     1      -9.697 -13.183   0.338  1.00  0.00     0.167 HD
ATOM     63  C   UNL     1      -7.791 -15.378   0.352  1.00  0.00     0.074 A 
ATOM     64  C   UNL     1      -7.805 -14.421  -0.744  1.00  0.00     0.031 C 
ATOM     65  C   UNL     1      -8.509 -15.454   1.510  1.00  0.00     0.037 A 
BRANCH  52  66
ATOM     66  C   UNL     1      -9.609 -10.283   0.455  1.00  0.00     0.057 A 
ATOM     67  C   UNL     1     -10.937 -10.518   0.045  1.00  0.00     0.134 A 
ATOM     68  C   UNL     1      -8.771  -9.725  -0.530  1.00  0.00     0.134 A 
ATOM     69  F   UNL     1     -11.832 -11.060   0.885  1.00  0.00    -0.206 F 
ATOM     70  C   UNL     1     -11.369 -10.300  -1.270  1.00  0.00     0.040 A 
ATOM     71  C   UNL     1      -9.208  -9.455  -1.832  1.00  0.00     0.040 A 
ATOM     72  F   UNL     1      -7.466  -9.513  -0.325  1.00  0.00    -0.206 F 
ATOM     73  C   UNL     1     -10.499  -9.776  -2.217  1.00  0.00     0.006 A 
ENDBRANCH  52  66
BRANCH  53  74
ATOM     74  C   UNL     1      -3.489 -15.529  -1.520  1.00  0.00     0.057 A 
ATOM     75  C   UNL     1      -3.899 -16.436  -2.507  1.00  0.00     0.134 A 
ATOM     76  C   UNL     1      -2.314 -14.807  -1.793  1.00  0.00     0.134 A 
ATOM     77  F   UNL     1      -5.022 -17.152  -2.354  1.00  0.00    -0.206 F 
ATOM     78  C   UNL     1      -3.206 -16.587  -3.714  1.00  0.00     0.040 A 
ATOM     79  C   UNL     1      -1.606 -14.956  -2.990  1.00  0.00     0.040 A 
ATOM     80  F   UNL     1      -1.861 -13.871  -0.946  1.00  0.00    -0.206 F 
ATOM     81  C   UNL     1      -2.063 -15.834  -3.965  1.00  0.00     0.006 A 
ENDBRANCH  53  74
BRANCH  65  82
ATOM     82  C   UNL     1      -8.241 -16.622   2.415  1.00  0.00     0.057 A 
ATOM     83  C   UNL     1      -7.012 -16.888   3.034  1.00  0.00     0.134 A 
ATOM     84  C   UNL     1      -9.306 -17.477   2.726  1.00  0.00     0.134 A 
ATOM     85  F   UNL     1      -5.962 -16.072   2.879  1.00  0.00    -0.206 F 
ATOM     86  C   UNL     1      -6.836 -17.994   3.871  1.00  0.00     0.040 A 
ATOM     87  C   UNL     1      -9.153 -18.562   3.591  1.00  0.00     0.040 A 
ATOM     88  F   UNL     1     -10.526 -17.254   2.212  1.00  0.00    -0.206 F 
ATOM     89  C   UNL     1      -7.909 -18.835   4.153  1.00  0.00     0.006 A 
ENDBRANCH  65  82
ENDBRANCH  39  40
ENDBRANCH  31  34
ENDBRANCH  29  30
ENDBRANCH  28  29
ENDBRANCH  27  28
ENDBRANCH  26  27
ENDBRANCH   1  26
TORSDOF 18
