REMARK SMILES O=C(NCCCCCCNC(=O)c1ccccc1C(=O)Nc1ccc(N2C(=O)[C@H]3[C@@H]4CC[C@@H](C4)[C@@H]3C2=O)cc1)c1ccc(-c2c3nc(c(-c4c(F)cccc4F)c4ccc([nH]4)c(-c4c(F)cccc4F)c4nc(c(-c5c(F)cccc5F)c5ccc2[nH]5)C=C4)C=C3)cc1
REMARK SMILES IDX 7 1 6 2 5 3 4 4 3 5 1 6 2 7 40 9 41 10 93 11 42 12 92 13
REMARK SMILES IDX 43 14 44 15 45 16 86 17 46 18 91 19 85 20 87 21 47 22 90 23
REMARK SMILES IDX 84 24 83 25 48 27 74 28 57 29 73 30 58 31 61 32 72 33 88 34
REMARK SMILES IDX 59 35 60 36 71 38 89 39 62 40 49 41 50 42 55 43 51 44 52 45
REMARK SMILES IDX 54 46 56 47 53 48 75 49 76 50 81 51 77 52 78 53 80 54 82 55
REMARK SMILES IDX 79 56 63 57 64 58 69 59 65 60 66 61 68 62 70 63 67 64 8 65
REMARK SMILES IDX 9 66 10 67 11 68 12 70 13 71 14 72 18 73 15 74 17 75 16 76
REMARK SMILES IDX 19 77 20 78 21 79 22 81 23 82 39 83 24 84 38 85 25 86 26 87
REMARK SMILES IDX 27 88 36 89 28 90 29 91 35 92 37 93 30 94 33 95 31 96 34 97
REMARK SMILES IDX 32 98
REMARK H PARENT 3 8 87 26 61 37 10 69 21 80
REMARK Flexibility Score: inf
ROOT
ATOM      1  C   UNL     1       5.081  -2.807  -2.913  1.00  0.00     0.002 C 
ENDROOT
BRANCH   1   2
ATOM      2  C   UNL     1       4.664  -3.309  -1.527  1.00  0.00     0.002 C 
BRANCH   2   3
ATOM      3  C   UNL     1       4.970  -2.387  -0.358  1.00  0.00     0.021 C 
BRANCH   3   4
ATOM      4  C   UNL     1       4.556  -0.945  -0.560  1.00  0.00     0.116 C 
BRANCH   4   5
ATOM      5  N   UNL     1       3.119  -0.759  -0.701  1.00  0.00    -0.352 N 
ATOM      6  O   UNL     1       1.104   0.170  -0.224  1.00  0.00    -0.269 OA
ATOM      7  C   UNL     1       2.321   0.180  -0.085  1.00  0.00     0.251 C 
ATOM      8  H   UNL     1       2.661  -1.381  -1.312  1.00  0.00     0.163 HD
BRANCH   7   9
ATOM      9  C   UNL     1       2.968   1.175   0.797  1.00  0.00     0.039 A 
ATOM     10  C   UNL     1       4.125   1.828   0.370  1.00  0.00     0.014 A 
ATOM     11  C   UNL     1       2.491   1.355   2.096  1.00  0.00     0.014 A 
ATOM     12  C   UNL     1       4.923   2.469   1.304  1.00  0.00     0.010 A 
ATOM     13  C   UNL     1       3.232   2.123   2.999  1.00  0.00     0.010 A 
ATOM     14  C   UNL     1       4.483   2.639   2.627  1.00  0.00    -0.014 A 
BRANCH  14  15
ATOM     15  C   UNL     1       5.341   3.394   3.577  1.00  0.00     0.031 A 
ATOM     16  C   UNL     1       5.868   2.763   4.838  1.00  0.00     0.074 A 
ATOM     17  C   UNL     1       5.684   4.659   3.261  1.00  0.00     0.049 A 
ATOM     18  N   UNL     1       6.647   3.283   5.755  1.00  0.00    -0.248 NA
ATOM     19  C   UNL     1       5.464   1.377   5.117  1.00  0.00     0.031 C 
ATOM     20  C   UNL     1       5.233   5.380   2.067  1.00  0.00     0.029 A 
ATOM     21  N   UNL     1       6.508   5.553   3.893  1.00  0.00    -0.354 N 
ATOM     22  C   UNL     1       6.800   2.303   6.730  1.00  0.00     0.074 A 
ATOM     23  C   UNL     1       6.012   1.166   6.306  1.00  0.00     0.031 C 
ATOM     24  C   UNL     1       5.837   6.574   2.017  1.00  0.00     0.029 A 
ATOM     25  C   UNL     1       6.647   6.740   3.216  1.00  0.00     0.049 A 
ATOM     26  H   UNL     1       6.957   5.362   4.748  1.00  0.00     0.167 HD
ATOM     27  C   UNL     1       7.533   2.350   7.869  1.00  0.00     0.037 A 
ATOM     28  C   UNL     1       7.332   7.853   3.533  1.00  0.00     0.037 A 
ATOM     29  C   UNL     1       8.330   3.482   8.274  1.00  0.00     0.049 A 
ATOM     30  C   UNL     1       8.110   7.884   4.814  1.00  0.00     0.074 A 
ATOM     31  C   UNL     1       9.138   3.614   9.390  1.00  0.00     0.029 A 
ATOM     32  N   UNL     1       8.413   4.681   7.580  1.00  0.00    -0.354 N 
ATOM     33  N   UNL     1       8.268   6.939   5.710  1.00  0.00    -0.248 NA
ATOM     34  C   UNL     1       8.804   9.137   5.129  1.00  0.00     0.031 C 
ATOM     35  C   UNL     1       9.661   4.911   9.404  1.00  0.00     0.029 A 
ATOM     36  C   UNL     1       9.238   5.566   8.259  1.00  0.00     0.049 A 
ATOM     37  H   UNL     1       7.955   4.875   6.731  1.00  0.00     0.167 HD
ATOM     38  C   UNL     1       9.106   7.473   6.678  1.00  0.00     0.074 A 
ATOM     39  C   UNL     1       9.435   8.817   6.249  1.00  0.00     0.031 C 
ATOM     40  C   UNL     1       9.564   6.899   7.818  1.00  0.00     0.037 A 
BRANCH  27  41
ATOM     41  C   UNL     1       7.487   1.155   8.782  1.00  0.00     0.057 A 
ATOM     42  C   UNL     1       8.071  -0.072   8.441  1.00  0.00     0.134 A 
ATOM     43  C   UNL     1       6.882   1.248  10.043  1.00  0.00     0.134 A 
ATOM     44  F   UNL     1       8.661  -0.237   7.247  1.00  0.00    -0.206 F 
ATOM     45  C   UNL     1       8.031  -1.169   9.307  1.00  0.00     0.040 A 
ATOM     46  C   UNL     1       6.862   0.169  10.930  1.00  0.00     0.040 A 
ATOM     47  F   UNL     1       6.311   2.394  10.443  1.00  0.00    -0.206 F 
ATOM     48  C   UNL     1       7.431  -1.047  10.559  1.00  0.00     0.006 A 
ENDBRANCH  27  41
BRANCH  28  49
ATOM     49  C   UNL     1       7.304   9.024   2.622  1.00  0.00     0.057 A 
ATOM     50  C   UNL     1       8.455   9.440   1.944  1.00  0.00     0.134 A 
ATOM     51  C   UNL     1       6.129   9.755   2.407  1.00  0.00     0.134 A 
ATOM     52  F   UNL     1       9.614   8.788   2.118  1.00  0.00    -0.206 F 
ATOM     53  C   UNL     1       8.445  10.554   1.103  1.00  0.00     0.040 A 
ATOM     54  C   UNL     1       6.096  10.850   1.544  1.00  0.00     0.040 A 
ATOM     55  F   UNL     1       4.989   9.400   3.017  1.00  0.00    -0.206 F 
ATOM     56  C   UNL     1       7.261  11.258   0.897  1.00  0.00     0.006 A 
ENDBRANCH  28  49
BRANCH  40  57
ATOM     57  C   UNL     1      10.520   7.707   8.648  1.00  0.00     0.057 A 
ATOM     58  C   UNL     1      10.119   8.850   9.352  1.00  0.00     0.134 A 
ATOM     59  C   UNL     1      11.865   7.326   8.749  1.00  0.00     0.134 A 
ATOM     60  F   UNL     1       8.850   9.279   9.287  1.00  0.00    -0.206 F 
ATOM     61  C   UNL     1      11.029   9.606  10.093  1.00  0.00     0.040 A 
ATOM     62  C   UNL     1      12.776   8.054   9.515  1.00  0.00     0.040 A 
ATOM     63  F   UNL     1      12.315   6.236   8.108  1.00  0.00    -0.206 F 
ATOM     64  C   UNL     1      12.360   9.204  10.181  1.00  0.00     0.006 A 
ENDBRANCH  40  57
ENDBRANCH  14  15
ENDBRANCH   7   9
ENDBRANCH   4   5
ENDBRANCH   3   4
ENDBRANCH   2   3
ENDBRANCH   1   2
BRANCH   1  65
ATOM     65  C   UNL     1       6.568  -2.456  -3.073  1.00  0.00     0.021 C 
BRANCH  65  66
ATOM     66  C   UNL     1       7.501  -3.662  -3.014  1.00  0.00     0.116 C 
BRANCH  66  67
ATOM     67  N   UNL     1       7.312  -4.534  -4.155  1.00  0.00    -0.352 N 
ATOM     68  C   UNL     1       8.089  -5.559  -4.612  1.00  0.00     0.252 C 
ATOM     69  H   UNL     1       6.498  -4.361  -4.681  1.00  0.00     0.163 HD
ATOM     70  O   UNL     1       7.850  -6.055  -5.713  1.00  0.00    -0.269 OA
BRANCH  68  71
ATOM     71  C   UNL     1       9.293  -6.010  -3.889  1.00  0.00     0.052 A 
ATOM     72  C   UNL     1      10.438  -6.010  -4.723  1.00  0.00     0.014 A 
ATOM     73  C   UNL     1       9.410  -6.383  -2.542  1.00  0.00     0.052 A 
ATOM     74  C   UNL     1      11.708  -6.266  -4.220  1.00  0.00     0.001 A 
ATOM     75  C   UNL     1      10.723  -6.598  -2.050  1.00  0.00     0.014 A 
ATOM     76  C   UNL     1      11.855  -6.527  -2.869  1.00  0.00     0.001 A 
BRANCH  73  77
ATOM     77  C   UNL     1       8.357  -6.484  -1.482  1.00  0.00     0.256 C 
ATOM     78  O   UNL     1       8.683  -6.141  -0.338  1.00  0.00    -0.269 OA
ATOM     79  N   UNL     1       7.035  -6.830  -1.640  1.00  0.00    -0.322 N 
ATOM     80  H   UNL     1       6.505  -6.753  -0.814  1.00  0.00     0.170 HD
BRANCH  79  81
ATOM     81  C   UNL     1       6.299  -7.268  -2.738  1.00  0.00     0.041 A 
ATOM     82  C   UNL     1       5.069  -6.638  -2.951  1.00  0.00     0.028 A 
ATOM     83  C   UNL     1       6.761  -8.204  -3.651  1.00  0.00     0.028 A 
ATOM     84  C   UNL     1       4.477  -6.678  -4.208  1.00  0.00     0.029 A 
ATOM     85  C   UNL     1       6.075  -8.370  -4.857  1.00  0.00     0.029 A 
ATOM     86  C   UNL     1       5.009  -7.515  -5.181  1.00  0.00     0.052 A 
BRANCH  86  87
ATOM     87  N   UNL     1       4.614  -7.391  -6.522  1.00  0.00    -0.250 N 
ATOM     88  C   UNL     1       4.413  -8.489  -7.362  1.00  0.00     0.237 C 
ATOM     89  C   UNL     1       4.664  -6.169  -7.229  1.00  0.00     0.237 C 
ATOM     90  O   UNL     1       4.147  -9.643  -7.098  1.00  0.00    -0.274 OA
ATOM     91  C   UNL     1       4.780  -7.942  -8.695  1.00  0.00     0.095 C 
ATOM     92  C   UNL     1       4.174  -6.552  -8.594  1.00  0.00     0.095 C 
ATOM     93  O   UNL     1       4.920  -5.041  -6.843  1.00  0.00    -0.274 OA
ATOM     94  C   UNL     1       4.470  -8.338 -10.137  1.00  0.00     0.002 C 
ATOM     95  C   UNL     1       4.338  -6.077 -10.034  1.00  0.00     0.002 C 
ATOM     96  C   UNL     1       5.731  -7.901 -10.913  1.00  0.00     0.005 C 
ATOM     97  C   UNL     1       3.520  -7.236 -10.662  1.00  0.00     0.009 C 
ATOM     98  C   UNL     1       5.728  -6.362 -10.673  1.00  0.00     0.005 C 
ENDBRANCH  86  87
ENDBRANCH  79  81
ENDBRANCH  73  77
ENDBRANCH  68  71
ENDBRANCH  66  67
ENDBRANCH  65  66
ENDBRANCH   1  65
TORSDOF 16
