REMARK SMILES O=C1NC(=S)S/C1=C\c1ccc(OCc2cn(-c3ccc(C(=O)NCCCCCCNC(=O)c4ccc(-c5c6nc(c(-c7c(F)cccc7F)c7ccc([nH]7)c(-c7c(F)cccc7F)c7nc(c(-c8c(F)cccc8F)c8ccc5[nH]8)C=C7)C=C6)cc4)cc3)nn2)cc1
REMARK SMILES IDX 26 1 25 2 24 3 22 4 23 5 21 7 18 8 19 9 89 10 20 11 88 12
REMARK SMILES IDX 17 13 15 14 16 15 91 16 90 17 14 18 13 19 12 20 9 21 10 22
REMARK SMILES IDX 93 23 11 24 92 25 8 26 1 27 2 28 3 29 7 30 4 31 6 33 5 34
REMARK SMILES IDX 27 35 28 36 29 37 30 38 31 39 32 40 33 42 34 43 35 44 87 45
REMARK SMILES IDX 36 46 86 47 37 48 38 49 39 50 80 51 40 52 85 53 79 54 81 55
REMARK SMILES IDX 41 56 84 57 78 58 77 59 42 61 68 62 51 63 67 64 52 65 55 66
REMARK SMILES IDX 66 67 82 68 53 69 54 70 65 72 83 73 56 74 43 75 44 76 49 77
REMARK SMILES IDX 45 78 46 79 48 80 50 81 47 82 69 83 70 84 75 85 71 86 72 87
REMARK SMILES IDX 74 88 76 89 73 90 57 91 58 92 63 93 59 94 60 95 62 96 64 97
REMARK SMILES IDX 61 98
REMARK H PARENT 24 6 3 32 31 41 81 60 55 71
REMARK Flexibility Score: inf
ROOT
ATOM      1  C   UNL     1       6.828  10.501   2.060  1.00  0.00     0.021 C 
ENDROOT
BRANCH   1   2
ATOM      2  C   UNL     1       6.351  10.944   0.675  1.00  0.00     0.116 C 
BRANCH   2   3
ATOM      3  N   UNL     1       6.980  10.127  -0.343  1.00  0.00    -0.352 N 
ATOM      4  C   UNL     1       6.545   9.062  -1.085  1.00  0.00     0.251 C 
ATOM      5  O   UNL     1       7.355   8.539  -1.851  1.00  0.00    -0.269 OA
ATOM      6  H   UNL     1       7.907  10.392  -0.541  1.00  0.00     0.163 HD
BRANCH   4   7
ATOM      7  C   UNL     1       5.139   8.568  -1.067  1.00  0.00     0.039 A 
ATOM      8  C   UNL     1       2.457   7.783  -1.318  1.00  0.00     0.066 A 
ATOM      9  C   UNL     1       3.369   7.477  -2.333  1.00  0.00     0.029 A 
ATOM     10  C   UNL     1       2.893   8.404  -0.147  1.00  0.00     0.029 A 
ATOM     11  C   UNL     1       4.694   7.900  -2.219  1.00  0.00     0.016 A 
ATOM     12  C   UNL     1       4.246   8.728  -0.004  1.00  0.00     0.016 A 
BRANCH   8  13
ATOM     13  N   UNL     1       1.099   7.441  -1.480  1.00  0.00    -0.220 N 
ATOM     14  C   UNL     1      -1.075   7.292  -1.384  1.00  0.00     0.120 A 
ATOM     15  C   UNL     1      -0.010   8.037  -0.923  1.00  0.00     0.144 A 
ATOM     16  N   UNL     1      -0.593   6.320  -2.221  1.00  0.00    -0.131 NA
ATOM     17  N   UNL     1       0.720   6.439  -2.299  1.00  0.00    -0.062 NA
BRANCH  14  18
ATOM     18  C   UNL     1      -2.547   7.462  -1.195  1.00  0.00     0.289 C 
BRANCH  18  19
ATOM     19  O   UNL     1      -3.122   6.719  -0.106  1.00  0.00    -0.487 OA
BRANCH  19  20
ATOM     20  C   UNL     1      -3.146   5.353  -0.188  1.00  0.00     0.119 A 
ATOM     21  C   UNL     1      -2.933   2.557  -0.012  1.00  0.00    -0.024 A 
ATOM     22  C   UNL     1      -3.365   3.297   1.090  1.00  0.00     0.012 A 
ATOM     23  C   UNL     1      -2.709   3.211  -1.225  1.00  0.00     0.012 A 
ATOM     24  C   UNL     1      -3.465   4.691   1.000  1.00  0.00     0.047 A 
ATOM     25  C   UNL     1      -2.846   4.597  -1.318  1.00  0.00     0.047 A 
BRANCH  21  26
ATOM     26  C   UNL     1      -2.692   1.117   0.091  1.00  0.00     0.029 C 
ATOM     27  O   UNL     1      -2.196  -1.752   0.154  1.00  0.00    -0.268 OA
ATOM     28  C   UNL     1      -1.299  -0.929   0.112  1.00  0.00     0.263 C 
ATOM     29  N   UNL     1       0.034  -1.230   0.068  1.00  0.00    -0.307 N 
ATOM     30  C   UNL     1      -1.478   0.548   0.088  1.00  0.00     0.080 C 
ATOM     31  C   UNL     1       0.925  -0.202   0.030  1.00  0.00     0.145 C 
ATOM     32  H   UNL     1       0.341  -2.166   0.064  1.00  0.00     0.171 HD
ATOM     33  S   UNL     1       0.068   1.321   0.037  1.00  0.00    -0.055 SA
ATOM     34  S   UNL     1       2.567  -0.413  -0.009  1.00  0.00    -0.052 S 
ENDBRANCH  21  26
ENDBRANCH  19  20
ENDBRANCH  18  19
ENDBRANCH  14  18
ENDBRANCH   8  13
ENDBRANCH   4   7
ENDBRANCH   2   3
ENDBRANCH   1   2
BRANCH   1  35
ATOM     35  C   UNL     1       8.202  11.075   2.428  1.00  0.00     0.002 C 
BRANCH  35  36
ATOM     36  C   UNL     1       8.294  12.610   2.407  1.00  0.00     0.002 C 
BRANCH  36  37
ATOM     37  C   UNL     1       7.211  13.353   3.204  1.00  0.00     0.021 C 
BRANCH  37  38
ATOM     38  C   UNL     1       7.357  13.186   4.708  1.00  0.00     0.116 C 
BRANCH  38  39
ATOM     39  N   UNL     1       8.567  13.840   5.205  1.00  0.00    -0.352 N 
ATOM     40  C   UNL     1       9.104  13.824   6.476  1.00  0.00     0.251 C 
ATOM     41  H   UNL     1       9.068  14.364   4.540  1.00  0.00     0.163 HD
ATOM     42  O   UNL     1       9.898  14.673   6.837  1.00  0.00    -0.269 OA
BRANCH  40  43
ATOM     43  C   UNL     1       8.694  12.749   7.394  1.00  0.00     0.039 A 
ATOM     44  C   UNL     1       8.419  13.016   8.738  1.00  0.00     0.014 A 
ATOM     45  C   UNL     1       8.565  11.465   6.876  1.00  0.00     0.014 A 
ATOM     46  C   UNL     1       7.933  11.989   9.541  1.00  0.00     0.010 A 
ATOM     47  C   UNL     1       7.943  10.499   7.621  1.00  0.00     0.010 A 
ATOM     48  C   UNL     1       7.680  10.735   8.969  1.00  0.00    -0.014 A 
BRANCH  48  49
ATOM     49  C   UNL     1       7.039   9.672   9.734  1.00  0.00     0.031 A 
ATOM     50  C   UNL     1       5.713  10.020  10.320  1.00  0.00     0.074 A 
ATOM     51  C   UNL     1       7.490   8.400   9.685  1.00  0.00     0.049 A 
ATOM     52  N   UNL     1       5.373  10.002  11.566  1.00  0.00    -0.248 NA
ATOM     53  C   UNL     1       4.668  10.555   9.431  1.00  0.00     0.031 C 
ATOM     54  C   UNL     1       8.616   7.867   8.907  1.00  0.00     0.029 A 
ATOM     55  N   UNL     1       6.941   7.275  10.213  1.00  0.00    -0.354 N 
ATOM     56  C   UNL     1       4.020  10.332  11.607  1.00  0.00     0.074 A 
ATOM     57  C   UNL     1       3.686  10.822  10.295  1.00  0.00     0.031 C 
ATOM     58  C   UNL     1       8.500   6.526   8.806  1.00  0.00     0.029 A 
ATOM     59  C   UNL     1       7.397   6.092   9.641  1.00  0.00     0.049 A 
ATOM     60  H   UNL     1       6.277   7.295  10.940  1.00  0.00     0.167 HD
ATOM     61  C   UNL     1       3.232   9.955  12.653  1.00  0.00     0.037 A 
ATOM     62  C   UNL     1       6.870   4.854   9.810  1.00  0.00     0.037 A 
ATOM     63  C   UNL     1       4.029   9.556  13.786  1.00  0.00     0.049 A 
ATOM     64  C   UNL     1       6.057   4.894  11.052  1.00  0.00     0.074 A 
ATOM     65  C   UNL     1       4.993  10.176  14.557  1.00  0.00     0.029 A 
ATOM     66  N   UNL     1       4.160   8.211  14.037  1.00  0.00    -0.354 N 
ATOM     67  N   UNL     1       6.567   5.033  12.245  1.00  0.00    -0.248 NA
ATOM     68  C   UNL     1       4.652   5.258  10.931  1.00  0.00     0.031 C 
ATOM     69  C   UNL     1       5.961   9.161  14.814  1.00  0.00     0.029 A 
ATOM     70  C   UNL     1       5.492   7.972  14.255  1.00  0.00     0.049 A 
ATOM     71  H   UNL     1       3.434   7.546  14.057  1.00  0.00     0.167 HD
ATOM     72  C   UNL     1       5.707   5.905  12.896  1.00  0.00     0.074 A 
ATOM     73  C   UNL     1       4.498   5.934  12.073  1.00  0.00     0.031 C 
ATOM     74  C   UNL     1       6.161   6.753  13.866  1.00  0.00     0.037 A 
BRANCH  61  75
ATOM     75  C   UNL     1       1.772   9.584  12.544  1.00  0.00     0.057 A 
ATOM     76  C   UNL     1       1.039   9.337  13.720  1.00  0.00     0.134 A 
ATOM     77  C   UNL     1       1.149   9.161  11.353  1.00  0.00     0.134 A 
ATOM     78  F   UNL     1       1.524   9.688  14.921  1.00  0.00    -0.206 F 
ATOM     79  C   UNL     1      -0.174   8.639  13.717  1.00  0.00     0.040 A 
ATOM     80  C   UNL     1      -0.087   8.510  11.335  1.00  0.00     0.040 A 
ATOM     81  F   UNL     1       1.743   9.258  10.157  1.00  0.00    -0.206 F 
ATOM     82  C   UNL     1      -0.736   8.213  12.522  1.00  0.00     0.006 A 
ENDBRANCH  61  75
BRANCH  62  83
ATOM     83  C   UNL     1       6.811   3.733   8.841  1.00  0.00     0.057 A 
ATOM     84  C   UNL     1       6.442   2.443   9.250  1.00  0.00     0.134 A 
ATOM     85  C   UNL     1       6.861   3.942   7.450  1.00  0.00     0.134 A 
ATOM     86  F   UNL     1       6.327   2.148  10.553  1.00  0.00    -0.206 F 
ATOM     87  C   UNL     1       6.114   1.433   8.334  1.00  0.00     0.040 A 
ATOM     88  C   UNL     1       6.549   2.939   6.525  1.00  0.00     0.040 A 
ATOM     89  F   UNL     1       7.130   5.150   6.935  1.00  0.00    -0.206 F 
ATOM     90  C   UNL     1       6.157   1.683   6.966  1.00  0.00     0.006 A 
ENDBRANCH  62  83
BRANCH  74  91
ATOM     91  C   UNL     1       7.561   6.563  14.383  1.00  0.00     0.057 A 
ATOM     92  C   UNL     1       8.716   6.696  13.596  1.00  0.00     0.134 A 
ATOM     93  C   UNL     1       7.755   6.413  15.760  1.00  0.00     0.134 A 
ATOM     94  F   UNL     1       8.639   6.950  12.286  1.00  0.00    -0.206 F 
ATOM     95  C   UNL     1      10.000   6.638  14.147  1.00  0.00     0.040 A 
ATOM     96  C   UNL     1       9.031   6.389  16.328  1.00  0.00     0.040 A 
ATOM     97  F   UNL     1       6.699   6.341  16.587  1.00  0.00    -0.206 F 
ATOM     98  C   UNL     1      10.160   6.491  15.520  1.00  0.00     0.006 A 
ENDBRANCH  74  91
ENDBRANCH  48  49
ENDBRANCH  40  43
ENDBRANCH  38  39
ENDBRANCH  37  38
ENDBRANCH  36  37
ENDBRANCH  35  36
ENDBRANCH   1  35
TORSDOF 18
