REMARK SMILES Cc1ccc(C#N)cc1S(=O)(=O)Nc1cccc(C(=O)NCCCCCCNC(=O)c2ccc(-c3c4nc(c(-c5c(F)cccc5F)c5ccc([nH]5)c(-c5c(F)cccc5F)c5nc(c(-c6c(F)cccc6F)c6ccc3[nH]6)C=C5)C=C4)cc2)c1
REMARK SMILES IDX 23 1 22 2 21 3 19 4 20 5 18 7 14 8 15 9 85 10 16 11 17 12
REMARK SMILES IDX 13 13 10 15 11 16 12 17 9 18 1 19 2 20 3 21 4 22 8 23 5 24
REMARK SMILES IDX 6 25 7 26 24 27 25 28 26 29 27 30 28 31 29 32 30 34 31 35
REMARK SMILES IDX 32 36 84 37 33 38 83 39 34 40 35 41 36 42 77 43 37 44 82 45
REMARK SMILES IDX 76 46 78 47 38 48 81 49 75 50 74 51 39 53 65 54 48 55 64 56
REMARK SMILES IDX 49 57 52 58 63 59 79 60 50 61 51 62 62 64 80 65 53 66 40 67
REMARK SMILES IDX 41 68 46 69 42 70 43 71 45 72 47 73 44 74 66 75 67 76 72 77
REMARK SMILES IDX 68 78 69 79 71 80 73 81 70 82 54 83 55 84 60 85 56 86 57 87
REMARK SMILES IDX 59 88 61 89 58 90
REMARK H PARENT 21 6 13 14 28 33 78 52 52 63
REMARK Flexibility Score: inf
ROOT
ATOM      1  C   UNL     1      -2.737   3.705   2.153  1.00  0.00     0.021 C 
ENDROOT
BRANCH   1   2
ATOM      2  C   UNL     1      -1.362   3.738   1.496  1.00  0.00     0.116 C 
BRANCH   2   3
ATOM      3  N   UNL     1      -0.243   3.639   2.409  1.00  0.00    -0.352 N 
ATOM      4  C   UNL     1       1.045   3.180   2.251  1.00  0.00     0.251 C 
ATOM      5  O   UNL     1       1.794   3.290   3.225  1.00  0.00    -0.269 OA
ATOM      6  H   UNL     1      -0.441   3.963   3.318  1.00  0.00     0.163 HD
BRANCH   4   7
ATOM      7  C   UNL     1       1.558   2.478   1.026  1.00  0.00     0.041 A 
ATOM      8  C   UNL     1       1.251   1.423  -1.139  1.00  0.00     0.050 A 
ATOM      9  C   UNL     1       2.426   0.699  -0.985  1.00  0.00     0.027 A 
ATOM     10  C   UNL     1       0.884   2.391  -0.196  1.00  0.00     0.040 A 
ATOM     11  C   UNL     1       3.205   0.894   0.151  1.00  0.00     0.003 A 
ATOM     12  C   UNL     1       2.755   1.748   1.166  1.00  0.00     0.014 A 
BRANCH   8  13
ATOM     13  N   UNL     1       0.404   1.126  -2.248  1.00  0.00    -0.280 N 
ATOM     14  H   UNL     1       0.484   1.669  -3.066  1.00  0.00     0.180 HD
BRANCH  13  15
ATOM     15  S   UNL     1      -0.744  -0.139  -2.209  1.00  0.00     0.262 S 
ATOM     16  O   UNL     1      -0.871  -0.514  -3.606  1.00  0.00    -0.201 OA
ATOM     17  O   UNL     1      -1.901   0.374  -1.506  1.00  0.00    -0.201 OA
BRANCH  15  18
ATOM     18  C   UNL     1      -0.202  -1.613  -1.338  1.00  0.00     0.092 A 
ATOM     19  C   UNL     1       0.003  -0.579   1.026  1.00  0.00     0.046 C 
ATOM     20  C   UNL     1       0.167  -1.673   0.017  1.00  0.00    -0.030 A 
ATOM     21  C   UNL     1       0.629  -2.898   0.546  1.00  0.00     0.006 A 
ATOM     22  C   UNL     1       0.527  -4.083  -0.175  1.00  0.00     0.020 A 
ATOM     23  C   UNL     1      -0.355  -2.832  -2.039  1.00  0.00     0.042 A 
ATOM     24  C   UNL     1      -0.037  -4.061  -1.446  1.00  0.00     0.053 A 
BRANCH  24  25
ATOM     25  C   UNL     1      -0.347  -5.298  -2.100  1.00  0.00     0.099 C 
ATOM     26  N   UNL     1      -0.626  -6.315  -2.592  1.00  0.00    -0.192 NA
ENDBRANCH  24  25
ENDBRANCH  15  18
ENDBRANCH  13  15
ENDBRANCH   8  13
ENDBRANCH   4   7
ENDBRANCH   2   3
ENDBRANCH   1   2
BRANCH   1  27
ATOM     27  C   UNL     1      -3.079   4.842   3.114  1.00  0.00     0.002 C 
BRANCH  27  28
ATOM     28  C   UNL     1      -2.916   6.263   2.571  1.00  0.00     0.002 C 
BRANCH  28  29
ATOM     29  C   UNL     1      -3.600   6.551   1.236  1.00  0.00     0.021 C 
BRANCH  29  30
ATOM     30  C   UNL     1      -5.081   6.205   1.175  1.00  0.00     0.116 C 
BRANCH  30  31
ATOM     31  N   UNL     1      -5.891   6.982   2.102  1.00  0.00    -0.352 N 
ATOM     32  C   UNL     1      -7.000   7.757   1.849  1.00  0.00     0.251 C 
ATOM     33  H   UNL     1      -5.604   6.949   3.043  1.00  0.00     0.163 HD
ATOM     34  O   UNL     1      -7.483   8.462   2.729  1.00  0.00    -0.269 OA
BRANCH  32  35
ATOM     35  C   UNL     1      -7.579   7.766   0.489  1.00  0.00     0.039 A 
ATOM     36  C   UNL     1      -7.754   6.570  -0.209  1.00  0.00     0.014 A 
ATOM     37  C   UNL     1      -7.880   8.986  -0.120  1.00  0.00     0.014 A 
ATOM     38  C   UNL     1      -8.017   6.607  -1.571  1.00  0.00     0.010 A 
ATOM     39  C   UNL     1      -8.259   9.011  -1.465  1.00  0.00     0.010 A 
ATOM     40  C   UNL     1      -8.268   7.827  -2.220  1.00  0.00    -0.014 A 
BRANCH  40  41
ATOM     41  C   UNL     1      -8.516   7.837  -3.686  1.00  0.00     0.031 A 
ATOM     42  C   UNL     1      -7.593   8.574  -4.622  1.00  0.00     0.074 A 
ATOM     43  C   UNL     1      -9.548   7.128  -4.184  1.00  0.00     0.049 A 
ATOM     44  N   UNL     1      -7.654   8.686  -5.926  1.00  0.00    -0.248 NA
ATOM     45  C   UNL     1      -6.455   9.281  -4.016  1.00  0.00     0.031 C 
ATOM     46  C   UNL     1     -10.501   6.351  -3.389  1.00  0.00     0.029 A 
ATOM     47  N   UNL     1      -9.956   6.927  -5.478  1.00  0.00    -0.354 N 
ATOM     48  C   UNL     1      -6.576   9.484  -6.293  1.00  0.00     0.074 A 
ATOM     49  C   UNL     1      -5.904   9.866  -5.070  1.00  0.00     0.031 C 
ATOM     50  C   UNL     1     -11.350   5.720  -4.212  1.00  0.00     0.029 A 
ATOM     51  C   UNL     1     -11.055   6.111  -5.585  1.00  0.00     0.049 A 
ATOM     52  H   UNL     1      -9.504   7.330  -6.255  1.00  0.00     0.167 HD
ATOM     53  C   UNL     1      -6.175   9.854  -7.535  1.00  0.00     0.037 A 
ATOM     54  C   UNL     1     -11.767   5.742  -6.664  1.00  0.00     0.037 A 
ATOM     55  C   UNL     1      -6.851   9.478  -8.751  1.00  0.00     0.049 A 
ATOM     56  C   UNL     1     -11.357   6.250  -8.017  1.00  0.00     0.074 A 
ATOM     57  C   UNL     1      -6.519   9.795 -10.057  1.00  0.00     0.029 A 
ATOM     58  N   UNL     1      -8.006   8.712  -8.810  1.00  0.00    -0.354 N 
ATOM     59  N   UNL     1     -10.326   6.988  -8.350  1.00  0.00    -0.248 NA
ATOM     60  C   UNL     1     -12.218   5.875  -9.146  1.00  0.00     0.031 C 
ATOM     61  C   UNL     1      -7.511   9.282 -10.899  1.00  0.00     0.029 A 
ATOM     62  C   UNL     1      -8.419   8.577 -10.127  1.00  0.00     0.049 A 
ATOM     63  H   UNL     1      -8.465   8.321  -8.031  1.00  0.00     0.167 HD
ATOM     64  C   UNL     1     -10.399   7.141  -9.729  1.00  0.00     0.074 A 
ATOM     65  C   UNL     1     -11.559   6.396 -10.170  1.00  0.00     0.031 C 
ATOM     66  C   UNL     1      -9.579   7.837 -10.556  1.00  0.00     0.037 A 
BRANCH  53  67
ATOM     67  C   UNL     1      -4.963  10.740  -7.635  1.00  0.00     0.057 A 
ATOM     68  C   UNL     1      -5.081  12.061  -8.089  1.00  0.00     0.134 A 
ATOM     69  C   UNL     1      -3.679  10.289  -7.301  1.00  0.00     0.134 A 
ATOM     70  F   UNL     1      -6.276  12.558  -8.441  1.00  0.00    -0.206 F 
ATOM     71  C   UNL     1      -3.970  12.900  -8.200  1.00  0.00     0.040 A 
ATOM     72  C   UNL     1      -2.565  11.129  -7.375  1.00  0.00     0.040 A 
ATOM     73  F   UNL     1      -3.491   9.038  -6.852  1.00  0.00    -0.206 F 
ATOM     74  C   UNL     1      -2.709  12.438  -7.830  1.00  0.00     0.006 A 
ENDBRANCH  53  67
BRANCH  54  75
ATOM     75  C   UNL     1     -12.961   4.870  -6.514  1.00  0.00     0.057 A 
ATOM     76  C   UNL     1     -14.108   5.313  -5.842  1.00  0.00     0.134 A 
ATOM     77  C   UNL     1     -13.000   3.591  -7.079  1.00  0.00     0.134 A 
ATOM     78  F   UNL     1     -14.134   6.526  -5.269  1.00  0.00    -0.206 F 
ATOM     79  C   UNL     1     -15.248   4.517  -5.738  1.00  0.00     0.040 A 
ATOM     80  C   UNL     1     -14.147   2.798  -7.015  1.00  0.00     0.040 A 
ATOM     81  F   UNL     1     -11.940   3.116  -7.748  1.00  0.00    -0.206 F 
ATOM     82  C   UNL     1     -15.275   3.261  -6.340  1.00  0.00     0.006 A 
ENDBRANCH  54  75
BRANCH  66  83
ATOM     83  C   UNL     1      -9.890   7.785 -12.026  1.00  0.00     0.057 A 
ATOM     84  C   UNL     1      -9.030   7.121 -12.911  1.00  0.00     0.134 A 
ATOM     85  C   UNL     1     -11.033   8.387 -12.569  1.00  0.00     0.134 A 
ATOM     86  F   UNL     1      -7.911   6.532 -12.463  1.00  0.00    -0.206 F 
ATOM     87  C   UNL     1      -9.298   7.053 -14.279  1.00  0.00     0.040 A 
ATOM     88  C   UNL     1     -11.331   8.293 -13.930  1.00  0.00     0.040 A 
ATOM     89  F   UNL     1     -11.906   9.028 -11.777  1.00  0.00    -0.206 F 
ATOM     90  C   UNL     1     -10.459   7.628 -14.790  1.00  0.00     0.006 A 
ENDBRANCH  66  83
ENDBRANCH  40  41
ENDBRANCH  32  35
ENDBRANCH  30  31
ENDBRANCH  29  30
ENDBRANCH  28  29
ENDBRANCH  27  28
ENDBRANCH   1  27
TORSDOF 17
