REMARK SMILES N#C/C(=C\c1ccc(-c2cc(C(=O)NCCCCCCNC(=O)c3ccc(-c4c5nc(c(-c6c(F)cccc6F)c6ccc([nH]6)c(-c6c(F)cccc6F)c6nc(c(-c7c(F)cccc7F)c7ccc4[nH]7)C=C6)C=C5)cc3)ccc2Cl)o1)C(=O)N1CCOCC1
REMARK SMILES IDX 17 1 16 2 15 3 14 4 12 5 13 6 11 8 9 9 10 10 80 11 79 12
REMARK SMILES IDX 81 13 78 14 8 15 5 16 6 17 82 18 7 19 4 20 3 21 2 22 1 23
REMARK SMILES IDX 83 24 84 25 85 26 86 27 90 28 87 29 89 30 88 31 18 32 19 33
REMARK SMILES IDX 20 34 21 35 22 36 23 38 24 39 25 40 77 41 26 42 76 43 27 44
REMARK SMILES IDX 28 45 29 46 70 47 30 48 75 49 69 50 71 51 31 52 74 53 68 54
REMARK SMILES IDX 67 55 32 57 58 58 41 59 57 60 42 61 45 62 56 63 72 64 43 65
REMARK SMILES IDX 44 66 55 68 73 69 46 70 33 71 34 72 39 73 35 74 36 75 38 76
REMARK SMILES IDX 40 77 37 78 59 79 60 80 65 81 61 82 62 83 64 84 66 85 63 86
REMARK SMILES IDX 47 87 48 88 53 89 49 90 50 91 52 92 54 93 51 94
REMARK H PARENT 14 7 21 37 71 56 45 67
REMARK Flexibility Score: inf
ROOT
ATOM      1  C   UNL     1       3.312   1.157 -12.740  1.00  0.00     0.002 C 
ENDROOT
BRANCH   1   2
ATOM      2  C   UNL     1       3.387   2.102 -11.531  1.00  0.00     0.021 C 
BRANCH   2   3
ATOM      3  C   UNL     1       2.150   2.026 -10.632  1.00  0.00     0.116 C 
BRANCH   3   4
ATOM      4  N   UNL     1       2.280   0.930  -9.694  1.00  0.00    -0.352 N 
ATOM      5  C   UNL     1       2.606   0.840  -8.368  1.00  0.00     0.251 C 
ATOM      6  O   UNL     1       2.637  -0.295  -7.887  1.00  0.00    -0.269 OA
ATOM      7  H   UNL     1       2.093   0.054 -10.102  1.00  0.00     0.163 HD
BRANCH   5   8
ATOM      8  C   UNL     1       2.878   2.004  -7.471  1.00  0.00     0.040 A 
ATOM      9  C   UNL     1       2.995   2.788  -5.141  1.00  0.00     0.037 A 
ATOM     10  C   UNL     1       2.800   1.762  -6.083  1.00  0.00     0.027 A 
ATOM     11  C   UNL     1       3.260   4.084  -5.604  1.00  0.00     0.052 A 
ATOM     12  C   UNL     1       3.375   4.329  -6.972  1.00  0.00     0.022 A 
ATOM     13  Cl  UNL     1       3.499   5.429  -4.541  1.00  0.00    -0.084 Cl
ATOM     14  C   UNL     1       3.220   3.289  -7.894  1.00  0.00     0.015 A 
BRANCH   9  15
ATOM     15  C   UNL     1       2.878   2.497  -3.723  1.00  0.00     0.136 A 
ATOM     16  C   UNL     1       3.533   1.505  -1.839  1.00  0.00     0.129 A 
ATOM     17  C   UNL     1       2.525   2.419  -1.532  1.00  0.00     0.051 A 
ATOM     18  O   UNL     1       3.758   1.596  -3.200  1.00  0.00    -0.457 OA
ATOM     19  C   UNL     1       2.068   2.996  -2.733  1.00  0.00     0.051 A 
BRANCH  16  20
ATOM     20  C   UNL     1       4.267   0.615  -0.988  1.00  0.00     0.072 C 
ATOM     21  C   UNL     1       3.719  -0.030   0.073  1.00  0.00     0.121 C 
BRANCH  21  22
ATOM     22  C   UNL     1       2.199  -0.030   0.073  1.00  0.00     0.105 C 
ATOM     23  N   UNL     1       0.938  -0.030   0.073  1.00  0.00    -0.192 NA
ENDBRANCH  21  22
BRANCH  21  24
ATOM     24  C   UNL     1       4.476  -1.036   0.862  1.00  0.00     0.264 C 
ATOM     25  O   UNL     1       3.874  -2.025   1.280  1.00  0.00    -0.268 OA
ATOM     26  N   UNL     1       5.841  -0.882   1.051  1.00  0.00    -0.333 N 
ATOM     27  C   UNL     1       6.658   0.340   0.960  1.00  0.00     0.148 C 
ATOM     28  C   UNL     1       6.644  -2.066   1.371  1.00  0.00     0.148 C 
ATOM     29  C   UNL     1       7.813   0.136  -0.036  1.00  0.00     0.181 C 
ATOM     30  C   UNL     1       7.759  -2.209   0.327  1.00  0.00     0.181 C 
ATOM     31  O   UNL     1       8.584  -1.030   0.295  1.00  0.00    -0.378 OA
ENDBRANCH  21  24
ENDBRANCH  16  20
ENDBRANCH   9  15
ENDBRANCH   5   8
ENDBRANCH   3   4
ENDBRANCH   2   3
ENDBRANCH   1   2
BRANCH   1  32
ATOM     32  C   UNL     1       2.143   1.425 -13.697  1.00  0.00     0.002 C 
BRANCH  32  33
ATOM     33  C   UNL     1       2.035   2.869 -14.194  1.00  0.00     0.021 C 
BRANCH  33  34
ATOM     34  C   UNL     1       3.247   3.344 -14.989  1.00  0.00     0.116 C 
BRANCH  34  35
ATOM     35  N   UNL     1       3.409   2.586 -16.221  1.00  0.00    -0.352 N 
ATOM     36  C   UNL     1       3.402   3.027 -17.520  1.00  0.00     0.251 C 
ATOM     37  H   UNL     1       3.543   1.617 -16.105  1.00  0.00     0.163 HD
ATOM     38  O   UNL     1       3.304   2.231 -18.446  1.00  0.00    -0.269 OA
BRANCH  36  39
ATOM     39  C   UNL     1       3.500   4.475 -17.797  1.00  0.00     0.039 A 
ATOM     40  C   UNL     1       2.642   5.045 -18.740  1.00  0.00     0.014 A 
ATOM     41  C   UNL     1       4.439   5.263 -17.126  1.00  0.00     0.014 A 
ATOM     42  C   UNL     1       2.680   6.423 -18.959  1.00  0.00     0.010 A 
ATOM     43  C   UNL     1       4.427   6.644 -17.294  1.00  0.00     0.010 A 
ATOM     44  C   UNL     1       3.544   7.238 -18.208  1.00  0.00    -0.014 A 
BRANCH  44  45
ATOM     45  C   UNL     1       3.527   8.716 -18.349  1.00  0.00     0.031 A 
ATOM     46  C   UNL     1       4.743   9.440 -18.855  1.00  0.00     0.074 A 
ATOM     47  C   UNL     1       2.439   9.407 -17.956  1.00  0.00     0.049 A 
ATOM     48  N   UNL     1       4.959  10.727 -18.948  1.00  0.00    -0.248 NA
ATOM     49  C   UNL     1       5.875   8.608 -19.295  1.00  0.00     0.031 C 
ATOM     50  C   UNL     1       1.212   8.820 -17.415  1.00  0.00     0.029 A 
ATOM     51  N   UNL     1       2.196  10.758 -17.935  1.00  0.00    -0.354 N 
ATOM     52  C   UNL     1       6.244  10.859 -19.458  1.00  0.00     0.074 A 
ATOM     53  C   UNL     1       6.784   9.524 -19.597  1.00  0.00     0.031 C 
ATOM     54  C   UNL     1       0.343   9.803 -17.126  1.00  0.00     0.029 A 
ATOM     55  C   UNL     1       0.967  11.089 -17.417  1.00  0.00     0.049 A 
ATOM     56  H   UNL     1       2.841  11.427 -18.261  1.00  0.00     0.167 HD
ATOM     57  C   UNL     1       6.902  11.990 -19.807  1.00  0.00     0.037 A 
ATOM     58  C   UNL     1       0.415  12.294 -17.181  1.00  0.00     0.037 A 
ATOM     59  C   UNL     1       6.359  13.316 -19.675  1.00  0.00     0.049 A 
ATOM     60  C   UNL     1       1.192  13.536 -17.529  1.00  0.00     0.074 A 
ATOM     61  C   UNL     1       6.939  14.523 -20.024  1.00  0.00     0.029 A 
ATOM     62  N   UNL     1       5.108  13.609 -19.153  1.00  0.00    -0.354 N 
ATOM     63  N   UNL     1       2.385  13.642 -18.062  1.00  0.00    -0.248 NA
ATOM     64  C   UNL     1       0.547  14.825 -17.242  1.00  0.00     0.031 C 
ATOM     65  C   UNL     1       6.057  15.549 -19.674  1.00  0.00     0.029 A 
ATOM     66  C   UNL     1       4.907  14.979 -19.152  1.00  0.00     0.049 A 
ATOM     67  H   UNL     1       4.459  12.942 -18.832  1.00  0.00     0.167 HD
ATOM     68  C   UNL     1       2.619  15.004 -18.200  1.00  0.00     0.074 A 
ATOM     69  C   UNL     1       1.438  15.684 -17.715  1.00  0.00     0.031 C 
ATOM     70  C   UNL     1       3.717  15.637 -18.680  1.00  0.00     0.037 A 
BRANCH  57  71
ATOM     71  C   UNL     1       8.279  11.844 -20.386  1.00  0.00     0.057 A 
ATOM     72  C   UNL     1       8.480  11.325 -21.672  1.00  0.00     0.134 A 
ATOM     73  C   UNL     1       9.407  12.286 -19.684  1.00  0.00     0.134 A 
ATOM     74  F   UNL     1       7.442  10.875 -22.393  1.00  0.00    -0.206 F 
ATOM     75  C   UNL     1       9.755  11.236 -22.233  1.00  0.00     0.040 A 
ATOM     76  C   UNL     1      10.684  12.227 -20.245  1.00  0.00     0.040 A 
ATOM     77  F   UNL     1       9.285  12.800 -18.451  1.00  0.00    -0.206 F 
ATOM     78  C   UNL     1      10.861  11.698 -21.522  1.00  0.00     0.006 A 
ENDBRANCH  57  71
BRANCH  58  79
ATOM     79  C   UNL     1      -0.937  12.400 -16.571  1.00  0.00     0.057 A 
ATOM     80  C   UNL     1      -2.016  12.932 -17.287  1.00  0.00     0.134 A 
ATOM     81  C   UNL     1      -1.171  12.018 -15.245  1.00  0.00     0.134 A 
ATOM     82  F   UNL     1      -1.852  13.334 -18.556  1.00  0.00    -0.206 F 
ATOM     83  C   UNL     1      -3.267  13.116 -16.696  1.00  0.00     0.040 A 
ATOM     84  C   UNL     1      -2.425  12.166 -14.650  1.00  0.00     0.040 A 
ATOM     85  F   UNL     1      -0.183  11.492 -14.505  1.00  0.00    -0.206 F 
ATOM     86  C   UNL     1      -3.474  12.731 -15.373  1.00  0.00     0.006 A 
ENDBRANCH  58  79
BRANCH  70  87
ATOM     87  C   UNL     1       3.679  17.136 -18.737  1.00  0.00     0.057 A 
ATOM     88  C   UNL     1       3.756  17.921 -17.579  1.00  0.00     0.134 A 
ATOM     89  C   UNL     1       3.613  17.802 -19.968  1.00  0.00     0.134 A 
ATOM     90  F   UNL     1       3.806  17.345 -16.369  1.00  0.00    -0.206 F 
ATOM     91  C   UNL     1       3.750  19.315 -17.643  1.00  0.00     0.040 A 
ATOM     92  C   UNL     1       3.635  19.195 -20.046  1.00  0.00     0.040 A 
ATOM     93  F   UNL     1       3.546  17.109 -21.114  1.00  0.00    -0.206 F 
ATOM     94  C   UNL     1       3.698  19.955 -18.880  1.00  0.00     0.006 A 
ENDBRANCH  70  87
ENDBRANCH  44  45
ENDBRANCH  36  39
ENDBRANCH  34  35
ENDBRANCH  33  34
ENDBRANCH  32  33
ENDBRANCH   1  32
TORSDOF 17
