REMARK SMILES C[C@@](NC(=O)c1cc(Br)c[nH]1)(C(=O)NCCCCCCNC(=O)c1ccc(-c2c3nc(c(-c4c(F)cccc4F)c4ccc([nH]4)c(-c4c(F)cccc4F)c4nc(c(-c5c(F)cccc5F)c5ccc2[nH]5)C=C4)C=C3)cc1)C(F)(F)F
REMARK SMILES IDX 17 1 16 2 15 3 14 4 12 5 13 6 2 8 1 9 3 10 4 11 5 13 6 14
REMARK SMILES IDX 7 15 11 16 8 17 10 18 9 20 78 21 79 22 80 23 81 24 18 25
REMARK SMILES IDX 19 26 20 27 21 28 22 29 23 31 24 32 25 33 77 34 26 35 76 36
REMARK SMILES IDX 27 37 28 38 29 39 70 40 30 41 75 42 69 43 71 44 31 45 74 46
REMARK SMILES IDX 68 47 67 48 32 50 58 51 41 52 57 53 42 54 45 55 56 56 72 57
REMARK SMILES IDX 43 58 44 59 55 61 73 62 46 63 33 64 34 65 39 66 35 67 36 68
REMARK SMILES IDX 38 69 40 70 37 71 59 72 60 73 65 74 61 75 62 76 64 77 66 78
REMARK SMILES IDX 63 79 47 80 48 81 53 82 49 83 50 84 52 85 54 86 51 87
REMARK H PARENT 14 7 3 12 11 19 21 30 71 49 45 60
REMARK Flexibility Score: inf
ROOT
ATOM      1  C   UNL     1      -3.076   1.653  -2.572  1.00  0.00     0.002 C 
ENDROOT
BRANCH   1   2
ATOM      2  C   UNL     1      -1.565   1.395  -2.514  1.00  0.00     0.021 C 
BRANCH   2   3
ATOM      3  C   UNL     1      -0.945   1.581  -1.131  1.00  0.00     0.116 C 
BRANCH   3   4
ATOM      4  N   UNL     1      -1.373   0.534  -0.221  1.00  0.00    -0.354 N 
ATOM      5  C   UNL     1      -0.790   0.017   0.897  1.00  0.00     0.254 C 
ATOM      6  O   UNL     1      -1.420  -0.874   1.472  1.00  0.00    -0.272 OA
ATOM      7  H   UNL     1      -2.238   0.125  -0.453  1.00  0.00     0.163 HD
BRANCH   5   8
ATOM      8  C   UNL     1       0.621   0.426   1.354  1.00  0.00     0.212 C 
ATOM      9  C   UNL     1       1.629  -0.215   0.374  1.00  0.00     0.056 C 
BRANCH   8  10
ATOM     10  N   UNL     1       0.861   1.901   1.361  1.00  0.00    -0.329 N 
ATOM     11  C   UNL     1       0.180   2.936   1.950  1.00  0.00     0.268 C 
ATOM     12  H   UNL     1       1.654   2.181   0.849  1.00  0.00     0.165 HD
ATOM     13  O   UNL     1       0.799   3.990   2.085  1.00  0.00    -0.268 OA
BRANCH  11  14
ATOM     14  C   UNL     1      -1.236   2.836   2.210  1.00  0.00     0.105 A 
ATOM     15  C   UNL     1      -2.207   3.726   1.764  1.00  0.00     0.049 A 
ATOM     16  N   UNL     1      -1.898   1.902   2.980  1.00  0.00    -0.356 N 
ATOM     17  C   UNL     1      -3.459   3.220   2.146  1.00  0.00     0.036 A 
ATOM     18  C   UNL     1      -3.255   2.087   2.885  1.00  0.00     0.098 A 
ATOM     19  H   UNL     1      -1.460   1.205   3.520  1.00  0.00     0.166 HD
ATOM     20  Br  UNL     1      -5.099   3.989   1.678  1.00  0.00    -0.049 Br
ENDBRANCH  11  14
ENDBRANCH   8  10
BRANCH   8  21
ATOM     21  C   UNL     1       0.883  -0.207   2.739  1.00  0.00     0.420 C 
ATOM     22  F   UNL     1       0.860  -1.556   2.725  1.00  0.00    -0.168 F 
ATOM     23  F   UNL     1       2.121   0.150   3.179  1.00  0.00    -0.168 F 
ATOM     24  F   UNL     1       0.008   0.222   3.679  1.00  0.00    -0.168 F 
ENDBRANCH   8  21
ENDBRANCH   5   8
ENDBRANCH   3   4
ENDBRANCH   2   3
ENDBRANCH   1   2
BRANCH   1  25
ATOM     25  C   UNL     1      -3.515   3.076  -2.210  1.00  0.00     0.002 C 
BRANCH  25  26
ATOM     26  C   UNL     1      -2.843   4.197  -3.004  1.00  0.00     0.021 C 
BRANCH  26  27
ATOM     27  C   UNL     1      -2.920   4.054  -4.519  1.00  0.00     0.116 C 
BRANCH  27  28
ATOM     28  N   UNL     1      -4.282   4.059  -5.024  1.00  0.00    -0.352 N 
ATOM     29  C   UNL     1      -4.762   4.643  -6.171  1.00  0.00     0.251 C 
ATOM     30  H   UNL     1      -4.946   3.583  -4.474  1.00  0.00     0.163 HD
ATOM     31  O   UNL     1      -5.964   4.653  -6.417  1.00  0.00    -0.269 OA
BRANCH  29  32
ATOM     32  C   UNL     1      -3.812   5.293  -7.097  1.00  0.00     0.039 A 
ATOM     33  C   UNL     1      -4.056   6.607  -7.503  1.00  0.00     0.014 A 
ATOM     34  C   UNL     1      -2.671   4.615  -7.535  1.00  0.00     0.014 A 
ATOM     35  C   UNL     1      -3.120   7.268  -8.301  1.00  0.00     0.010 A 
ATOM     36  C   UNL     1      -1.713   5.293  -8.283  1.00  0.00     0.010 A 
ATOM     37  C   UNL     1      -1.928   6.625  -8.671  1.00  0.00    -0.014 A 
BRANCH  37  38
ATOM     38  C   UNL     1      -0.891   7.317  -9.477  1.00  0.00     0.031 A 
ATOM     39  C   UNL     1      -0.573   6.824 -10.861  1.00  0.00     0.074 A 
ATOM     40  C   UNL     1      -0.178   8.322  -8.934  1.00  0.00     0.049 A 
ATOM     41  N   UNL     1       0.384   7.196 -11.671  1.00  0.00    -0.248 NA
ATOM     42  C   UNL     1      -1.427   5.749 -11.392  1.00  0.00     0.031 C 
ATOM     43  C   UNL     1      -0.363   8.864  -7.586  1.00  0.00     0.029 A 
ATOM     44  N   UNL     1       0.865   9.055  -9.445  1.00  0.00    -0.354 N 
ATOM     45  C   UNL     1       0.270   6.379 -12.789  1.00  0.00     0.074 A 
ATOM     46  C   UNL     1      -0.831   5.473 -12.543  1.00  0.00     0.031 C 
ATOM     47  C   UNL     1       0.530   9.847  -7.381  1.00  0.00     0.029 A 
ATOM     48  C   UNL     1       1.372   9.981  -8.566  1.00  0.00     0.049 A 
ATOM     49  H   UNL     1       1.216   8.928 -10.356  1.00  0.00     0.167 HD
ATOM     50  C   UNL     1       1.008   6.394 -13.923  1.00  0.00     0.037 A 
ATOM     51  C   UNL     1       2.408  10.831  -8.697  1.00  0.00     0.037 A 
ATOM     52  C   UNL     1       2.063   7.335 -14.191  1.00  0.00     0.049 A 
ATOM     53  C   UNL     1       3.191  10.844  -9.981  1.00  0.00     0.074 A 
ATOM     54  C   UNL     1       2.809   7.485 -15.346  1.00  0.00     0.029 A 
ATOM     55  N   UNL     1       2.513   8.289 -13.293  1.00  0.00    -0.354 N 
ATOM     56  N   UNL     1       3.030  10.109 -11.054  1.00  0.00    -0.248 NA
ATOM     57  C   UNL     1       4.300  11.806 -10.073  1.00  0.00     0.031 C 
ATOM     58  C   UNL     1       3.733   8.514 -15.137  1.00  0.00     0.029 A 
ATOM     59  C   UNL     1       3.538   9.024 -13.864  1.00  0.00     0.049 A 
ATOM     60  H   UNL     1       2.157   8.425 -12.385  1.00  0.00     0.167 HD
ATOM     61  C   UNL     1       3.991  10.542 -11.959  1.00  0.00     0.074 A 
ATOM     62  C   UNL     1       4.728  11.607 -11.311  1.00  0.00     0.031 C 
ATOM     63  C   UNL     1       4.240  10.098 -13.213  1.00  0.00     0.037 A 
BRANCH  50  64
ATOM     64  C   UNL     1       0.698   5.369 -14.971  1.00  0.00     0.057 A 
ATOM     65  C   UNL     1      -0.446   5.457 -15.774  1.00  0.00     0.134 A 
ATOM     66  C   UNL     1       1.585   4.313 -15.217  1.00  0.00     0.134 A 
ATOM     67  F   UNL     1      -1.339   6.438 -15.579  1.00  0.00    -0.206 F 
ATOM     68  C   UNL     1      -0.704   4.522 -16.778  1.00  0.00     0.040 A 
ATOM     69  C   UNL     1       1.348   3.385 -16.232  1.00  0.00     0.040 A 
ATOM     70  F   UNL     1       2.700   4.175 -14.485  1.00  0.00    -0.206 F 
ATOM     71  C   UNL     1       0.199   3.487 -17.014  1.00  0.00     0.006 A 
ENDBRANCH  50  64
BRANCH  51  72
ATOM     72  C   UNL     1       2.765  11.755  -7.592  1.00  0.00     0.057 A 
ATOM     73  C   UNL     1       2.541  13.133  -7.707  1.00  0.00     0.134 A 
ATOM     74  C   UNL     1       3.367  11.294  -6.416  1.00  0.00     0.134 A 
ATOM     75  F   UNL     1       1.987  13.636  -8.819  1.00  0.00    -0.206 F 
ATOM     76  C   UNL     1       2.926  14.022  -6.702  1.00  0.00     0.040 A 
ATOM     77  C   UNL     1       3.736  12.169  -5.394  1.00  0.00     0.040 A 
ATOM     78  F   UNL     1       3.603   9.985  -6.245  1.00  0.00    -0.206 F 
ATOM     79  C   UNL     1       3.525  13.539  -5.540  1.00  0.00     0.006 A 
ENDBRANCH  51  72
BRANCH  63  80
ATOM     80  C   UNL     1       5.318  10.793 -13.988  1.00  0.00     0.057 A 
ATOM     81  C   UNL     1       6.674  10.570 -13.727  1.00  0.00     0.134 A 
ATOM     82  C   UNL     1       4.990  11.655 -15.042  1.00  0.00     0.134 A 
ATOM     83  F   UNL     1       7.050   9.764 -12.723  1.00  0.00    -0.206 F 
ATOM     84  C   UNL     1       7.670  11.191 -14.482  1.00  0.00     0.040 A 
ATOM     85  C   UNL     1       5.976  12.265 -15.816  1.00  0.00     0.040 A 
ATOM     86  F   UNL     1       3.707  11.903 -15.345  1.00  0.00    -0.206 F 
ATOM     87  C   UNL     1       7.322  12.036 -15.534  1.00  0.00     0.006 A 
ENDBRANCH  63  80
ENDBRANCH  37  38
ENDBRANCH  29  32
ENDBRANCH  27  28
ENDBRANCH  26  27
ENDBRANCH  25  26
ENDBRANCH   1  25
TORSDOF 16
