REMARK SMILES Cc1cc(-c2cc(C(=O)NCCCCCCNC(=O)c3ccc(-c4c5nc(c(-c6c(F)cccc6F)c6ccc([nH]6)c(-c6c(F)cccc6F)c6nc(c(-c7c(F)cccc7F)c7ccc4[nH]7)C=C6)C=C5)cc3)c[nH]c2=O)ccc1Cl
REMARK SMILES IDX 14 1 13 2 12 3 11 4 10 5 8 6 9 7 7 9 5 10 6 11 76 12 75 13
REMARK SMILES IDX 77 14 74 15 4 17 1 18 2 19 3 20 80 21 79 22 81 23 78 24
REMARK SMILES IDX 15 25 16 26 17 27 18 28 19 30 20 31 21 32 73 33 22 34 72 35
REMARK SMILES IDX 23 36 24 37 25 38 66 39 26 40 71 41 65 42 67 43 27 44 70 45
REMARK SMILES IDX 64 46 63 47 28 49 54 50 37 51 53 52 38 53 41 54 52 55 68 56
REMARK SMILES IDX 39 57 40 58 51 60 69 61 42 62 29 63 30 64 35 65 31 66 32 67
REMARK SMILES IDX 34 68 36 69 33 70 55 71 56 72 61 73 57 74 58 75 60 76 62 77
REMARK SMILES IDX 59 78 43 79 44 80 49 81 45 82 46 83 48 84 50 85 47 86
REMARK H PARENT 10 8 75 16 17 29 67 48 41 59
REMARK Flexibility Score: inf
ROOT
ATOM      1  C   UNL     1      -4.776  -3.331   6.090  1.00  0.00     0.002 C 
ENDROOT
BRANCH   1   2
ATOM      2  C   UNL     1      -5.097  -1.871   5.744  1.00  0.00     0.002 C 
BRANCH   2   3
ATOM      3  C   UNL     1      -4.564  -1.396   4.384  1.00  0.00     0.021 C 
BRANCH   3   4
ATOM      4  C   UNL     1      -5.201  -2.129   3.199  1.00  0.00     0.116 C 
BRANCH   4   5
ATOM      5  N   UNL     1      -6.497  -1.552   2.895  1.00  0.00    -0.352 N 
ATOM      6  C   UNL     1      -6.932  -0.650   1.976  1.00  0.00     0.252 C 
ATOM      7  O   UNL     1      -8.123  -0.333   2.037  1.00  0.00    -0.269 OA
ATOM      8  H   UNL     1      -7.215  -1.885   3.481  1.00  0.00     0.163 HD
BRANCH   6   9
ATOM      9  C   UNL     1      -6.063  -0.106   0.882  1.00  0.00     0.056 A 
ATOM     10  C   UNL     1      -3.913   0.302  -0.212  1.00  0.00     0.048 A 
ATOM     11  C   UNL     1      -4.617  -0.020   0.891  1.00  0.00     0.029 A 
ATOM     12  C   UNL     1      -4.653   0.764  -1.431  1.00  0.00     0.255 A 
ATOM     13  N   UNL     1      -6.025   0.770  -1.319  1.00  0.00    -0.328 N 
ATOM     14  O   UNL     1      -4.088   1.127  -2.455  1.00  0.00    -0.269 OA
ATOM     15  C   UNL     1      -6.712   0.330  -0.213  1.00  0.00     0.099 A 
ATOM     16  H   UNL     1      -6.548   1.111  -2.080  1.00  0.00     0.169 HD
BRANCH  10  17
ATOM     17  C   UNL     1      -2.449   0.172  -0.191  1.00  0.00    -0.012 A 
ATOM     18  C   UNL     1       0.648   2.382  -0.043  1.00  0.00     0.046 C 
ATOM     19  C   UNL     1      -0.218   1.154  -0.086  1.00  0.00    -0.032 A 
ATOM     20  C   UNL     1      -1.616   1.296  -0.161  1.00  0.00     0.014 A 
ATOM     21  C   UNL     1       0.332  -0.137  -0.055  1.00  0.00     0.044 A 
ATOM     22  C   UNL     1      -0.493  -1.262  -0.100  1.00  0.00     0.021 A 
ATOM     23  Cl  UNL     1       2.037  -0.395   0.046  1.00  0.00    -0.084 Cl
ATOM     24  C   UNL     1      -1.877  -1.108  -0.167  1.00  0.00     0.010 A 
ENDBRANCH  10  17
ENDBRANCH   6   9
ENDBRANCH   4   5
ENDBRANCH   3   4
ENDBRANCH   2   3
ENDBRANCH   1   2
BRANCH   1  25
ATOM     25  C   UNL     1      -3.290  -3.698   6.044  1.00  0.00     0.021 C 
BRANCH  25  26
ATOM     26  C   UNL     1      -2.420  -2.923   7.029  1.00  0.00     0.116 C 
BRANCH  26  27
ATOM     27  N   UNL     1      -2.754  -3.241   8.409  1.00  0.00    -0.352 N 
ATOM     28  C   UNL     1      -1.947  -3.710   9.415  1.00  0.00     0.251 C 
ATOM     29  H   UNL     1      -3.696  -3.100   8.657  1.00  0.00     0.163 HD
ATOM     30  O   UNL     1      -2.440  -4.134  10.455  1.00  0.00    -0.269 OA
BRANCH  28  31
ATOM     31  C   UNL     1      -0.479  -3.714   9.241  1.00  0.00     0.039 A 
ATOM     32  C   UNL     1       0.246  -4.839   9.641  1.00  0.00     0.014 A 
ATOM     33  C   UNL     1       0.181  -2.603   8.708  1.00  0.00     0.014 A 
ATOM     34  C   UNL     1       1.631  -4.870   9.460  1.00  0.00     0.010 A 
ATOM     35  C   UNL     1       1.550  -2.661   8.467  1.00  0.00     0.010 A 
ATOM     36  C   UNL     1       2.289  -3.792   8.847  1.00  0.00    -0.014 A 
BRANCH  36  37
ATOM     37  C   UNL     1       3.752  -3.824   8.602  1.00  0.00     0.031 A 
ATOM     38  C   UNL     1       4.657  -2.853   9.305  1.00  0.00     0.074 A 
ATOM     39  C   UNL     1       4.255  -4.681   7.693  1.00  0.00     0.049 A 
ATOM     40  N   UNL     1       5.947  -2.677   9.169  1.00  0.00    -0.248 NA
ATOM     41  C   UNL     1       4.024  -1.940  10.268  1.00  0.00     0.031 C 
ATOM     42  C   UNL     1       3.471  -5.633   6.905  1.00  0.00     0.029 A 
ATOM     43  N   UNL     1       5.544  -4.875   7.267  1.00  0.00    -0.354 N 
ATOM     44  C   UNL     1       6.276  -1.628  10.017  1.00  0.00     0.074 A 
ATOM     45  C   UNL     1       5.043  -1.170  10.620  1.00  0.00     0.031 C 
ATOM     46  C   UNL     1       4.297  -6.318   6.098  1.00  0.00     0.029 A 
ATOM     47  C   UNL     1       5.660  -5.831   6.289  1.00  0.00     0.049 A 
ATOM     48  H   UNL     1       6.312  -4.375   7.627  1.00  0.00     0.167 HD
ATOM     49  C   UNL     1       7.497  -1.109  10.289  1.00  0.00     0.037 A 
ATOM     50  C   UNL     1       6.743  -6.262   5.615  1.00  0.00     0.037 A 
ATOM     51  C   UNL     1       8.724  -1.576   9.698  1.00  0.00     0.049 A 
ATOM     52  C   UNL     1       8.089  -5.678   5.935  1.00  0.00     0.074 A 
ATOM     53  C   UNL     1      10.018  -1.154   9.946  1.00  0.00     0.029 A 
ATOM     54  N   UNL     1       8.806  -2.572   8.735  1.00  0.00    -0.354 N 
ATOM     55  N   UNL     1       8.396  -4.733   6.790  1.00  0.00    -0.248 NA
ATOM     56  C   UNL     1       9.240  -6.227   5.205  1.00  0.00     0.031 C 
ATOM     57  C   UNL     1      10.880  -1.868   9.105  1.00  0.00     0.029 A 
ATOM     58  C   UNL     1      10.127  -2.765   8.365  1.00  0.00     0.049 A 
ATOM     59  H   UNL     1       8.039  -3.068   8.369  1.00  0.00     0.167 HD
ATOM     60  C   UNL     1       9.775  -4.586   6.716  1.00  0.00     0.074 A 
ATOM     61  C   UNL     1      10.246  -5.551   5.744  1.00  0.00     0.031 C 
ATOM     62  C   UNL     1      10.578  -3.728   7.393  1.00  0.00     0.037 A 
BRANCH  49  63
ATOM     63  C   UNL     1       7.556   0.025  11.271  1.00  0.00     0.057 A 
ATOM     64  C   UNL     1       7.294  -0.167  12.635  1.00  0.00     0.134 A 
ATOM     65  C   UNL     1       7.881   1.321  10.854  1.00  0.00     0.134 A 
ATOM     66  F   UNL     1       6.964  -1.382  13.100  1.00  0.00    -0.206 F 
ATOM     67  C   UNL     1       7.316   0.895  13.541  1.00  0.00     0.040 A 
ATOM     68  C   UNL     1       7.934   2.387  11.755  1.00  0.00     0.040 A 
ATOM     69  F   UNL     1       8.149   1.576   9.565  1.00  0.00    -0.206 F 
ATOM     70  C   UNL     1       7.641   2.176  13.101  1.00  0.00     0.006 A 
ENDBRANCH  49  63
BRANCH  50  71
ATOM     71  C   UNL     1       6.592  -7.320   4.586  1.00  0.00     0.057 A 
ATOM     72  C   UNL     1       7.043  -8.624   4.819  1.00  0.00     0.134 A 
ATOM     73  C   UNL     1       5.970  -7.060   3.359  1.00  0.00     0.134 A 
ATOM     74  F   UNL     1       7.660  -8.929   5.970  1.00  0.00    -0.206 F 
ATOM     75  C   UNL     1       6.891  -9.630   3.863  1.00  0.00     0.040 A 
ATOM     76  C   UNL     1       5.792  -8.061   2.404  1.00  0.00     0.040 A 
ATOM     77  F   UNL     1       5.506  -5.832   3.082  1.00  0.00    -0.206 F 
ATOM     78  C   UNL     1       6.258  -9.351   2.654  1.00  0.00     0.006 A 
ENDBRANCH  50  71
BRANCH  62  79
ATOM     79  C   UNL     1      12.051  -3.811   7.119  1.00  0.00     0.057 A 
ATOM     80  C   UNL     1      12.608  -3.336   5.925  1.00  0.00     0.134 A 
ATOM     81  C   UNL     1      12.926  -4.337   8.078  1.00  0.00     0.134 A 
ATOM     82  F   UNL     1      11.821  -2.833   4.961  1.00  0.00    -0.206 F 
ATOM     83  C   UNL     1      13.981  -3.399   5.686  1.00  0.00     0.040 A 
ATOM     84  C   UNL     1      14.304  -4.383   7.860  1.00  0.00     0.040 A 
ATOM     85  F   UNL     1      12.458  -4.802   9.246  1.00  0.00    -0.206 F 
ATOM     86  C   UNL     1      14.834  -3.918   6.659  1.00  0.00     0.006 A 
ENDBRANCH  62  79
ENDBRANCH  36  37
ENDBRANCH  28  31
ENDBRANCH  26  27
ENDBRANCH  25  26
ENDBRANCH   1  25
TORSDOF 14
