REMARK SMILES Nc1cc([N+](=O)[O-])ccc1[C@H]([NH3+])C(=O)NCCCCCCNC(=O)c1ccc(-c2c3nc(c(-c4c(F)cccc4F)c4ccc([nH]4)c(-c4c(F)cccc4F)c4nc(c(-c5c(F)cccc5F)c5ccc2[nH]5)C=C4)C=C3)cc1
REMARK SMILES IDX 18 1 17 2 16 3 15 4 13 5 14 6 11 8 10 9 2 10 3 11 4 12 9 13
REMARK SMILES IDX 8 14 1 15 5 18 6 19 7 20 12 21 19 25 20 26 21 27 22 28 23 29
REMARK SMILES IDX 24 31 25 32 26 33 78 34 27 35 77 36 28 37 29 38 30 39 71 40
REMARK SMILES IDX 31 41 76 42 70 43 72 44 32 45 75 46 69 47 68 48 33 50 59 51
REMARK SMILES IDX 42 52 58 53 43 54 46 55 57 56 73 57 44 58 45 59 56 61 74 62
REMARK SMILES IDX 47 63 34 64 35 65 40 66 36 67 37 68 39 69 41 70 38 71 60 72
REMARK SMILES IDX 61 73 66 74 62 75 63 76 65 77 67 78 64 79 48 80 49 81 54 82
REMARK SMILES IDX 50 83 51 84 53 85 55 86 52 87
REMARK H PARENT 15 7 1 16 1 17 12 22 12 23 12 24 22 30 72 49 46 60
REMARK Flexibility Score: inf
ROOT
ATOM      1  C   UNL     1      -3.395   3.414   2.529  1.00  0.00     0.002 C 
ENDROOT
BRANCH   1   2
ATOM      2  C   UNL     1      -2.776   2.568   1.410  1.00  0.00     0.021 C 
BRANCH   2   3
ATOM      3  C   UNL     1      -1.770   3.326   0.547  1.00  0.00     0.116 C 
BRANCH   3   4
ATOM      4  N   UNL     1      -0.600   3.697   1.316  1.00  0.00    -0.351 N 
ATOM      5  C   UNL     1       0.707   3.343   1.130  1.00  0.00     0.283 C 
ATOM      6  O   UNL     1       1.539   3.777   1.934  1.00  0.00    -0.268 OA
ATOM      7  H   UNL     1      -0.771   4.290   2.083  1.00  0.00     0.163 HD
BRANCH   5   8
ATOM      8  C   UNL     1       1.139   2.477  -0.089  1.00  0.00     0.304 C 
BRANCH   8   9
ATOM      9  C   UNL     1       0.877   3.182  -1.433  1.00  0.00     0.042 A 
ATOM     10  C   UNL     1       0.453   2.554  -2.625  1.00  0.00     0.048 A 
ATOM     11  C   UNL     1       0.151   3.342  -3.751  1.00  0.00     0.111 A 
ATOM     12  C   UNL     1       0.356   4.726  -3.740  1.00  0.00     0.271 A 
ATOM     13  C   UNL     1       1.111   4.582  -1.468  1.00  0.00     0.020 A 
ATOM     14  C   UNL     1       0.848   5.353  -2.600  1.00  0.00     0.086 A 
BRANCH  10  15
ATOM     15  N   UNL     1       0.185   1.190  -2.715  1.00  0.00    -0.398 N 
ATOM     16  H   UNL     1      -0.108   0.801  -3.570  1.00  0.00     0.156 HD
ATOM     17  H   UNL     1       0.290   0.615  -1.922  1.00  0.00     0.156 HD
ENDBRANCH  10  15
BRANCH  12  18
ATOM     18  N   UNL     1       0.061   5.518  -4.938  1.00  0.00     0.062 N 
ATOM     19  O   UNL     1      -0.298   4.911  -5.957  1.00  0.00    -0.258 OA
ATOM     20  O   UNL     1       0.187   6.749  -4.862  1.00  0.00    -0.258 OA
ENDBRANCH  12  18
ENDBRANCH   8   9
BRANCH   8  21
ATOM     21  N   UNL     1       0.571   1.125   0.092  1.00  0.00    -0.343 N 
ATOM     22  H   UNL     1      -0.446   1.187   0.140  1.00  0.00     0.345 HD
ATOM     23  H   UNL     1       0.928   0.720   0.958  1.00  0.00     0.345 HD
ATOM     24  H   UNL     1       0.839   0.535  -0.695  1.00  0.00     0.345 HD
ENDBRANCH   8  21
ENDBRANCH   5   8
ENDBRANCH   3   4
ENDBRANCH   2   3
ENDBRANCH   1   2
BRANCH   1  25
ATOM     25  C   UNL     1      -4.097   4.693   2.060  1.00  0.00     0.002 C 
BRANCH  25  26
ATOM     26  C   UNL     1      -5.179   4.481   1.000  1.00  0.00     0.021 C 
BRANCH  26  27
ATOM     27  C   UNL     1      -6.296   3.535   1.424  1.00  0.00     0.116 C 
BRANCH  27  28
ATOM     28  N   UNL     1      -7.050   4.050   2.557  1.00  0.00    -0.352 N 
ATOM     29  C   UNL     1      -8.405   4.228   2.681  1.00  0.00     0.251 C 
ATOM     30  H   UNL     1      -6.514   4.305   3.342  1.00  0.00     0.163 HD
ATOM     31  O   UNL     1      -8.869   4.851   3.630  1.00  0.00    -0.269 OA
BRANCH  29  32
ATOM     32  C   UNL     1      -9.303   3.680   1.645  1.00  0.00     0.039 A 
ATOM     33  C   UNL     1     -10.308   4.492   1.116  1.00  0.00     0.014 A 
ATOM     34  C   UNL     1      -9.133   2.371   1.185  1.00  0.00     0.014 A 
ATOM     35  C   UNL     1     -11.106   4.011   0.076  1.00  0.00     0.010 A 
ATOM     36  C   UNL     1      -9.875   1.923   0.100  1.00  0.00     0.010 A 
ATOM     37  C   UNL     1     -10.871   2.736  -0.463  1.00  0.00    -0.014 A 
BRANCH  37  38
ATOM     38  C   UNL     1     -11.654   2.221  -1.613  1.00  0.00     0.031 A 
ATOM     39  C   UNL     1     -12.504   0.993  -1.451  1.00  0.00     0.074 A 
ATOM     40  C   UNL     1     -11.521   2.795  -2.824  1.00  0.00     0.049 A 
ATOM     41  N   UNL     1     -13.160   0.314  -2.356  1.00  0.00    -0.248 NA
ATOM     42  C   UNL     1     -12.597   0.435  -0.093  1.00  0.00     0.031 C 
ATOM     43  C   UNL     1     -10.687   3.961  -3.120  1.00  0.00     0.029 A 
ATOM     44  N   UNL     1     -12.065   2.457  -4.038  1.00  0.00    -0.354 N 
ATOM     45  C   UNL     1     -13.720  -0.764  -1.684  1.00  0.00     0.074 A 
ATOM     46  C   UNL     1     -13.283  -0.677  -0.307  1.00  0.00     0.031 C 
ATOM     47  C   UNL     1     -10.776   4.242  -4.429  1.00  0.00     0.029 A 
ATOM     48  C   UNL     1     -11.637   3.254  -5.072  1.00  0.00     0.049 A 
ATOM     49  H   UNL     1     -12.701   1.715  -4.156  1.00  0.00     0.167 HD
ATOM     50  C   UNL     1     -14.536  -1.731  -2.167  1.00  0.00     0.037 A 
ATOM     51  C   UNL     1     -11.890   3.183  -6.393  1.00  0.00     0.037 A 
ATOM     52  C   UNL     1     -14.983  -1.797  -3.534  1.00  0.00     0.049 A 
ATOM     53  C   UNL     1     -12.800   2.106  -6.912  1.00  0.00     0.074 A 
ATOM     54  C   UNL     1     -15.876  -2.685  -4.106  1.00  0.00     0.029 A 
ATOM     55  N   UNL     1     -14.558  -0.948  -4.546  1.00  0.00    -0.354 N 
ATOM     56  N   UNL     1     -13.391   1.138  -6.253  1.00  0.00    -0.248 NA
ATOM     57  C   UNL     1     -13.085   2.111  -8.353  1.00  0.00     0.031 C 
ATOM     58  C   UNL     1     -15.944  -2.412  -5.476  1.00  0.00     0.029 A 
ATOM     59  C   UNL     1     -15.143  -1.313  -5.747  1.00  0.00     0.049 A 
ATOM     60  H   UNL     1     -13.933  -0.196  -4.428  1.00  0.00     0.167 HD
ATOM     61  C   UNL     1     -14.137   0.436  -7.191  1.00  0.00     0.074 A 
ATOM     62  C   UNL     1     -13.928   1.093  -8.465  1.00  0.00     0.031 C 
ATOM     63  C   UNL     1     -14.928  -0.650  -7.009  1.00  0.00     0.037 A 
BRANCH  50  64
ATOM     64  C   UNL     1     -14.978  -2.802  -1.211  1.00  0.00     0.057 A 
ATOM     65  C   UNL     1     -15.833  -2.535  -0.133  1.00  0.00     0.134 A 
ATOM     66  C   UNL     1     -14.541  -4.123  -1.373  1.00  0.00     0.134 A 
ATOM     67  F   UNL     1     -16.283  -1.290   0.086  1.00  0.00    -0.206 F 
ATOM     68  C   UNL     1     -16.199  -3.531   0.774  1.00  0.00     0.040 A 
ATOM     69  C   UNL     1     -14.928  -5.135  -0.492  1.00  0.00     0.040 A 
ATOM     70  F   UNL     1     -13.728  -4.454  -2.388  1.00  0.00    -0.206 F 
ATOM     71  C   UNL     1     -15.749  -4.837   0.593  1.00  0.00     0.006 A 
ENDBRANCH  50  64
BRANCH  51  72
ATOM     72  C   UNL     1     -11.272   4.176  -7.306  1.00  0.00     0.057 A 
ATOM     73  C   UNL     1     -12.034   5.186  -7.902  1.00  0.00     0.134 A 
ATOM     74  C   UNL     1      -9.897   4.163  -7.572  1.00  0.00     0.134 A 
ATOM     75  F   UNL     1     -13.359   5.241  -7.699  1.00  0.00    -0.206 F 
ATOM     76  C   UNL     1     -11.454   6.146  -8.734  1.00  0.00     0.040 A 
ATOM     77  C   UNL     1      -9.299   5.130  -8.381  1.00  0.00     0.040 A 
ATOM     78  F   UNL     1      -9.110   3.227  -7.021  1.00  0.00    -0.206 F 
ATOM     79  C   UNL     1     -10.080   6.124  -8.967  1.00  0.00     0.006 A 
ENDBRANCH  51  72
BRANCH  63  80
ATOM     80  C   UNL     1     -15.660  -1.186  -8.206  1.00  0.00     0.057 A 
ATOM     81  C   UNL     1     -15.004  -1.889  -9.223  1.00  0.00     0.134 A 
ATOM     82  C   UNL     1     -17.052  -1.061  -8.299  1.00  0.00     0.134 A 
ATOM     83  F   UNL     1     -13.670  -2.033  -9.200  1.00  0.00    -0.206 F 
ATOM     84  C   UNL     1     -15.706  -2.441 -10.296  1.00  0.00     0.040 A 
ATOM     85  C   UNL     1     -17.768  -1.632  -9.351  1.00  0.00     0.040 A 
ATOM     86  F   UNL     1     -17.743  -0.407  -7.352  1.00  0.00    -0.206 F 
ATOM     87  C   UNL     1     -17.094  -2.323 -10.356  1.00  0.00     0.006 A 
ENDBRANCH  63  80
ENDBRANCH  37  38
ENDBRANCH  29  32
ENDBRANCH  27  28
ENDBRANCH  26  27
ENDBRANCH  25  26
ENDBRANCH   1  25
TORSDOF 17
