REMARK SMILES COCc1cccc(C(=O)N2C[C@@H](O)C[C@@H]2C(=O)NCCCCCCNC(=O)c2ccc(-c3c4nc(c(-c5c(F)cccc5F)c5ccc([nH]5)c(-c5c(F)cccc5F)c5nc(c(-c6c(F)cccc6F)c6ccc3[nH]6)C=C5)C=C4)cc2)c1
REMARK SMILES IDX 21 1 20 2 19 3 17 4 18 5 16 7 11 8 12 9 13 10 15 11 9 12
REMARK SMILES IDX 10 13 8 14 4 15 5 16 83 17 6 18 7 19 3 20 2 21 1 22 14 23
REMARK SMILES IDX 22 25 23 26 24 27 25 28 26 29 27 30 28 32 29 33 30 34 82 35
REMARK SMILES IDX 31 36 81 37 32 38 33 39 34 40 75 41 35 42 80 43 74 44 76 45
REMARK SMILES IDX 36 46 79 47 73 48 72 49 37 51 63 52 46 53 62 54 47 55 50 56
REMARK SMILES IDX 61 57 77 58 48 59 49 60 60 62 78 63 51 64 38 65 39 66 44 67
REMARK SMILES IDX 40 68 41 69 43 70 45 71 42 72 64 73 65 74 70 75 66 76 67 77
REMARK SMILES IDX 69 78 71 79 68 80 52 81 53 82 58 83 54 84 55 85 57 86 59 87
REMARK SMILES IDX 56 88
REMARK H PARENT 19 6 14 24 26 31 76 50 50 61
REMARK Flexibility Score: inf
ROOT
ATOM      1  C   UNL     1      -5.042  -2.171   5.326  1.00  0.00     0.021 C 
ENDROOT
BRANCH   1   2
ATOM      2  C   UNL     1      -3.842  -2.308   4.401  1.00  0.00     0.116 C 
BRANCH   2   3
ATOM      3  N   UNL     1      -3.717  -1.201   3.481  1.00  0.00    -0.354 N 
ATOM      4  C   UNL     1      -2.598  -0.486   3.159  1.00  0.00     0.242 C 
ATOM      5  O   UNL     1      -2.671   0.294   2.210  1.00  0.00    -0.273 OA
ATOM      6  H   UNL     1      -4.546  -0.926   3.026  1.00  0.00     0.163 HD
BRANCH   4   7
ATOM      7  C   UNL     1      -1.305  -0.728   3.971  1.00  0.00     0.177 C 
ATOM      8  N   UNL     1      -0.255   0.223   3.617  1.00  0.00    -0.324 N 
ATOM      9  C   UNL     1       0.939  -0.456   3.145  1.00  0.00     0.152 C 
ATOM     10  C   UNL     1       0.392  -1.761   2.588  1.00  0.00     0.136 C 
ATOM     11  C   UNL     1      -0.708  -2.097   3.596  1.00  0.00     0.069 C 
BRANCH   8  12
ATOM     12  C   UNL     1      -0.461   1.583   3.749  1.00  0.00     0.254 C 
ATOM     13  O   UNL     1      -1.110   2.063   4.673  1.00  0.00    -0.269 OA
BRANCH  12  14
ATOM     14  C   UNL     1       0.016   2.452   2.631  1.00  0.00     0.040 A 
ATOM     15  C   UNL     1       0.578   2.698   0.261  1.00  0.00    -0.022 A 
ATOM     16  C   UNL     1       0.859   4.049   0.497  1.00  0.00     0.006 A 
ATOM     17  C   UNL     1       0.094   1.937   1.328  1.00  0.00     0.020 A 
ATOM     18  C   UNL     1       0.689   4.603   1.773  1.00  0.00     0.001 A 
ATOM     19  C   UNL     1       0.283   3.803   2.845  1.00  0.00     0.014 A 
BRANCH  15  20
ATOM     20  C   UNL     1       0.802   2.094  -1.109  1.00  0.00     0.195 C 
BRANCH  20  21
ATOM     21  O   UNL     1       0.413   0.721  -1.209  1.00  0.00    -0.380 OA
ATOM     22  C   UNL     1       1.458  -0.192  -0.895  1.00  0.00     0.195 C 
ENDBRANCH  20  21
ENDBRANCH  15  20
ENDBRANCH  12  14
ENDBRANCH   8  12
BRANCH  10  23
ATOM     23  O   UNL     1       1.359  -2.790   2.494  1.00  0.00    -0.391 OA
ATOM     24  H   UNL     1       1.738  -2.958   3.371  1.00  0.00     0.211 HD
ENDBRANCH  10  23
ENDBRANCH   4   7
ENDBRANCH   2   3
ENDBRANCH   1   2
BRANCH   1  25
ATOM     25  C   UNL     1      -6.398  -2.075   4.620  1.00  0.00     0.002 C 
BRANCH  25  26
ATOM     26  C   UNL     1      -6.701  -3.182   3.607  1.00  0.00     0.002 C 
BRANCH  26  27
ATOM     27  C   UNL     1      -6.562  -4.613   4.130  1.00  0.00     0.021 C 
BRANCH  27  28
ATOM     28  C   UNL     1      -7.356  -4.921   5.393  1.00  0.00     0.116 C 
BRANCH  28  29
ATOM     29  N   UNL     1      -8.787  -4.756   5.210  1.00  0.00    -0.352 N 
ATOM     30  C   UNL     1      -9.808  -5.620   5.520  1.00  0.00     0.251 C 
ATOM     31  H   UNL     1      -9.065  -3.902   4.805  1.00  0.00     0.163 HD
ATOM     32  O   UNL     1     -10.954  -5.380   5.156  1.00  0.00    -0.269 OA
BRANCH  30  33
ATOM     33  C   UNL     1      -9.518  -6.860   6.271  1.00  0.00     0.039 A 
ATOM     34  C   UNL     1     -10.074  -8.061   5.824  1.00  0.00     0.014 A 
ATOM     35  C   UNL     1      -8.699  -6.842   7.404  1.00  0.00     0.014 A 
ATOM     36  C   UNL     1      -9.756  -9.254   6.475  1.00  0.00     0.010 A 
ATOM     37  C   UNL     1      -8.326  -8.040   8.007  1.00  0.00     0.010 A 
ATOM     38  C   UNL     1      -8.850  -9.258   7.549  1.00  0.00    -0.014 A 
BRANCH  38  39
ATOM     39  C   UNL     1      -8.430 -10.527   8.195  1.00  0.00     0.031 A 
ATOM     40  C   UNL     1      -8.759 -10.788   9.638  1.00  0.00     0.074 A 
ATOM     41  C   UNL     1      -7.691 -11.414   7.500  1.00  0.00     0.049 A 
ATOM     42  N   UNL     1      -8.417 -11.802  10.393  1.00  0.00    -0.248 NA
ATOM     43  C   UNL     1      -9.552  -9.762  10.333  1.00  0.00     0.031 C 
ATOM     44  C   UNL     1      -7.263 -11.253   6.109  1.00  0.00     0.029 A 
ATOM     45  N   UNL     1      -7.155 -12.621   7.875  1.00  0.00    -0.354 N 
ATOM     46  C   UNL     1      -8.939 -11.528  11.651  1.00  0.00     0.074 A 
ATOM     47  C   UNL     1      -9.576 -10.232  11.572  1.00  0.00     0.031 C 
ATOM     48  C   UNL     1      -6.547 -12.327   5.743  1.00  0.00     0.029 A 
ATOM     49  C   UNL     1      -6.431 -13.233   6.881  1.00  0.00     0.049 A 
ATOM     50  H   UNL     1      -7.279 -13.011   8.770  1.00  0.00     0.167 HD
ATOM     51  C   UNL     1      -8.907 -12.297  12.766  1.00  0.00     0.037 A 
ATOM     52  C   UNL     1      -5.740 -14.389   6.889  1.00  0.00     0.037 A 
ATOM     53  C   UNL     1      -8.293 -13.598  12.834  1.00  0.00     0.049 A 
ATOM     54  C   UNL     1      -5.716 -15.223   8.140  1.00  0.00     0.074 A 
ATOM     55  C   UNL     1      -8.273 -14.486  13.896  1.00  0.00     0.029 A 
ATOM     56  N   UNL     1      -7.585 -14.193  11.801  1.00  0.00    -0.354 N 
ATOM     57  N   UNL     1      -6.281 -14.989   9.299  1.00  0.00    -0.248 NA
ATOM     58  C   UNL     1      -4.965 -16.485   8.081  1.00  0.00     0.031 C 
ATOM     59  C   UNL     1      -7.508 -15.596  13.522  1.00  0.00     0.029 A 
ATOM     60  C   UNL     1      -7.097 -15.424  12.210  1.00  0.00     0.049 A 
ATOM     61  H   UNL     1      -7.449 -13.799  10.909  1.00  0.00     0.167 HD
ATOM     62  C   UNL     1      -5.974 -16.082  10.100  1.00  0.00     0.074 A 
ATOM     63  C   UNL     1      -5.187 -16.986   9.288  1.00  0.00     0.031 C 
ATOM     64  C   UNL     1      -6.315 -16.314  11.391  1.00  0.00     0.037 A 
BRANCH  51  65
ATOM     65  C   UNL     1      -9.554 -11.749  14.005  1.00  0.00     0.057 A 
ATOM     66  C   UNL     1     -10.944 -11.609  14.116  1.00  0.00     0.134 A 
ATOM     67  C   UNL     1      -8.779 -11.389  15.115  1.00  0.00     0.134 A 
ATOM     68  F   UNL     1     -11.744 -11.925  13.087  1.00  0.00    -0.206 F 
ATOM     69  C   UNL     1     -11.537 -11.103  15.274  1.00  0.00     0.040 A 
ATOM     70  C   UNL     1      -9.362 -10.909  16.289  1.00  0.00     0.040 A 
ATOM     71  F   UNL     1      -7.443 -11.504  15.080  1.00  0.00    -0.206 F 
ATOM     72  C   UNL     1     -10.745 -10.758  16.368  1.00  0.00     0.006 A 
ENDBRANCH  51  65
BRANCH  52  73
ATOM     73  C   UNL     1      -5.023 -14.832   5.667  1.00  0.00     0.057 A 
ATOM     74  C   UNL     1      -5.465 -15.936   4.929  1.00  0.00     0.134 A 
ATOM     75  C   UNL     1      -3.881 -14.164   5.207  1.00  0.00     0.134 A 
ATOM     76  F   UNL     1      -6.542 -16.627   5.329  1.00  0.00    -0.206 F 
ATOM     77  C   UNL     1      -4.787 -16.372   3.789  1.00  0.00     0.040 A 
ATOM     78  C   UNL     1      -3.209 -14.573   4.055  1.00  0.00     0.040 A 
ATOM     79  F   UNL     1      -3.411 -13.094   5.865  1.00  0.00    -0.206 F 
ATOM     80  C   UNL     1      -3.658 -15.685   3.346  1.00  0.00     0.006 A 
ENDBRANCH  52  73
BRANCH  64  81
ATOM     81  C   UNL     1      -5.861 -17.609  11.999  1.00  0.00     0.057 A 
ATOM     82  C   UNL     1      -4.520 -17.841  12.330  1.00  0.00     0.134 A 
ATOM     83  C   UNL     1      -6.784 -18.620  12.296  1.00  0.00     0.134 A 
ATOM     84  F   UNL     1      -3.583 -16.919  12.060  1.00  0.00    -0.206 F 
ATOM     85  C   UNL     1      -4.110 -19.040  12.916  1.00  0.00     0.040 A 
ATOM     86  C   UNL     1      -6.391 -19.812  12.906  1.00  0.00     0.040 A 
ATOM     87  F   UNL     1      -8.086 -18.459  12.013  1.00  0.00    -0.206 F 
ATOM     88  C   UNL     1      -5.049 -20.026  13.213  1.00  0.00     0.006 A 
ENDBRANCH  64  81
ENDBRANCH  38  39
ENDBRANCH  30  33
ENDBRANCH  28  29
ENDBRANCH  27  28
ENDBRANCH  26  27
ENDBRANCH  25  26
ENDBRANCH   1  25
TORSDOF 18
