REMARK SMILES O=C(NCCCCCCNC(=O)[C@H]1[C@H]2CC[C@H](CC2)[C@@H]1C(=O)Nc1sc2c(c1C(=O)N1CCCCC1)CCCC2)c1ccc(-c2c3nc(c(-c4c(F)cccc4F)c4ccc([nH]4)c(-c4c(F)cccc4F)c4nc(c(-c5c(F)cccc5F)c5ccc2[nH]5)C=C4)C=C3)cc1
REMARK SMILES IDX 7 1 6 2 5 3 4 4 3 5 1 6 2 7 41 9 42 10 94 11 43 12 93 13
REMARK SMILES IDX 44 14 45 15 46 16 87 17 47 18 92 19 86 20 88 21 48 22 91 23
REMARK SMILES IDX 85 24 84 25 49 27 75 28 58 29 74 30 59 31 62 32 73 33 89 34
REMARK SMILES IDX 60 35 61 36 72 38 90 39 63 40 50 41 51 42 56 43 52 44 53 45
REMARK SMILES IDX 55 46 57 47 54 48 76 49 77 50 82 51 78 52 79 53 81 54 83 55
REMARK SMILES IDX 80 56 64 57 65 58 70 59 66 60 67 61 69 62 71 63 68 64 8 65
REMARK SMILES IDX 9 66 10 67 11 68 12 70 13 71 14 72 20 73 15 74 19 75 17 76
REMARK SMILES IDX 16 77 18 78 21 79 22 80 23 81 24 83 25 84 28 85 26 86 27 87
REMARK SMILES IDX 40 88 37 89 39 90 38 91 29 92 30 93 31 94 32 95 36 96 33 97
REMARK SMILES IDX 35 98 34 99
REMARK H PARENT 3 8 88 26 62 37 10 69 23 82
REMARK Flexibility Score: inf
ROOT
ATOM      1  C   UNL     1       4.214   4.184  -1.712  1.00  0.00     0.002 C 
ENDROOT
BRANCH   1   2
ATOM      2  C   UNL     1       3.811   3.005  -2.602  1.00  0.00     0.002 C 
BRANCH   2   3
ATOM      3  C   UNL     1       4.379   1.635  -2.229  1.00  0.00     0.021 C 
BRANCH   3   4
ATOM      4  C   UNL     1       4.181   1.203  -0.785  1.00  0.00     0.116 C 
BRANCH   4   5
ATOM      5  N   UNL     1       2.787   1.032  -0.426  1.00  0.00    -0.352 N 
ATOM      6  O   UNL     1       0.949  -0.076   0.271  1.00  0.00    -0.269 OA
ATOM      7  C   UNL     1       2.165  -0.055   0.144  1.00  0.00     0.251 C 
ATOM      8  H   UNL     1       2.203   1.801  -0.617  1.00  0.00     0.163 HD
BRANCH   7   9
ATOM      9  C   UNL     1       2.974  -1.215   0.584  1.00  0.00     0.039 A 
ATOM     10  C   UNL     1       4.151  -1.033   1.313  1.00  0.00     0.014 A 
ATOM     11  C   UNL     1       2.534  -2.505   0.272  1.00  0.00     0.014 A 
ATOM     12  C   UNL     1       4.951  -2.128   1.618  1.00  0.00     0.010 A 
ATOM     13  C   UNL     1       3.296  -3.613   0.657  1.00  0.00     0.010 A 
ATOM     14  C   UNL     1       4.520  -3.432   1.317  1.00  0.00    -0.014 A 
BRANCH  14  15
ATOM     15  C   UNL     1       5.326  -4.583   1.796  1.00  0.00     0.031 A 
ATOM     16  C   UNL     1       6.004  -5.522   0.840  1.00  0.00     0.074 A 
ATOM     17  C   UNL     1       5.466  -4.748   3.126  1.00  0.00     0.049 A 
ATOM     18  N   UNL     1       6.774  -6.548   1.107  1.00  0.00    -0.248 NA
ATOM     19  C   UNL     1       5.792  -5.290  -0.596  1.00  0.00     0.031 C 
ATOM     20  C   UNL     1       4.832  -3.911   4.148  1.00  0.00     0.029 A 
ATOM     21  N   UNL     1       6.198  -5.654   3.848  1.00  0.00    -0.354 N 
ATOM     22  C   UNL     1       7.128  -7.090  -0.122  1.00  0.00     0.074 A 
ATOM     23  C   UNL     1       6.470  -6.294  -1.137  1.00  0.00     0.031 C 
ATOM     24  C   UNL     1       5.243  -4.308   5.360  1.00  0.00     0.029 A 
ATOM     25  C   UNL     1       6.118  -5.463   5.206  1.00  0.00     0.049 A 
ATOM     26  H   UNL     1       6.730  -6.372   3.434  1.00  0.00     0.167 HD
ATOM     27  C   UNL     1       7.933  -8.150  -0.376  1.00  0.00     0.037 A 
ATOM     28  C   UNL     1       6.676  -6.150   6.219  1.00  0.00     0.037 A 
ATOM     29  C   UNL     1       8.589  -8.935   0.639  1.00  0.00     0.049 A 
ATOM     30  C   UNL     1       7.553  -7.324   5.904  1.00  0.00     0.074 A 
ATOM     31  C   UNL     1       9.442 -10.014   0.479  1.00  0.00     0.029 A 
ATOM     32  N   UNL     1       8.464  -8.727   2.005  1.00  0.00    -0.354 N 
ATOM     33  N   UNL     1       7.903  -7.802   4.735  1.00  0.00    -0.248 NA
ATOM     34  C   UNL     1       8.108  -8.057   7.048  1.00  0.00     0.031 C 
ATOM     35  C   UNL     1       9.805 -10.481   1.747  1.00  0.00     0.029 A 
ATOM     36  C   UNL     1       9.211  -9.667   2.698  1.00  0.00     0.049 A 
ATOM     37  H   UNL     1       7.923  -8.017   2.420  1.00  0.00     0.167 HD
ATOM     38  C   UNL     1       8.724  -8.888   5.001  1.00  0.00     0.074 A 
ATOM     39  C   UNL     1       8.846  -8.977   6.442  1.00  0.00     0.031 C 
ATOM     40  C   UNL     1       9.315  -9.742   4.132  1.00  0.00     0.037 A 
BRANCH  27  41
ATOM     41  C   UNL     1       8.151  -8.535  -1.811  1.00  0.00     0.057 A 
ATOM     42  C   UNL     1       8.972  -7.780  -2.659  1.00  0.00     0.134 A 
ATOM     43  C   UNL     1       7.593  -9.710  -2.330  1.00  0.00     0.134 A 
ATOM     44  F   UNL     1       9.530  -6.639  -2.225  1.00  0.00    -0.206 F 
ATOM     45  C   UNL     1       9.221  -8.175  -3.975  1.00  0.00     0.040 A 
ATOM     46  C   UNL     1       7.852 -10.126  -3.638  1.00  0.00     0.040 A 
ATOM     47  F   UNL     1       6.804 -10.483  -1.569  1.00  0.00    -0.206 F 
ATOM     48  C   UNL     1       8.667  -9.356  -4.465  1.00  0.00     0.006 A 
ENDBRANCH  27  41
BRANCH  28  49
ATOM     49  C   UNL     1       6.409  -5.748   7.622  1.00  0.00     0.057 A 
ATOM     50  C   UNL     1       7.416  -5.202   8.425  1.00  0.00     0.134 A 
ATOM     51  C   UNL     1       5.139  -5.901   8.192  1.00  0.00     0.134 A 
ATOM     52  F   UNL     1       8.656  -5.045   7.939  1.00  0.00    -0.206 F 
ATOM     53  C   UNL     1       7.176  -4.838   9.750  1.00  0.00     0.040 A 
ATOM     54  C   UNL     1       4.877  -5.516   9.507  1.00  0.00     0.040 A 
ATOM     55  F   UNL     1       4.130  -6.410   7.471  1.00  0.00    -0.206 F 
ATOM     56  C   UNL     1       5.901  -4.990  10.293  1.00  0.00     0.006 A 
ENDBRANCH  28  49
BRANCH  40  57
ATOM     57  C   UNL     1      10.155 -10.832   4.727  1.00  0.00     0.057 A 
ATOM     58  C   UNL     1       9.579 -11.925   5.387  1.00  0.00     0.134 A 
ATOM     59  C   UNL     1      11.551 -10.789   4.638  1.00  0.00     0.134 A 
ATOM     60  F   UNL     1       8.247 -12.014   5.520  1.00  0.00    -0.206 F 
ATOM     61  C   UNL     1      10.365 -12.923   5.965  1.00  0.00     0.040 A 
ATOM     62  C   UNL     1      12.347 -11.793   5.191  1.00  0.00     0.040 A 
ATOM     63  F   UNL     1      12.163  -9.771   4.014  1.00  0.00    -0.206 F 
ATOM     64  C   UNL     1      11.753 -12.860   5.864  1.00  0.00     0.006 A 
ENDBRANCH  40  57
ENDBRANCH  14  15
ENDBRANCH   7   9
ENDBRANCH   4   5
ENDBRANCH   3   4
ENDBRANCH   2   3
ENDBRANCH   1   2
BRANCH   1  65
ATOM     65  C   UNL     1       5.698   4.313  -1.372  1.00  0.00     0.021 C 
BRANCH  65  66
ATOM     66  C   UNL     1       6.666   4.262  -2.546  1.00  0.00     0.116 C 
BRANCH  66  67
ATOM     67  N   UNL     1       6.645   5.445  -3.371  1.00  0.00    -0.356 N 
ATOM     68  C   UNL     1       7.618   6.173  -3.971  1.00  0.00     0.224 C 
ATOM     69  H   UNL     1       5.739   5.796  -3.530  1.00  0.00     0.163 HD
ATOM     70  O   UNL     1       7.206   7.055  -4.737  1.00  0.00    -0.275 OA
BRANCH  68  71
ATOM     71  C   UNL     1       9.126   6.093  -3.683  1.00  0.00     0.094 C 
ATOM     72  C   UNL     1       9.504   7.148  -2.603  1.00  0.00     0.002 C 
ATOM     73  C   UNL     1       9.809   4.726  -3.371  1.00  0.00     0.094 C 
ATOM     74  C   UNL     1       9.057   6.677  -1.212  1.00  0.00     0.005 C 
ATOM     75  C   UNL     1      11.039   7.301  -2.592  1.00  0.00     0.005 C 
ATOM     76  C   UNL     1      10.623   4.890  -2.041  1.00  0.00     0.002 C 
ATOM     77  C   UNL     1       9.717   5.339  -0.880  1.00  0.00     0.005 C 
ATOM     78  C   UNL     1      11.701   5.971  -2.227  1.00  0.00     0.005 C 
BRANCH  73  79
ATOM     79  C   UNL     1      10.688   4.218  -4.541  1.00  0.00     0.229 C 
ATOM     80  O   UNL     1      10.770   4.847  -5.601  1.00  0.00    -0.274 OA
ATOM     81  N   UNL     1      11.440   3.075  -4.442  1.00  0.00    -0.317 N 
ATOM     82  H   UNL     1      11.997   2.866  -5.226  1.00  0.00     0.170 HD
BRANCH  81  83
ATOM     83  C   UNL     1      11.525   2.178  -3.397  1.00  0.00     0.108 A 
ATOM     84  S   UNL     1      10.100   1.520  -2.751  1.00  0.00    -0.122 S 
ATOM     85  C   UNL     1      12.686   1.676  -2.813  1.00  0.00     0.078 A 
ATOM     86  C   UNL     1      10.949   0.911  -1.419  1.00  0.00     0.011 A 
ATOM     87  C   UNL     1      12.323   0.958  -1.595  1.00  0.00    -0.019 A 
ATOM     88  C   UNL     1      10.235   0.393  -0.208  1.00  0.00     0.047 C 
ATOM     89  C   UNL     1      13.237   0.413  -0.534  1.00  0.00     0.037 C 
ATOM     90  C   UNL     1      11.196   0.347   0.985  1.00  0.00     0.006 C 
ATOM     91  C   UNL     1      12.506  -0.334   0.592  1.00  0.00     0.005 C 
BRANCH  85  92
ATOM     92  C   UNL     1      14.008   2.081  -3.340  1.00  0.00     0.257 C 
ATOM     93  O   UNL     1      14.114   2.727  -4.385  1.00  0.00    -0.269 OA
ATOM     94  N   UNL     1      15.126   1.831  -2.552  1.00  0.00    -0.339 N 
ATOM     95  C   UNL     1      16.053   2.943  -2.384  1.00  0.00     0.120 C 
ATOM     96  C   UNL     1      15.780   0.534  -2.668  1.00  0.00     0.120 C 
ATOM     97  C   UNL     1      16.890   2.749  -1.127  1.00  0.00     0.022 C 
ATOM     98  C   UNL     1      16.662   0.251  -1.451  1.00  0.00     0.022 C 
ATOM     99  C   UNL     1      17.619   1.406  -1.154  1.00  0.00     0.004 C 
ENDBRANCH  85  92
ENDBRANCH  81  83
ENDBRANCH  73  79
ENDBRANCH  68  71
ENDBRANCH  66  67
ENDBRANCH  65  66
ENDBRANCH   1  65
TORSDOF 16
