REMARK SMILES C[C@H]1c2ccc(O)cc2OC(=O)[C@@H]1CC(=O)N[C@@H](CC1=c2ccccc2=NC1)C(=O)NCCCCCCNC(=O)c1ccc(-c2c3nc(c(-c4c(F)cccc4F)c4ccc([nH]4)c(-c4c(F)cccc4F)c4nc(c(-c5c(F)cccc5F)c5ccc2[nH]5)C=C4)C=C3)cc1
REMARK SMILES IDX 33 1 32 2 31 3 29 4 30 5 18 7 17 8 15 9 16 10 14 12 13 13
REMARK SMILES IDX 1 14 2 15 3 16 4 17 9 18 11 19 5 20 8 21 10 22 12 23 6 24
REMARK SMILES IDX 7 25 19 27 20 28 21 29 28 30 22 31 26 32 27 33 23 34 25 35
REMARK SMILES IDX 24 36 34 37 35 38 36 39 37 40 38 41 39 42 40 44 41 45 42 46
REMARK SMILES IDX 94 47 43 48 93 49 44 50 45 51 46 52 87 53 47 54 92 55 86 56
REMARK SMILES IDX 88 57 48 58 91 59 85 60 84 61 49 63 75 64 58 65 74 66 59 67
REMARK SMILES IDX 62 68 73 69 89 70 60 71 61 72 72 74 90 75 63 76 50 77 51 78
REMARK SMILES IDX 56 79 52 80 53 81 55 82 57 83 54 84 76 85 77 86 82 87 78 88
REMARK SMILES IDX 79 89 81 90 83 91 80 92 64 93 65 94 70 95 66 96 67 97 69 98
REMARK SMILES IDX 71 99 68 100
REMARK H PARENT 31 6 17 11 7 26 38 43 88 62 62 73
REMARK Flexibility Score: inf
ROOT
ATOM      1  C   UNL     1      -4.851  -6.782   3.201  1.00  0.00     0.021 C 
ENDROOT
BRANCH   1   2
ATOM      2  C   UNL     1      -3.712  -5.778   3.231  1.00  0.00     0.116 C 
BRANCH   2   3
ATOM      3  N   UNL     1      -2.431  -6.012   2.635  1.00  0.00    -0.354 N 
ATOM      4  C   UNL     1      -1.421  -5.073   2.729  1.00  0.00     0.242 C 
ATOM      5  O   UNL     1      -0.292  -5.497   3.007  1.00  0.00    -0.273 OA
ATOM      6  H   UNL     1      -2.268  -6.854   2.152  1.00  0.00     0.163 HD
BRANCH   4   7
ATOM      7  C   UNL     1      -1.641  -3.518   2.541  1.00  0.00     0.175 C 
BRANCH   7   8
ATOM      8  N   UNL     1      -2.666  -3.044   1.604  1.00  0.00    -0.344 N 
ATOM      9  C   UNL     1      -2.519  -2.417   0.400  1.00  0.00     0.221 C 
ATOM     10  O   UNL     1      -3.520  -1.921  -0.119  1.00  0.00    -0.275 OA
ATOM     11  H   UNL     1      -3.597  -3.202   1.885  1.00  0.00     0.164 HD
BRANCH   9  12
ATOM     12  C   UNL     1      -1.176  -2.390  -0.323  1.00  0.00     0.116 C 
BRANCH  12  13
ATOM     13  C   UNL     1      -0.230  -1.214   0.022  1.00  0.00     0.116 C 
ATOM     14  C   UNL     1       1.613   0.352  -0.830  1.00  0.00     0.014 C 
ATOM     15  C   UNL     1       0.838  -0.955  -1.070  1.00  0.00     0.034 C 
ATOM     16  C   UNL     1       1.766  -2.150  -1.127  1.00  0.00    -0.001 A 
ATOM     17  C   UNL     1       2.438  -2.505  -2.300  1.00  0.00     0.011 A 
ATOM     18  C   UNL     1       1.909  -2.968  -0.003  1.00  0.00     0.138 A 
ATOM     19  C   UNL     1       0.582  -1.458   1.273  1.00  0.00     0.315 C 
ATOM     20  C   UNL     1       3.172  -3.696  -2.354  1.00  0.00     0.047 A 
ATOM     21  C   UNL     1       2.592  -4.178  -0.056  1.00  0.00     0.093 A 
ATOM     22  O   UNL     1       1.393  -2.579   1.241  1.00  0.00    -0.426 OA
ATOM     23  O   UNL     1       0.530  -0.730   2.258  1.00  0.00    -0.251 OA
ATOM     24  C   UNL     1       3.214  -4.536  -1.242  1.00  0.00     0.119 A 
BRANCH  24  25
ATOM     25  O   UNL     1       3.874  -5.728  -1.278  1.00  0.00    -0.508 OA
ATOM     26  H   UNL     1       4.306  -6.002  -2.063  1.00  0.00     0.293 HD
ENDBRANCH  24  25
ENDBRANCH  12  13
ENDBRANCH   9  12
ENDBRANCH   7   8
BRANCH   7  27
ATOM     27  C   UNL     1      -1.433  -2.502   3.739  1.00  0.00     0.068 C 
BRANCH  27  28
ATOM     28  C   UNL     1      -2.445  -2.285   4.874  1.00  0.00    -0.037 C 
ATOM     29  C   UNL     1      -3.522  -1.473   4.746  1.00  0.00     0.001 A 
ATOM     30  C   UNL     1      -2.875  -3.552   5.516  1.00  0.00     0.174 C 
ATOM     31  C   UNL     1      -4.302  -0.831   5.831  1.00  0.00     0.010 A 
ATOM     32  C   UNL     1      -4.423  -2.589   4.339  1.00  0.00     0.065 A 
ATOM     33  N   UNL     1      -4.172  -3.751   4.846  1.00  0.00    -0.280 NA
ATOM     34  C   UNL     1      -5.652  -0.777   5.705  1.00  0.00     0.001 A 
ATOM     35  C   UNL     1      -5.679  -2.172   3.712  1.00  0.00     0.028 A 
ATOM     36  C   UNL     1      -6.296  -1.258   4.479  1.00  0.00     0.002 A 
ENDBRANCH  27  28
ENDBRANCH   7  27
ENDBRANCH   4   7
ENDBRANCH   2   3
ENDBRANCH   1   2
BRANCH   1  37
ATOM     37  C   UNL     1      -4.885  -7.834   4.323  1.00  0.00     0.002 C 
BRANCH  37  38
ATOM     38  C   UNL     1      -4.572  -7.431   5.777  1.00  0.00     0.002 C 
BRANCH  38  39
ATOM     39  C   UNL     1      -5.389  -6.331   6.456  1.00  0.00     0.021 C 
BRANCH  39  40
ATOM     40  C   UNL     1      -6.900  -6.389   6.337  1.00  0.00     0.116 C 
BRANCH  40  41
ATOM     41  N   UNL     1      -7.458  -7.632   6.838  1.00  0.00    -0.352 N 
ATOM     42  C   UNL     1      -8.437  -7.856   7.772  1.00  0.00     0.251 C 
ATOM     43  H   UNL     1      -7.070  -8.447   6.444  1.00  0.00     0.163 HD
ATOM     44  O   UNL     1      -8.665  -9.007   8.149  1.00  0.00    -0.269 OA
BRANCH  42  45
ATOM     45  C   UNL     1      -9.202  -6.732   8.358  1.00  0.00     0.039 A 
ATOM     46  C   UNL     1      -9.629  -5.660   7.574  1.00  0.00     0.014 A 
ATOM     47  C   UNL     1      -9.518  -6.762   9.721  1.00  0.00     0.014 A 
ATOM     48  C   UNL     1     -10.211  -4.550   8.178  1.00  0.00     0.010 A 
ATOM     49  C   UNL     1     -10.195  -5.688  10.309  1.00  0.00     0.010 A 
ATOM     50  C   UNL     1     -10.508  -4.550   9.552  1.00  0.00    -0.014 A 
BRANCH  50  51
ATOM     51  C   UNL     1     -11.162  -3.354  10.147  1.00  0.00     0.031 A 
ATOM     52  C   UNL     1     -10.470  -2.525  11.196  1.00  0.00     0.074 A 
ATOM     53  C   UNL     1     -12.367  -2.973   9.679  1.00  0.00     0.049 A 
ATOM     54  N   UNL     1     -10.857  -1.401  11.747  1.00  0.00    -0.248 NA
ATOM     55  C   UNL     1      -9.181  -3.023  11.699  1.00  0.00     0.031 C 
ATOM     56  C   UNL     1     -13.148  -3.698   8.673  1.00  0.00     0.029 A 
ATOM     57  N   UNL     1     -13.130  -1.867   9.955  1.00  0.00    -0.354 N 
ATOM     58  C   UNL     1      -9.867  -1.061  12.661  1.00  0.00     0.074 A 
ATOM     59  C   UNL     1      -8.883  -2.122  12.624  1.00  0.00     0.031 C 
ATOM     60  C   UNL     1     -14.242  -2.986   8.367  1.00  0.00     0.029 A 
ATOM     61  C   UNL     1     -14.275  -1.789   9.199  1.00  0.00     0.049 A 
ATOM     62  H   UNL     1     -12.882  -1.195  10.630  1.00  0.00     0.167 HD
ATOM     63  C   UNL     1      -9.777   0.040  13.448  1.00  0.00     0.037 A 
ATOM     64  C   UNL     1     -15.249  -0.862   9.181  1.00  0.00     0.037 A 
ATOM     65  C   UNL     1     -10.760   1.094  13.487  1.00  0.00     0.049 A 
ATOM     66  C   UNL     1     -15.146   0.321  10.100  1.00  0.00     0.074 A 
ATOM     67  C   UNL     1     -10.749   2.260  14.233  1.00  0.00     0.029 A 
ATOM     68  N   UNL     1     -11.940   1.103  12.756  1.00  0.00    -0.354 N 
ATOM     69  N   UNL     1     -14.183   0.648  10.927  1.00  0.00    -0.248 NA
ATOM     70  C   UNL     1     -16.273   1.262  10.084  1.00  0.00     0.031 C 
ATOM     71  C   UNL     1     -11.945   2.947  13.995  1.00  0.00     0.029 A 
ATOM     72  C   UNL     1     -12.677   2.240  13.056  1.00  0.00     0.049 A 
ATOM     73  H   UNL     1     -12.214   0.405  12.118  1.00  0.00     0.167 HD
ATOM     74  C   UNL     1     -14.580   1.839  11.519  1.00  0.00     0.074 A 
ATOM     75  C   UNL     1     -15.854   2.194  10.927  1.00  0.00     0.031 C 
ATOM     76  C   UNL     1     -13.952   2.571  12.472  1.00  0.00     0.037 A 
BRANCH  63  77
ATOM     77  C   UNL     1      -8.577   0.148  14.348  1.00  0.00     0.057 A 
ATOM     78  C   UNL     1      -8.715   0.054  15.739  1.00  0.00     0.134 A 
ATOM     79  C   UNL     1      -7.287   0.367  13.845  1.00  0.00     0.134 A 
ATOM     80  F   UNL     1      -9.921  -0.145  16.293  1.00  0.00    -0.206 F 
ATOM     81  C   UNL     1      -7.617   0.168  16.594  1.00  0.00     0.040 A 
ATOM     82  C   UNL     1      -6.176   0.453  14.688  1.00  0.00     0.040 A 
ATOM     83  F   UNL     1      -7.080   0.458  12.522  1.00  0.00    -0.206 F 
ATOM     84  C   UNL     1      -6.341   0.358  16.068  1.00  0.00     0.006 A 
ENDBRANCH  63  77
BRANCH  64  85
ATOM     85  C   UNL     1     -16.412  -1.015   8.270  1.00  0.00     0.057 A 
ATOM     86  C   UNL     1     -17.346  -2.043   8.449  1.00  0.00     0.134 A 
ATOM     87  C   UNL     1     -16.631  -0.121   7.215  1.00  0.00     0.134 A 
ATOM     88  F   UNL     1     -17.191  -2.936   9.437  1.00  0.00    -0.206 F 
ATOM     89  C   UNL     1     -18.452  -2.180   7.610  1.00  0.00     0.040 A 
ATOM     90  C   UNL     1     -17.750  -0.227   6.389  1.00  0.00     0.040 A 
ATOM     91  F   UNL     1     -15.781   0.895   7.004  1.00  0.00    -0.206 F 
ATOM     92  C   UNL     1     -18.663  -1.262   6.583  1.00  0.00     0.006 A 
ENDBRANCH  64  85
BRANCH  76  93
ATOM     93  C   UNL     1     -14.637   3.835  12.909  1.00  0.00     0.057 A 
ATOM     94  C   UNL     1     -14.109   5.088  12.573  1.00  0.00     0.134 A 
ATOM     95  C   UNL     1     -15.832   3.815  13.642  1.00  0.00     0.134 A 
ATOM     96  F   UNL     1     -12.964   5.182  11.880  1.00  0.00    -0.206 F 
ATOM     97  C   UNL     1     -14.750   6.273  12.937  1.00  0.00     0.040 A 
ATOM     98  C   UNL     1     -16.500   4.992  13.983  1.00  0.00     0.040 A 
ATOM     99  F   UNL     1     -16.401   2.648  13.983  1.00  0.00    -0.206 F 
ATOM    100  C   UNL     1     -15.957   6.226  13.632  1.00  0.00     0.006 A 
ENDBRANCH  76  93
ENDBRANCH  50  51
ENDBRANCH  42  45
ENDBRANCH  40  41
ENDBRANCH  39  40
ENDBRANCH  38  39
ENDBRANCH  37  38
ENDBRANCH   1  37
TORSDOF 19
