REMARK SMILES O=C(N/N=C\c1ccccc1C(=O)NCCCCCCNC(=O)c1ccc(-c2c3nc(c(-c4c(F)cccc4F)c4ccc([nH]4)c(-c4c(F)cccc4F)c4nc(c(-c5c(F)cccc5F)c5ccc2[nH]5)C=C4)C=C3)cc1)C(=O)N1CCCCC1
REMARK SMILES IDX 17 1 16 2 15 3 14 4 12 5 13 6 11 8 6 9 7 10 8 11 10 12 9 13
REMARK SMILES IDX 5 14 4 15 3 16 1 17 2 18 78 20 79 21 80 22 81 23 85 24 82 25
REMARK SMILES IDX 84 26 83 27 18 28 19 29 20 30 21 31 22 32 23 34 24 35 25 36
REMARK SMILES IDX 77 37 26 38 76 39 27 40 28 41 29 42 70 43 30 44 75 45 69 46
REMARK SMILES IDX 71 47 31 48 74 49 68 50 67 51 32 53 58 54 41 55 57 56 42 57
REMARK SMILES IDX 45 58 56 59 72 60 43 61 44 62 55 64 73 65 46 66 33 67 34 68
REMARK SMILES IDX 39 69 35 70 36 71 38 72 40 73 37 74 59 75 60 76 65 77 61 78
REMARK SMILES IDX 62 79 64 80 66 81 63 82 47 83 48 84 53 85 49 86 50 87 52 88
REMARK SMILES IDX 54 89 51 90
REMARK H PARENT 14 7 3 19 21 33 71 52 45 63
REMARK Flexibility Score: inf
ROOT
ATOM      1  C   UNL     1       5.938   4.662  -0.396  1.00  0.00     0.002 C 
ENDROOT
BRANCH   1   2
ATOM      2  C   UNL     1       6.205   3.245  -0.898  1.00  0.00     0.021 C 
BRANCH   2   3
ATOM      3  C   UNL     1       5.139   2.253  -0.487  1.00  0.00     0.116 C 
BRANCH   3   4
ATOM      4  N   UNL     1       3.954   2.334  -1.288  1.00  0.00    -0.352 N 
ATOM      5  C   UNL     1       3.194   1.290  -1.718  1.00  0.00     0.251 C 
ATOM      6  O   UNL     1       2.299   1.465  -2.535  1.00  0.00    -0.269 OA
ATOM      7  H   UNL     1       3.659   3.236  -1.554  1.00  0.00     0.163 HD
BRANCH   5   8
ATOM      8  C   UNL     1       3.476  -0.077  -1.251  1.00  0.00     0.048 A 
ATOM      9  C   UNL     1       3.771  -0.555   0.487  1.00  0.00     0.007 A 
ATOM     10  C   UNL     1       3.772  -2.328   0.986  1.00  0.00     0.010 A 
ATOM     11  C   UNL     1       3.667  -3.604  -0.290  1.00  0.00     0.001 A 
ATOM     12  C   UNL     1       3.184  -1.373  -2.473  1.00  0.00     0.014 A 
ATOM     13  C   UNL     1       3.366  -3.137  -2.022  1.00  0.00     0.001 A 
BRANCH   9  14
ATOM     14  C   UNL     1       3.684   0.359   1.584  1.00  0.00     0.142 C 
ATOM     15  N   UNL     1       2.516   0.709   1.960  1.00  0.00    -0.180 NA
BRANCH  15  16
ATOM     16  N   UNL     1       1.501   0.193   1.216  1.00  0.00    -0.239 N 
ATOM     17  O   UNL     1       0.297  -0.647  -0.409  1.00  0.00    -0.262 OA
ATOM     18  C   UNL     1       1.426  -0.678   0.111  1.00  0.00     0.329 C 
ATOM     19  H   UNL     1       0.615   0.497   1.520  1.00  0.00     0.194 HD
BRANCH  18  20
ATOM     20  C   UNL     1       2.569  -1.820  -0.563  1.00  0.00     0.313 C 
ATOM     21  O   UNL     1       1.671  -2.687  -0.875  1.00  0.00    -0.263 OA
ATOM     22  N   UNL     1       4.542  -1.808  -0.888  1.00  0.00    -0.334 N 
ATOM     23  C   UNL     1       5.491  -2.040  -2.286  1.00  0.00     0.120 C 
ATOM     24  C   UNL     1       5.887  -1.534   0.156  1.00  0.00     0.120 C 
ATOM     25  C   UNL     1       6.526  -3.174  -2.170  1.00  0.00     0.022 C 
ATOM     26  C   UNL     1       6.826  -2.741   0.243  1.00  0.00     0.022 C 
ATOM     27  C   UNL     1       7.541  -2.950  -1.069  1.00  0.00     0.004 C 
ENDBRANCH  18  20
ENDBRANCH  15  16
ENDBRANCH   9  14
ENDBRANCH   5   8
ENDBRANCH   3   4
ENDBRANCH   2   3
ENDBRANCH   1   2
BRANCH   1  28
ATOM     28  C   UNL     1       5.639   4.775   1.106  1.00  0.00     0.002 C 
BRANCH  28  29
ATOM     29  C   UNL     1       6.647   4.082   2.030  1.00  0.00     0.021 C 
BRANCH  29  30
ATOM     30  C   UNL     1       8.098   4.477   1.786  1.00  0.00     0.116 C 
BRANCH  30  31
ATOM     31  N   UNL     1       8.258   5.919   1.733  1.00  0.00    -0.352 N 
ATOM     32  C   UNL     1       9.090   6.732   2.449  1.00  0.00     0.251 C 
ATOM     33  H   UNL     1       7.680   6.380   1.084  1.00  0.00     0.163 HD
ATOM     34  O   UNL     1       8.912   7.945   2.454  1.00  0.00    -0.269 OA
BRANCH  32  35
ATOM     35  C   UNL     1      10.199   6.140   3.216  1.00  0.00     0.039 A 
ATOM     36  C   UNL     1      10.473   6.643   4.487  1.00  0.00     0.014 A 
ATOM     37  C   UNL     1      10.974   5.110   2.674  1.00  0.00     0.014 A 
ATOM     38  C   UNL     1      11.507   6.085   5.233  1.00  0.00     0.010 A 
ATOM     39  C   UNL     1      11.946   4.495   3.453  1.00  0.00     0.010 A 
ATOM     40  C   UNL     1      12.231   4.988   4.734  1.00  0.00    -0.014 A 
BRANCH  40  41
ATOM     41  C   UNL     1      13.288   4.351   5.552  1.00  0.00     0.031 A 
ATOM     42  C   UNL     1      14.717   4.363   5.088  1.00  0.00     0.074 A 
ATOM     43  C   UNL     1      12.944   3.735   6.699  1.00  0.00     0.049 A 
ATOM     44  N   UNL     1      15.774   3.855   5.668  1.00  0.00    -0.248 NA
ATOM     45  C   UNL     1      14.995   5.008   3.794  1.00  0.00     0.031 C 
ATOM     46  C   UNL     1      11.580   3.617   7.219  1.00  0.00     0.029 A 
ATOM     47  N   UNL     1      13.713   3.096   7.636  1.00  0.00    -0.354 N 
ATOM     48  C   UNL     1      16.836   4.115   4.811  1.00  0.00     0.074 A 
ATOM     49  C   UNL     1      16.289   4.767   3.643  1.00  0.00     0.031 C 
ATOM     50  C   UNL     1      11.613   2.982   8.400  1.00  0.00     0.029 A 
ATOM     51  C   UNL     1      12.991   2.606   8.697  1.00  0.00     0.049 A 
ATOM     52  H   UNL     1      14.689   2.998   7.557  1.00  0.00     0.167 HD
ATOM     53  C   UNL     1      18.152   3.855   4.996  1.00  0.00     0.037 A 
ATOM     54  C   UNL     1      13.396   1.925   9.784  1.00  0.00     0.037 A 
ATOM     55  C   UNL     1      18.687   3.216   6.169  1.00  0.00     0.049 A 
ATOM     56  C   UNL     1      14.861   1.633   9.953  1.00  0.00     0.074 A 
ATOM     57  C   UNL     1      20.010   2.954   6.479  1.00  0.00     0.029 A 
ATOM     58  N   UNL     1      17.926   2.729   7.222  1.00  0.00    -0.354 N 
ATOM     59  N   UNL     1      15.865   1.952   9.171  1.00  0.00    -0.248 NA
ATOM     60  C   UNL     1      15.251   0.893  11.159  1.00  0.00     0.031 C 
ATOM     61  C   UNL     1      20.044   2.251   7.687  1.00  0.00     0.029 A 
ATOM     62  C   UNL     1      18.749   2.138   8.167  1.00  0.00     0.049 A 
ATOM     63  H   UNL     1      16.946   2.794   7.288  1.00  0.00     0.167 HD
ATOM     64  C   UNL     1      17.006   1.479   9.805  1.00  0.00     0.074 A 
ATOM     65  C   UNL     1      16.571   0.873  11.046  1.00  0.00     0.031 C 
ATOM     66  C   UNL     1      18.298   1.538   9.397  1.00  0.00     0.037 A 
BRANCH  53  67
ATOM     67  C   UNL     1      19.103   4.258   3.905  1.00  0.00     0.057 A 
ATOM     68  C   UNL     1      19.372   5.602   3.612  1.00  0.00     0.134 A 
ATOM     69  C   UNL     1      19.797   3.288   3.169  1.00  0.00     0.134 A 
ATOM     70  F   UNL     1      18.734   6.582   4.269  1.00  0.00    -0.206 F 
ATOM     71  C   UNL     1      20.277   5.966   2.613  1.00  0.00     0.040 A 
ATOM     72  C   UNL     1      20.728   3.640   2.190  1.00  0.00     0.040 A 
ATOM     73  F   UNL     1      19.592   1.982   3.399  1.00  0.00    -0.206 F 
ATOM     74  C   UNL     1      20.965   4.983   1.906  1.00  0.00     0.006 A 
ENDBRANCH  53  67
BRANCH  54  75
ATOM     75  C   UNL     1      12.407   1.481  10.800  1.00  0.00     0.057 A 
ATOM     76  C   UNL     1      12.410   2.008  12.097  1.00  0.00     0.134 A 
ATOM     77  C   UNL     1      11.449   0.503  10.506  1.00  0.00     0.134 A 
ATOM     78  F   UNL     1      13.311   2.938  12.445  1.00  0.00    -0.206 F 
ATOM     79  C   UNL     1      11.520   1.556  13.073  1.00  0.00     0.040 A 
ATOM     80  C   UNL     1      10.531   0.065  11.462  1.00  0.00     0.040 A 
ATOM     81  F   UNL     1      11.382  -0.034   9.278  1.00  0.00    -0.206 F 
ATOM     82  C   UNL     1      10.574   0.584  12.754  1.00  0.00     0.006 A 
ENDBRANCH  54  75
BRANCH  66  83
ATOM     83  C   UNL     1      19.334   0.963  10.322  1.00  0.00     0.057 A 
ATOM     84  C   UNL     1      19.432  -0.413  10.566  1.00  0.00     0.134 A 
ATOM     85  C   UNL     1      20.259   1.799  10.962  1.00  0.00     0.134 A 
ATOM     86  F   UNL     1      18.571  -1.269   9.994  1.00  0.00    -0.206 F 
ATOM     87  C   UNL     1      20.387  -0.932  11.442  1.00  0.00     0.040 A 
ATOM     88  C   UNL     1      21.241   1.288  11.810  1.00  0.00     0.040 A 
ATOM     89  F   UNL     1      20.230   3.126  10.763  1.00  0.00    -0.206 F 
ATOM     90  C   UNL     1      21.299  -0.080  12.062  1.00  0.00     0.006 A 
ENDBRANCH  66  83
ENDBRANCH  40  41
ENDBRANCH  32  35
ENDBRANCH  30  31
ENDBRANCH  29  30
ENDBRANCH  28  29
ENDBRANCH   1  28
TORSDOF 16
