REMARK SMILES Cn1cc(-c2ccn(Cc3ccc(C(=O)NCCCCCCNC(=O)c4ccc(-c5c6nc(c(-c7c(F)cccc7F)c7ccc([nH]7)c(-c7c(F)cccc7F)c7nc(c(-c8c(F)cccc8F)c8ccc5[nH]8)C=C7)C=C6)cc4)cc3)n2)cn1
REMARK SMILES IDX 19 1 18 2 17 3 16 4 14 5 15 6 13 8 10 9 11 10 81 11 12 12
REMARK SMILES IDX 80 13 9 14 8 15 5 16 6 17 82 18 7 19 4 20 1 21 2 22 3 23
REMARK SMILES IDX 84 24 83 25 20 26 21 27 22 28 23 29 24 30 25 32 26 33 27 34
REMARK SMILES IDX 79 35 28 36 78 37 29 38 30 39 31 40 72 41 32 42 77 43 71 44
REMARK SMILES IDX 73 45 33 46 76 47 70 48 69 49 34 51 60 52 43 53 59 54 44 55
REMARK SMILES IDX 47 56 58 57 74 58 45 59 46 60 57 62 75 63 48 64 35 65 36 66
REMARK SMILES IDX 41 67 37 68 38 69 40 70 42 71 39 72 61 73 62 74 67 75 63 76
REMARK SMILES IDX 64 77 66 78 68 79 65 80 49 81 50 82 55 83 51 84 52 85 54 86
REMARK SMILES IDX 56 87 53 88
REMARK H PARENT 16 7 23 31 73 50 47 61
REMARK Flexibility Score: inf
ROOT
ATOM      1  C   UNL     1       7.111   4.813   5.371  1.00  0.00     0.002 C 
ENDROOT
BRANCH   1   2
ATOM      2  C   UNL     1       6.603   3.482   4.800  1.00  0.00     0.021 C 
BRANCH   2   3
ATOM      3  C   UNL     1       6.861   3.326   3.299  1.00  0.00     0.116 C 
BRANCH   3   4
ATOM      4  N   UNL     1       8.241   2.941   3.068  1.00  0.00    -0.352 N 
ATOM      5  C   UNL     1       8.817   1.750   2.707  1.00  0.00     0.251 C 
ATOM      6  O   UNL     1      10.040   1.717   2.572  1.00  0.00    -0.269 OA
ATOM      7  H   UNL     1       8.886   3.674   3.195  1.00  0.00     0.163 HD
BRANCH   5   8
ATOM      8  C   UNL     1       8.022   0.529   2.404  1.00  0.00     0.039 A 
ATOM      9  C   UNL     1       6.540  -1.720   1.558  1.00  0.00    -0.026 A 
ATOM     10  C   UNL     1       7.797  -1.452   1.004  1.00  0.00     0.006 A 
ATOM     11  C   UNL     1       6.075  -0.898   2.595  1.00  0.00     0.006 A 
ATOM     12  C   UNL     1       8.528  -0.336   1.422  1.00  0.00     0.014 A 
ATOM     13  C   UNL     1       6.824   0.196   3.035  1.00  0.00     0.014 A 
BRANCH   9  14
ATOM     14  C   UNL     1       5.702  -2.879   1.075  1.00  0.00     0.179 C 
BRANCH  14  15
ATOM     15  N   UNL     1       4.551  -2.478   0.266  1.00  0.00    -0.268 N 
ATOM     16  C   UNL     1       2.660  -1.631  -0.177  1.00  0.00     0.095 A 
ATOM     17  C   UNL     1       2.960  -2.494  -1.250  1.00  0.00     0.050 A 
ATOM     18  N   UNL     1       3.617  -1.628   0.754  1.00  0.00    -0.172 NA
ATOM     19  C   UNL     1       4.194  -3.018  -0.942  1.00  0.00     0.110 A 
BRANCH  16  20
ATOM     20  C   UNL     1       1.445  -0.843  -0.083  1.00  0.00     0.040 A 
ATOM     21  C   UNL     1      -2.054  -0.028  -0.036  1.00  0.00     0.173 C 
ATOM     22  N   UNL     1      -0.614  -0.121  -0.024  1.00  0.00    -0.275 N 
ATOM     23  C   UNL     1       0.135  -1.256  -0.145  1.00  0.00     0.118 A 
ATOM     24  N   UNL     1       0.122   1.002   0.100  1.00  0.00    -0.181 NA
ATOM     25  C   UNL     1       1.383   0.552   0.079  1.00  0.00     0.145 A 
ENDBRANCH  16  20
ENDBRANCH  14  15
ENDBRANCH   9  14
ENDBRANCH   5   8
ENDBRANCH   3   4
ENDBRANCH   2   3
ENDBRANCH   1   2
BRANCH   1  26
ATOM     26  C   UNL     1       6.511   6.075   4.731  1.00  0.00     0.002 C 
BRANCH  26  27
ATOM     27  C   UNL     1       4.977   6.129   4.668  1.00  0.00     0.021 C 
BRANCH  27  28
ATOM     28  C   UNL     1       4.322   6.262   6.035  1.00  0.00     0.116 C 
BRANCH  28  29
ATOM     29  N   UNL     1       4.605   7.558   6.647  1.00  0.00    -0.352 N 
ATOM     30  C   UNL     1       4.235   8.025   7.891  1.00  0.00     0.251 C 
ATOM     31  H   UNL     1       5.130   8.183   6.097  1.00  0.00     0.163 HD
ATOM     32  O   UNL     1       4.210   9.220   8.134  1.00  0.00    -0.269 OA
BRANCH  30  33
ATOM     33  C   UNL     1       3.876   7.048   8.933  1.00  0.00     0.039 A 
ATOM     34  C   UNL     1       2.800   7.282   9.795  1.00  0.00     0.014 A 
ATOM     35  C   UNL     1       4.630   5.882   9.030  1.00  0.00     0.014 A 
ATOM     36  C   UNL     1       2.443   6.294  10.707  1.00  0.00     0.010 A 
ATOM     37  C   UNL     1       4.193   4.856   9.829  1.00  0.00     0.010 A 
ATOM     38  C   UNL     1       3.134   5.072  10.705  1.00  0.00    -0.014 A 
BRANCH  38  39
ATOM     39  C   UNL     1       2.661   3.947  11.509  1.00  0.00     0.031 A 
ATOM     40  C   UNL     1       1.246   3.559  11.233  1.00  0.00     0.074 A 
ATOM     41  C   UNL     1       3.500   3.168  12.228  1.00  0.00     0.049 A 
ATOM     42  N   UNL     1       0.248   3.545  12.054  1.00  0.00    -0.248 NA
ATOM     43  C   UNL     1       0.864   3.277   9.836  1.00  0.00     0.031 C 
ATOM     44  C   UNL     1       4.964   3.250  12.307  1.00  0.00     0.029 A 
ATOM     45  N   UNL     1       3.235   2.042  12.946  1.00  0.00    -0.354 N 
ATOM     46  C   UNL     1      -0.835   3.043  11.333  1.00  0.00     0.074 A 
ATOM     47  C   UNL     1      -0.451   3.082   9.948  1.00  0.00     0.031 C 
ATOM     48  C   UNL     1       5.459   2.094  12.801  1.00  0.00     0.029 A 
ATOM     49  C   UNL     1       4.353   1.259  13.229  1.00  0.00     0.049 A 
ATOM     50  H   UNL     1       2.328   1.799  13.240  1.00  0.00     0.167 HD
ATOM     51  C   UNL     1      -1.847   2.382  11.960  1.00  0.00     0.037 A 
ATOM     52  C   UNL     1       4.354  -0.001  13.736  1.00  0.00     0.037 A 
ATOM     53  C   UNL     1      -1.866   2.686  13.370  1.00  0.00     0.049 A 
ATOM     54  C   UNL     1       3.014  -0.239  14.324  1.00  0.00     0.074 A 
ATOM     55  C   UNL     1      -1.955   3.847  14.115  1.00  0.00     0.029 A 
ATOM     56  N   UNL     1      -1.396   1.731  14.239  1.00  0.00    -0.354 N 
ATOM     57  N   UNL     1       2.572   0.355  15.396  1.00  0.00    -0.248 NA
ATOM     58  C   UNL     1       1.994  -0.797  13.449  1.00  0.00     0.031 C 
ATOM     59  C   UNL     1      -1.057   3.652  15.207  1.00  0.00     0.029 A 
ATOM     60  C   UNL     1      -0.544   2.359  15.109  1.00  0.00     0.049 A 
ATOM     61  H   UNL     1      -1.628   0.774  14.236  1.00  0.00     0.167 HD
ATOM     62  C   UNL     1       1.248   0.646  15.110  1.00  0.00     0.074 A 
ATOM     63  C   UNL     1       0.926  -0.157  13.930  1.00  0.00     0.031 C 
ATOM     64  C   UNL     1       0.627   1.727  15.667  1.00  0.00     0.037 A 
BRANCH  51  65
ATOM     65  C   UNL     1      -2.537   1.158  11.393  1.00  0.00     0.057 A 
ATOM     66  C   UNL     1      -3.608   0.588  12.109  1.00  0.00     0.134 A 
ATOM     67  C   UNL     1      -2.012   0.344  10.368  1.00  0.00     0.134 A 
ATOM     68  F   UNL     1      -4.197   1.254  13.113  1.00  0.00    -0.206 F 
ATOM     69  C   UNL     1      -4.048  -0.723  11.889  1.00  0.00     0.040 A 
ATOM     70  C   UNL     1      -2.480  -0.947  10.105  1.00  0.00     0.040 A 
ATOM     71  F   UNL     1      -0.956   0.700   9.629  1.00  0.00    -0.206 F 
ATOM     72  C   UNL     1      -3.475  -1.500  10.892  1.00  0.00     0.006 A 
ENDBRANCH  51  65
BRANCH  52  73
ATOM     73  C   UNL     1       5.295  -1.121  13.493  1.00  0.00     0.057 A 
ATOM     74  C   UNL     1       5.266  -2.268  14.302  1.00  0.00     0.134 A 
ATOM     75  C   UNL     1       6.024  -1.233  12.297  1.00  0.00     0.134 A 
ATOM     76  F   UNL     1       4.573  -2.274  15.451  1.00  0.00    -0.206 F 
ATOM     77  C   UNL     1       5.880  -3.469  13.923  1.00  0.00     0.040 A 
ATOM     78  C   UNL     1       6.650  -2.424  11.910  1.00  0.00     0.040 A 
ATOM     79  F   UNL     1       6.074  -0.223  11.417  1.00  0.00    -0.206 F 
ATOM     80  C   UNL     1       6.562  -3.554  12.714  1.00  0.00     0.006 A 
ENDBRANCH  52  73
BRANCH  64  81
ATOM     81  C   UNL     1       1.323   2.442  16.793  1.00  0.00     0.057 A 
ATOM     82  C   UNL     1       2.580   3.059  16.693  1.00  0.00     0.134 A 
ATOM     83  C   UNL     1       0.629   2.622  17.995  1.00  0.00     0.134 A 
ATOM     84  F   UNL     1       3.280   3.035  15.552  1.00  0.00    -0.206 F 
ATOM     85  C   UNL     1       3.140   3.773  17.758  1.00  0.00     0.040 A 
ATOM     86  C   UNL     1       1.160   3.364  19.052  1.00  0.00     0.040 A 
ATOM     87  F   UNL     1      -0.602   2.109  18.147  1.00  0.00    -0.206 F 
ATOM     88  C   UNL     1       2.426   3.931  18.942  1.00  0.00     0.006 A 
ENDBRANCH  64  81
ENDBRANCH  38  39
ENDBRANCH  30  33
ENDBRANCH  28  29
ENDBRANCH  27  28
ENDBRANCH  26  27
ENDBRANCH   1  26
TORSDOF 16
