REMARK SMILES CCc1sc(NC(=O)[C@H]2CC(C)=C(C)C[C@H]2C(=O)NCCCCCCNC(=O)c2ccc(-c3c4nc(c(-c5c(F)cccc5F)c5ccc([nH]5)c(-c5c(F)cccc5F)c5nc(c(-c6c(F)cccc6F)c6ccc3[nH]6)C=C5)C=C4)cc2)nc1-c1ccccc1
REMARK SMILES IDX 22 1 21 2 20 3 19 4 17 5 18 6 16 8 9 9 10 10 11 11 15 12
REMARK SMILES IDX 12 13 13 14 14 15 7 16 6 17 8 19 5 20 3 21 4 22 84 23 83 24
REMARK SMILES IDX 2 25 1 26 85 27 86 28 90 29 87 30 89 31 88 32 23 33 24 34
REMARK SMILES IDX 25 35 26 36 27 37 28 39 29 40 30 41 82 42 31 43 81 44 32 45
REMARK SMILES IDX 33 46 34 47 75 48 35 49 80 50 74 51 76 52 36 53 79 54 73 55
REMARK SMILES IDX 72 56 37 58 63 59 46 60 62 61 47 62 50 63 61 64 77 65 48 66
REMARK SMILES IDX 49 67 60 69 78 70 51 71 38 72 39 73 44 74 40 75 41 76 43 77
REMARK SMILES IDX 45 78 42 79 64 80 65 81 70 82 66 83 67 84 69 85 71 86 68 87
REMARK SMILES IDX 52 88 53 89 58 90 54 91 55 92 57 93 59 94 56 95
REMARK H PARENT 19 7 6 18 26 38 76 57 50 68
REMARK Flexibility Score: inf
ROOT
ATOM      1  C   UNL     1       5.013  -6.140   3.274  1.00  0.00     0.002 C 
ENDROOT
BRANCH   1   2
ATOM      2  C   UNL     1       3.789  -5.783   2.432  1.00  0.00     0.021 C 
BRANCH   2   3
ATOM      3  C   UNL     1       3.573  -6.710   1.245  1.00  0.00     0.116 C 
BRANCH   3   4
ATOM      4  N   UNL     1       3.015  -7.972   1.657  1.00  0.00    -0.356 N 
ATOM      5  C   UNL     1       1.835  -8.562   1.344  1.00  0.00     0.224 C 
ATOM      6  O   UNL     1       1.658  -9.711   1.764  1.00  0.00    -0.275 OA
ATOM      7  H   UNL     1       3.585  -8.493   2.268  1.00  0.00     0.163 HD
BRANCH   5   8
ATOM      8  C   UNL     1       0.807  -7.916   0.407  1.00  0.00     0.095 C 
ATOM      9  C   UNL     1       0.164  -6.552   0.808  1.00  0.00     0.095 C 
ATOM     10  C   UNL     1       0.609  -5.390  -0.083  1.00  0.00     0.045 C 
ATOM     11  C   UNL     1       1.366  -5.598  -1.357  1.00  0.00    -0.074 C 
ATOM     12  C   UNL     1       1.308  -8.066  -1.048  1.00  0.00     0.045 C 
ATOM     13  C   UNL     1       1.716  -4.300  -2.045  1.00  0.00     0.039 C 
ATOM     14  C   UNL     1       1.717  -6.820  -1.787  1.00  0.00    -0.074 C 
ATOM     15  C   UNL     1       2.553  -7.021  -3.022  1.00  0.00     0.039 C 
BRANCH   9  16
ATOM     16  C   UNL     1       0.186  -6.321   2.352  1.00  0.00     0.230 C 
ATOM     17  N   UNL     1       0.362  -5.141   3.011  1.00  0.00    -0.302 N 
ATOM     18  H   UNL     1       0.577  -5.255   3.965  1.00  0.00     0.172 HD
ATOM     19  O   UNL     1       0.057  -7.306   3.094  1.00  0.00    -0.274 OA
BRANCH  17  20
ATOM     20  C   UNL     1       0.303  -3.836   2.620  1.00  0.00     0.190 A 
ATOM     21  C   UNL     1       0.064  -1.897   1.238  1.00  0.00     0.034 A 
ATOM     22  S   UNL     1      -0.921  -3.289   1.571  1.00  0.00    -0.101 S 
ATOM     23  C   UNL     1       0.885  -1.728   2.349  1.00  0.00     0.087 A 
ATOM     24  N   UNL     1       1.045  -2.877   3.124  1.00  0.00    -0.220 NA
BRANCH  21  25
ATOM     25  C   UNL     1      -0.141  -1.197  -0.075  1.00  0.00     0.046 C 
ATOM     26  C   UNL     1       0.660   0.062  -0.346  1.00  0.00     0.010 C 
ENDBRANCH  21  25
BRANCH  23  27
ATOM     27  C   UNL     1       1.584  -0.495   2.668  1.00  0.00     0.001 A 
ATOM     28  C   UNL     1       0.849   0.692   2.812  1.00  0.00     0.010 A 
ATOM     29  C   UNL     1       2.972  -0.458   2.811  1.00  0.00     0.010 A 
ATOM     30  C   UNL     1       1.495   1.914   2.997  1.00  0.00     0.001 A 
ATOM     31  C   UNL     1       3.612   0.767   3.026  1.00  0.00     0.001 A 
ATOM     32  C   UNL     1       2.881   1.953   3.091  1.00  0.00     0.000 A 
ENDBRANCH  23  27
ENDBRANCH  17  20
ENDBRANCH   9  16
ENDBRANCH   5   8
ENDBRANCH   3   4
ENDBRANCH   2   3
ENDBRANCH   1   2
BRANCH   1  33
ATOM     33  C   UNL     1       6.343  -6.093   2.518  1.00  0.00     0.002 C 
BRANCH  33  34
ATOM     34  C   UNL     1       6.616  -4.784   1.774  1.00  0.00     0.021 C 
BRANCH  34  35
ATOM     35  C   UNL     1       6.535  -3.536   2.646  1.00  0.00     0.116 C 
BRANCH  35  36
ATOM     36  N   UNL     1       7.492  -3.580   3.741  1.00  0.00    -0.352 N 
ATOM     37  C   UNL     1       8.526  -2.727   4.031  1.00  0.00     0.251 C 
ATOM     38  H   UNL     1       7.380  -4.332   4.366  1.00  0.00     0.163 HD
ATOM     39  O   UNL     1       9.378  -3.040   4.854  1.00  0.00    -0.269 OA
BRANCH  37  40
ATOM     40  C   UNL     1       8.611  -1.424   3.341  1.00  0.00     0.039 A 
ATOM     41  C   UNL     1       9.846  -0.979   2.863  1.00  0.00     0.014 A 
ATOM     42  C   UNL     1       7.468  -0.639   3.179  1.00  0.00     0.014 A 
ATOM     43  C   UNL     1       9.925   0.235   2.176  1.00  0.00     0.010 A 
ATOM     44  C   UNL     1       7.536   0.522   2.421  1.00  0.00     0.010 A 
ATOM     45  C   UNL     1       8.763   0.982   1.930  1.00  0.00    -0.014 A 
BRANCH  45  46
ATOM     46  C   UNL     1       8.779   2.243   1.151  1.00  0.00     0.031 A 
ATOM     47  C   UNL     1       8.374   3.539   1.797  1.00  0.00     0.074 A 
ATOM     48  C   UNL     1       9.038   2.196  -0.169  1.00  0.00     0.049 A 
ATOM     49  N   UNL     1       8.255   4.728   1.263  1.00  0.00    -0.248 NA
ATOM     50  C   UNL     1       8.014   3.482   3.223  1.00  0.00     0.031 C 
ATOM     51  C   UNL     1       9.359   0.985  -0.925  1.00  0.00     0.029 A 
ATOM     52  N   UNL     1       9.053   3.193  -1.110  1.00  0.00    -0.354 N 
ATOM     53  C   UNL     1       7.798   5.555   2.281  1.00  0.00     0.074 A 
ATOM     54  C   UNL     1       7.594   4.718   3.444  1.00  0.00     0.031 C 
ATOM     55  C   UNL     1       9.573   1.315  -2.208  1.00  0.00     0.029 A 
ATOM     56  C   UNL     1       9.372   2.752  -2.370  1.00  0.00     0.049 A 
ATOM     57  H   UNL     1       8.854   4.134  -0.902  1.00  0.00     0.167 HD
ATOM     58  C   UNL     1       7.596   6.894   2.258  1.00  0.00     0.037 A 
ATOM     59  C   UNL     1       9.496   3.432  -3.524  1.00  0.00     0.037 A 
ATOM     60  C   UNL     1       7.817   7.721   1.100  1.00  0.00     0.049 A 
ATOM     61  C   UNL     1       9.271   4.917  -3.529  1.00  0.00     0.074 A 
ATOM     62  C   UNL     1       7.725   9.097   0.990  1.00  0.00     0.029 A 
ATOM     63  N   UNL     1       8.164   7.243  -0.156  1.00  0.00    -0.354 N 
ATOM     64  N   UNL     1       8.939   5.707  -2.536  1.00  0.00    -0.248 NA
ATOM     65  C   UNL     1       9.446   5.606  -4.814  1.00  0.00     0.031 C 
ATOM     66  C   UNL     1       7.964   9.446  -0.344  1.00  0.00     0.029 A 
ATOM     67  C   UNL     1       8.259   8.293  -1.054  1.00  0.00     0.049 A 
ATOM     68  H   UNL     1       8.319   6.296  -0.376  1.00  0.00     0.167 HD
ATOM     69  C   UNL     1       8.897   6.989  -3.067  1.00  0.00     0.074 A 
ATOM     70  C   UNL     1       9.245   6.870  -4.469  1.00  0.00     0.031 C 
ATOM     71  C   UNL     1       8.604   8.159  -2.448  1.00  0.00     0.037 A 
BRANCH  58  72
ATOM     72  C   UNL     1       7.114   7.540   3.528  1.00  0.00     0.057 A 
ATOM     73  C   UNL     1       7.916   7.607   4.677  1.00  0.00     0.134 A 
ATOM     74  C   UNL     1       5.836   8.107   3.604  1.00  0.00     0.134 A 
ATOM     75  F   UNL     1       9.149   7.076   4.677  1.00  0.00    -0.206 F 
ATOM     76  C   UNL     1       7.449   8.171   5.865  1.00  0.00     0.040 A 
ATOM     77  C   UNL     1       5.370   8.705   4.777  1.00  0.00     0.040 A 
ATOM     78  F   UNL     1       5.017   8.089   2.542  1.00  0.00    -0.206 F 
ATOM     79  C   UNL     1       6.172   8.726   5.916  1.00  0.00     0.006 A 
ENDBRANCH  58  72
BRANCH  59  80
ATOM     80  C   UNL     1       9.921   2.717  -4.751  1.00  0.00     0.057 A 
ATOM     81  C   UNL     1      11.212   2.889  -5.263  1.00  0.00     0.134 A 
ATOM     82  C   UNL     1       9.074   1.825  -5.419  1.00  0.00     0.134 A 
ATOM     83  F   UNL     1      12.064   3.740  -4.672  1.00  0.00    -0.206 F 
ATOM     84  C   UNL     1      11.645   2.207  -6.401  1.00  0.00     0.040 A 
ATOM     85  C   UNL     1       9.500   1.120  -6.545  1.00  0.00     0.040 A 
ATOM     86  F   UNL     1       7.829   1.608  -4.969  1.00  0.00    -0.206 F 
ATOM     87  C   UNL     1      10.789   1.314  -7.041  1.00  0.00     0.006 A 
ENDBRANCH  59  80
BRANCH  71  88
ATOM     88  C   UNL     1       8.678   9.410  -3.276  1.00  0.00     0.057 A 
ATOM     89  C   UNL     1       7.728   9.706  -4.261  1.00  0.00     0.134 A 
ATOM     90  C   UNL     1       9.697  10.347  -3.058  1.00  0.00     0.134 A 
ATOM     91  F   UNL     1       6.735   8.844  -4.528  1.00  0.00    -0.206 F 
ATOM     92  C   UNL     1       7.801  10.877  -5.016  1.00  0.00     0.040 A 
ATOM     93  C   UNL     1       9.764  11.535  -3.786  1.00  0.00     0.040 A 
ATOM     94  F   UNL     1      10.635  10.130  -2.124  1.00  0.00    -0.206 F 
ATOM     95  C   UNL     1       8.817  11.800  -4.774  1.00  0.00     0.006 A 
ENDBRANCH  71  88
ENDBRANCH  45  46
ENDBRANCH  37  40
ENDBRANCH  35  36
ENDBRANCH  34  35
ENDBRANCH  33  34
ENDBRANCH   1  33
TORSDOF 17
