REMARK SMILES CCOc1cc(OCC)cc(-c2ccc([C@@H](C)C(=O)NCCCCCCNC(=O)c3ccc(-c4c5nc(c(-c6c(F)cccc6F)c6ccc([nH]6)c(-c6c(F)cccc6F)c6nc(c(-c7c(F)cccc7F)c7ccc4[nH]7)C=C6)C=C5)cc3)cc2F)c1
REMARK SMILES IDX 22 1 21 2 20 3 18 4 19 5 16 7 17 8 15 9 12 10 13 11 85 12
REMARK SMILES IDX 14 13 84 14 86 15 11 16 4 17 5 18 87 19 6 20 10 21 3 22 2 23
REMARK SMILES IDX 1 24 7 25 8 26 9 27 23 28 24 29 25 30 26 31 27 32 28 33
REMARK SMILES IDX 29 35 30 36 31 37 83 38 32 39 82 40 33 41 34 42 35 43 76 44
REMARK SMILES IDX 36 45 81 46 75 47 77 48 37 49 80 50 74 51 73 52 38 54 64 55
REMARK SMILES IDX 47 56 63 57 48 58 51 59 62 60 78 61 49 62 50 63 61 65 79 66
REMARK SMILES IDX 52 67 39 68 40 69 45 70 41 71 42 72 44 73 46 74 43 75 65 76
REMARK SMILES IDX 66 77 71 78 67 79 68 80 70 81 72 82 69 83 53 84 54 85 59 86
REMARK SMILES IDX 55 87 56 88 58 89 60 90 57 91
REMARK H PARENT 20 6 27 34 77 53 51 64
REMARK Flexibility Score: inf
ROOT
ATOM      1  C   UNL     1       8.589   1.642  -1.450  1.00  0.00     0.021 C 
ENDROOT
BRANCH   1   2
ATOM      2  C   UNL     1       9.402   2.521  -0.495  1.00  0.00     0.116 C 
BRANCH   2   3
ATOM      3  N   UNL     1       8.657   3.687  -0.069  1.00  0.00    -0.356 N 
ATOM      4  C   UNL     1       8.014   3.982   1.093  1.00  0.00     0.227 C 
ATOM      5  O   UNL     1       7.392   5.051   1.119  1.00  0.00    -0.274 OA
ATOM      6  H   UNL     1       8.606   4.399  -0.746  1.00  0.00     0.163 HD
BRANCH   4   7
ATOM      7  C   UNL     1       8.026   3.078   2.336  1.00  0.00     0.105 C 
ATOM      8  C   UNL     1       9.417   2.810   2.909  1.00  0.00     0.023 C 
BRANCH   7   9
ATOM      9  C   UNL     1       7.125   1.862   2.203  1.00  0.00    -0.033 A 
ATOM     10  C   UNL     1       5.332  -0.340   1.853  1.00  0.00     0.018 A 
ATOM     11  C   UNL     1       6.684  -0.413   1.474  1.00  0.00     0.012 A 
ATOM     12  C   UNL     1       4.913   0.865   2.435  1.00  0.00     0.131 A 
ATOM     13  C   UNL     1       7.568   0.647   1.680  1.00  0.00     0.005 A 
ATOM     14  C   UNL     1       5.779   1.951   2.589  1.00  0.00     0.044 A 
ATOM     15  F   UNL     1       3.651   1.014   2.868  1.00  0.00    -0.206 F 
BRANCH  10  16
ATOM     16  C   UNL     1       4.430  -1.487   1.609  1.00  0.00    -0.008 A 
ATOM     17  C   UNL     1       2.279  -2.410   0.937  1.00  0.00     0.123 A 
ATOM     18  C   UNL     1       2.797  -3.703   0.984  1.00  0.00     0.092 A 
ATOM     19  C   UNL     1       3.083  -1.317   1.260  1.00  0.00     0.055 A 
ATOM     20  C   UNL     1       4.125  -3.910   1.355  1.00  0.00     0.123 A 
ATOM     21  C   UNL     1       4.917  -2.807   1.678  1.00  0.00     0.055 A 
BRANCH  17  22
ATOM     22  O   UNL     1       0.942  -2.257   0.690  1.00  0.00    -0.494 OA
BRANCH  22  23
ATOM     23  C   UNL     1       0.648  -1.575  -0.536  1.00  0.00     0.226 C 
ATOM     24  C   UNL     1       0.501  -0.074  -0.342  1.00  0.00     0.049 C 
ENDBRANCH  22  23
ENDBRANCH  17  22
BRANCH  20  25
ATOM     25  O   UNL     1       4.552  -5.211   1.342  1.00  0.00    -0.494 OA
BRANCH  25  26
ATOM     26  C   UNL     1       5.807  -5.516   1.959  1.00  0.00     0.226 C 
ATOM     27  C   UNL     1       6.965  -5.371   0.982  1.00  0.00     0.049 C 
ENDBRANCH  25  26
ENDBRANCH  20  25
ENDBRANCH  10  16
ENDBRANCH   7   9
ENDBRANCH   4   7
ENDBRANCH   2   3
ENDBRANCH   1   2
BRANCH   1  28
ATOM     28  C   UNL     1       8.732   2.030  -2.926  1.00  0.00     0.002 C 
BRANCH  28  29
ATOM     29  C   UNL     1      10.144   1.876  -3.508  1.00  0.00     0.002 C 
BRANCH  29  30
ATOM     30  C   UNL     1      10.769   0.483  -3.374  1.00  0.00     0.021 C 
BRANCH  30  31
ATOM     31  C   UNL     1       9.992  -0.641  -4.057  1.00  0.00     0.116 C 
BRANCH  31  32
ATOM     32  N   UNL     1       9.899  -0.441  -5.494  1.00  0.00    -0.352 N 
ATOM     33  C   UNL     1      10.339  -1.229  -6.527  1.00  0.00     0.251 C 
ATOM     34  H   UNL     1       9.448   0.390  -5.769  1.00  0.00     0.163 HD
ATOM     35  O   UNL     1      10.367  -0.779  -7.668  1.00  0.00    -0.269 OA
BRANCH  33  36
ATOM     36  C   UNL     1      10.791  -2.616  -6.277  1.00  0.00     0.039 A 
ATOM     37  C   UNL     1      11.929  -3.081  -6.943  1.00  0.00     0.014 A 
ATOM     38  C   UNL     1      10.073  -3.472  -5.437  1.00  0.00     0.014 A 
ATOM     39  C   UNL     1      12.377  -4.386  -6.725  1.00  0.00     0.010 A 
ATOM     40  C   UNL     1      10.556  -4.753  -5.173  1.00  0.00     0.010 A 
ATOM     41  C   UNL     1      11.711  -5.223  -5.816  1.00  0.00    -0.014 A 
BRANCH  41  42
ATOM     42  C   UNL     1      12.219  -6.587  -5.523  1.00  0.00     0.031 A 
ATOM     43  C   UNL     1      11.418  -7.801  -5.907  1.00  0.00     0.074 A 
ATOM     44  C   UNL     1      13.382  -6.730  -4.858  1.00  0.00     0.049 A 
ATOM     45  N   UNL     1      11.684  -9.065  -5.697  1.00  0.00    -0.248 NA
ATOM     46  C   UNL     1      10.140  -7.562  -6.596  1.00  0.00     0.031 C 
ATOM     47  C   UNL     1      14.225  -5.631  -4.384  1.00  0.00     0.029 A 
ATOM     48  N   UNL     1      14.051  -7.859  -4.457  1.00  0.00    -0.354 N 
ATOM     49  C   UNL     1      10.604  -9.770  -6.213  1.00  0.00     0.074 A 
ATOM     50  C   UNL     1       9.659  -8.792  -6.706  1.00  0.00     0.031 C 
ATOM     51  C   UNL     1      15.308  -6.140  -3.775  1.00  0.00     0.029 A 
ATOM     52  C   UNL     1      15.222  -7.596  -3.789  1.00  0.00     0.049 A 
ATOM     53  H   UNL     1      13.723  -8.771  -4.633  1.00  0.00     0.167 HD
ATOM     54  C   UNL     1      10.426 -11.111  -6.289  1.00  0.00     0.037 A 
ATOM     55  C   UNL     1      16.124  -8.435  -3.245  1.00  0.00     0.037 A 
ATOM     56  C   UNL     1      11.380 -12.084  -5.824  1.00  0.00     0.049 A 
ATOM     57  C   UNL     1      15.909  -9.918  -3.354  1.00  0.00     0.074 A 
ATOM     58  C   UNL     1      11.322 -13.463  -5.920  1.00  0.00     0.029 A 
ATOM     59  N   UNL     1      12.566 -11.778  -5.173  1.00  0.00    -0.354 N 
ATOM     60  N   UNL     1      14.919 -10.570  -3.913  1.00  0.00    -0.248 NA
ATOM     61  C   UNL     1      16.942 -10.782  -2.766  1.00  0.00     0.031 C 
ATOM     62  C   UNL     1      12.454 -13.995  -5.292  1.00  0.00     0.029 A 
ATOM     63  C   UNL     1      13.237 -12.944  -4.842  1.00  0.00     0.049 A 
ATOM     64  H   UNL     1      12.883 -10.868  -4.975  1.00  0.00     0.167 HD
ATOM     65  C   UNL     1      15.219 -11.918  -3.764  1.00  0.00     0.074 A 
ATOM     66  C   UNL     1      16.492 -11.989  -3.077  1.00  0.00     0.031 C 
ATOM     67  C   UNL     1      14.504 -12.999  -4.160  1.00  0.00     0.037 A 
BRANCH  54  68
ATOM     68  C   UNL     1       9.151 -11.609  -6.904  1.00  0.00     0.057 A 
ATOM     69  C   UNL     1       8.908 -11.509  -8.280  1.00  0.00     0.134 A 
ATOM     70  C   UNL     1       8.174 -12.235  -6.120  1.00  0.00     0.134 A 
ATOM     71  F   UNL     1       9.799 -10.911  -9.086  1.00  0.00    -0.206 F 
ATOM     72  C   UNL     1       7.730 -11.995  -8.851  1.00  0.00     0.040 A 
ATOM     73  C   UNL     1       7.004 -12.747  -6.682  1.00  0.00     0.040 A 
ATOM     74  F   UNL     1       8.347 -12.370  -4.796  1.00  0.00    -0.206 F 
ATOM     75  C   UNL     1       6.777 -12.623  -8.052  1.00  0.00     0.006 A 
ENDBRANCH  54  68
BRANCH  55  76
ATOM     76  C   UNL     1      17.327  -7.891  -2.567  1.00  0.00     0.057 A 
ATOM     77  C   UNL     1      18.597  -8.016  -3.142  1.00  0.00     0.134 A 
ATOM     78  C   UNL     1      17.238  -7.240  -1.331  1.00  0.00     0.134 A 
ATOM     79  F   UNL     1      18.746  -8.646  -4.316  1.00  0.00    -0.206 F 
ATOM     80  C   UNL     1      19.739  -7.530  -2.504  1.00  0.00     0.040 A 
ATOM     81  C   UNL     1      18.369  -6.728  -0.693  1.00  0.00     0.040 A 
ATOM     82  F   UNL     1      16.048  -7.081  -0.733  1.00  0.00    -0.206 F 
ATOM     83  C   UNL     1      19.625  -6.879  -1.277  1.00  0.00     0.006 A 
ENDBRANCH  55  76
BRANCH  67  84
ATOM     84  C   UNL     1      15.095 -14.348  -3.880  1.00  0.00     0.057 A 
ATOM     85  C   UNL     1      15.131 -14.884  -2.586  1.00  0.00     0.134 A 
ATOM     86  C   UNL     1      15.607 -15.133  -4.921  1.00  0.00     0.134 A 
ATOM     87  F   UNL     1      14.669 -14.176  -1.544  1.00  0.00    -0.206 F 
ATOM     88  C   UNL     1      15.675 -16.144  -2.334  1.00  0.00     0.040 A 
ATOM     89  C   UNL     1      16.131 -16.405  -4.685  1.00  0.00     0.040 A 
ATOM     90  F   UNL     1      15.596 -14.681  -6.184  1.00  0.00    -0.206 F 
ATOM     91  C   UNL     1      16.172 -16.911  -3.387  1.00  0.00     0.006 A 
ENDBRANCH  67  84
ENDBRANCH  41  42
ENDBRANCH  33  36
ENDBRANCH  31  32
ENDBRANCH  30  31
ENDBRANCH  29  30
ENDBRANCH  28  29
ENDBRANCH   1  28
TORSDOF 19
