REMARK SMILES CC[C@]1(C(=O)NCCCCCCNC(=O)c2ccc(-c3c4nc(c(-c5c(F)cccc5F)c5ccc([nH]5)c(-c5c(F)cccc5F)c5nc(c(-c6c(F)cccc6F)c6ccc3[nH]6)C=C5)C=C4)cc2)CCC[N@@H+](Cc2cc(OC)ccc2F)C1
REMARK SMILES IDX 9 1 8 2 7 3 6 4 4 5 5 6 3 8 70 9 84 10 71 11 73 12 72 13
REMARK SMILES IDX 2 15 1 16 74 17 75 18 76 19 82 20 77 21 81 22 83 23 80 24
REMARK SMILES IDX 78 25 79 26 10 27 11 28 12 29 13 30 14 31 15 33 16 34 17 35
REMARK SMILES IDX 69 36 18 37 68 38 19 39 20 40 21 41 62 42 22 43 67 44 61 45
REMARK SMILES IDX 63 46 23 47 66 48 60 49 59 50 24 52 50 53 33 54 49 55 34 56
REMARK SMILES IDX 37 57 48 58 64 59 35 60 36 61 47 63 65 64 38 65 25 66 26 67
REMARK SMILES IDX 31 68 27 69 28 70 30 71 32 72 29 73 51 74 52 75 57 76 53 77
REMARK SMILES IDX 54 78 56 79 58 80 55 81 39 82 40 83 45 84 41 85 42 86 44 87
REMARK SMILES IDX 46 88 43 89
REMARK H PARENT 6 7 73 14 13 32 63 51 37 62
REMARK Flexibility Score: inf
ROOT
ATOM      1  C   UNL     1       5.101  -4.162   3.837  1.00  0.00     0.002 C 
ENDROOT
BRANCH   1   2
ATOM      2  C   UNL     1       3.856  -4.647   3.087  1.00  0.00     0.021 C 
BRANCH   2   3
ATOM      3  C   UNL     1       2.708  -3.646   3.107  1.00  0.00     0.116 C 
BRANCH   3   4
ATOM      4  N   UNL     1       3.040  -2.477   2.308  1.00  0.00    -0.355 N 
ATOM      5  C   UNL     1       2.450  -1.901   1.224  1.00  0.00     0.231 C 
ATOM      6  O   UNL     1       3.123  -1.031   0.665  1.00  0.00    -0.274 OA
ATOM      7  H   UNL     1       3.851  -2.009   2.612  1.00  0.00     0.163 HD
BRANCH   5   8
ATOM      8  C   UNL     1       1.043  -2.314   0.726  1.00  0.00     0.098 C 
ATOM      9  C   UNL     1       1.115  -3.762   0.172  1.00  0.00     0.028 C 
ATOM     10  C   UNL     1       0.055  -2.200   1.921  1.00  0.00     0.279 C 
ATOM     11  C   UNL     1      -0.248  -4.447   0.119  1.00  0.00     0.063 C 
ATOM     12  N   UNL     1      -1.202  -2.956   1.829  1.00  0.00    -0.330 N 
ATOM     13  C   UNL     1      -0.995  -4.352   1.450  1.00  0.00     0.262 C 
ATOM     14  H   UNL     1      -1.732  -2.542   1.061  1.00  0.00     0.348 HD
BRANCH   8  15
ATOM     15  C   UNL     1       0.565  -1.396  -0.449  1.00  0.00     0.019 C 
ATOM     16  C   UNL     1       0.642   0.117  -0.238  1.00  0.00     0.005 C 
ENDBRANCH   8  15
BRANCH  12  17
ATOM     17  C   UNL     1      -2.050  -2.794   3.036  1.00  0.00     0.302 C 
BRANCH  17  18
ATOM     18  C   UNL     1      -1.569  -3.390   4.349  1.00  0.00     0.046 A 
ATOM     19  C   UNL     1      -2.192  -4.526   4.898  1.00  0.00     0.059 A 
ATOM     20  C   UNL     1      -0.545  -2.798   5.098  1.00  0.00     0.132 A 
ATOM     21  C   UNL     1      -1.778  -5.053   6.132  1.00  0.00     0.119 A 
ATOM     22  C   UNL     1      -0.058  -3.377   6.267  1.00  0.00     0.043 A 
ATOM     23  F   UNL     1      -0.004  -1.635   4.712  1.00  0.00    -0.206 F 
ATOM     24  C   UNL     1      -0.667  -4.516   6.781  1.00  0.00     0.049 A 
BRANCH  21  25
ATOM     25  O   UNL     1      -2.529  -6.089   6.622  1.00  0.00    -0.497 OA
ATOM     26  C   UNL     1      -2.513  -6.229   8.043  1.00  0.00     0.278 C 
ENDBRANCH  21  25
ENDBRANCH  17  18
ENDBRANCH  12  17
ENDBRANCH   5   8
ENDBRANCH   3   4
ENDBRANCH   2   3
ENDBRANCH   1   2
BRANCH   1  27
ATOM     27  C   UNL     1       4.863  -3.803   5.308  1.00  0.00     0.002 C 
BRANCH  27  28
ATOM     28  C   UNL     1       4.202  -4.905   6.139  1.00  0.00     0.021 C 
BRANCH  28  29
ATOM     29  C   UNL     1       4.941  -6.237   6.112  1.00  0.00     0.116 C 
BRANCH  29  30
ATOM     30  N   UNL     1       6.283  -6.129   6.660  1.00  0.00    -0.352 N 
ATOM     31  C   UNL     1       6.893  -6.914   7.602  1.00  0.00     0.251 C 
ATOM     32  H   UNL     1       6.828  -5.391   6.304  1.00  0.00     0.163 HD
ATOM     33  O   UNL     1       7.966  -6.572   8.095  1.00  0.00    -0.269 OA
BRANCH  31  34
ATOM     34  C   UNL     1       6.245  -8.166   8.040  1.00  0.00     0.039 A 
ATOM     35  C   UNL     1       6.210  -8.469   9.402  1.00  0.00     0.014 A 
ATOM     36  C   UNL     1       5.679  -9.040   7.107  1.00  0.00     0.014 A 
ATOM     37  C   UNL     1       5.570  -9.632   9.834  1.00  0.00     0.010 A 
ATOM     38  C   UNL     1       4.971 -10.154   7.545  1.00  0.00     0.010 A 
ATOM     39  C   UNL     1       4.925 -10.471   8.911  1.00  0.00    -0.014 A 
BRANCH  39  40
ATOM     40  C   UNL     1       4.233 -11.709   9.350  1.00  0.00     0.031 A 
ATOM     41  C   UNL     1       4.735 -13.050   8.885  1.00  0.00     0.074 A 
ATOM     42  C   UNL     1       3.135 -11.627  10.125  1.00  0.00     0.049 A 
ATOM     43  N   UNL     1       4.235 -14.240   9.099  1.00  0.00    -0.248 NA
ATOM     44  C   UNL     1       5.945 -13.050   8.046  1.00  0.00     0.031 C 
ATOM     45  C   UNL     1       2.533 -10.386  10.616  1.00  0.00     0.029 A 
ATOM     46  N   UNL     1       2.326 -12.612  10.634  1.00  0.00    -0.354 N 
ATOM     47  C   UNL     1       5.063 -15.124   8.418  1.00  0.00     0.074 A 
ATOM     48  C   UNL     1       6.056 -14.331   7.729  1.00  0.00     0.031 C 
ATOM     49  C   UNL     1       1.468 -10.685  11.377  1.00  0.00     0.029 A 
ATOM     50  C   UNL     1       1.286 -12.133  11.394  1.00  0.00     0.049 A 
ATOM     51  H   UNL     1       2.477 -13.571  10.470  1.00  0.00     0.167 HD
ATOM     52  C   UNL     1       5.020 -16.478   8.393  1.00  0.00     0.037 A 
ATOM     53  C   UNL     1       0.297 -12.791  12.028  1.00  0.00     0.037 A 
ATOM     54  C   UNL     1       4.042 -17.266   9.094  1.00  0.00     0.049 A 
ATOM     55  C   UNL     1       0.254 -14.294  11.957  1.00  0.00     0.074 A 
ATOM     56  C   UNL     1       3.928 -18.644   9.155  1.00  0.00     0.029 A 
ATOM     57  N   UNL     1       3.010 -16.744   9.860  1.00  0.00    -0.354 N 
ATOM     58  N   UNL     1       1.072 -15.119  11.350  1.00  0.00    -0.248 NA
ATOM     59  C   UNL     1      -0.847 -14.958  12.669  1.00  0.00     0.031 C 
ATOM     60  C   UNL     1       2.801 -18.955   9.923  1.00  0.00     0.029 A 
ATOM     61  C   UNL     1       2.248 -17.773  10.388  1.00  0.00     0.049 A 
ATOM     62  H   UNL     1       2.845 -15.785  10.007  1.00  0.00     0.167 HD
ATOM     63  C   UNL     1       0.612 -16.397  11.644  1.00  0.00     0.074 A 
ATOM     64  C   UNL     1      -0.551 -16.237  12.491  1.00  0.00     0.031 C 
ATOM     65  C   UNL     1       1.109 -17.596  11.251  1.00  0.00     0.037 A 
BRANCH  52  66
ATOM     66  C   UNL     1       6.070 -17.190   7.590  1.00  0.00     0.057 A 
ATOM     67  C   UNL     1       7.415 -17.206   7.984  1.00  0.00     0.134 A 
ATOM     68  C   UNL     1       5.731 -17.898   6.430  1.00  0.00     0.134 A 
ATOM     69  F   UNL     1       7.811 -16.537   9.078  1.00  0.00    -0.206 F 
ATOM     70  C   UNL     1       8.387 -17.878   7.242  1.00  0.00     0.040 A 
ATOM     71  C   UNL     1       6.689 -18.599   5.696  1.00  0.00     0.040 A 
ATOM     72  F   UNL     1       4.461 -17.929   5.997  1.00  0.00    -0.206 F 
ATOM     73  C   UNL     1       8.023 -18.585   6.098  1.00  0.00     0.006 A 
ENDBRANCH  52  66
BRANCH  53  74
ATOM     74  C   UNL     1      -0.726 -12.045  12.807  1.00  0.00     0.057 A 
ATOM     75  C   UNL     1      -0.800 -12.164  14.200  1.00  0.00     0.134 A 
ATOM     76  C   UNL     1      -1.678 -11.232  12.180  1.00  0.00     0.134 A 
ATOM     77  F   UNL     1       0.073 -12.941  14.858  1.00  0.00    -0.206 F 
ATOM     78  C   UNL     1      -1.802 -11.533  14.938  1.00  0.00     0.040 A 
ATOM     79  C   UNL     1      -2.668 -10.571  12.909  1.00  0.00     0.040 A 
ATOM     80  F   UNL     1      -1.657 -11.065  10.850  1.00  0.00    -0.206 F 
ATOM     81  C   UNL     1      -2.740 -10.731  14.291  1.00  0.00     0.006 A 
ENDBRANCH  53  74
BRANCH  65  82
ATOM     82  C   UNL     1       0.440 -18.828  11.788  1.00  0.00     0.057 A 
ATOM     83  C   UNL     1      -0.839 -19.224  11.376  1.00  0.00     0.134 A 
ATOM     84  C   UNL     1       1.105 -19.648  12.710  1.00  0.00     0.134 A 
ATOM     85  F   UNL     1      -1.534 -18.478  10.505  1.00  0.00    -0.206 F 
ATOM     86  C   UNL     1      -1.444 -20.375  11.884  1.00  0.00     0.040 A 
ATOM     87  C   UNL     1       0.523 -20.818  13.200  1.00  0.00     0.040 A 
ATOM     88  F   UNL     1       2.336 -19.333  13.139  1.00  0.00    -0.206 F 
ATOM     89  C   UNL     1      -0.759 -21.179  12.793  1.00  0.00     0.006 A 
ENDBRANCH  65  82
ENDBRANCH  39  40
ENDBRANCH  31  34
ENDBRANCH  29  30
ENDBRANCH  28  29
ENDBRANCH  27  28
ENDBRANCH   1  27
TORSDOF 17
