REMARK SMILES CC[C@@H](NS(=O)(=O)c1cc(C)ccc1C)C(=O)NCCCCCCNC(=O)c1ccc(-c2c3nc(c(-c4c(F)cccc4F)c4ccc([nH]4)c(-c4c(F)cccc4F)c4nc(c(-c5c(F)cccc5F)c5ccc2[nH]5)C=C4)C=C3)cc1
REMARK SMILES IDX 21 1 20 2 19 3 18 4 16 5 17 6 3 8 2 9 1 10 4 11 5 13 6 14
REMARK SMILES IDX 7 15 8 16 9 17 14 18 10 19 13 20 15 21 11 22 12 23 22 24
REMARK SMILES IDX 23 25 24 26 25 27 26 28 27 30 28 31 29 32 81 33 30 34 80 35
REMARK SMILES IDX 31 36 32 37 33 38 74 39 34 40 79 41 73 42 75 43 35 44 78 45
REMARK SMILES IDX 72 46 71 47 36 49 62 50 45 51 61 52 46 53 49 54 60 55 76 56
REMARK SMILES IDX 47 57 48 58 59 60 77 61 50 62 37 63 38 64 43 65 39 66 40 67
REMARK SMILES IDX 42 68 44 69 41 70 63 71 64 72 69 73 65 74 66 75 68 76 70 77
REMARK SMILES IDX 67 78 51 79 52 80 57 81 53 82 54 83 56 84 58 85 55 86
REMARK H PARENT 18 7 4 12 25 29 75 48 49 59
REMARK Flexibility Score: inf
ROOT
ATOM      1  C   UNL     1      -3.896   4.073   1.271  1.00  0.00     0.002 C 
ENDROOT
BRANCH   1   2
ATOM      2  C   UNL     1      -3.164   2.741   1.060  1.00  0.00     0.021 C 
BRANCH   2   3
ATOM      3  C   UNL     1      -1.989   2.814   0.091  1.00  0.00     0.116 C 
BRANCH   3   4
ATOM      4  N   UNL     1      -0.876   3.583   0.637  1.00  0.00    -0.355 N 
ATOM      5  C   UNL     1       0.468   3.518   0.375  1.00  0.00     0.238 C 
ATOM      6  O   UNL     1       1.199   4.366   0.891  1.00  0.00    -0.273 OA
ATOM      7  H   UNL     1      -1.133   4.260   1.304  1.00  0.00     0.163 HD
BRANCH   5   8
ATOM      8  C   UNL     1       1.046   2.406  -0.505  1.00  0.00     0.158 C 
BRANCH   8   9
ATOM      9  C   UNL     1       0.909   1.071   0.254  1.00  0.00     0.027 C 
ATOM     10  C   UNL     1       1.430  -0.160  -0.467  1.00  0.00     0.006 C 
ENDBRANCH   8   9
BRANCH   8  11
ATOM     11  N   UNL     1       0.373   2.438  -1.830  1.00  0.00    -0.199 NA
ATOM     12  H   UNL     1      -0.571   2.795  -1.681  1.00  0.00     0.142 HD
BRANCH  11  13
ATOM     13  S   UNL     1       1.073   3.373  -3.071  1.00  0.00     0.241 S 
ATOM     14  O   UNL     1       2.499   3.201  -2.953  1.00  0.00    -0.207 OA
ATOM     15  O   UNL     1       0.361   2.970  -4.271  1.00  0.00    -0.207 OA
BRANCH  13  16
ATOM     16  C   UNL     1       0.663   5.092  -2.797  1.00  0.00     0.085 A 
ATOM     17  C   UNL     1      -0.466   5.413  -2.038  1.00  0.00     0.025 A 
ATOM     18  C   UNL     1       1.475   6.130  -3.291  1.00  0.00    -0.031 A 
ATOM     19  C   UNL     1      -0.709   6.724  -1.605  1.00  0.00    -0.050 A 
ATOM     20  C   UNL     1       1.192   7.453  -2.898  1.00  0.00     0.005 A 
ATOM     21  C   UNL     1       2.635   5.933  -4.224  1.00  0.00     0.046 C 
ATOM     22  C   UNL     1      -1.841   7.043  -0.678  1.00  0.00     0.044 C 
ATOM     23  C   UNL     1       0.125   7.745  -2.052  1.00  0.00     0.004 A 
ENDBRANCH  13  16
ENDBRANCH  11  13
ENDBRANCH   8  11
ENDBRANCH   5   8
ENDBRANCH   3   4
ENDBRANCH   2   3
ENDBRANCH   1   2
BRANCH   1  24
ATOM     24  C   UNL     1      -4.531   4.719   0.025  1.00  0.00     0.002 C 
BRANCH  24  25
ATOM     25  C   UNL     1      -5.505   3.870  -0.792  1.00  0.00     0.021 C 
BRANCH  25  26
ATOM     26  C   UNL     1      -6.642   3.286   0.020  1.00  0.00     0.116 C 
BRANCH  26  27
ATOM     27  N   UNL     1      -7.692   4.221   0.405  1.00  0.00    -0.352 N 
ATOM     28  C   UNL     1      -8.558   4.175   1.487  1.00  0.00     0.251 C 
ATOM     29  H   UNL     1      -7.802   4.999  -0.189  1.00  0.00     0.163 HD
ATOM     30  O   UNL     1      -9.452   5.006   1.606  1.00  0.00    -0.269 OA
BRANCH  28  31
ATOM     31  C   UNL     1      -8.325   3.182   2.561  1.00  0.00     0.039 A 
ATOM     32  C   UNL     1      -8.365   3.589   3.900  1.00  0.00     0.014 A 
ATOM     33  C   UNL     1      -7.861   1.918   2.236  1.00  0.00     0.014 A 
ATOM     34  C   UNL     1      -7.741   2.808   4.874  1.00  0.00     0.010 A 
ATOM     35  C   UNL     1      -7.085   1.249   3.154  1.00  0.00     0.010 A 
ATOM     36  C   UNL     1      -7.020   1.679   4.480  1.00  0.00    -0.014 A 
BRANCH  36  37
ATOM     37  C   UNL     1      -6.336   0.821   5.446  1.00  0.00     0.031 A 
ATOM     38  C   UNL     1      -6.974  -0.512   5.643  1.00  0.00     0.074 A 
ATOM     39  C   UNL     1      -5.098   1.019   5.934  1.00  0.00     0.049 A 
ATOM     40  N   UNL     1      -7.765  -0.891   6.595  1.00  0.00    -0.248 NA
ATOM     41  C   UNL     1      -6.864  -1.485   4.542  1.00  0.00     0.031 C 
ATOM     42  C   UNL     1      -4.104   2.013   5.535  1.00  0.00     0.029 A 
ATOM     43  N   UNL     1      -4.428   0.253   6.843  1.00  0.00    -0.354 N 
ATOM     44  C   UNL     1      -8.108  -2.203   6.271  1.00  0.00     0.074 A 
ATOM     45  C   UNL     1      -7.819  -2.348   4.876  1.00  0.00     0.031 C 
ATOM     46  C   UNL     1      -2.903   1.671   6.062  1.00  0.00     0.029 A 
ATOM     47  C   UNL     1      -3.065   0.501   6.915  1.00  0.00     0.049 A 
ATOM     48  H   UNL     1      -4.875  -0.422   7.402  1.00  0.00     0.167 HD
ATOM     49  C   UNL     1      -8.282  -3.174   7.210  1.00  0.00     0.037 A 
ATOM     50  C   UNL     1      -2.151  -0.254   7.578  1.00  0.00     0.037 A 
ATOM     51  C   UNL     1      -8.383  -2.600   8.530  1.00  0.00     0.049 A 
ATOM     52  C   UNL     1      -2.885  -1.150   8.511  1.00  0.00     0.074 A 
ATOM     53  C   UNL     1      -9.174  -1.634   9.124  1.00  0.00     0.029 A 
ATOM     54  N   UNL     1      -7.321  -2.778   9.385  1.00  0.00    -0.354 N 
ATOM     55  N   UNL     1      -3.475  -0.762   9.605  1.00  0.00    -0.248 NA
ATOM     56  C   UNL     1      -3.284  -2.464   8.025  1.00  0.00     0.031 C 
ATOM     57  C   UNL     1      -8.312  -0.953  10.035  1.00  0.00     0.029 A 
ATOM     58  C   UNL     1      -7.063  -1.570   9.975  1.00  0.00     0.049 A 
ATOM     59  H   UNL     1      -6.835  -3.619   9.543  1.00  0.00     0.167 HD
ATOM     60  C   UNL     1      -4.601  -1.564   9.705  1.00  0.00     0.074 A 
ATOM     61  C   UNL     1      -4.366  -2.667   8.780  1.00  0.00     0.031 C 
ATOM     62  C   UNL     1      -5.737  -1.107  10.307  1.00  0.00     0.037 A 
BRANCH  49  63
ATOM     63  C   UNL     1      -7.974  -4.652   6.997  1.00  0.00     0.057 A 
ATOM     64  C   UNL     1      -8.277  -5.555   8.034  1.00  0.00     0.134 A 
ATOM     65  C   UNL     1      -7.184  -5.203   5.963  1.00  0.00     0.134 A 
ATOM     66  F   UNL     1      -9.027  -5.177   9.080  1.00  0.00    -0.206 F 
ATOM     67  C   UNL     1      -7.753  -6.853   8.089  1.00  0.00     0.040 A 
ATOM     68  C   UNL     1      -6.709  -6.518   5.977  1.00  0.00     0.040 A 
ATOM     69  F   UNL     1      -6.735  -4.500   4.920  1.00  0.00    -0.206 F 
ATOM     70  C   UNL     1      -6.957  -7.337   7.061  1.00  0.00     0.006 A 
ENDBRANCH  49  63
BRANCH  50  71
ATOM     71  C   UNL     1      -0.699  -0.434   7.344  1.00  0.00     0.057 A 
ATOM     72  C   UNL     1       0.123  -1.006   8.329  1.00  0.00     0.134 A 
ATOM     73  C   UNL     1      -0.127  -0.302   6.069  1.00  0.00     0.134 A 
ATOM     74  F   UNL     1      -0.339  -1.208   9.572  1.00  0.00    -0.206 F 
ATOM     75  C   UNL     1       1.422  -1.451   8.055  1.00  0.00     0.040 A 
ATOM     76  C   UNL     1       1.175  -0.730   5.784  1.00  0.00     0.040 A 
ATOM     77  F   UNL     1      -0.840   0.162   5.032  1.00  0.00    -0.206 F 
ATOM     78  C   UNL     1       1.949  -1.323   6.775  1.00  0.00     0.006 A 
ENDBRANCH  50  71
BRANCH  62  79
ATOM     79  C   UNL     1      -5.640   0.126  11.157  1.00  0.00     0.057 A 
ATOM     80  C   UNL     1      -5.233   1.382  10.683  1.00  0.00     0.134 A 
ATOM     81  C   UNL     1      -6.102   0.065  12.477  1.00  0.00     0.134 A 
ATOM     82  F   UNL     1      -4.878   1.562   9.403  1.00  0.00    -0.206 F 
ATOM     83  C   UNL     1      -5.233   2.512  11.505  1.00  0.00     0.040 A 
ATOM     84  C   UNL     1      -6.145   1.195  13.296  1.00  0.00     0.040 A 
ATOM     85  F   UNL     1      -6.559  -1.092  12.982  1.00  0.00    -0.206 F 
ATOM     86  C   UNL     1      -5.696   2.421  12.815  1.00  0.00     0.006 A 
ENDBRANCH  62  79
ENDBRANCH  36  37
ENDBRANCH  28  31
ENDBRANCH  26  27
ENDBRANCH  25  26
ENDBRANCH  24  25
ENDBRANCH   1  24
TORSDOF 17
