REMARK SMILES O=C(NCCCCCCNC(=O)c1cc(-c2ccn(C(F)F)c(=O)c2)ccc1O)c1ccc(-c2c3nc(c(-c4c(F)cccc4F)c4ccc([nH]4)c(-c4c(F)cccc4F)c4nc(c(-c5c(F)cccc5F)c5ccc2[nH]5)C=C4)C=C3)cc1
REMARK SMILES IDX 6 1 5 2 4 3 3 4 1 5 2 6 30 8 31 9 83 10 32 11 82 12 33 13
REMARK SMILES IDX 34 14 35 15 76 16 36 17 81 18 75 19 77 20 37 21 80 22 74 23
REMARK SMILES IDX 73 24 38 26 64 27 47 28 63 29 48 30 51 31 62 32 78 33 49 34
REMARK SMILES IDX 50 35 61 37 79 38 52 39 39 40 40 41 45 42 41 43 42 44 44 45
REMARK SMILES IDX 46 46 43 47 65 48 66 49 71 50 67 51 68 52 70 53 72 54 69 55
REMARK SMILES IDX 53 56 54 57 59 58 55 59 56 60 58 61 60 62 57 63 7 64 8 65
REMARK SMILES IDX 9 66 10 67 11 68 12 70 13 71 14 72 28 73 15 74 27 75 26 76
REMARK SMILES IDX 29 77 16 79 17 80 25 81 18 82 23 83 19 84 24 85 20 86 21 87
REMARK SMILES IDX 22 88
REMARK H PARENT 3 7 77 25 51 36 10 69 29 78
REMARK Flexibility Score: inf
ROOT
ATOM      1  C   UNL     1       4.279   0.087  -3.901  1.00  0.00     0.002 C 
ENDROOT
BRANCH   1   2
ATOM      2  C   UNL     1       4.766  -0.596  -2.622  1.00  0.00     0.021 C 
BRANCH   2   3
ATOM      3  C   UNL     1       4.505   0.174  -1.333  1.00  0.00     0.116 C 
BRANCH   3   4
ATOM      4  N   UNL     1       3.090   0.378  -1.081  1.00  0.00    -0.352 N 
ATOM      5  O   UNL     1       1.135   0.231   0.026  1.00  0.00    -0.269 OA
ATOM      6  C   UNL     1       2.363   0.134   0.054  1.00  0.00     0.251 C 
ATOM      7  H   UNL     1       2.578   0.746  -1.836  1.00  0.00     0.163 HD
BRANCH   6   8
ATOM      8  C   UNL     1       3.034  -0.259   1.313  1.00  0.00     0.039 A 
ATOM      9  C   UNL     1       2.436  -1.235   2.116  1.00  0.00     0.014 A 
ATOM     10  C   UNL     1       4.213   0.362   1.735  1.00  0.00     0.014 A 
ATOM     11  C   UNL     1       3.029  -1.602   3.326  1.00  0.00     0.010 A 
ATOM     12  C   UNL     1       4.847  -0.062   2.900  1.00  0.00     0.010 A 
ATOM     13  C   UNL     1       4.244  -1.024   3.724  1.00  0.00    -0.014 A 
BRANCH  13  14
ATOM     14  C   UNL     1       4.849  -1.344   5.043  1.00  0.00     0.031 A 
ATOM     15  C   UNL     1       4.954  -0.268   6.092  1.00  0.00     0.074 A 
ATOM     16  C   UNL     1       5.323  -2.579   5.294  1.00  0.00     0.049 A 
ATOM     17  N   UNL     1       5.487  -0.321   7.287  1.00  0.00    -0.248 NA
ATOM     18  C   UNL     1       4.409   1.053   5.739  1.00  0.00     0.031 C 
ATOM     19  C   UNL     1       5.301  -3.703   4.357  1.00  0.00     0.029 A 
ATOM     20  N   UNL     1       5.913  -3.094   6.420  1.00  0.00    -0.354 N 
ATOM     21  C   UNL     1       5.359   0.958   7.814  1.00  0.00     0.074 A 
ATOM     22  C   UNL     1       4.757   1.780   6.788  1.00  0.00     0.031 C 
ATOM     23  C   UNL     1       5.820  -4.786   4.961  1.00  0.00     0.029 A 
ATOM     24  C   UNL     1       6.243  -4.423   6.310  1.00  0.00     0.049 A 
ATOM     25  H   UNL     1       6.085  -2.561   7.230  1.00  0.00     0.167 HD
ATOM     26  C   UNL     1       5.685   1.406   9.051  1.00  0.00     0.037 A 
ATOM     27  C   UNL     1       6.819  -5.251   7.202  1.00  0.00     0.037 A 
ATOM     28  C   UNL     1       6.253   0.582  10.084  1.00  0.00     0.049 A 
ATOM     29  C   UNL     1       7.198  -4.723   8.559  1.00  0.00     0.074 A 
ATOM     30  C   UNL     1       6.570   0.923  11.386  1.00  0.00     0.029 A 
ATOM     31  N   UNL     1       6.587  -0.755   9.927  1.00  0.00    -0.354 N 
ATOM     32  N   UNL     1       7.024  -3.525   9.062  1.00  0.00    -0.248 NA
ATOM     33  C   UNL     1       7.854  -5.669   9.472  1.00  0.00     0.031 C 
ATOM     34  C   UNL     1       7.135  -0.198  12.007  1.00  0.00     0.029 A 
ATOM     35  C   UNL     1       7.128  -1.248  11.103  1.00  0.00     0.049 A 
ATOM     36  H   UNL     1       6.459  -1.277   9.102  1.00  0.00     0.167 HD
ATOM     37  C   UNL     1       7.519  -3.582  10.359  1.00  0.00     0.074 A 
ATOM     38  C   UNL     1       7.986  -4.937  10.568  1.00  0.00     0.031 C 
ATOM     39  C   UNL     1       7.584  -2.602  11.294  1.00  0.00     0.037 A 
BRANCH  26  40
ATOM     40  C   UNL     1       5.429   2.857   9.341  1.00  0.00     0.057 A 
ATOM     41  C   UNL     1       6.494   3.753   9.500  1.00  0.00     0.134 A 
ATOM     42  C   UNL     1       4.130   3.372   9.454  1.00  0.00     0.134 A 
ATOM     43  F   UNL     1       7.763   3.327   9.411  1.00  0.00    -0.206 F 
ATOM     44  C   UNL     1       6.275   5.109   9.749  1.00  0.00     0.040 A 
ATOM     45  C   UNL     1       3.899   4.731   9.673  1.00  0.00     0.040 A 
ATOM     46  F   UNL     1       3.065   2.571   9.297  1.00  0.00    -0.206 F 
ATOM     47  C   UNL     1       4.974   5.604   9.824  1.00  0.00     0.006 A 
ENDBRANCH  26  40
BRANCH  27  48
ATOM     48  C   UNL     1       7.050  -6.678   6.862  1.00  0.00     0.057 A 
ATOM     49  C   UNL     1       8.023  -7.066   5.936  1.00  0.00     0.134 A 
ATOM     50  C   UNL     1       6.319  -7.691   7.495  1.00  0.00     0.134 A 
ATOM     51  F   UNL     1       8.755  -6.144   5.293  1.00  0.00    -0.206 F 
ATOM     52  C   UNL     1       8.264  -8.412   5.650  1.00  0.00     0.040 A 
ATOM     53  C   UNL     1       6.566  -9.041   7.237  1.00  0.00     0.040 A 
ATOM     54  F   UNL     1       5.388  -7.381   8.409  1.00  0.00    -0.206 F 
ATOM     55  C   UNL     1       7.540  -9.403   6.310  1.00  0.00     0.006 A 
ENDBRANCH  27  48
BRANCH  39  56
ATOM     56  C   UNL     1       8.146  -2.977  12.633  1.00  0.00     0.057 A 
ATOM     57  C   UNL     1       7.312  -3.075  13.754  1.00  0.00     0.134 A 
ATOM     58  C   UNL     1       9.511  -3.232  12.817  1.00  0.00     0.134 A 
ATOM     59  F   UNL     1       5.997  -2.835  13.649  1.00  0.00    -0.206 F 
ATOM     60  C   UNL     1       7.816  -3.418  15.010  1.00  0.00     0.040 A 
ATOM     61  C   UNL     1      10.022  -3.604  14.062  1.00  0.00     0.040 A 
ATOM     62  F   UNL     1      10.361  -3.171  11.780  1.00  0.00    -0.206 F 
ATOM     63  C   UNL     1       9.173  -3.692  15.164  1.00  0.00     0.006 A 
ENDBRANCH  39  56
ENDBRANCH  13  14
ENDBRANCH   6   8
ENDBRANCH   3   4
ENDBRANCH   2   3
ENDBRANCH   1   2
BRANCH   1  64
ATOM     64  C   UNL     1       4.785   1.515  -4.125  1.00  0.00     0.002 C 
BRANCH  64  65
ATOM     65  C   UNL     1       6.303   1.700  -4.063  1.00  0.00     0.021 C 
BRANCH  65  66
ATOM     66  C   UNL     1       7.107   0.800  -4.997  1.00  0.00     0.116 C 
BRANCH  66  67
ATOM     67  N   UNL     1       6.811   1.050  -6.394  1.00  0.00    -0.352 N 
ATOM     68  C   UNL     1       7.689   1.178  -7.439  1.00  0.00     0.255 C 
ATOM     69  H   UNL     1       5.857   1.139  -6.622  1.00  0.00     0.163 HD
ATOM     70  O   UNL     1       7.279   1.458  -8.566  1.00  0.00    -0.269 OA
BRANCH  68  71
ATOM     71  C   UNL     1       9.142   1.059  -7.206  1.00  0.00     0.082 A 
ATOM     72  C   UNL     1       9.940   2.159  -7.552  1.00  0.00     0.026 A 
ATOM     73  C   UNL     1       9.729  -0.103  -6.692  1.00  0.00     0.128 A 
ATOM     74  C   UNL     1      11.321   2.115  -7.338  1.00  0.00    -0.017 A 
ATOM     75  C   UNL     1      11.103  -0.147  -6.464  1.00  0.00     0.047 A 
ATOM     76  C   UNL     1      11.891   0.961  -6.779  1.00  0.00     0.012 A 
BRANCH  73  77
ATOM     77  O   UNL     1       8.968  -1.201  -6.406  1.00  0.00    -0.507 OA
ATOM     78  H   UNL     1       8.043  -1.182  -6.556  1.00  0.00     0.293 HD
ENDBRANCH  73  77
BRANCH  74  79
ATOM     79  C   UNL     1      12.199   3.242  -7.704  1.00  0.00    -0.011 A 
ATOM     80  C   UNL     1      13.233   3.111  -8.713  1.00  0.00     0.027 A 
ATOM     81  C   UNL     1      12.076   4.405  -7.042  1.00  0.00     0.080 A 
ATOM     82  C   UNL     1      14.089   4.112  -8.945  1.00  0.00     0.095 A 
ATOM     83  C   UNL     1      13.013   5.536  -7.301  1.00  0.00     0.255 A 
ATOM     84  N   UNL     1      13.999   5.300  -8.246  1.00  0.00    -0.258 N 
ATOM     85  O   UNL     1      12.870   6.572  -6.661  1.00  0.00    -0.269 OA
BRANCH  84  86
ATOM     86  C   UNL     1      14.963   6.349  -8.464  1.00  0.00     0.451 C 
ATOM     87  F   UNL     1      14.363   7.497  -8.857  1.00  0.00    -0.185 F 
ATOM     88  F   UNL     1      15.661   6.604  -7.330  1.00  0.00    -0.185 F 
ENDBRANCH  84  86
ENDBRANCH  74  79
ENDBRANCH  68  71
ENDBRANCH  66  67
ENDBRANCH  65  66
ENDBRANCH  64  65
ENDBRANCH   1  64
TORSDOF 16
