REMARK SMILES CC[C@H]1CCCC[C@@H]1C1(C(=O)NCCCCCCNC(=O)c2ccc(-c3c4nc(c(-c5c(F)cccc5F)c5ccc([nH]5)c(-c5c(F)cccc5F)c5nc(c(-c6c(F)cccc6F)c6ccc3[nH]6)C=C5)C=C4)cc2)CC1
REMARK SMILES IDX 15 1 14 2 13 3 12 4 10 5 11 6 9 8 76 9 77 10 8 11 3 12 4 13
REMARK SMILES IDX 5 14 7 15 6 16 2 17 1 18 16 19 17 20 18 21 19 22 20 23 21 25
REMARK SMILES IDX 22 26 23 27 75 28 24 29 74 30 25 31 26 32 27 33 68 34 28 35
REMARK SMILES IDX 73 36 67 37 69 38 29 39 72 40 66 41 65 42 30 44 56 45 39 46
REMARK SMILES IDX 55 47 40 48 43 49 54 50 70 51 41 52 42 53 53 55 71 56 44 57
REMARK SMILES IDX 31 58 32 59 37 60 33 61 34 62 36 63 38 64 35 65 57 66 58 67
REMARK SMILES IDX 63 68 59 69 60 70 62 71 64 72 61 73 45 74 46 75 51 76 47 77
REMARK SMILES IDX 48 78 50 79 52 80 49 81
REMARK H PARENT 12 7 19 24 69 43 43 54
REMARK Flexibility Score: inf
ROOT
ATOM      1  C   UNL     1       6.572  -3.480   2.166  1.00  0.00     0.002 C 
ENDROOT
BRANCH   1   2
ATOM      2  C   UNL     1       5.105  -3.219   2.542  1.00  0.00     0.021 C 
BRANCH   2   3
ATOM      3  C   UNL     1       4.629  -1.786   2.322  1.00  0.00     0.116 C 
BRANCH   3   4
ATOM      4  N   UNL     1       4.822  -1.334   0.968  1.00  0.00    -0.356 N 
ATOM      5  C   UNL     1       3.993  -1.084  -0.081  1.00  0.00     0.226 C 
ATOM      6  O   UNL     1       4.488  -0.449  -1.014  1.00  0.00    -0.274 OA
ATOM      7  H   UNL     1       5.768  -1.168   0.753  1.00  0.00     0.163 HD
BRANCH   5   8
ATOM      8  C   UNL     1       2.542  -1.531  -0.190  1.00  0.00     0.052 C 
ATOM      9  C   UNL     1       1.601  -0.640   0.640  1.00  0.00     0.018 C 
ATOM     10  C   UNL     1       1.685  -2.100   0.930  1.00  0.00     0.018 C 
BRANCH   8  11
ATOM     11  C   UNL     1       2.191  -2.042  -1.632  1.00  0.00     0.008 C 
ATOM     12  C   UNL     1       0.759  -1.792  -2.174  1.00  0.00    -0.007 C 
ATOM     13  C   UNL     1      -0.234  -2.933  -1.887  1.00  0.00     0.004 C 
ATOM     14  C   UNL     1       0.317  -4.331  -2.123  1.00  0.00     0.000 C 
ATOM     15  C   UNL     1       2.678  -3.500  -1.794  1.00  0.00     0.005 C 
ATOM     16  C   UNL     1       1.645  -4.554  -1.417  1.00  0.00     0.000 C 
BRANCH  12  17
ATOM     17  C   UNL     1       0.734  -1.382  -3.678  1.00  0.00     0.000 C 
ATOM     18  C   UNL     1       1.646  -2.124  -4.643  1.00  0.00     0.004 C 
ENDBRANCH  12  17
ENDBRANCH   8  11
ENDBRANCH   5   8
ENDBRANCH   3   4
ENDBRANCH   2   3
ENDBRANCH   1   2
BRANCH   1  19
ATOM     19  C   UNL     1       7.595  -2.451   2.664  1.00  0.00     0.002 C 
BRANCH  19  20
ATOM     20  C   UNL     1       7.553  -2.145   4.160  1.00  0.00     0.021 C 
BRANCH  20  21
ATOM     21  C   UNL     1       7.795  -3.348   5.056  1.00  0.00     0.116 C 
BRANCH  21  22
ATOM     22  N   UNL     1       9.161  -3.835   4.965  1.00  0.00    -0.352 N 
ATOM     23  C   UNL     1      10.042  -4.090   5.987  1.00  0.00     0.251 C 
ATOM     24  H   UNL     1       9.498  -4.005   4.055  1.00  0.00     0.163 HD
ATOM     25  O   UNL     1      11.223  -4.329   5.758  1.00  0.00    -0.269 OA
BRANCH  23  26
ATOM     26  C   UNL     1       9.550  -4.044   7.379  1.00  0.00     0.039 A 
ATOM     27  C   UNL     1      10.248  -3.292   8.326  1.00  0.00     0.014 A 
ATOM     28  C   UNL     1       8.370  -4.707   7.727  1.00  0.00     0.014 A 
ATOM     29  C   UNL     1       9.725  -3.151   9.613  1.00  0.00     0.010 A 
ATOM     30  C   UNL     1       7.811  -4.500   8.982  1.00  0.00     0.010 A 
ATOM     31  C   UNL     1       8.485  -3.725   9.939  1.00  0.00    -0.014 A 
BRANCH  31  32
ATOM     32  C   UNL     1       7.869  -3.544  11.276  1.00  0.00     0.031 A 
ATOM     33  C   UNL     1       7.627  -4.740  12.152  1.00  0.00     0.074 A 
ATOM     34  C   UNL     1       7.437  -2.328  11.657  1.00  0.00     0.049 A 
ATOM     35  N   UNL     1       6.988  -4.818  13.291  1.00  0.00    -0.248 NA
ATOM     36  C   UNL     1       8.143  -6.028  11.662  1.00  0.00     0.031 C 
ATOM     37  C   UNL     1       7.568  -1.098  10.875  1.00  0.00     0.029 A 
ATOM     38  N   UNL     1       6.778  -1.931  12.794  1.00  0.00    -0.354 N 
ATOM     39  C   UNL     1       7.001  -6.163  13.638  1.00  0.00     0.074 A 
ATOM     40  C   UNL     1       7.664  -6.870  12.564  1.00  0.00     0.031 C 
ATOM     41  C   UNL     1       7.017  -0.082  11.559  1.00  0.00     0.029 A 
ATOM     42  C   UNL     1       6.459  -0.595  12.806  1.00  0.00     0.049 A 
ATOM     43  H   UNL     1       6.555  -2.545  13.530  1.00  0.00     0.167 HD
ATOM     44  C   UNL     1       6.521  -6.753  14.758  1.00  0.00     0.037 A 
ATOM     45  C   UNL     1       5.780   0.131  13.714  1.00  0.00     0.037 A 
ATOM     46  C   UNL     1       5.887  -6.039  15.835  1.00  0.00     0.049 A 
ATOM     47  C   UNL     1       5.262  -0.540  14.955  1.00  0.00     0.074 A 
ATOM     48  C   UNL     1       5.431  -6.531  17.046  1.00  0.00     0.029 A 
ATOM     49  N   UNL     1       5.615  -4.679  15.828  1.00  0.00    -0.354 N 
ATOM     50  N   UNL     1       5.339  -1.801  15.304  1.00  0.00    -0.248 NA
ATOM     51  C   UNL     1       4.570   0.313  15.930  1.00  0.00     0.031 C 
ATOM     52  C   UNL     1       4.840  -5.477  17.750  1.00  0.00     0.029 A 
ATOM     53  C   UNL     1       4.975  -4.318  17.002  1.00  0.00     0.049 A 
ATOM     54  H   UNL     1       5.842  -4.061  15.096  1.00  0.00     0.167 HD
ATOM     55  C   UNL     1       4.731  -1.890  16.550  1.00  0.00     0.074 A 
ATOM     56  C   UNL     1       4.298  -0.552  16.898  1.00  0.00     0.031 C 
ATOM     57  C   UNL     1       4.552  -2.981  17.335  1.00  0.00     0.037 A 
BRANCH  44  58
ATOM     58  C   UNL     1       6.660  -8.245  14.862  1.00  0.00     0.057 A 
ATOM     59  C   UNL     1       7.907  -8.867  15.010  1.00  0.00     0.134 A 
ATOM     60  C   UNL     1       5.530  -9.071  14.814  1.00  0.00     0.134 A 
ATOM     61  F   UNL     1       9.031  -8.135  15.051  1.00  0.00    -0.206 F 
ATOM     62  C   UNL     1       8.029 -10.256  15.064  1.00  0.00     0.040 A 
ATOM     63  C   UNL     1       5.637 -10.460  14.899  1.00  0.00     0.040 A 
ATOM     64  F   UNL     1       4.304  -8.543  14.680  1.00  0.00    -0.206 F 
ATOM     65  C   UNL     1       6.891 -11.057  15.013  1.00  0.00     0.006 A 
ENDBRANCH  44  58
BRANCH  45  66
ATOM     66  C   UNL     1       5.575   1.583  13.486  1.00  0.00     0.057 A 
ATOM     67  C   UNL     1       6.271   2.536  14.237  1.00  0.00     0.134 A 
ATOM     68  C   UNL     1       4.702   2.053  12.497  1.00  0.00     0.134 A 
ATOM     69  F   UNL     1       7.109   2.147  15.210  1.00  0.00    -0.206 F 
ATOM     70  C   UNL     1       6.102   3.904  14.020  1.00  0.00     0.040 A 
ATOM     71  C   UNL     1       4.540   3.417  12.254  1.00  0.00     0.040 A 
ATOM     72  F   UNL     1       4.013   1.189  11.737  1.00  0.00    -0.206 F 
ATOM     73  C   UNL     1       5.239   4.348  13.020  1.00  0.00     0.006 A 
ENDBRANCH  45  66
BRANCH  57  74
ATOM     74  C   UNL     1       3.889  -2.770  18.665  1.00  0.00     0.057 A 
ATOM     75  C   UNL     1       2.519  -2.504  18.777  1.00  0.00     0.134 A 
ATOM     76  C   UNL     1       4.626  -2.884  19.852  1.00  0.00     0.134 A 
ATOM     77  F   UNL     1       1.760  -2.370  17.679  1.00  0.00    -0.206 F 
ATOM     78  C   UNL     1       1.908  -2.341  20.022  1.00  0.00     0.040 A 
ATOM     79  C   UNL     1       4.022  -2.749  21.102  1.00  0.00     0.040 A 
ATOM     80  F   UNL     1       5.941  -3.146  19.814  1.00  0.00    -0.206 F 
ATOM     81  C   UNL     1       2.659  -2.472  21.189  1.00  0.00     0.006 A 
ENDBRANCH  57  74
ENDBRANCH  31  32
ENDBRANCH  23  26
ENDBRANCH  21  22
ENDBRANCH  20  21
ENDBRANCH  19  20
ENDBRANCH   1  19
TORSDOF 15
