REMARK SMILES CS(=O)(=O)c1ccc(-c2cc(Cl)cnc2-c2ccc(C(=O)NCCCCCCNC(=O)c3ccc(-c4c5nc(c(-c6c(F)cccc6F)c6ccc([nH]6)c(-c6c(F)cccc6F)c6nc(c(-c7c(F)cccc7F)c7ccc4[nH]7)C=C6)C=C5)cc3)nc2)cc1
REMARK SMILES IDX 25 1 24 2 23 3 22 4 20 5 21 6 19 8 16 9 17 10 87 11 18 12
REMARK SMILES IDX 86 13 15 14 9 15 10 16 11 17 14 18 12 19 13 20 8 21 5 22
REMARK SMILES IDX 6 23 89 24 7 25 88 26 2 27 1 28 3 29 4 30 26 31 27 32 28 33
REMARK SMILES IDX 29 34 30 35 31 37 32 38 33 39 85 40 34 41 84 42 35 43 36 44
REMARK SMILES IDX 37 45 78 46 38 47 83 48 77 49 79 50 39 51 82 52 76 53 75 54
REMARK SMILES IDX 40 56 66 57 49 58 65 59 50 60 53 61 64 62 80 63 51 64 52 65
REMARK SMILES IDX 63 67 81 68 54 69 41 70 42 71 47 72 43 73 44 74 46 75 48 76
REMARK SMILES IDX 45 77 67 78 68 79 73 80 69 81 70 82 72 83 74 84 71 85 55 86
REMARK SMILES IDX 56 87 61 88 57 89 58 90 60 91 62 92 59 93
REMARK H PARENT 22 7 29 36 79 55 53 66
REMARK Flexibility Score: inf
ROOT
ATOM      1  C   UNL     1       6.769  -2.087  -3.837  1.00  0.00     0.002 C 
ENDROOT
BRANCH   1   2
ATOM      2  C   UNL     1       6.284  -2.752  -2.541  1.00  0.00     0.021 C 
BRANCH   2   3
ATOM      3  C   UNL     1       4.763  -2.723  -2.372  1.00  0.00     0.116 C 
BRANCH   3   4
ATOM      4  N   UNL     1       4.148  -3.751  -3.187  1.00  0.00    -0.351 N 
ATOM      5  C   UNL     1       3.621  -4.989  -2.895  1.00  0.00     0.269 C 
ATOM      6  O   UNL     1       3.168  -5.630  -3.845  1.00  0.00    -0.268 OA
ATOM      7  H   UNL     1       4.097  -3.517  -4.142  1.00  0.00     0.163 HD
BRANCH   5   8
ATOM      8  C   UNL     1       3.530  -5.544  -1.499  1.00  0.00     0.128 A 
ATOM      9  C   UNL     1       3.055  -6.511   1.052  1.00  0.00     0.019 A 
ATOM     10  C   UNL     1       4.173  -5.711   0.804  1.00  0.00     0.014 A 
ATOM     11  C   UNL     1       2.278  -6.856  -0.046  1.00  0.00     0.122 A 
ATOM     12  C   UNL     1       4.434  -5.249  -0.488  1.00  0.00     0.035 A 
ATOM     13  N   UNL     1       2.470  -6.370  -1.294  1.00  0.00    -0.250 NA
BRANCH   9  14
ATOM     14  C   UNL     1       2.686  -6.915   2.409  1.00  0.00     0.080 A 
ATOM     15  C   UNL     1       2.049  -6.035   3.312  1.00  0.00     0.010 A 
ATOM     16  C   UNL     1       1.818  -6.513   4.613  1.00  0.00     0.033 A 
ATOM     17  C   UNL     1       2.200  -7.804   4.961  1.00  0.00     0.060 A 
ATOM     18  N   UNL     1       3.049  -8.184   2.732  1.00  0.00    -0.254 NA
ATOM     19  Cl  UNL     1       1.940  -8.393   6.551  1.00  0.00    -0.083 Cl
ATOM     20  C   UNL     1       2.798  -8.598   3.997  1.00  0.00     0.132 A 
BRANCH  15  21
ATOM     21  C   UNL     1       1.637  -4.667   2.946  1.00  0.00    -0.016 A 
ATOM     22  C   UNL     1       0.895  -2.056   2.211  1.00  0.00     0.067 A 
ATOM     23  C   UNL     1       0.289  -3.147   1.588  1.00  0.00     0.021 A 
ATOM     24  C   UNL     1       1.845  -2.249   3.215  1.00  0.00     0.021 A 
ATOM     25  C   UNL     1       0.660  -4.442   1.959  1.00  0.00     0.010 A 
ATOM     26  C   UNL     1       2.214  -3.550   3.575  1.00  0.00     0.010 A 
BRANCH  22  27
ATOM     27  S   UNL     1       0.400  -0.410   1.758  1.00  0.00     0.175 S 
ATOM     28  C   UNL     1       1.114  -0.181   0.151  1.00  0.00     0.163 C 
ATOM     29  O   UNL     1       1.052   0.511   2.664  1.00  0.00    -0.224 OA
ATOM     30  O   UNL     1      -1.046  -0.426   1.617  1.00  0.00    -0.224 OA
ENDBRANCH  22  27
ENDBRANCH  15  21
ENDBRANCH   9  14
ENDBRANCH   5   8
ENDBRANCH   3   4
ENDBRANCH   2   3
ENDBRANCH   1   2
BRANCH   1  31
ATOM     31  C   UNL     1       6.470  -0.586  -3.947  1.00  0.00     0.002 C 
BRANCH  31  32
ATOM     32  C   UNL     1       6.959   0.265  -2.771  1.00  0.00     0.021 C 
BRANCH  32  33
ATOM     33  C   UNL     1       8.466   0.217  -2.537  1.00  0.00     0.116 C 
BRANCH  33  34
ATOM     34  N   UNL     1       9.204   0.787  -3.651  1.00  0.00    -0.352 N 
ATOM     35  C   UNL     1      10.154   1.775  -3.655  1.00  0.00     0.251 C 
ATOM     36  H   UNL     1       8.990   0.407  -4.533  1.00  0.00     0.163 HD
ATOM     37  O   UNL     1      10.510   2.277  -4.717  1.00  0.00    -0.269 OA
BRANCH  35  38
ATOM     38  C   UNL     1      10.750   2.246  -2.386  1.00  0.00     0.039 A 
ATOM     39  C   UNL     1      10.973   3.616  -2.216  1.00  0.00     0.014 A 
ATOM     40  C   UNL     1      11.141   1.345  -1.391  1.00  0.00     0.014 A 
ATOM     41  C   UNL     1      11.557   4.084  -1.038  1.00  0.00     0.010 A 
ATOM     42  C   UNL     1      11.665   1.818  -0.190  1.00  0.00     0.010 A 
ATOM     43  C   UNL     1      11.895   3.190  -0.010  1.00  0.00    -0.014 A 
BRANCH  43  44
ATOM     44  C   UNL     1      12.521   3.674   1.245  1.00  0.00     0.031 A 
ATOM     45  C   UNL     1      13.938   3.292   1.577  1.00  0.00     0.074 A 
ATOM     46  C   UNL     1      11.805   4.424   2.104  1.00  0.00     0.049 A 
ATOM     47  N   UNL     1      14.646   3.583   2.639  1.00  0.00    -0.248 NA
ATOM     48  C   UNL     1      14.643   2.449   0.598  1.00  0.00     0.031 C 
ATOM     49  C   UNL     1      10.410   4.826   1.916  1.00  0.00     0.029 A 
ATOM     50  N   UNL     1      12.152   4.979   3.309  1.00  0.00    -0.354 N 
ATOM     51  C   UNL     1      15.870   2.950   2.461  1.00  0.00     0.074 A 
ATOM     52  C   UNL     1      15.791   2.217   1.216  1.00  0.00     0.031 C 
ATOM     53  C   UNL     1      10.028   5.583   2.957  1.00  0.00     0.029 A 
ATOM     54  C   UNL     1      11.140   5.698   3.896  1.00  0.00     0.049 A 
ATOM     55  H   UNL     1      13.043   4.873   3.715  1.00  0.00     0.167 HD
ATOM     56  C   UNL     1      16.970   2.994   3.251  1.00  0.00     0.037 A 
ATOM     57  C   UNL     1      11.114   6.376   5.058  1.00  0.00     0.037 A 
ATOM     58  C   UNL     1      17.058   3.747   4.474  1.00  0.00     0.049 A 
ATOM     59  C   UNL     1      12.353   6.426   5.908  1.00  0.00     0.074 A 
ATOM     60  C   UNL     1      18.142   3.894   5.322  1.00  0.00     0.029 A 
ATOM     61  N   UNL     1      16.020   4.487   5.020  1.00  0.00    -0.354 N 
ATOM     62  N   UNL     1      13.521   5.867   5.700  1.00  0.00    -0.248 NA
ATOM     63  C   UNL     1      12.274   7.212   7.147  1.00  0.00     0.031 C 
ATOM     64  C   UNL     1      17.750   4.699   6.398  1.00  0.00     0.029 A 
ATOM     65  C   UNL     1      16.434   5.086   6.198  1.00  0.00     0.049 A 
ATOM     66  H   UNL     1      15.121   4.574   4.628  1.00  0.00     0.167 HD
ATOM     67  C   UNL     1      14.323   6.258   6.764  1.00  0.00     0.074 A 
ATOM     68  C   UNL     1      13.512   7.110   7.609  1.00  0.00     0.031 C 
ATOM     69  C   UNL     1      15.616   5.941   7.019  1.00  0.00     0.037 A 
BRANCH  56  70
ATOM     70  C   UNL     1      18.170   2.209   2.808  1.00  0.00     0.057 A 
ATOM     71  C   UNL     1      18.940   2.601   1.704  1.00  0.00     0.134 A 
ATOM     72  C   UNL     1      18.575   1.063   3.504  1.00  0.00     0.134 A 
ATOM     73  F   UNL     1      18.598   3.681   0.986  1.00  0.00    -0.206 F 
ATOM     74  C   UNL     1      20.054   1.867   1.293  1.00  0.00     0.040 A 
ATOM     75  C   UNL     1      19.703   0.336   3.118  1.00  0.00     0.040 A 
ATOM     76  F   UNL     1      17.886   0.635   4.572  1.00  0.00    -0.206 F 
ATOM     77  C   UNL     1      20.442   0.734   2.006  1.00  0.00     0.006 A 
ENDBRANCH  56  70
BRANCH  57  78
ATOM     78  C   UNL     1       9.885   7.099   5.469  1.00  0.00     0.057 A 
ATOM     79  C   UNL     1       9.832   8.497   5.447  1.00  0.00     0.134 A 
ATOM     80  C   UNL     1       8.742   6.415   5.897  1.00  0.00     0.134 A 
ATOM     81  F   UNL     1      10.903   9.207   5.063  1.00  0.00    -0.206 F 
ATOM     82  C   UNL     1       8.693   9.192   5.856  1.00  0.00     0.040 A 
ATOM     83  C   UNL     1       7.588   7.096   6.287  1.00  0.00     0.040 A 
ATOM     84  F   UNL     1       8.728   5.074   5.931  1.00  0.00    -0.206 F 
ATOM     85  C   UNL     1       7.564   8.489   6.274  1.00  0.00     0.006 A 
ENDBRANCH  57  78
BRANCH  69  86
ATOM     86  C   UNL     1      16.242   6.553   8.237  1.00  0.00     0.057 A 
ATOM     87  C   UNL     1      15.916   6.125   9.530  1.00  0.00     0.134 A 
ATOM     88  C   UNL     1      17.200   7.566   8.111  1.00  0.00     0.134 A 
ATOM     89  F   UNL     1      14.996   5.167   9.718  1.00  0.00    -0.206 F 
ATOM     90  C   UNL     1      16.504   6.702  10.657  1.00  0.00     0.040 A 
ATOM     91  C   UNL     1      17.813   8.133   9.228  1.00  0.00     0.040 A 
ATOM     92  F   UNL     1      17.562   8.014   6.899  1.00  0.00    -0.206 F 
ATOM     93  C   UNL     1      17.459   7.706  10.507  1.00  0.00     0.006 A 
ENDBRANCH  69  86
ENDBRANCH  43  44
ENDBRANCH  35  38
ENDBRANCH  33  34
ENDBRANCH  32  33
ENDBRANCH  31  32
ENDBRANCH   1  31
TORSDOF 16
