REMARK SMILES CC(C)CN(CC(N)=O)C(=O)N1CC[C@H](C(=O)NCCCCCCNC(=O)c2ccc(-c3c4nc(c(-c5c(F)cccc5F)c5ccc([nH]5)c(-c5c(F)cccc5F)c5nc(c(-c6c(F)cccc6F)c6ccc3[nH]6)C=C5)C=C4)cc2)[C@@H]1C
REMARK SMILES IDX 20 1 19 2 18 3 16 4 17 5 15 7 12 8 13 9 82 10 14 11 83 12
REMARK SMILES IDX 10 13 11 14 5 15 4 16 2 17 1 18 3 19 6 20 7 21 8 22 9 23
REMARK SMILES IDX 21 26 22 27 23 28 24 29 25 30 26 31 27 33 28 34 29 35 81 36
REMARK SMILES IDX 30 37 80 38 31 39 32 40 33 41 74 42 34 43 79 44 73 45 75 46
REMARK SMILES IDX 35 47 78 48 72 49 71 50 36 52 62 53 45 54 61 55 46 56 49 57
REMARK SMILES IDX 60 58 76 59 47 60 48 61 59 63 77 64 50 65 37 66 38 67 43 68
REMARK SMILES IDX 39 69 40 70 42 71 44 72 41 73 63 74 64 75 69 76 65 77 66 78
REMARK SMILES IDX 68 79 70 80 67 81 51 82 52 83 57 84 53 85 54 86 56 87 58 88
REMARK SMILES IDX 55 89
REMARK H PARENT 18 6 8 24 8 25 25 32 75 51 49 62
REMARK Flexibility Score: inf
ROOT
ATOM      1  C   UNL     1      -6.988   4.224   3.652  1.00  0.00     0.021 C 
ENDROOT
BRANCH   1   2
ATOM      2  C   UNL     1      -5.612   4.836   3.905  1.00  0.00     0.116 C 
BRANCH   2   3
ATOM      3  N   UNL     1      -4.871   4.119   4.925  1.00  0.00    -0.356 N 
ATOM      4  C   UNL     1      -3.596   3.637   4.900  1.00  0.00     0.225 C 
ATOM      5  O   UNL     1      -3.143   3.118   5.918  1.00  0.00    -0.275 OA
ATOM      6  H   UNL     1      -5.363   3.954   5.761  1.00  0.00     0.163 HD
BRANCH   4   7
ATOM      7  C   UNL     1      -2.806   3.735   3.614  1.00  0.00     0.102 C 
ATOM      8  N   UNL     1      -1.725   2.216   2.167  1.00  0.00    -0.321 N 
ATOM      9  C   UNL     1      -0.787   2.461   3.239  1.00  0.00     0.122 C 
ATOM     10  C   UNL     1      -3.063   2.572   2.631  1.00  0.00     0.096 C 
ATOM     11  C   UNL     1      -1.284   3.754   3.845  1.00  0.00     0.037 C 
ATOM     12  C   UNL     1      -3.812   1.357   3.188  1.00  0.00     0.032 C 
BRANCH   8  13
ATOM     13  C   UNL     1      -1.473   1.172   1.308  1.00  0.00     0.320 C 
ATOM     14  O   UNL     1      -0.993   0.122   1.731  1.00  0.00    -0.248 OA
BRANCH  13  15
ATOM     15  N   UNL     1      -1.645   1.431  -0.041  1.00  0.00    -0.315 N 
BRANCH  15  16
ATOM     16  C   UNL     1      -1.157   0.436  -1.000  1.00  0.00     0.125 C 
BRANCH  16  17
ATOM     17  C   UNL     1       0.350   0.601  -1.327  1.00  0.00     0.002 C 
ATOM     18  C   UNL     1       1.267   0.196  -0.168  1.00  0.00     0.009 C 
ATOM     19  C   UNL     1       0.716  -0.234  -2.556  1.00  0.00     0.009 C 
ENDBRANCH  16  17
ENDBRANCH  15  16
BRANCH  15  20
ATOM     20  C   UNL     1      -2.219   2.662  -0.587  1.00  0.00     0.221 C 
BRANCH  20  21
ATOM     21  C   UNL     1      -3.751   2.589  -0.688  1.00  0.00     0.237 C 
ATOM     22  N   UNL     1      -4.413   3.764  -0.442  1.00  0.00    -0.368 N 
ATOM     23  O   UNL     1      -4.389   1.584  -0.986  1.00  0.00    -0.273 OA
ATOM     24  H   UNL     1      -3.907   4.574  -0.203  1.00  0.00     0.159 HD
ATOM     25  H   UNL     1      -5.395   3.798  -0.505  1.00  0.00     0.159 HD
ENDBRANCH  20  21
ENDBRANCH  15  20
ENDBRANCH  13  15
ENDBRANCH   8  13
ENDBRANCH   4   7
ENDBRANCH   2   3
ENDBRANCH   1   2
BRANCH   1  26
ATOM     26  C   UNL     1      -7.898   4.152   4.882  1.00  0.00     0.002 C 
BRANCH  26  27
ATOM     27  C   UNL     1      -8.136   5.484   5.599  1.00  0.00     0.002 C 
BRANCH  27  28
ATOM     28  C   UNL     1      -8.732   6.594   4.731  1.00  0.00     0.021 C 
BRANCH  28  29
ATOM     29  C   UNL     1     -10.064   6.247   4.072  1.00  0.00     0.116 C 
BRANCH  29  30
ATOM     30  N   UNL     1     -11.111   5.982   5.045  1.00  0.00    -0.352 N 
ATOM     31  C   UNL     1     -12.360   6.543   5.163  1.00  0.00     0.251 C 
ATOM     32  H   UNL     1     -10.893   5.300   5.720  1.00  0.00     0.163 HD
ATOM     33  O   UNL     1     -13.041   6.324   6.158  1.00  0.00    -0.269 OA
BRANCH  31  34
ATOM     34  C   UNL     1     -12.873   7.435   4.100  1.00  0.00     0.039 A 
ATOM     35  C   UNL     1     -13.502   8.626   4.469  1.00  0.00     0.014 A 
ATOM     36  C   UNL     1     -12.739   7.101   2.750  1.00  0.00     0.014 A 
ATOM     37  C   UNL     1     -13.932   9.516   3.482  1.00  0.00     0.010 A 
ATOM     38  C   UNL     1     -13.101   8.022   1.769  1.00  0.00     0.010 A 
ATOM     39  C   UNL     1     -13.697   9.242   2.125  1.00  0.00    -0.014 A 
BRANCH  39  40
ATOM     40  C   UNL     1     -14.042  10.232   1.071  1.00  0.00     0.031 A 
ATOM     41  C   UNL     1     -15.066   9.902   0.020  1.00  0.00     0.074 A 
ATOM     42  C   UNL     1     -13.383  11.407   1.026  1.00  0.00     0.049 A 
ATOM     43  N   UNL     1     -15.447  10.613  -1.011  1.00  0.00    -0.248 NA
ATOM     44  C   UNL     1     -15.731   8.594   0.124  1.00  0.00     0.031 C 
ATOM     45  C   UNL     1     -12.333  11.825   1.958  1.00  0.00     0.029 A 
ATOM     46  N   UNL     1     -13.487  12.461   0.152  1.00  0.00    -0.354 N 
ATOM     47  C   UNL     1     -16.384   9.837  -1.682  1.00  0.00     0.074 A 
ATOM     48  C   UNL     1     -16.480   8.582  -0.970  1.00  0.00     0.031 C 
ATOM     49  C   UNL     1     -11.904  13.051   1.617  1.00  0.00     0.029 A 
ATOM     50  C   UNL     1     -12.613  13.488   0.420  1.00  0.00     0.049 A 
ATOM     51  H   UNL     1     -14.127  12.480  -0.595  1.00  0.00     0.167 HD
ATOM     52  C   UNL     1     -17.111  10.151  -2.780  1.00  0.00     0.037 A 
ATOM     53  C   UNL     1     -12.395  14.645  -0.234  1.00  0.00     0.037 A 
ATOM     54  C   UNL     1     -17.032  11.412  -3.472  1.00  0.00     0.049 A 
ATOM     55  C   UNL     1     -13.212  14.961  -1.458  1.00  0.00     0.074 A 
ATOM     56  C   UNL     1     -17.782  11.848  -4.551  1.00  0.00     0.029 A 
ATOM     57  N   UNL     1     -16.148  12.433  -3.160  1.00  0.00    -0.354 N 
ATOM     58  N   UNL     1     -14.153  14.250  -2.031  1.00  0.00    -0.248 NA
ATOM     59  C   UNL     1     -12.940  16.243  -2.124  1.00  0.00     0.031 C 
ATOM     60  C   UNL     1     -17.312  13.109  -4.928  1.00  0.00     0.029 A 
ATOM     61  C   UNL     1     -16.312  13.485  -4.047  1.00  0.00     0.049 A 
ATOM     62  H   UNL     1     -15.501  12.413  -2.419  1.00  0.00     0.167 HD
ATOM     63  C   UNL     1     -14.604  15.010  -3.103  1.00  0.00     0.074 A 
ATOM     64  C   UNL     1     -13.848  16.244  -3.089  1.00  0.00     0.031 C 
ATOM     65  C   UNL     1     -15.557  14.711  -4.019  1.00  0.00     0.037 A 
BRANCH  52  66
ATOM     66  C   UNL     1     -18.063   9.119  -3.312  1.00  0.00     0.057 A 
ATOM     67  C   UNL     1     -19.244   8.783  -2.637  1.00  0.00     0.134 A 
ATOM     68  C   UNL     1     -17.834   8.510  -4.553  1.00  0.00     0.134 A 
ATOM     69  F   UNL     1     -19.520   9.323  -1.440  1.00  0.00    -0.206 F 
ATOM     70  C   UNL     1     -20.155   7.869  -3.170  1.00  0.00     0.040 A 
ATOM     71  C   UNL     1     -18.750   7.616  -5.109  1.00  0.00     0.040 A 
ATOM     72  F   UNL     1     -16.726   8.792  -5.256  1.00  0.00    -0.206 F 
ATOM     73  C   UNL     1     -19.913   7.291  -4.415  1.00  0.00     0.006 A 
ENDBRANCH  52  66
BRANCH  53  74
ATOM     74  C   UNL     1     -11.356  15.594   0.244  1.00  0.00     0.057 A 
ATOM     75  C   UNL     1     -11.699  16.852   0.752  1.00  0.00     0.134 A 
ATOM     76  C   UNL     1      -9.993  15.281   0.170  1.00  0.00     0.134 A 
ATOM     77  F   UNL     1     -12.986  17.220   0.832  1.00  0.00    -0.206 F 
ATOM     78  C   UNL     1     -10.726  17.777   1.137  1.00  0.00     0.040 A 
ATOM     79  C   UNL     1      -9.011  16.183   0.580  1.00  0.00     0.040 A 
ATOM     80  F   UNL     1      -9.595  14.088  -0.299  1.00  0.00    -0.206 F 
ATOM     81  C   UNL     1      -9.377  17.441   1.054  1.00  0.00     0.006 A 
ENDBRANCH  53  74
BRANCH  65  82
ATOM     82  C   UNL     1     -15.862  15.749  -5.060  1.00  0.00     0.057 A 
ATOM     83  C   UNL     1     -14.963  16.052  -6.091  1.00  0.00     0.134 A 
ATOM     84  C   UNL     1     -17.088  16.427  -5.052  1.00  0.00     0.134 A 
ATOM     85  F   UNL     1     -13.767  15.448  -6.149  1.00  0.00    -0.206 F 
ATOM     86  C   UNL     1     -15.262  17.010  -7.061  1.00  0.00     0.040 A 
ATOM     87  C   UNL     1     -17.411  17.364  -6.034  1.00  0.00     0.040 A 
ATOM     88  F   UNL     1     -17.999  16.177  -4.099  1.00  0.00    -0.206 F 
ATOM     89  C   UNL     1     -16.493  17.663  -7.038  1.00  0.00     0.006 A 
ENDBRANCH  65  82
ENDBRANCH  39  40
ENDBRANCH  31  34
ENDBRANCH  29  30
ENDBRANCH  28  29
ENDBRANCH  27  28
ENDBRANCH  26  27
ENDBRANCH   1  26
TORSDOF 19
