REMARK SMILES CCn1c(C)cc(/C=C(/C(=O)NCCCCCCNC(=O)c2ccc(-c3c4nc(c(-c5c(F)cccc5F)c5ccc([nH]5)c(-c5c(F)cccc5F)c5nc(c(-c6c(F)cccc6F)c6ccc3[nH]6)C=C5)C=C4)cc2)c2ccccc2)c1C
REMARK SMILES IDX 15 1 14 2 13 3 12 4 10 5 11 6 9 8 8 9 7 10 3 11 4 12 82 13
REMARK SMILES IDX 5 14 6 15 83 16 2 17 1 18 76 19 77 20 81 21 78 22 80 23
REMARK SMILES IDX 79 24 16 25 17 26 18 27 19 28 20 29 21 31 22 32 23 33 75 34
REMARK SMILES IDX 24 35 74 36 25 37 26 38 27 39 68 40 28 41 73 42 67 43 69 44
REMARK SMILES IDX 29 45 72 46 66 47 65 48 30 50 56 51 39 52 55 53 40 54 43 55
REMARK SMILES IDX 54 56 70 57 41 58 42 59 53 61 71 62 44 63 31 64 32 65 37 66
REMARK SMILES IDX 33 67 34 68 36 69 38 70 35 71 57 72 58 73 63 74 59 75 60 76
REMARK SMILES IDX 62 77 64 78 61 79 45 80 46 81 51 82 47 83 48 84 50 85 52 86
REMARK SMILES IDX 49 87
REMARK H PARENT 12 7 19 30 69 49 43 60
REMARK Flexibility Score: inf
ROOT
ATOM      1  C   UNL     1       1.246  -6.232   8.570  1.00  0.00     0.002 C 
ENDROOT
BRANCH   1   2
ATOM      2  C   UNL     1       1.251  -5.304   7.341  1.00  0.00     0.021 C 
BRANCH   2   3
ATOM      3  C   UNL     1       2.244  -5.708   6.251  1.00  0.00     0.116 C 
BRANCH   3   4
ATOM      4  N   UNL     1       1.656  -6.747   5.432  1.00  0.00    -0.352 N 
ATOM      5  C   UNL     1       0.994  -6.786   4.253  1.00  0.00     0.251 C 
ATOM      6  O   UNL     1       0.490  -7.894   3.991  1.00  0.00    -0.269 OA
ATOM      7  H   UNL     1       1.763  -7.642   5.830  1.00  0.00     0.163 HD
BRANCH   5   8
ATOM      8  C   UNL     1       0.908  -5.662   3.228  1.00  0.00     0.047 C 
ATOM      9  C   UNL     1       0.937  -4.351   3.561  1.00  0.00     0.024 C 
BRANCH   9  10
ATOM     10  C   UNL     1       0.973  -3.106   2.821  1.00  0.00    -0.004 A 
ATOM     11  N   UNL     1       0.853  -1.368   1.373  1.00  0.00    -0.349 N 
ATOM     12  C   UNL     1       1.421  -0.875   2.525  1.00  0.00     0.015 A 
ATOM     13  C   UNL     1       0.487  -2.707   1.581  1.00  0.00     0.022 A 
ATOM     14  C   UNL     1       1.809   0.540   2.770  1.00  0.00     0.064 C 
ATOM     15  C   UNL     1       1.539  -1.935   3.402  1.00  0.00     0.031 A 
ATOM     16  C   UNL     1      -0.315  -3.418   0.544  1.00  0.00     0.065 C 
BRANCH  11  17
ATOM     17  C   UNL     1       0.547  -0.673   0.123  1.00  0.00     0.118 C 
ATOM     18  C   UNL     1       1.197   0.660  -0.209  1.00  0.00     0.027 C 
ENDBRANCH  11  17
ENDBRANCH   9  10
BRANCH   8  19
ATOM     19  C   UNL     1       0.658  -6.127   1.846  1.00  0.00    -0.013 A 
ATOM     20  C   UNL     1      -0.618  -6.633   1.533  1.00  0.00     0.009 A 
ATOM     21  C   UNL     1       1.644  -6.104   0.856  1.00  0.00     0.009 A 
ATOM     22  C   UNL     1      -0.924  -7.049   0.238  1.00  0.00     0.001 A 
ATOM     23  C   UNL     1       1.337  -6.529  -0.441  1.00  0.00     0.001 A 
ATOM     24  C   UNL     1       0.052  -6.985  -0.752  1.00  0.00     0.000 A 
ENDBRANCH   8  19
ENDBRANCH   5   8
ENDBRANCH   3   4
ENDBRANCH   2   3
ENDBRANCH   1   2
BRANCH   1  25
ATOM     25  C   UNL     1       2.481  -6.157   9.478  1.00  0.00     0.002 C 
BRANCH  25  26
ATOM     26  C   UNL     1       3.019  -4.753   9.798  1.00  0.00     0.021 C 
BRANCH  26  27
ATOM     27  C   UNL     1       1.993  -3.669  10.176  1.00  0.00     0.116 C 
BRANCH  27  28
ATOM     28  N   UNL     1       1.733  -3.547  11.593  1.00  0.00    -0.352 N 
ATOM     29  C   UNL     1       1.103  -2.509  12.223  1.00  0.00     0.251 C 
ATOM     30  H   UNL     1       2.040  -4.288  12.163  1.00  0.00     0.163 HD
ATOM     31  O   UNL     1       0.922  -2.590  13.466  1.00  0.00    -0.269 OA
BRANCH  29  32
ATOM     32  C   UNL     1       0.715  -1.246  11.523  1.00  0.00     0.039 A 
ATOM     33  C   UNL     1       1.596  -0.181  11.600  1.00  0.00     0.014 A 
ATOM     34  C   UNL     1      -0.564  -0.986  10.994  1.00  0.00     0.014 A 
ATOM     35  C   UNL     1       1.200   1.102  11.155  1.00  0.00     0.010 A 
ATOM     36  C   UNL     1      -0.990   0.349  10.626  1.00  0.00     0.010 A 
ATOM     37  C   UNL     1      -0.133   1.454  10.743  1.00  0.00    -0.014 A 
BRANCH  37  38
ATOM     38  C   UNL     1      -0.535   2.968  10.954  1.00  0.00     0.031 A 
ATOM     39  C   UNL     1       0.107   3.341  12.248  1.00  0.00     0.074 A 
ATOM     40  C   UNL     1      -1.318   3.989  10.441  1.00  0.00     0.049 A 
ATOM     41  N   UNL     1      -0.132   2.659  13.333  1.00  0.00    -0.248 NA
ATOM     42  C   UNL     1       1.290   4.205  12.304  1.00  0.00     0.031 C 
ATOM     43  C   UNL     1      -2.233   3.962   9.294  1.00  0.00     0.029 A 
ATOM     44  N   UNL     1      -1.463   5.345  10.850  1.00  0.00    -0.354 N 
ATOM     45  C   UNL     1       0.681   3.202  14.294  1.00  0.00     0.074 A 
ATOM     46  C   UNL     1       1.674   3.970  13.562  1.00  0.00     0.031 C 
ATOM     47  C   UNL     1      -2.724   5.207   9.023  1.00  0.00     0.029 A 
ATOM     48  C   UNL     1      -2.237   6.185   9.995  1.00  0.00     0.049 A 
ATOM     49  H   UNL     1      -1.052   5.684  11.677  1.00  0.00     0.167 HD
ATOM     50  C   UNL     1       0.127   3.461  15.510  1.00  0.00     0.037 A 
ATOM     51  C   UNL     1      -2.518   7.539  10.078  1.00  0.00     0.037 A 
ATOM     52  C   UNL     1       0.007   4.869  15.761  1.00  0.00     0.049 A 
ATOM     53  C   UNL     1      -2.289   7.964  11.466  1.00  0.00     0.074 A 
ATOM     54  C   UNL     1       0.854   5.946  15.592  1.00  0.00     0.029 A 
ATOM     55  N   UNL     1      -1.272   5.380  15.779  1.00  0.00    -0.354 N 
ATOM     56  N   UNL     1      -3.167   7.747  12.395  1.00  0.00    -0.248 NA
ATOM     57  C   UNL     1      -1.141   8.774  11.864  1.00  0.00     0.031 C 
ATOM     58  C   UNL     1       0.050   6.942  14.982  1.00  0.00     0.029 A 
ATOM     59  C   UNL     1      -1.285   6.566  15.076  1.00  0.00     0.049 A 
ATOM     60  H   UNL     1      -2.049   4.967  16.221  1.00  0.00     0.167 HD
ATOM     61  C   UNL     1      -2.471   7.953  13.541  1.00  0.00     0.074 A 
ATOM     62  C   UNL     1      -1.380   8.832  13.176  1.00  0.00     0.031 C 
ATOM     63  C   UNL     1      -2.533   6.978  14.477  1.00  0.00     0.037 A 
BRANCH  50  64
ATOM     64  C   UNL     1      -0.856   2.422  15.961  1.00  0.00     0.057 A 
ATOM     65  C   UNL     1      -0.476   1.502  16.938  1.00  0.00     0.134 A 
ATOM     66  C   UNL     1      -2.091   2.206  15.321  1.00  0.00     0.134 A 
ATOM     67  F   UNL     1       0.666   1.674  17.623  1.00  0.00    -0.206 F 
ATOM     68  C   UNL     1      -1.253   0.375  17.218  1.00  0.00     0.040 A 
ATOM     69  C   UNL     1      -2.849   1.060  15.554  1.00  0.00     0.040 A 
ATOM     70  F   UNL     1      -2.569   3.096  14.437  1.00  0.00    -0.206 F 
ATOM     71  C   UNL     1      -2.422   0.132  16.498  1.00  0.00     0.006 A 
ENDBRANCH  50  64
BRANCH  51  72
ATOM     72  C   UNL     1      -3.112   8.701   9.276  1.00  0.00     0.057 A 
ATOM     73  C   UNL     1      -3.718   9.820   9.937  1.00  0.00     0.134 A 
ATOM     74  C   UNL     1      -2.786   8.948   7.942  1.00  0.00     0.134 A 
ATOM     75  F   UNL     1      -4.147   9.746  11.204  1.00  0.00    -0.206 F 
ATOM     76  C   UNL     1      -3.856  11.096   9.369  1.00  0.00     0.040 A 
ATOM     77  C   UNL     1      -2.961  10.223   7.345  1.00  0.00     0.040 A 
ATOM     78  F   UNL     1      -2.212   7.995   7.198  1.00  0.00    -0.206 F 
ATOM     79  C   UNL     1      -3.456  11.309   8.067  1.00  0.00     0.006 A 
ENDBRANCH  51  72
BRANCH  63  80
ATOM     80  C   UNL     1      -3.867   6.260  14.645  1.00  0.00     0.057 A 
ATOM     81  C   UNL     1      -4.691   5.730  13.625  1.00  0.00     0.134 A 
ATOM     82  C   UNL     1      -4.383   6.152  15.944  1.00  0.00     0.134 A 
ATOM     83  F   UNL     1      -4.287   5.625  12.351  1.00  0.00    -0.206 F 
ATOM     84  C   UNL     1      -5.979   5.238  13.878  1.00  0.00     0.040 A 
ATOM     85  C   UNL     1      -5.639   5.598  16.216  1.00  0.00     0.040 A 
ATOM     86  F   UNL     1      -3.657   6.570  16.992  1.00  0.00    -0.206 F 
ATOM     87  C   UNL     1      -6.457   5.169  15.178  1.00  0.00     0.006 A 
ENDBRANCH  63  80
ENDBRANCH  37  38
ENDBRANCH  29  32
ENDBRANCH  27  28
ENDBRANCH  26  27
ENDBRANCH  25  26
ENDBRANCH   1  25
TORSDOF 16
