REMARK SMILES Cc1cccc(NS(=O)(=O)c2ccc(Br)c(C(=O)NCCCCCCNC(=O)c3ccc(-c4c5nc(c(-c6c(F)cccc6F)c6ccc([nH]6)c(-c6c(F)cccc6F)c6nc(c(-c7c(F)cccc7F)c7ccc4[nH]7)C=C6)C=C5)cc3)c2)c1
REMARK SMILES IDX 22 1 21 2 20 3 19 4 17 5 18 6 16 8 11 9 12 10 83 11 13 12
REMARK SMILES IDX 14 13 15 14 8 15 9 16 10 17 7 18 6 20 1 21 2 22 3 23 84 24
REMARK SMILES IDX 4 25 5 26 23 27 24 28 25 29 26 30 27 31 28 33 29 34 30 35
REMARK SMILES IDX 82 36 31 37 81 38 32 39 33 40 34 41 75 42 35 43 80 44 74 45
REMARK SMILES IDX 76 46 36 47 79 48 73 49 72 50 37 52 63 53 46 54 62 55 47 56
REMARK SMILES IDX 50 57 61 58 77 59 48 60 49 61 60 63 78 64 51 65 38 66 39 67
REMARK SMILES IDX 44 68 40 69 41 70 43 71 45 72 42 73 64 74 65 75 70 76 66 77
REMARK SMILES IDX 67 78 69 79 71 80 68 81 52 82 53 83 58 84 54 85 55 86 57 87
REMARK SMILES IDX 59 88 56 89
REMARK H PARENT 19 7 7 19 26 32 76 51 50 62
REMARK Flexibility Score: inf
ROOT
ATOM      1  C   UNL     1      -9.478  -4.828   1.044  1.00  0.00     0.002 C 
ENDROOT
BRANCH   1   2
ATOM      2  C   UNL     1      -8.161  -4.215   1.517  1.00  0.00     0.021 C 
BRANCH   2   3
ATOM      3  C   UNL     1      -7.356  -3.404   0.514  1.00  0.00     0.116 C 
BRANCH   3   4
ATOM      4  N   UNL     1      -7.939  -2.186  -0.007  1.00  0.00    -0.352 N 
ATOM      5  C   UNL     1      -7.301  -1.075  -0.538  1.00  0.00     0.252 C 
ATOM      6  O   UNL     1      -7.984  -0.214  -1.091  1.00  0.00    -0.269 OA
ATOM      7  H   UNL     1      -8.922  -2.140   0.019  1.00  0.00     0.163 HD
BRANCH   5   8
ATOM      8  C   UNL     1      -5.845  -0.816  -0.315  1.00  0.00     0.055 A 
ATOM      9  C   UNL     1      -4.163   0.769   0.434  1.00  0.00     0.088 A 
ATOM     10  C   UNL     1      -3.408  -0.276   0.951  1.00  0.00     0.023 A 
ATOM     11  C   UNL     1      -5.443   0.507  -0.084  1.00  0.00     0.037 A 
ATOM     12  C   UNL     1      -3.711  -1.566   0.524  1.00  0.00     0.018 A 
ATOM     13  C   UNL     1      -4.855  -1.792  -0.245  1.00  0.00     0.030 A 
ATOM     14  Br  UNL     1      -4.774  -3.248  -1.474  1.00  0.00    -0.050 Br
BRANCH   9  15
ATOM     15  S   UNL     1      -3.483   2.400   0.250  1.00  0.00     0.261 S 
ATOM     16  O   UNL     1      -3.512   2.999   1.571  1.00  0.00    -0.201 OA
ATOM     17  O   UNL     1      -4.178   3.023  -0.854  1.00  0.00    -0.201 OA
BRANCH  15  18
ATOM     18  N   UNL     1      -1.842   2.389  -0.195  1.00  0.00    -0.280 N 
ATOM     19  H   UNL     1      -1.421   3.268  -0.335  1.00  0.00     0.180 HD
BRANCH  18  20
ATOM     20  C   UNL     1      -1.004   1.242  -0.390  1.00  0.00     0.049 A 
ATOM     21  C   UNL     1       2.651   0.354   0.313  1.00  0.00     0.044 C 
ATOM     22  C   UNL     1       1.206   0.240  -0.078  1.00  0.00    -0.049 A 
ATOM     23  C   UNL     1       0.719  -0.965  -0.587  1.00  0.00     0.003 A 
ATOM     24  C   UNL     1       0.327   1.329   0.046  1.00  0.00     0.030 A 
ATOM     25  C   UNL     1      -0.563  -1.018  -1.128  1.00  0.00     0.002 A 
ATOM     26  C   UNL     1      -1.385   0.115  -1.111  1.00  0.00     0.027 A 
ENDBRANCH  18  20
ENDBRANCH  15  18
ENDBRANCH   9  15
ENDBRANCH   5   8
ENDBRANCH   3   4
ENDBRANCH   2   3
ENDBRANCH   1   2
BRANCH   1  27
ATOM     27  C   UNL     1      -9.513  -5.503  -0.333  1.00  0.00     0.002 C 
BRANCH  27  28
ATOM     28  C   UNL     1      -8.419  -6.515  -0.661  1.00  0.00     0.021 C 
BRANCH  28  29
ATOM     29  C   UNL     1      -8.358  -7.738   0.234  1.00  0.00     0.116 C 
BRANCH  29  30
ATOM     30  N   UNL     1      -9.350  -8.756  -0.078  1.00  0.00    -0.352 N 
ATOM     31  C   UNL     1      -9.476 -10.058   0.370  1.00  0.00     0.251 C 
ATOM     32  H   UNL     1     -10.047  -8.470  -0.712  1.00  0.00     0.163 HD
ATOM     33  O   UNL     1     -10.351 -10.773  -0.114  1.00  0.00    -0.269 OA
BRANCH  31  34
ATOM     34  C   UNL     1      -8.723 -10.534   1.563  1.00  0.00     0.039 A 
ATOM     35  C   UNL     1      -9.447 -11.336   2.461  1.00  0.00     0.014 A 
ATOM     36  C   UNL     1      -7.582  -9.878   1.995  1.00  0.00     0.014 A 
ATOM     37  C   UNL     1      -9.263 -11.155   3.822  1.00  0.00     0.010 A 
ATOM     38  C   UNL     1      -7.502  -9.562   3.324  1.00  0.00     0.010 A 
ATOM     39  C   UNL     1      -8.405 -10.140   4.217  1.00  0.00    -0.014 A 
BRANCH  39  40
ATOM     40  C   UNL     1      -8.302  -9.620   5.559  1.00  0.00     0.031 A 
ATOM     41  C   UNL     1      -7.208 -10.143   6.384  1.00  0.00     0.074 A 
ATOM     42  C   UNL     1      -9.045  -8.539   5.877  1.00  0.00     0.049 A 
ATOM     43  N   UNL     1      -7.067  -9.902   7.633  1.00  0.00    -0.248 NA
ATOM     44  C   UNL     1      -6.191 -11.051   5.855  1.00  0.00     0.031 C 
ATOM     45  C   UNL     1      -8.855  -7.596   6.973  1.00  0.00     0.029 A 
ATOM     46  N   UNL     1     -10.293  -8.194   5.342  1.00  0.00    -0.354 N 
ATOM     47  C   UNL     1      -5.822 -10.357   8.006  1.00  0.00     0.074 A 
ATOM     48  C   UNL     1      -5.378 -11.170   6.907  1.00  0.00     0.031 C 
ATOM     49  C   UNL     1     -10.027  -6.987   7.230  1.00  0.00     0.029 A 
ATOM     50  C   UNL     1     -11.032  -7.653   6.418  1.00  0.00     0.049 A 
ATOM     51  H   UNL     1     -10.593  -8.306   4.411  1.00  0.00     0.167 HD
ATOM     52  C   UNL     1      -5.290  -9.852   9.152  1.00  0.00     0.037 A 
ATOM     53  C   UNL     1     -12.100  -8.340   6.927  1.00  0.00     0.037 A 
ATOM     54  C   UNL     1      -6.332  -9.130   9.888  1.00  0.00     0.049 A 
ATOM     55  C   UNL     1     -11.879  -8.769   8.361  1.00  0.00     0.074 A 
ATOM     56  C   UNL     1      -6.659  -7.788   9.985  1.00  0.00     0.029 A 
ATOM     57  N   UNL     1      -7.443  -9.841  10.335  1.00  0.00    -0.354 N 
ATOM     58  N   UNL     1     -10.703  -8.969   8.895  1.00  0.00    -0.248 NA
ATOM     59  C   UNL     1     -12.967  -8.947   9.317  1.00  0.00     0.031 C 
ATOM     60  C   UNL     1      -8.021  -7.705  10.393  1.00  0.00     0.029 A 
ATOM     61  C   UNL     1      -8.502  -8.991  10.586  1.00  0.00     0.049 A 
ATOM     62  H   UNL     1      -7.470 -10.818  10.455  1.00  0.00     0.167 HD
ATOM     63  C   UNL     1     -10.849  -9.272  10.226  1.00  0.00     0.074 A 
ATOM     64  C   UNL     1     -12.285  -9.238  10.439  1.00  0.00     0.031 C 
ATOM     65  C   UNL     1      -9.783  -9.517  11.048  1.00  0.00     0.037 A 
BRANCH  52  66
ATOM     66  C   UNL     1      -3.819  -9.802   9.513  1.00  0.00     0.057 A 
ATOM     67  C   UNL     1      -3.404  -9.056  10.636  1.00  0.00     0.134 A 
ATOM     68  C   UNL     1      -2.752 -10.347   8.770  1.00  0.00     0.134 A 
ATOM     69  F   UNL     1      -4.288  -8.478  11.461  1.00  0.00    -0.206 F 
ATOM     70  C   UNL     1      -2.056  -8.842  10.963  1.00  0.00     0.040 A 
ATOM     71  C   UNL     1      -1.401 -10.157   9.098  1.00  0.00     0.040 A 
ATOM     72  F   UNL     1      -2.932 -11.076   7.669  1.00  0.00    -0.206 F 
ATOM     73  C   UNL     1      -1.046  -9.391  10.191  1.00  0.00     0.006 A 
ENDBRANCH  52  66
BRANCH  53  74
ATOM     74  C   UNL     1     -12.815  -9.118   5.870  1.00  0.00     0.057 A 
ATOM     75  C   UNL     1     -13.395  -8.389   4.811  1.00  0.00     0.134 A 
ATOM     76  C   UNL     1     -12.518 -10.462   5.624  1.00  0.00     0.134 A 
ATOM     77  F   UNL     1     -13.731  -7.101   4.987  1.00  0.00    -0.206 F 
ATOM     78  C   UNL     1     -13.488  -8.912   3.518  1.00  0.00     0.040 A 
ATOM     79  C   UNL     1     -12.641 -11.005   4.337  1.00  0.00     0.040 A 
ATOM     80  F   UNL     1     -11.974 -11.229   6.579  1.00  0.00    -0.206 F 
ATOM     81  C   UNL     1     -13.062 -10.212   3.269  1.00  0.00     0.006 A 
ENDBRANCH  53  74
BRANCH  65  82
ATOM     82  C   UNL     1      -9.843 -10.196  12.404  1.00  0.00     0.057 A 
ATOM     83  C   UNL     1     -10.901 -11.009  12.841  1.00  0.00     0.134 A 
ATOM     84  C   UNL     1      -8.725 -10.176  13.273  1.00  0.00     0.134 A 
ATOM     85  F   UNL     1     -11.974 -11.248  12.077  1.00  0.00    -0.206 F 
ATOM     86  C   UNL     1     -10.882 -11.681  14.071  1.00  0.00     0.040 A 
ATOM     87  C   UNL     1      -8.665 -10.902  14.466  1.00  0.00     0.040 A 
ATOM     88  F   UNL     1      -7.616  -9.475  12.993  1.00  0.00    -0.206 F 
ATOM     89  C   UNL     1      -9.757 -11.642  14.882  1.00  0.00     0.006 A 
ENDBRANCH  65  82
ENDBRANCH  39  40
ENDBRANCH  31  34
ENDBRANCH  29  30
ENDBRANCH  28  29
ENDBRANCH  27  28
ENDBRANCH   1  27
TORSDOF 16
