REMARK SMILES Cc1ccc(-c2cnnc(-n3nc(C)c4c3NC(=O)C[C@@H]4c3ccc(C(=O)NCCCCCCNC(=O)c4ccc(-c5c6nc(c(-c7c(F)cccc7F)c7ccc([nH]7)c(-c7c(F)cccc7F)c7nc(c(-c8c(F)cccc8F)c8ccc5[nH]8)C=C7)C=C6)cc4)cc3)n2)cc1
REMARK SMILES IDX 31 1 30 2 29 3 28 4 26 5 27 6 25 8 22 9 23 10 93 11 24 12
REMARK SMILES IDX 92 13 21 14 11 15 12 16 16 17 13 18 15 19 17 20 14 21 18 22
REMARK SMILES IDX 20 24 19 25 10 26 6 27 7 28 94 29 8 30 9 31 5 32 1 33 2 34
REMARK SMILES IDX 3 35 96 36 4 37 95 38 32 39 33 40 34 41 35 42 36 43 37 45
REMARK SMILES IDX 38 46 39 47 91 48 40 49 90 50 41 51 42 52 43 53 84 54 44 55
REMARK SMILES IDX 89 56 83 57 85 58 45 59 88 60 82 61 81 62 46 64 72 65 55 66
REMARK SMILES IDX 71 67 56 68 59 69 70 70 86 71 57 72 58 73 69 75 87 76 60 77
REMARK SMILES IDX 47 78 48 79 53 80 49 81 50 82 52 83 54 84 51 85 73 86 74 87
REMARK SMILES IDX 79 88 75 89 76 90 78 91 80 92 77 93 61 94 62 95 67 96 63 97
REMARK SMILES IDX 64 98 66 99 68 100 65 101
REMARK H PARENT 28 7 17 23 35 44 85 63 59 74
REMARK Flexibility Score: inf
ROOT
ATOM      1  C   UNL     1     -12.551   7.891  -6.218  1.00  0.00     0.002 C 
ENDROOT
BRANCH   1   2
ATOM      2  C   UNL     1     -11.446   6.887  -5.861  1.00  0.00     0.021 C 
BRANCH   2   3
ATOM      3  C   UNL     1     -11.701   5.469  -6.378  1.00  0.00     0.116 C 
BRANCH   3   4
ATOM      4  N   UNL     1     -11.559   5.404  -7.824  1.00  0.00    -0.352 N 
ATOM      5  C   UNL     1     -10.656   4.738  -8.617  1.00  0.00     0.251 C 
ATOM      6  O   UNL     1     -10.821   4.710  -9.833  1.00  0.00    -0.269 OA
ATOM      7  H   UNL     1     -12.225   5.930  -8.322  1.00  0.00     0.163 HD
BRANCH   5   8
ATOM      8  C   UNL     1      -9.529   3.988  -8.021  1.00  0.00     0.039 A 
ATOM      9  C   UNL     1      -7.699   2.338  -6.680  1.00  0.00    -0.040 A 
ATOM     10  C   UNL     1      -8.319   1.905  -7.867  1.00  0.00     0.005 A 
ATOM     11  C   UNL     1      -7.865   3.678  -6.303  1.00  0.00     0.005 A 
ATOM     12  C   UNL     1      -9.223   2.728  -8.539  1.00  0.00     0.014 A 
ATOM     13  C   UNL     1      -8.782   4.493  -6.961  1.00  0.00     0.014 A 
BRANCH   9  14
ATOM     14  C   UNL     1      -6.937   1.313  -5.866  1.00  0.00     0.064 C 
ATOM     15  N   UNL     1      -5.816   2.112  -2.522  1.00  0.00    -0.180 N 
ATOM     16  N   UNL     1      -7.104   2.506  -2.318  1.00  0.00    -0.168 NA
ATOM     17  C   UNL     1      -5.572   2.093  -3.885  1.00  0.00     0.143 A 
ATOM     18  C   UNL     1      -7.731   2.175  -3.451  1.00  0.00     0.066 A 
ATOM     19  C   UNL     1      -6.797   1.780  -4.452  1.00  0.00     0.026 A 
ATOM     20  N   UNL     1      -4.474   2.344  -4.687  1.00  0.00    -0.310 N 
ATOM     21  C   UNL     1      -9.195   2.406  -3.522  1.00  0.00     0.069 C 
ATOM     22  C   UNL     1      -4.577   2.051  -6.093  1.00  0.00     0.226 C 
ATOM     23  H   UNL     1      -3.644   2.712  -4.307  1.00  0.00     0.171 HD
ATOM     24  C   UNL     1      -5.571   0.975  -6.461  1.00  0.00     0.113 C 
ATOM     25  O   UNL     1      -3.813   2.603  -6.848  1.00  0.00    -0.275 OA
BRANCH  15  26
ATOM     26  C   UNL     1      -5.118   1.393  -1.503  1.00  0.00     0.272 A 
ATOM     27  C   UNL     1      -3.300   0.334  -0.618  1.00  0.00     0.095 A 
ATOM     28  C   UNL     1      -4.121  -0.278   0.314  1.00  0.00     0.164 A 
ATOM     29  N   UNL     1      -3.793   1.149  -1.597  1.00  0.00    -0.208 NA
ATOM     30  N   UNL     1      -5.436  -0.032   0.341  1.00  0.00    -0.153 NA
ATOM     31  N   UNL     1      -5.927   0.850  -0.552  1.00  0.00    -0.109 NA
BRANCH  27  32
ATOM     32  C   UNL     1      -1.841   0.221  -0.499  1.00  0.00     0.002 A 
ATOM     33  C   UNL     1       2.445  -0.034   0.073  1.00  0.00     0.044 C 
ATOM     34  C   UNL     1       0.957   0.061  -0.099  1.00  0.00    -0.051 A 
ATOM     35  C   UNL     1       0.184  -1.102  -0.174  1.00  0.00     0.004 A 
ATOM     36  C   UNL     1       0.326   1.303  -0.206  1.00  0.00     0.004 A 
ATOM     37  C   UNL     1      -1.199  -1.023  -0.369  1.00  0.00     0.011 A 
ATOM     38  C   UNL     1      -1.054   1.380  -0.408  1.00  0.00     0.011 A 
ENDBRANCH  27  32
ENDBRANCH  15  26
ENDBRANCH   9  14
ENDBRANCH   5   8
ENDBRANCH   3   4
ENDBRANCH   2   3
ENDBRANCH   1   2
BRANCH   1  39
ATOM     39  C   UNL     1     -13.971   7.507  -5.774  1.00  0.00     0.002 C 
BRANCH  39  40
ATOM     40  C   UNL     1     -14.123   7.155  -4.295  1.00  0.00     0.021 C 
BRANCH  40  41
ATOM     41  C   UNL     1     -13.975   8.353  -3.376  1.00  0.00     0.116 C 
BRANCH  41  42
ATOM     42  N   UNL     1     -15.164   9.191  -3.329  1.00  0.00    -0.352 N 
ATOM     43  C   UNL     1     -15.502  10.244  -2.503  1.00  0.00     0.251 C 
ATOM     44  H   UNL     1     -15.845   8.967  -4.003  1.00  0.00     0.163 HD
ATOM     45  O   UNL     1     -16.646  10.690  -2.561  1.00  0.00    -0.269 OA
BRANCH  43  46
ATOM     46  C   UNL     1     -14.469  10.983  -1.726  1.00  0.00     0.039 A 
ATOM     47  C   UNL     1     -14.700  12.358  -1.548  1.00  0.00     0.014 A 
ATOM     48  C   UNL     1     -13.180  10.487  -1.635  1.00  0.00     0.014 A 
ATOM     49  C   UNL     1     -13.636  13.240  -1.649  1.00  0.00     0.010 A 
ATOM     50  C   UNL     1     -12.161  11.334  -1.953  1.00  0.00     0.010 A 
ATOM     51  C   UNL     1     -12.406  12.705  -1.997  1.00  0.00    -0.014 A 
BRANCH  51  52
ATOM     52  C   UNL     1     -11.226  13.464  -2.314  1.00  0.00     0.031 A 
ATOM     53  C   UNL     1     -10.283  13.673  -1.206  1.00  0.00     0.074 A 
ATOM     54  C   UNL     1     -10.963  13.692  -3.618  1.00  0.00     0.049 A 
ATOM     55  N   UNL     1      -9.415  14.613  -1.170  1.00  0.00    -0.248 NA
ATOM     56  C   UNL     1     -10.284  12.856   0.011  1.00  0.00     0.031 C 
ATOM     57  C   UNL     1      -9.691  14.035  -4.237  1.00  0.00     0.029 A 
ATOM     58  N   UNL     1     -11.889  13.795  -4.661  1.00  0.00    -0.354 N 
ATOM     59  C   UNL     1      -8.541  14.318  -0.145  1.00  0.00     0.074 A 
ATOM     60  C   UNL     1      -9.198  13.309   0.642  1.00  0.00     0.031 C 
ATOM     61  C   UNL     1      -9.926  14.573  -5.448  1.00  0.00     0.029 A 
ATOM     62  C   UNL     1     -11.366  14.727  -5.580  1.00  0.00     0.049 A 
ATOM     63  H   UNL     1     -12.742  13.309  -4.739  1.00  0.00     0.167 HD
ATOM     64  C   UNL     1      -7.284  14.835  -0.214  1.00  0.00     0.037 A 
ATOM     65  C   UNL     1     -12.001  15.923  -5.780  1.00  0.00     0.037 A 
ATOM     66  C   UNL     1      -7.163  15.629  -1.432  1.00  0.00     0.049 A 
ATOM     67  C   UNL     1     -11.170  17.085  -5.295  1.00  0.00     0.074 A 
ATOM     68  C   UNL     1      -6.704  15.294  -2.696  1.00  0.00     0.029 A 
ATOM     69  N   UNL     1      -7.908  16.791  -1.569  1.00  0.00    -0.354 N 
ATOM     70  N   UNL     1     -10.309  17.002  -4.317  1.00  0.00    -0.248 NA
ATOM     71  C   UNL     1     -11.191  18.405  -5.918  1.00  0.00     0.031 C 
ATOM     72  C   UNL     1      -7.203  16.256  -3.605  1.00  0.00     0.029 A 
ATOM     73  C   UNL     1      -7.957  17.173  -2.892  1.00  0.00     0.049 A 
ATOM     74  H   UNL     1      -8.340  17.273  -0.827  1.00  0.00     0.167 HD
ATOM     75  C   UNL     1      -9.651  18.200  -4.193  1.00  0.00     0.074 A 
ATOM     76  C   UNL     1     -10.246  19.047  -5.209  1.00  0.00     0.031 C 
ATOM     77  C   UNL     1      -8.642  18.389  -3.291  1.00  0.00     0.037 A 
BRANCH  64  78
ATOM     78  C   UNL     1      -6.086  14.400   0.592  1.00  0.00     0.057 A 
ATOM     79  C   UNL     1      -4.785  14.624   0.090  1.00  0.00     0.134 A 
ATOM     80  C   UNL     1      -6.119  13.756   1.840  1.00  0.00     0.134 A 
ATOM     81  F   UNL     1      -4.571  15.289  -1.053  1.00  0.00    -0.206 F 
ATOM     82  C   UNL     1      -3.625  14.182   0.734  1.00  0.00     0.040 A 
ATOM     83  C   UNL     1      -4.964  13.284   2.485  1.00  0.00     0.040 A 
ATOM     84  F   UNL     1      -7.256  13.592   2.524  1.00  0.00    -0.206 F 
ATOM     85  C   UNL     1      -3.710  13.491   1.929  1.00  0.00     0.006 A 
ENDBRANCH  64  78
BRANCH  65  86
ATOM     86  C   UNL     1     -13.483  15.791  -5.657  1.00  0.00     0.057 A 
ATOM     87  C   UNL     1     -14.142  15.036  -6.645  1.00  0.00     0.134 A 
ATOM     88  C   UNL     1     -14.116  15.902  -4.413  1.00  0.00     0.134 A 
ATOM     89  F   UNL     1     -13.603  14.917  -7.869  1.00  0.00    -0.206 F 
ATOM     90  C   UNL     1     -15.269  14.263  -6.351  1.00  0.00     0.040 A 
ATOM     91  C   UNL     1     -15.254  15.141  -4.115  1.00  0.00     0.040 A 
ATOM     92  F   UNL     1     -13.562  16.617  -3.425  1.00  0.00    -0.206 F 
ATOM     93  C   UNL     1     -15.795  14.274  -5.064  1.00  0.00     0.006 A 
ENDBRANCH  65  86
BRANCH  77  94
ATOM     94  C   UNL     1      -8.109  19.716  -2.796  1.00  0.00     0.057 A 
ATOM     95  C   UNL     1      -8.796  20.931  -2.910  1.00  0.00     0.134 A 
ATOM     96  C   UNL     1      -6.918  19.783  -2.029  1.00  0.00     0.134 A 
ATOM     97  F   UNL     1     -10.003  21.010  -3.484  1.00  0.00    -0.206 F 
ATOM     98  C   UNL     1      -8.301  22.130  -2.381  1.00  0.00     0.040 A 
ATOM     99  C   UNL     1      -6.454  20.958  -1.435  1.00  0.00     0.040 A 
ATOM    100  F   UNL     1      -6.157  18.706  -1.787  1.00  0.00    -0.206 F 
ATOM    101  C   UNL     1      -7.133  22.146  -1.632  1.00  0.00     0.006 A 
ENDBRANCH  77  94
ENDBRANCH  51  52
ENDBRANCH  43  46
ENDBRANCH  41  42
ENDBRANCH  40  41
ENDBRANCH  39  40
ENDBRANCH   1  39
TORSDOF 16
