REMARK SMILES CCCCCCNC(=O)Oc1cccc(-c2ccc(CC(=O)NCCCCCCNC(=O)c3ccc(-c4c5nc(c(-c6c(F)cccc6F)c6ccc([nH]6)c(-c6c(F)cccc6F)c6nc(c(-c7c(F)cccc7F)c7ccc4[nH]7)C=C6)C=C5)cc3)cc2F)c1
REMARK SMILES IDX 21 1 22 2 23 3 20 5 19 6 16 7 17 8 88 9 18 10 87 11 89 12
REMARK SMILES IDX 15 13 11 14 12 15 90 16 13 17 14 18 10 19 8 20 7 21 9 23
REMARK SMILES IDX 6 24 5 25 4 26 3 27 2 28 1 29 24 30 25 31 26 32 27 33 28 34
REMARK SMILES IDX 29 35 30 36 31 37 32 39 33 40 34 41 86 42 35 43 85 44 36 45
REMARK SMILES IDX 37 46 38 47 79 48 39 49 84 50 78 51 80 52 40 53 83 54 77 55
REMARK SMILES IDX 76 56 41 58 67 59 50 60 66 61 51 62 54 63 65 64 81 65 52 66
REMARK SMILES IDX 53 67 64 69 82 70 55 71 42 72 43 73 48 74 44 75 45 76 47 77
REMARK SMILES IDX 49 78 46 79 68 80 69 81 74 82 70 83 71 84 73 85 75 86 72 87
REMARK SMILES IDX 56 88 57 89 62 90 58 91 59 92 61 93 63 94 60 95
REMARK H PARENT 23 4 7 22 30 38 80 57 54 68
REMARK Flexibility Score: inf
ROOT
ATOM      1  C   UNL     1      -5.774  12.353   7.683  1.00  0.00     0.224 C 
ATOM      2  O   UNL     1      -5.773  12.922   8.776  1.00  0.00    -0.275 OA
ATOM      3  N   UNL     1      -6.908  12.406   6.924  1.00  0.00    -0.356 N 
ATOM      4  H   UNL     1      -7.623  12.986   7.274  1.00  0.00     0.163 HD
ENDROOT
BRANCH   1   5
ATOM      5  C   UNL     1      -4.534  11.653   7.155  1.00  0.00     0.135 C 
BRANCH   5   6
ATOM      6  C   UNL     1      -4.655  10.153   7.055  1.00  0.00    -0.036 A 
ATOM      7  C   UNL     1      -4.955   7.339   6.811  1.00  0.00     0.018 A 
ATOM      8  C   UNL     1      -5.150   7.986   8.043  1.00  0.00     0.012 A 
ATOM      9  C   UNL     1      -4.582   8.134   5.719  1.00  0.00     0.131 A 
ATOM     10  C   UNL     1      -5.001   9.374   8.166  1.00  0.00     0.005 A 
ATOM     11  C   UNL     1      -4.417   9.512   5.835  1.00  0.00     0.044 A 
ATOM     12  F   UNL     1      -4.395   7.585   4.508  1.00  0.00    -0.206 F 
BRANCH   7  13
ATOM     13  C   UNL     1      -5.126   5.883   6.674  1.00  0.00    -0.012 A 
ATOM     14  C   UNL     1      -4.311   3.728   5.900  1.00  0.00     0.133 A 
ATOM     15  C   UNL     1      -5.468   3.098   6.350  1.00  0.00     0.047 A 
ATOM     16  C   UNL     1      -4.143   5.105   6.043  1.00  0.00     0.056 A 
ATOM     17  C   UNL     1      -6.453   3.853   6.982  1.00  0.00     0.004 A 
ATOM     18  C   UNL     1      -6.282   5.232   7.144  1.00  0.00     0.009 A 
BRANCH  14  19
ATOM     19  O   UNL     1      -3.387   2.943   5.192  1.00  0.00    -0.410 OA
BRANCH  19  20
ATOM     20  C   UNL     1      -2.041   3.055   5.509  1.00  0.00     0.412 C 
ATOM     21  N   UNL     1      -1.227   2.343   4.674  1.00  0.00    -0.321 N 
ATOM     22  H   UNL     1      -0.261   2.385   4.861  1.00  0.00     0.167 HD
ATOM     23  O   UNL     1      -1.569   3.706   6.438  1.00  0.00    -0.224 OA
BRANCH  21  24
ATOM     24  C   UNL     1      -1.635   1.533   3.544  1.00  0.00     0.119 C 
BRANCH  24  25
ATOM     25  C   UNL     1      -1.020   2.026   2.234  1.00  0.00     0.021 C 
BRANCH  25  26
ATOM     26  C   UNL     1       0.511   1.946   2.167  1.00  0.00     0.002 C 
BRANCH  26  27
ATOM     27  C   UNL     1       1.112   0.552   2.377  1.00  0.00    -0.000 C 
BRANCH  27  28
ATOM     28  C   UNL     1       0.635  -0.524   1.399  1.00  0.00    -0.003 C 
ATOM     29  C   UNL     1       1.006  -0.232  -0.046  1.00  0.00     0.004 C 
ENDBRANCH  27  28
ENDBRANCH  26  27
ENDBRANCH  25  26
ENDBRANCH  24  25
ENDBRANCH  21  24
ENDBRANCH  19  20
ENDBRANCH  14  19
ENDBRANCH   7  13
ENDBRANCH   5   6
ENDBRANCH   1   5
BRANCH   3  30
ATOM     30  C   UNL     1      -7.209  11.732   5.676  1.00  0.00     0.116 C 
BRANCH  30  31
ATOM     31  C   UNL     1      -8.162  10.555   5.896  1.00  0.00     0.021 C 
BRANCH  31  32
ATOM     32  C   UNL     1      -9.589  10.969   6.280  1.00  0.00     0.002 C 
BRANCH  32  33
ATOM     33  C   UNL     1     -10.312  11.853   5.256  1.00  0.00     0.002 C 
BRANCH  33  34
ATOM     34  C   UNL     1     -10.404  11.272   3.843  1.00  0.00     0.021 C 
BRANCH  34  35
ATOM     35  C   UNL     1     -11.159   9.948   3.745  1.00  0.00     0.116 C 
BRANCH  35  36
ATOM     36  N   UNL     1     -12.567  10.092   4.086  1.00  0.00    -0.352 N 
ATOM     37  C   UNL     1     -13.681   9.782   3.345  1.00  0.00     0.251 C 
ATOM     38  H   UNL     1     -12.747  10.467   4.978  1.00  0.00     0.163 HD
ATOM     39  O   UNL     1     -14.793  10.142   3.716  1.00  0.00    -0.269 OA
BRANCH  37  40
ATOM     40  C   UNL     1     -13.537   9.030   2.081  1.00  0.00     0.039 A 
ATOM     41  C   UNL     1     -14.202   9.488   0.940  1.00  0.00     0.014 A 
ATOM     42  C   UNL     1     -12.746   7.879   2.021  1.00  0.00     0.014 A 
ATOM     43  C   UNL     1     -14.010   8.837  -0.281  1.00  0.00     0.010 A 
ATOM     44  C   UNL     1     -12.509   7.267   0.794  1.00  0.00     0.010 A 
ATOM     45  C   UNL     1     -13.129   7.748  -0.371  1.00  0.00    -0.014 A 
BRANCH  45  46
ATOM     46  C   UNL     1     -12.807   7.115  -1.674  1.00  0.00     0.031 A 
ATOM     47  C   UNL     1     -13.188   5.688  -1.938  1.00  0.00     0.074 A 
ATOM     48  C   UNL     1     -12.077   7.798  -2.578  1.00  0.00     0.049 A 
ATOM     49  N   UNL     1     -12.879   4.925  -2.955  1.00  0.00    -0.248 NA
ATOM     50  C   UNL     1     -14.003   5.022  -0.910  1.00  0.00     0.031 C 
ATOM     51  C   UNL     1     -11.607   9.175  -2.419  1.00  0.00     0.029 A 
ATOM     52  N   UNL     1     -11.579   7.415  -3.798  1.00  0.00    -0.354 N 
ATOM     53  C   UNL     1     -13.441   3.685  -2.681  1.00  0.00     0.074 A 
ATOM     54  C   UNL     1     -14.079   3.787  -1.386  1.00  0.00     0.031 C 
ATOM     55  C   UNL     1     -10.888   9.521  -3.498  1.00  0.00     0.029 A 
ATOM     56  C   UNL     1     -10.813   8.380  -4.405  1.00  0.00     0.049 A 
ATOM     57  H   UNL     1     -11.753   6.533  -4.199  1.00  0.00     0.167 HD
ATOM     58  C   UNL     1     -13.435   2.568  -3.446  1.00  0.00     0.037 A 
ATOM     59  C   UNL     1     -10.107   8.343  -5.552  1.00  0.00     0.037 A 
ATOM     60  C   UNL     1     -12.825   2.479  -4.747  1.00  0.00     0.049 A 
ATOM     61  C   UNL     1     -10.105   7.088  -6.377  1.00  0.00     0.074 A 
ATOM     62  C   UNL     1     -12.850   1.422  -5.640  1.00  0.00     0.029 A 
ATOM     63  N   UNL     1     -12.070   3.483  -5.335  1.00  0.00    -0.354 N 
ATOM     64  N   UNL     1     -10.707   5.947  -6.144  1.00  0.00    -0.248 NA
ATOM     65  C   UNL     1      -9.322   7.112  -7.621  1.00  0.00     0.031 C 
ATOM     66  C   UNL     1     -12.070   1.769  -6.749  1.00  0.00     0.029 A 
ATOM     67  C   UNL     1     -11.594   3.057  -6.563  1.00  0.00     0.049 A 
ATOM     68  H   UNL     1     -11.899   4.367  -4.938  1.00  0.00     0.167 HD
ATOM     69  C   UNL     1     -10.388   5.123  -7.214  1.00  0.00     0.074 A 
ATOM     70  C   UNL     1      -9.552   5.899  -8.107  1.00  0.00     0.031 C 
ATOM     71  C   UNL     1     -10.755   3.838  -7.436  1.00  0.00     0.037 A 
BRANCH  58  72
ATOM     72  C   UNL     1     -14.110   1.347  -2.895  1.00  0.00     0.057 A 
ATOM     73  C   UNL     1     -15.503   1.254  -2.791  1.00  0.00     0.134 A 
ATOM     74  C   UNL     1     -13.356   0.235  -2.497  1.00  0.00     0.134 A 
ATOM     75  F   UNL     1     -16.281   2.288  -3.146  1.00  0.00    -0.206 F 
ATOM     76  C   UNL     1     -16.123   0.110  -2.287  1.00  0.00     0.040 A 
ATOM     77  C   UNL     1     -13.966  -0.924  -2.015  1.00  0.00     0.040 A 
ATOM     78  F   UNL     1     -12.017   0.255  -2.577  1.00  0.00    -0.206 F 
ATOM     79  C   UNL     1     -15.353  -0.987  -1.903  1.00  0.00     0.006 A 
ENDBRANCH  58  72
BRANCH  59  80
ATOM     80  C   UNL     1      -9.337   9.536  -5.981  1.00  0.00     0.057 A 
ATOM     81  C   UNL     1      -9.755  10.313  -7.066  1.00  0.00     0.134 A 
ATOM     82  C   UNL     1      -8.173   9.934  -5.311  1.00  0.00     0.134 A 
ATOM     83  F   UNL     1     -10.852   9.971  -7.758  1.00  0.00    -0.206 F 
ATOM     84  C   UNL     1      -9.039  11.438  -7.478  1.00  0.00     0.040 A 
ATOM     85  C   UNL     1      -7.459  11.069  -5.698  1.00  0.00     0.040 A 
ATOM     86  F   UNL     1      -7.724   9.233  -4.259  1.00  0.00    -0.206 F 
ATOM     87  C   UNL     1      -7.890  11.822  -6.788  1.00  0.00     0.006 A 
ENDBRANCH  59  80
BRANCH  71  88
ATOM     88  C   UNL     1     -10.259   3.189  -8.694  1.00  0.00     0.057 A 
ATOM     89  C   UNL     1      -8.931   2.767  -8.825  1.00  0.00     0.134 A 
ATOM     90  C   UNL     1     -11.130   2.934  -9.760  1.00  0.00     0.134 A 
ATOM     91  F   UNL     1      -8.044   2.995  -7.844  1.00  0.00    -0.206 F 
ATOM     92  C   UNL     1      -8.483   2.121  -9.979  1.00  0.00     0.040 A 
ATOM     93  C   UNL     1     -10.700   2.270 -10.909  1.00  0.00     0.040 A 
ATOM     94  F   UNL     1     -12.417   3.308  -9.693  1.00  0.00    -0.206 F 
ATOM     95  C   UNL     1      -9.372   1.864 -11.022  1.00  0.00     0.006 A 
ENDBRANCH  71  88
ENDBRANCH  45  46
ENDBRANCH  37  40
ENDBRANCH  35  36
ENDBRANCH  34  35
ENDBRANCH  33  34
ENDBRANCH  32  33
ENDBRANCH  31  32
ENDBRANCH  30  31
ENDBRANCH   3  30
TORSDOF 22
