REMARK SMILES Cc1c(C(=O)Nc2ccc(C(=O)Nc3ccccc3C(=O)NCCCCCCNC(=O)c3ccc(-c4c5nc(c(-c6c(F)cccc6F)c6ccc([nH]6)c(-c6c(F)cccc6F)c6nc(c(-c7c(F)cccc7F)c7ccc4[nH]7)C=C6)C=C5)cc3)cc2)cccc1[N+](=O)[O-]
REMARK SMILES IDX 24 1 23 2 22 3 20 4 21 5 19 7 14 8 15 9 16 10 18 11 17 12
REMARK SMILES IDX 13 13 11 14 12 15 10 17 7 18 8 19 87 20 9 21 86 22 6 23 4 24
REMARK SMILES IDX 5 25 3 27 1 28 2 29 91 30 88 31 90 32 89 33 92 34 93 35
REMARK SMILES IDX 94 36 25 37 26 38 27 39 28 40 29 41 30 42 31 44 32 45 33 46
REMARK SMILES IDX 85 47 34 48 84 49 35 50 36 51 37 52 78 53 38 54 83 55 77 56
REMARK SMILES IDX 79 57 39 58 82 59 76 60 75 61 40 63 66 64 49 65 65 66 50 67
REMARK SMILES IDX 53 68 64 69 80 70 51 71 52 72 63 74 81 75 54 76 41 77 42 78
REMARK SMILES IDX 47 79 43 80 44 81 46 82 48 83 45 84 67 85 68 86 73 87 69 88
REMARK SMILES IDX 70 89 72 90 74 91 71 92 55 93 56 94 61 95 57 96 58 97 60 98
REMARK SMILES IDX 62 99 59 100
REMARK H PARENT 22 6 13 16 6 26 29 43 79 62 53 73
REMARK Flexibility Score: inf
ROOT
ATOM      1  C   UNL     1       3.160  -1.763   3.879  1.00  0.00     0.021 C 
ENDROOT
BRANCH   1   2
ATOM      2  C   UNL     1       3.436  -0.298   4.229  1.00  0.00     0.116 C 
BRANCH   2   3
ATOM      3  N   UNL     1       4.728   0.214   3.819  1.00  0.00    -0.352 N 
ATOM      4  C   UNL     1       5.128   1.486   3.468  1.00  0.00     0.253 C 
ATOM      5  O   UNL     1       6.326   1.693   3.294  1.00  0.00    -0.269 OA
ATOM      6  H   UNL     1       5.443  -0.462   3.785  1.00  0.00     0.163 HD
BRANCH   4   7
ATOM      7  C   UNL     1       4.152   2.594   3.266  1.00  0.00     0.063 A 
ATOM      8  C   UNL     1       4.247   3.471   2.161  1.00  0.00     0.054 A 
ATOM      9  C   UNL     1       3.348   4.547   2.058  1.00  0.00     0.027 A 
ATOM     10  C   UNL     1       2.317   4.708   2.982  1.00  0.00     0.002 A 
ATOM     11  C   UNL     1       3.162   2.826   4.235  1.00  0.00     0.016 A 
ATOM     12  C   UNL     1       2.224   3.849   4.072  1.00  0.00     0.001 A 
BRANCH   8  13
ATOM     13  N   UNL     1       5.127   3.341   1.067  1.00  0.00    -0.321 N 
ATOM     14  C   UNL     1       5.539   2.239   0.345  1.00  0.00     0.255 C 
ATOM     15  O   UNL     1       6.480   2.365  -0.441  1.00  0.00    -0.269 OA
ATOM     16  H   UNL     1       5.519   4.191   0.762  1.00  0.00     0.170 HD
BRANCH  14  17
ATOM     17  C   UNL     1       4.763   0.963   0.324  1.00  0.00     0.040 A 
ATOM     18  C   UNL     1       3.211  -1.349  -0.107  1.00  0.00     0.041 A 
ATOM     19  C   UNL     1       2.712  -0.290   0.634  1.00  0.00     0.027 A 
ATOM     20  C   UNL     1       4.555  -1.326  -0.490  1.00  0.00     0.027 A 
ATOM     21  C   UNL     1       3.439   0.886   0.749  1.00  0.00     0.016 A 
ATOM     22  C   UNL     1       5.329  -0.174  -0.270  1.00  0.00     0.016 A 
BRANCH  18  23
ATOM     23  N   UNL     1       2.387  -2.385  -0.579  1.00  0.00    -0.322 N 
ATOM     24  C   UNL     1       1.017  -2.434  -0.784  1.00  0.00     0.256 C 
ATOM     25  O   UNL     1       0.492  -3.505  -1.085  1.00  0.00    -0.269 OA
ATOM     26  H   UNL     1       2.863  -3.218  -0.800  1.00  0.00     0.170 HD
BRANCH  24  27
ATOM     27  C   UNL     1       0.132  -1.236  -0.646  1.00  0.00     0.049 A 
ATOM     28  C   UNL     1       1.394   0.188  -2.342  1.00  0.00     0.053 C 
ATOM     29  C   UNL     1       0.386   0.026  -1.234  1.00  0.00     0.039 A 
ATOM     30  C   UNL     1      -0.354   1.125  -0.737  1.00  0.00     0.273 A 
ATOM     31  C   UNL     1      -0.995  -1.416   0.178  1.00  0.00     0.014 A 
ATOM     32  C   UNL     1      -1.459   0.943   0.112  1.00  0.00     0.086 A 
ATOM     33  C   UNL     1      -1.810  -0.338   0.523  1.00  0.00     0.008 A 
BRANCH  30  34
ATOM     34  N   UNL     1       0.075   2.510  -0.974  1.00  0.00     0.063 N 
ATOM     35  O   UNL     1      -0.805   3.380  -1.034  1.00  0.00    -0.258 OA
ATOM     36  O   UNL     1       1.292   2.737  -1.017  1.00  0.00    -0.258 OA
ENDBRANCH  30  34
ENDBRANCH  24  27
ENDBRANCH  18  23
ENDBRANCH  14  17
ENDBRANCH   8  13
ENDBRANCH   4   7
ENDBRANCH   2   3
ENDBRANCH   1   2
BRANCH   1  37
ATOM     37  C   UNL     1       4.272  -2.792   4.102  1.00  0.00     0.002 C 
BRANCH  37  38
ATOM     38  C   UNL     1       4.925  -2.848   5.487  1.00  0.00     0.002 C 
BRANCH  38  39
ATOM     39  C   UNL     1       3.988  -2.818   6.692  1.00  0.00     0.021 C 
BRANCH  39  40
ATOM     40  C   UNL     1       3.006  -3.976   6.775  1.00  0.00     0.116 C 
BRANCH  40  41
ATOM     41  N   UNL     1       3.485  -5.118   7.531  1.00  0.00    -0.352 N 
ATOM     42  C   UNL     1       2.862  -6.320   7.838  1.00  0.00     0.251 C 
ATOM     43  H   UNL     1       4.400  -5.025   7.883  1.00  0.00     0.163 HD
ATOM     44  O   UNL     1       3.410  -7.092   8.593  1.00  0.00    -0.269 OA
BRANCH  42  45
ATOM     45  C   UNL     1       1.615  -6.734   7.126  1.00  0.00     0.039 A 
ATOM     46  C   UNL     1       1.466  -8.103   6.856  1.00  0.00     0.014 A 
ATOM     47  C   UNL     1       0.731  -5.827   6.552  1.00  0.00     0.014 A 
ATOM     48  C   UNL     1       0.634  -8.517   5.818  1.00  0.00     0.010 A 
ATOM     49  C   UNL     1      -0.019  -6.214   5.463  1.00  0.00     0.010 A 
ATOM     50  C   UNL     1      -0.004  -7.547   5.053  1.00  0.00    -0.014 A 
BRANCH  50  51
ATOM     51  C   UNL     1      -0.599  -7.807   3.755  1.00  0.00     0.031 A 
ATOM     52  C   UNL     1      -2.055  -7.963   3.625  1.00  0.00     0.074 A 
ATOM     53  C   UNL     1       0.193  -7.795   2.661  1.00  0.00     0.049 A 
ATOM     54  N   UNL     1      -2.625  -8.605   2.665  1.00  0.00    -0.248 NA
ATOM     55  C   UNL     1      -2.995  -7.426   4.600  1.00  0.00     0.031 C 
ATOM     56  C   UNL     1      -0.221  -7.761   1.262  1.00  0.00     0.029 A 
ATOM     57  N   UNL     1       1.575  -8.026   2.612  1.00  0.00    -0.354 N 
ATOM     58  C   UNL     1      -3.973  -8.340   2.728  1.00  0.00     0.074 A 
ATOM     59  C   UNL     1      -4.161  -7.660   3.989  1.00  0.00     0.031 C 
ATOM     60  C   UNL     1       0.778  -8.245   0.507  1.00  0.00     0.029 A 
ATOM     61  C   UNL     1       1.801  -8.735   1.413  1.00  0.00     0.049 A 
ATOM     62  H   UNL     1       2.247  -7.750   3.275  1.00  0.00     0.167 HD
ATOM     63  C   UNL     1      -4.750  -8.606   1.639  1.00  0.00     0.037 A 
ATOM     64  C   UNL     1       2.286 -10.010   1.429  1.00  0.00     0.037 A 
ATOM     65  C   UNL     1      -3.959  -9.196   0.562  1.00  0.00     0.049 A 
ATOM     66  C   UNL     1       1.371 -11.020   0.778  1.00  0.00     0.074 A 
ATOM     67  C   UNL     1      -3.363  -8.654  -0.566  1.00  0.00     0.029 A 
ATOM     68  N   UNL     1      -3.406 -10.460   0.728  1.00  0.00    -0.354 N 
ATOM     69  N   UNL     1       0.096 -10.829   0.579  1.00  0.00    -0.248 NA
ATOM     70  C   UNL     1       1.817 -12.324   0.302  1.00  0.00     0.031 C 
ATOM     71  C   UNL     1      -2.430  -9.593  -1.069  1.00  0.00     0.029 A 
ATOM     72  C   UNL     1      -2.470 -10.712  -0.256  1.00  0.00     0.049 A 
ATOM     73  H   UNL     1      -3.649 -11.088   1.446  1.00  0.00     0.167 HD
ATOM     74  C   UNL     1      -0.452 -11.935  -0.026  1.00  0.00     0.074 A 
ATOM     75  C   UNL     1       0.675 -12.832  -0.197  1.00  0.00     0.031 C 
ATOM     76  C   UNL     1      -1.787 -11.998  -0.321  1.00  0.00     0.037 A 
BRANCH  63  77
ATOM     77  C   UNL     1      -6.145  -8.057   1.448  1.00  0.00     0.057 A 
ATOM     78  C   UNL     1      -6.637  -7.754   0.163  1.00  0.00     0.134 A 
ATOM     79  C   UNL     1      -7.039  -7.763   2.491  1.00  0.00     0.134 A 
ATOM     80  F   UNL     1      -5.962  -8.077  -0.948  1.00  0.00    -0.206 F 
ATOM     81  C   UNL     1      -7.855  -7.097  -0.055  1.00  0.00     0.040 A 
ATOM     82  C   UNL     1      -8.237  -7.059   2.295  1.00  0.00     0.040 A 
ATOM     83  F   UNL     1      -6.820  -8.191   3.741  1.00  0.00    -0.206 F 
ATOM     84  C   UNL     1      -8.642  -6.708   1.016  1.00  0.00     0.006 A 
ENDBRANCH  63  77
BRANCH  64  85
ATOM     85  C   UNL     1       3.193 -10.273   2.578  1.00  0.00     0.057 A 
ATOM     86  C   UNL     1       4.414  -9.576   2.634  1.00  0.00     0.134 A 
ATOM     87  C   UNL     1       2.727 -10.836   3.768  1.00  0.00     0.134 A 
ATOM     88  F   UNL     1       4.918  -9.010   1.526  1.00  0.00    -0.206 F 
ATOM     89  C   UNL     1       5.078  -9.343   3.841  1.00  0.00     0.040 A 
ATOM     90  C   UNL     1       3.392 -10.620   4.982  1.00  0.00     0.040 A 
ATOM     91  F   UNL     1       1.561 -11.497   3.801  1.00  0.00    -0.206 F 
ATOM     92  C   UNL     1       4.544  -9.836   5.028  1.00  0.00     0.006 A 
ENDBRANCH  64  85
BRANCH  76  93
ATOM     93  C   UNL     1      -2.595 -13.206  -0.768  1.00  0.00     0.057 A 
ATOM     94  C   UNL     1      -2.202 -14.543  -0.624  1.00  0.00     0.134 A 
ATOM     95  C   UNL     1      -3.918 -13.039  -1.256  1.00  0.00     0.134 A 
ATOM     96  F   UNL     1      -1.026 -14.882  -0.085  1.00  0.00    -0.206 F 
ATOM     97  C   UNL     1      -3.033 -15.621  -0.971  1.00  0.00     0.040 A 
ATOM     98  C   UNL     1      -4.776 -14.105  -1.546  1.00  0.00     0.040 A 
ATOM     99  F   UNL     1      -4.461 -11.828  -1.450  1.00  0.00    -0.206 F 
ATOM    100  C   UNL     1      -4.330 -15.406  -1.417  1.00  0.00     0.006 A 
ENDBRANCH  76  93
ENDBRANCH  50  51
ENDBRANCH  42  45
ENDBRANCH  40  41
ENDBRANCH  39  40
ENDBRANCH  38  39
ENDBRANCH  37  38
ENDBRANCH   1  37
TORSDOF 18
