REMARK SMILES Cc1cc2c(N[C@@H]3CCCCC[C@@H]3C(=O)NCCCCCCNC(=O)c3ccc(-c4c5nc(c(-c6c(F)cccc6F)c6ccc([nH]6)c(-c6c(F)cccc6F)c6nc(c(-c7c(F)cccc7F)c7ccc4[nH]7)C=C6)C=C5)cc3)ncnc2s1
REMARK SMILES IDX 19 1 18 2 17 3 16 4 14 5 15 6 13 8 7 9 6 10 5 12 1 13 2 14
REMARK SMILES IDX 3 15 84 16 4 17 83 18 82 19 80 20 81 21 8 22 9 23 12 25
REMARK SMILES IDX 11 26 10 27 20 29 21 30 22 31 23 32 24 33 25 35 26 36 27 37
REMARK SMILES IDX 79 38 28 39 78 40 29 41 30 42 31 43 72 44 32 45 77 46 71 47
REMARK SMILES IDX 73 48 33 49 76 50 70 51 69 52 34 54 60 55 43 56 59 57 44 58
REMARK SMILES IDX 47 59 58 60 74 61 45 62 46 63 57 65 75 66 48 67 35 68 36 69
REMARK SMILES IDX 41 70 37 71 38 72 40 73 42 74 39 75 61 76 62 77 67 78 63 79
REMARK SMILES IDX 64 80 66 81 68 82 65 83 49 84 50 85 55 86 51 87 52 88 54 89
REMARK SMILES IDX 56 90 53 91
REMARK H PARENT 16 7 6 11 23 34 73 53 47 64
REMARK Flexibility Score: 100.00
ROOT
ATOM      1  C   UNL     1      -2.106  -9.028  -1.332  1.00  0.00     0.002 C 
ENDROOT
BRANCH   1   2
ATOM      2  C   UNL     1      -0.673  -8.488  -1.364  1.00  0.00     0.021 C 
BRANCH   2   3
ATOM      3  C   UNL     1      -0.564  -7.018  -1.745  1.00  0.00     0.116 C 
BRANCH   3   4
ATOM      4  N   UNL     1      -1.289  -6.177  -0.814  1.00  0.00    -0.356 N 
ATOM      5  C   UNL     1      -0.959  -4.964  -0.295  1.00  0.00     0.225 C 
ATOM      6  O   UNL     1      -1.787  -4.396   0.416  1.00  0.00    -0.275 OA
ATOM      7  H   UNL     1      -2.154  -6.539  -0.512  1.00  0.00     0.163 HD
BRANCH   5   8
ATOM      8  C   UNL     1       0.382  -4.343  -0.657  1.00  0.00     0.101 C 
BRANCH   8   9
ATOM      9  C   UNL     1       1.480  -4.709   0.367  1.00  0.00     0.093 C 
BRANCH   9  10
ATOM     10  N   UNL     1       1.123  -4.755   1.788  1.00  0.00    -0.366 N 
ATOM     11  H   UNL     1       1.337  -5.614   2.218  1.00  0.00     0.162 HD
BRANCH  10  12
ATOM     12  C   UNL     1       0.551  -3.844   2.643  1.00  0.00     0.138 A 
ATOM     13  C   UNL     1       0.834   0.846   0.742  1.00  0.00     0.056 C 
ATOM     14  C   UNL     1       0.602  -0.246   1.726  1.00  0.00     0.004 A 
ATOM     15  C   UNL     1       1.182  -1.492   1.714  1.00  0.00     0.029 A 
ATOM     16  S   UNL     1      -0.500  -0.115   3.019  1.00  0.00    -0.121 S 
ATOM     17  C   UNL     1       0.515  -2.443   2.537  1.00  0.00     0.054 A 
ATOM     18  C   UNL     1      -0.325  -1.772   3.413  1.00  0.00     0.129 A 
ATOM     19  N   UNL     1      -0.995  -2.311   4.445  1.00  0.00    -0.225 NA
ATOM     20  N   UNL     1      -0.067  -4.408   3.708  1.00  0.00    -0.219 NA
ATOM     21  C   UNL     1      -0.785  -3.627   4.535  1.00  0.00     0.225 A 
ENDBRANCH  10  12
ENDBRANCH   9  10
BRANCH   9  22
ATOM     22  C   UNL     1       2.888  -4.123   0.178  1.00  0.00     0.026 C 
BRANCH  22  23
ATOM     23  C   UNL     1       3.241  -3.602  -1.214  1.00  0.00     0.002 CG0
ATOM     24  G   UNL     1       2.612  -2.267  -1.604  1.00  0.00     0.000 G0
ENDBRANCH  22  23
ENDBRANCH   9  22
ENDBRANCH   8   9
BRANCH   8  25
ATOM     25  C   UNL     1       0.134  -2.892  -1.065  1.00  0.00     0.015 C 
BRANCH  25  26
ATOM     26  C   UNL     1       1.155  -2.316  -2.040  1.00  0.00     0.001 C 
BRANCH  26  27
ATOM     27  C   UNL     1       2.612  -2.267  -1.604  1.00  0.00     0.000 CG0
ATOM     28  G   UNL     1       3.241  -3.602  -1.214  1.00  0.00     0.000 G0
ENDBRANCH  26  27
ENDBRANCH  25  26
ENDBRANCH   8  25
ENDBRANCH   5   8
ENDBRANCH   3   4
ENDBRANCH   2   3
ENDBRANCH   1   2
BRANCH   1  29
ATOM     29  C   UNL     1      -2.933  -8.789  -2.604  1.00  0.00     0.002 C 
BRANCH  29  30
ATOM     30  C   UNL     1      -2.307  -9.284  -3.915  1.00  0.00     0.021 C 
BRANCH  30  31
ATOM     31  C   UNL     1      -2.065 -10.782  -3.934  1.00  0.00     0.116 C 
BRANCH  31  32
ATOM     32  N   UNL     1      -3.307 -11.550  -3.928  1.00  0.00    -0.352 N 
ATOM     33  C   UNL     1      -3.450 -12.919  -4.066  1.00  0.00     0.251 C 
ATOM     34  H   UNL     1      -4.138 -11.035  -3.813  1.00  0.00     0.163 HD
ATOM     35  O   UNL     1      -4.511 -13.425  -4.382  1.00  0.00    -0.269 OA
BRANCH  33  36
ATOM     36  C   UNL     1      -2.271 -13.756  -3.790  1.00  0.00     0.039 A 
ATOM     37  C   UNL     1      -1.921 -14.829  -4.615  1.00  0.00     0.014 A 
ATOM     38  C   UNL     1      -1.494 -13.411  -2.688  1.00  0.00     0.014 A 
ATOM     39  C   UNL     1      -0.740 -15.516  -4.347  1.00  0.00     0.010 A 
ATOM     40  C   UNL     1      -0.258 -13.970  -2.531  1.00  0.00     0.010 A 
ATOM     41  C   UNL     1       0.088 -15.071  -3.305  1.00  0.00    -0.014 A 
BRANCH  41  42
ATOM     42  C   UNL     1       1.390 -15.672  -3.051  1.00  0.00     0.031 A 
ATOM     43  C   UNL     1       2.324 -15.613  -4.209  1.00  0.00     0.074 A 
ATOM     44  C   UNL     1       1.774 -16.011  -1.799  1.00  0.00     0.049 A 
ATOM     45  N   UNL     1       2.825 -16.602  -4.873  1.00  0.00    -0.248 NA
ATOM     46  C   UNL     1       2.630 -14.294  -4.795  1.00  0.00     0.031 C 
ATOM     47  C   UNL     1       1.037 -15.830  -0.538  1.00  0.00     0.029 A 
ATOM     48  N   UNL     1       2.966 -16.501  -1.367  1.00  0.00    -0.354 N 
ATOM     49  C   UNL     1       3.678 -16.037  -5.818  1.00  0.00     0.074 A 
ATOM     50  C   UNL     1       3.379 -14.630  -5.847  1.00  0.00     0.031 C 
ATOM     51  C   UNL     1       1.876 -15.978   0.512  1.00  0.00     0.029 A 
ATOM     52  C   UNL     1       3.155 -16.442   0.013  1.00  0.00     0.049 A 
ATOM     53  H   UNL     1       3.643 -16.869  -1.980  1.00  0.00     0.167 HD
ATOM     54  C   UNL     1       4.738 -16.736  -6.311  1.00  0.00     0.037 A 
ATOM     55  C   UNL     1       4.295 -16.744   0.683  1.00  0.00     0.037 A 
ATOM     56  C   UNL     1       4.602 -18.143  -6.035  1.00  0.00     0.049 A 
ATOM     57  C   UNL     1       5.119 -17.571  -0.229  1.00  0.00     0.074 A 
ATOM     58  C   UNL     1       3.707 -19.129  -6.397  1.00  0.00     0.029 A 
ATOM     59  N   UNL     1       5.274 -18.625  -4.941  1.00  0.00    -0.354 N 
ATOM     60  N   UNL     1       4.790 -18.772  -0.611  1.00  0.00    -0.248 NA
ATOM     61  C   UNL     1       6.076 -16.880  -1.077  1.00  0.00     0.031 C 
ATOM     62  C   UNL     1       3.564 -19.943  -5.234  1.00  0.00     0.029 A 
ATOM     63  C   UNL     1       4.432 -19.457  -4.254  1.00  0.00     0.049 A 
ATOM     64  H   UNL     1       6.202 -18.409  -4.693  1.00  0.00     0.167 HD
ATOM     65  C   UNL     1       5.145 -18.823  -1.950  1.00  0.00     0.074 A 
ATOM     66  C   UNL     1       6.013 -17.664  -2.156  1.00  0.00     0.031 C 
ATOM     67  C   UNL     1       4.465 -19.627  -2.819  1.00  0.00     0.037 A 
BRANCH  54  68
ATOM     68  C   UNL     1       6.070 -16.123  -6.671  1.00  0.00     0.057 A 
ATOM     69  C   UNL     1       7.040 -16.913  -7.313  1.00  0.00     0.134 A 
ATOM     70  C   UNL     1       6.544 -14.901  -6.151  1.00  0.00     0.134 A 
ATOM     71  F   UNL     1       6.721 -18.110  -7.829  1.00  0.00    -0.206 F 
ATOM     72  C   UNL     1       8.390 -16.544  -7.375  1.00  0.00     0.040 A 
ATOM     73  C   UNL     1       7.878 -14.499  -6.252  1.00  0.00     0.040 A 
ATOM     74  F   UNL     1       5.772 -14.081  -5.428  1.00  0.00    -0.206 F 
ATOM     75  C   UNL     1       8.814 -15.335  -6.839  1.00  0.00     0.006 A 
ENDBRANCH  54  68
BRANCH  55  76
ATOM     76  C   UNL     1       4.881 -16.114   1.890  1.00  0.00     0.057 A 
ATOM     77  C   UNL     1       5.927 -16.739   2.588  1.00  0.00     0.134 A 
ATOM     78  C   UNL     1       4.667 -14.757   2.184  1.00  0.00     0.134 A 
ATOM     79  F   UNL     1       6.229 -18.024   2.351  1.00  0.00    -0.206 F 
ATOM     80  C   UNL     1       6.745 -16.043   3.488  1.00  0.00     0.040 A 
ATOM     81  C   UNL     1       5.476 -14.051   3.084  1.00  0.00     0.040 A 
ATOM     82  F   UNL     1       3.732 -14.049   1.534  1.00  0.00    -0.206 F 
ATOM     83  C   UNL     1       6.533 -14.689   3.724  1.00  0.00     0.006 A 
ENDBRANCH  55  76
BRANCH  67  84
ATOM     84  C   UNL     1       3.508 -20.633  -2.235  1.00  0.00     0.057 A 
ATOM     85  C   UNL     1       2.321 -20.303  -1.560  1.00  0.00     0.134 A 
ATOM     86  C   UNL     1       3.723 -21.988  -2.500  1.00  0.00     0.134 A 
ATOM     87  F   UNL     1       1.982 -19.029  -1.335  1.00  0.00    -0.206 F 
ATOM     88  C   UNL     1       1.410 -21.279  -1.143  1.00  0.00     0.040 A 
ATOM     89  C   UNL     1       2.807 -22.970  -2.118  1.00  0.00     0.040 A 
ATOM     90  F   UNL     1       4.811 -22.376  -3.184  1.00  0.00    -0.206 F 
ATOM     91  C   UNL     1       1.648 -22.619  -1.431  1.00  0.00     0.006 A 
ENDBRANCH  67  84
ENDBRANCH  41  42
ENDBRANCH  33  36
ENDBRANCH  31  32
ENDBRANCH  30  31
ENDBRANCH  29  30
ENDBRANCH   1  29
TORSDOF 15
