REMARK SMILES O=C(COc1cccc(/C=C2/SC(=S)N(NC(=O)c3ccccc3F)C2=O)c1)NCCCCCCNC(=O)c1ccc(-c2c3nc(c(-c4c(F)cccc4F)c4ccc([nH]4)c(-c4c(F)cccc4F)c4nc(c(-c5c(F)cccc5F)c5ccc2[nH]5)C=C4)C=C3)cc1
REMARK SMILES IDX 31 1 30 2 29 3 1 4 2 5 3 7 4 8 5 9 6 10 28 11 7 12 9 13 8 14
REMARK SMILES IDX 10 15 11 16 12 17 26 18 13 19 15 20 27 21 14 22 16 23 17 24
REMARK SMILES IDX 18 26 19 27 20 28 24 29 21 30 23 31 25 32 22 33 32 34 33 35
REMARK SMILES IDX 34 36 35 37 36 38 37 39 38 41 39 42 40 43 92 44 41 45 91 46
REMARK SMILES IDX 42 47 43 48 44 49 85 50 45 51 90 52 84 53 86 54 46 55 89 56
REMARK SMILES IDX 83 57 82 58 47 60 73 61 56 62 72 63 57 64 60 65 71 66 87 67
REMARK SMILES IDX 58 68 59 69 70 71 88 72 61 73 48 74 49 75 54 76 50 77 51 78
REMARK SMILES IDX 53 79 55 80 52 81 74 82 75 83 80 84 76 85 77 86 79 87 81 88
REMARK SMILES IDX 78 89 62 90 63 91 68 92 64 93 65 94 67 95 69 96 66 97
REMARK H PARENT 29 6 16 25 36 40 86 59 60 70
REMARK Flexibility Score: inf
ROOT
ATOM      1  C   UNL     1       2.627   1.087   3.238  1.00  0.00     0.021 C 
ENDROOT
BRANCH   1   2
ATOM      2  C   UNL     1       1.980   1.392   1.890  1.00  0.00     0.116 C 
BRANCH   2   3
ATOM      3  N   UNL     1       2.486   0.584   0.795  1.00  0.00    -0.353 N 
ATOM      4  O   UNL     1       0.757  -0.920   0.831  1.00  0.00    -0.271 OA
ATOM      5  C   UNL     1       1.779  -0.490   0.298  1.00  0.00     0.257 C 
ATOM      6  H   UNL     1       3.357   0.810   0.397  1.00  0.00     0.163 HD
BRANCH   5   7
ATOM      7  C   UNL     1       2.355  -1.153  -0.967  1.00  0.00     0.329 C 
BRANCH   7   8
ATOM      8  O   UNL     1       3.172  -0.420  -1.864  1.00  0.00    -0.484 OA
BRANCH   8   9
ATOM      9  C   UNL     1       2.518   0.391  -2.753  1.00  0.00     0.120 A 
ATOM     10  C   UNL     1       2.968   0.368  -4.074  1.00  0.00     0.046 A 
ATOM     11  C   UNL     1       1.597   1.359  -2.359  1.00  0.00     0.054 A 
ATOM     12  C   UNL     1       2.514   1.320  -4.989  1.00  0.00     0.004 A 
ATOM     13  C   UNL     1       1.247   2.397  -3.228  1.00  0.00    -0.021 A 
ATOM     14  C   UNL     1       1.672   2.348  -4.560  1.00  0.00     0.008 A 
BRANCH  13  15
ATOM     15  C   UNL     1       0.547   3.596  -2.746  1.00  0.00     0.029 C 
ATOM     16  C   UNL     1       1.013   4.420  -1.790  1.00  0.00     0.082 C 
ATOM     17  S   UNL     1       0.312   5.972  -1.474  1.00  0.00    -0.052 SA
ATOM     18  C   UNL     1       2.231   4.262  -0.938  1.00  0.00     0.285 C 
ATOM     19  C   UNL     1       1.708   6.520  -0.548  1.00  0.00     0.168 C 
ATOM     20  N   UNL     1       2.627   5.493  -0.459  1.00  0.00    -0.198 N 
ATOM     21  O   UNL     1       2.742   3.188  -0.632  1.00  0.00    -0.266 OA
ATOM     22  S   UNL     1       1.816   8.035   0.142  1.00  0.00    -0.050 S 
BRANCH  20  23
ATOM     23  N   UNL     1       3.791   5.639   0.322  1.00  0.00    -0.254 N 
ATOM     24  C   UNL     1       5.042   5.099   0.089  1.00  0.00     0.273 C 
ATOM     25  H   UNL     1       3.703   6.193   1.131  1.00  0.00     0.192 HD
ATOM     26  O   UNL     1       5.939   5.294   0.910  1.00  0.00    -0.267 OA
BRANCH  24  27
ATOM     27  C   UNL     1       5.335   4.227  -1.063  1.00  0.00     0.077 A 
ATOM     28  C   UNL     1       5.927   2.979  -0.811  1.00  0.00     0.017 A 
ATOM     29  C   UNL     1       5.030   4.592  -2.370  1.00  0.00     0.136 A 
ATOM     30  C   UNL     1       6.153   2.088  -1.861  1.00  0.00     0.001 A 
ATOM     31  C   UNL     1       5.265   3.708  -3.422  1.00  0.00     0.040 A 
ATOM     32  F   UNL     1       4.474   5.782  -2.641  1.00  0.00    -0.206 F 
ATOM     33  C   UNL     1       5.820   2.453  -3.166  1.00  0.00     0.003 A 
ENDBRANCH  24  27
ENDBRANCH  20  23
ENDBRANCH  13  15
ENDBRANCH   8   9
ENDBRANCH   7   8
ENDBRANCH   5   7
ENDBRANCH   2   3
ENDBRANCH   1   2
BRANCH   1  34
ATOM     34  C   UNL     1       4.122   1.411   3.340  1.00  0.00     0.002 C 
BRANCH  34  35
ATOM     35  C   UNL     1       4.530   2.845   2.992  1.00  0.00     0.002 C 
BRANCH  35  36
ATOM     36  C   UNL     1       3.842   3.967   3.773  1.00  0.00     0.021 C 
BRANCH  36  37
ATOM     37  C   UNL     1       3.983   3.914   5.292  1.00  0.00     0.116 C 
BRANCH  37  38
ATOM     38  N   UNL     1       5.359   4.010   5.747  1.00  0.00    -0.352 N 
ATOM     39  C   UNL     1       5.908   4.738   6.774  1.00  0.00     0.251 C 
ATOM     40  H   UNL     1       6.002   3.465   5.237  1.00  0.00     0.163 HD
ATOM     41  O   UNL     1       7.126   4.737   6.934  1.00  0.00    -0.269 OA
BRANCH  39  42
ATOM     42  C   UNL     1       5.062   5.557   7.676  1.00  0.00     0.039 A 
ATOM     43  C   UNL     1       5.526   6.824   8.049  1.00  0.00     0.014 A 
ATOM     44  C   UNL     1       3.847   5.091   8.185  1.00  0.00     0.014 A 
ATOM     45  C   UNL     1       4.749   7.642   8.873  1.00  0.00     0.010 A 
ATOM     46  C   UNL     1       3.042   5.931   8.958  1.00  0.00     0.010 A 
ATOM     47  C   UNL     1       3.484   7.216   9.308  1.00  0.00    -0.014 A 
BRANCH  47  48
ATOM     48  C   UNL     1       2.611   8.121  10.101  1.00  0.00     0.031 A 
ATOM     49  C   UNL     1       2.267   7.808  11.530  1.00  0.00     0.074 A 
ATOM     50  C   UNL     1       2.087   9.214   9.513  1.00  0.00     0.049 A 
ATOM     51  N   UNL     1       1.525   8.487  12.369  1.00  0.00    -0.248 NA
ATOM     52  C   UNL     1       2.807   6.558  12.083  1.00  0.00     0.031 C 
ATOM     53  C   UNL     1       2.295   9.606   8.118  1.00  0.00     0.029 A 
ATOM     54  N   UNL     1       1.272  10.198  10.016  1.00  0.00    -0.354 N 
ATOM     55  C   UNL     1       1.496   7.742  13.541  1.00  0.00     0.074 A 
ATOM     56  C   UNL     1       2.261   6.538  13.291  1.00  0.00     0.031 C 
ATOM     57  C   UNL     1       1.655  10.763   7.886  1.00  0.00     0.029 A 
ATOM     58  C   UNL     1       0.971  11.181   9.106  1.00  0.00     0.049 A 
ATOM     59  H   UNL     1       0.935  10.198  10.941  1.00  0.00     0.167 HD
ATOM     60  C   UNL     1       0.903   8.040  14.722  1.00  0.00     0.037 A 
ATOM     61  C   UNL     1       0.235  12.300   9.240  1.00  0.00     0.037 A 
ATOM     62  C   UNL     1       0.168   9.251  14.984  1.00  0.00     0.049 A 
ATOM     63  C   UNL     1      -0.396  12.617  10.565  1.00  0.00     0.074 A 
ATOM     64  C   UNL     1      -0.393   9.680  16.175  1.00  0.00     0.029 A 
ATOM     65  N   UNL     1      -0.112  10.225  14.038  1.00  0.00    -0.354 N 
ATOM     66  N   UNL     1      -0.345  11.944  11.688  1.00  0.00    -0.248 NA
ATOM     67  C   UNL     1      -1.183  13.857  10.641  1.00  0.00     0.031 C 
ATOM     68  C   UNL     1      -1.046  10.896  15.940  1.00  0.00     0.029 A 
ATOM     69  C   UNL     1      -0.860  11.241  14.611  1.00  0.00     0.049 A 
ATOM     70  H   UNL     1       0.177  10.198  13.097  1.00  0.00     0.167 HD
ATOM     71  C   UNL     1      -1.073  12.685  12.609  1.00  0.00     0.074 A 
ATOM     72  C   UNL     1      -1.543  13.868  11.917  1.00  0.00     0.031 C 
ATOM     73  C   UNL     1      -1.329  12.409  13.911  1.00  0.00     0.037 A 
BRANCH  60  74
ATOM     74  C   UNL     1       1.028   7.033  15.828  1.00  0.00     0.057 A 
ATOM     75  C   UNL     1       2.237   6.823  16.503  1.00  0.00     0.134 A 
ATOM     76  C   UNL     1      -0.081   6.284  16.240  1.00  0.00     0.134 A 
ATOM     77  F   UNL     1       3.340   7.502  16.150  1.00  0.00    -0.206 F 
ATOM     78  C   UNL     1       2.347   5.883  17.529  1.00  0.00     0.040 A 
ATOM     79  C   UNL     1       0.010   5.358  17.281  1.00  0.00     0.040 A 
ATOM     80  F   UNL     1      -1.271   6.441  15.641  1.00  0.00    -0.206 F 
ATOM     81  C   UNL     1       1.229   5.151  17.924  1.00  0.00     0.006 A 
ENDBRANCH  60  74
BRANCH  61  82
ATOM     82  C   UNL     1       0.094  13.232   8.096  1.00  0.00     0.057 A 
ATOM     83  C   UNL     1       0.765  14.460   8.086  1.00  0.00     0.134 A 
ATOM     84  C   UNL     1      -0.706  12.922   6.991  1.00  0.00     0.134 A 
ATOM     85  F   UNL     1       1.529  14.819   9.128  1.00  0.00    -0.206 F 
ATOM     86  C   UNL     1       0.636  15.354   7.023  1.00  0.00     0.040 A 
ATOM     87  C   UNL     1      -0.828  13.798   5.911  1.00  0.00     0.040 A 
ATOM     88  F   UNL     1      -1.370  11.758   6.941  1.00  0.00    -0.206 F 
ATOM     89  C   UNL     1      -0.159  15.021   5.928  1.00  0.00     0.006 A 
ENDBRANCH  61  82
BRANCH  73  90
ATOM     90  C   UNL     1      -2.141  13.416  14.670  1.00  0.00     0.057 A 
ATOM     91  C   UNL     1      -3.519  13.558  14.461  1.00  0.00     0.134 A 
ATOM     92  C   UNL     1      -1.542  14.245  15.626  1.00  0.00     0.134 A 
ATOM     93  F   UNL     1      -4.149  12.805  13.547  1.00  0.00    -0.206 F 
ATOM     94  C   UNL     1      -4.267  14.509  15.157  1.00  0.00     0.040 A 
ATOM     95  C   UNL     1      -2.284  15.184  16.345  1.00  0.00     0.040 A 
ATOM     96  F   UNL     1      -0.227  14.155  15.879  1.00  0.00    -0.206 F 
ATOM     97  C   UNL     1      -3.649  15.323  16.105  1.00  0.00     0.006 A 
ENDBRANCH  73  90
ENDBRANCH  47  48
ENDBRANCH  39  42
ENDBRANCH  37  38
ENDBRANCH  36  37
ENDBRANCH  35  36
ENDBRANCH  34  35
ENDBRANCH   1  34
TORSDOF 18
