REMARK SMILES COc1cccc(-c2c(C(=O)NCCCCCCNC(=O)c3ccc(-c4c5nc(c(-c6c(F)cccc6F)c6ccc([nH]6)c(-c6c(F)cccc6F)c6nc(c(-c7c(F)cccc7F)c7ccc4[nH]7)C=C6)C=C5)cc3)nnn2-c2ccc(OC(F)(F)F)cc2)c1
REMARK SMILES IDX 15 1 14 2 13 3 12 4 10 5 11 6 9 8 8 9 78 10 76 11 77 12 7 13
REMARK SMILES IDX 3 14 4 15 90 16 5 17 6 18 2 19 1 20 79 21 80 22 89 23 81 24
REMARK SMILES IDX 88 25 82 26 83 27 84 28 85 29 86 30 87 31 16 32 17 33 18 34
REMARK SMILES IDX 19 35 20 36 21 38 22 39 23 40 75 41 24 42 74 43 25 44 26 45
REMARK SMILES IDX 27 46 68 47 28 48 73 49 67 50 69 51 29 52 72 53 66 54 65 55
REMARK SMILES IDX 30 57 56 58 39 59 55 60 40 61 43 62 54 63 70 64 41 65 42 66
REMARK SMILES IDX 53 68 71 69 44 70 31 71 32 72 37 73 33 74 34 75 36 76 38 77
REMARK SMILES IDX 35 78 57 79 58 80 63 81 59 82 60 83 62 84 64 85 61 86 45 87
REMARK SMILES IDX 46 88 51 89 47 90 48 91 50 92 52 93 49 94
REMARK H PARENT 12 7 19 37 69 56 43 67
REMARK Flexibility Score: inf
ROOT
ATOM      1  C   UNL     1      -0.033  -6.621   0.327  1.00  0.00     0.002 C 
ENDROOT
BRANCH   1   2
ATOM      2  C   UNL     1       0.897  -5.415   0.282  1.00  0.00     0.021 C 
BRANCH   2   3
ATOM      3  C   UNL     1       1.825  -5.198   1.462  1.00  0.00     0.116 C 
BRANCH   3   4
ATOM      4  N   UNL     1       2.942  -6.083   1.608  1.00  0.00    -0.351 N 
ATOM      5  C   UNL     1       4.216  -5.815   2.069  1.00  0.00     0.274 C 
ATOM      6  O   UNL     1       4.965  -6.795   2.130  1.00  0.00    -0.267 OA
ATOM      7  H   UNL     1       2.778  -7.016   1.342  1.00  0.00     0.163 HD
BRANCH   5   8
ATOM      8  C   UNL     1       4.718  -4.473   2.429  1.00  0.00     0.178 A 
ATOM      9  C   UNL     1       4.152  -3.279   2.891  1.00  0.00     0.108 A 
ATOM     10  N   UNL     1       5.252  -2.432   3.056  1.00  0.00    -0.212 N 
ATOM     11  N   UNL     1       6.079  -4.257   2.273  1.00  0.00    -0.124 NA
ATOM     12  N   UNL     1       6.359  -2.995   2.542  1.00  0.00    -0.061 NA
BRANCH   9  13
ATOM     13  C   UNL     1       2.783  -2.773   3.033  1.00  0.00     0.006 A 
ATOM     14  C   UNL     1       1.004  -1.342   2.162  1.00  0.00     0.119 A 
ATOM     15  C   UNL     1       0.161  -1.822   3.164  1.00  0.00     0.046 A 
ATOM     16  C   UNL     1       2.314  -1.810   2.106  1.00  0.00     0.056 A 
ATOM     17  C   UNL     1       0.617  -2.758   4.098  1.00  0.00     0.005 A 
ATOM     18  C   UNL     1       1.929  -3.233   4.038  1.00  0.00     0.011 A 
BRANCH  14  19
ATOM     19  O   UNL     1       0.434  -0.425   1.323  1.00  0.00    -0.497 OA
ATOM     20  C   UNL     1       1.134  -0.092   0.128  1.00  0.00     0.278 C 
ENDBRANCH  14  19
ENDBRANCH   9  13
BRANCH  10  21
ATOM     21  C   UNL     1       5.275  -1.117   3.584  1.00  0.00     0.067 A 
ATOM     22  C   UNL     1       6.069  -0.139   2.984  1.00  0.00     0.032 A 
ATOM     23  C   UNL     1       4.461  -0.783   4.673  1.00  0.00     0.032 A 
ATOM     24  C   UNL     1       5.969   1.186   3.422  1.00  0.00     0.049 A 
ATOM     25  C   UNL     1       4.388   0.536   5.120  1.00  0.00     0.049 A 
ATOM     26  C   UNL     1       5.122   1.534   4.482  1.00  0.00     0.129 A 
BRANCH  26  27
ATOM     27  O   UNL     1       5.103   2.865   4.789  1.00  0.00    -0.406 OA
BRANCH  27  28
ATOM     28  C   UNL     1       4.257   3.278   5.851  1.00  0.00     0.573 C 
ATOM     29  F   UNL     1       2.965   2.980   5.593  1.00  0.00    -0.132 F 
ATOM     30  F   UNL     1       4.627   2.705   7.017  1.00  0.00    -0.132 F 
ATOM     31  F   UNL     1       4.357   4.618   5.990  1.00  0.00    -0.132 F 
ENDBRANCH  27  28
ENDBRANCH  26  27
ENDBRANCH  10  21
ENDBRANCH   5   8
ENDBRANCH   3   4
ENDBRANCH   2   3
ENDBRANCH   1   2
BRANCH   1  32
ATOM     32  C   UNL     1      -0.840  -6.873   1.610  1.00  0.00     0.002 C 
BRANCH  32  33
ATOM     33  C   UNL     1      -1.633  -5.715   2.231  1.00  0.00     0.021 C 
BRANCH  33  34
ATOM     34  C   UNL     1      -2.630  -5.032   1.312  1.00  0.00     0.116 C 
BRANCH  34  35
ATOM     35  N   UNL     1      -3.699  -5.910   0.835  1.00  0.00    -0.352 N 
ATOM     36  C   UNL     1      -4.726  -5.609  -0.048  1.00  0.00     0.251 C 
ATOM     37  H   UNL     1      -3.689  -6.830   1.185  1.00  0.00     0.163 HD
ATOM     38  O   UNL     1      -5.736  -6.293  -0.104  1.00  0.00    -0.269 OA
BRANCH  36  39
ATOM     39  C   UNL     1      -4.573  -4.434  -0.926  1.00  0.00     0.039 A 
ATOM     40  C   UNL     1      -5.635  -3.573  -1.217  1.00  0.00     0.014 A 
ATOM     41  C   UNL     1      -3.304  -4.181  -1.425  1.00  0.00     0.014 A 
ATOM     42  C   UNL     1      -5.374  -2.412  -1.946  1.00  0.00     0.010 A 
ATOM     43  C   UNL     1      -3.011  -2.943  -1.922  1.00  0.00     0.010 A 
ATOM     44  C   UNL     1      -4.048  -2.094  -2.279  1.00  0.00    -0.014 A 
BRANCH  44  45
ATOM     45  C   UNL     1      -3.701  -0.854  -2.964  1.00  0.00     0.031 A 
ATOM     46  C   UNL     1      -4.218   0.390  -2.330  1.00  0.00     0.074 A 
ATOM     47  C   UNL     1      -2.796  -0.815  -3.968  1.00  0.00     0.049 A 
ATOM     48  N   UNL     1      -5.070   1.231  -2.814  1.00  0.00    -0.248 NA
ATOM     49  C   UNL     1      -3.825   0.675  -0.940  1.00  0.00     0.031 C 
ATOM     50  C   UNL     1      -1.954  -1.898  -4.501  1.00  0.00     0.029 A 
ATOM     51  N   UNL     1      -2.358   0.262  -4.672  1.00  0.00    -0.354 N 
ATOM     52  C   UNL     1      -5.185   2.253  -1.874  1.00  0.00     0.074 A 
ATOM     53  C   UNL     1      -4.526   1.782  -0.684  1.00  0.00     0.031 C 
ATOM     54  C   UNL     1      -0.954  -1.378  -5.246  1.00  0.00     0.029 A 
ATOM     55  C   UNL     1      -1.202   0.039  -5.410  1.00  0.00     0.049 A 
ATOM     56  H   UNL     1      -2.822   1.130  -4.660  1.00  0.00     0.167 HD
ATOM     57  C   UNL     1      -5.627   3.493  -2.227  1.00  0.00     0.037 A 
ATOM     58  C   UNL     1      -0.491   0.965  -6.096  1.00  0.00     0.037 A 
ATOM     59  C   UNL     1      -6.284   3.466  -3.509  1.00  0.00     0.049 A 
ATOM     60  C   UNL     1      -1.386   2.127  -6.314  1.00  0.00     0.074 A 
ATOM     61  C   UNL     1      -7.397   2.827  -4.017  1.00  0.00     0.029 A 
ATOM     62  N   UNL     1      -5.567   3.889  -4.601  1.00  0.00    -0.354 N 
ATOM     63  N   UNL     1      -2.444   2.094  -7.077  1.00  0.00    -0.248 NA
ATOM     64  C   UNL     1      -1.370   3.182  -5.313  1.00  0.00     0.031 C 
ATOM     65  C   UNL     1      -7.032   2.461  -5.346  1.00  0.00     0.029 A 
ATOM     66  C   UNL     1      -5.750   2.957  -5.590  1.00  0.00     0.049 A 
ATOM     67  H   UNL     1      -5.024   4.708  -4.663  1.00  0.00     0.167 HD
ATOM     68  C   UNL     1      -3.398   2.834  -6.394  1.00  0.00     0.074 A 
ATOM     69  C   UNL     1      -2.654   3.544  -5.354  1.00  0.00     0.031 C 
ATOM     70  C   UNL     1      -4.732   2.583  -6.545  1.00  0.00     0.037 A 
BRANCH  57  71
ATOM     71  C   UNL     1      -5.161   4.785  -1.600  1.00  0.00     0.057 A 
ATOM     72  C   UNL     1      -5.793   5.991  -1.960  1.00  0.00     0.134 A 
ATOM     73  C   UNL     1      -3.946   4.932  -0.904  1.00  0.00     0.134 A 
ATOM     74  F   UNL     1      -6.953   5.987  -2.634  1.00  0.00    -0.206 F 
ATOM     75  C   UNL     1      -5.215   7.243  -1.718  1.00  0.00     0.040 A 
ATOM     76  C   UNL     1      -3.386   6.180  -0.611  1.00  0.00     0.040 A 
ATOM     77  F   UNL     1      -3.183   3.888  -0.560  1.00  0.00    -0.206 F 
ATOM     78  C   UNL     1      -4.002   7.340  -1.049  1.00  0.00     0.006 A 
ENDBRANCH  57  71
BRANCH  58  79
ATOM     79  C   UNL     1       0.974   1.036  -6.287  1.00  0.00     0.057 A 
ATOM     80  C   UNL     1       1.536   1.842  -7.285  1.00  0.00     0.134 A 
ATOM     81  C   UNL     1       1.864   0.536  -5.319  1.00  0.00     0.134 A 
ATOM     82  F   UNL     1       0.759   2.396  -8.228  1.00  0.00    -0.206 F 
ATOM     83  C   UNL     1       2.901   2.157  -7.307  1.00  0.00     0.040 A 
ATOM     84  C   UNL     1       3.230   0.838  -5.332  1.00  0.00     0.040 A 
ATOM     85  F   UNL     1       1.423  -0.184  -4.277  1.00  0.00    -0.206 F 
ATOM     86  C   UNL     1       3.751   1.664  -6.321  1.00  0.00     0.006 A 
ENDBRANCH  58  79
BRANCH  70  87
ATOM     87  C   UNL     1      -5.158   1.644  -7.641  1.00  0.00     0.057 A 
ATOM     88  C   UNL     1      -4.853   0.275  -7.666  1.00  0.00     0.134 A 
ATOM     89  C   UNL     1      -6.063   2.106  -8.603  1.00  0.00     0.134 A 
ATOM     90  F   UNL     1      -4.071  -0.279  -6.733  1.00  0.00    -0.206 F 
ATOM     91  C   UNL     1      -5.402  -0.588  -8.621  1.00  0.00     0.040 A 
ATOM     92  C   UNL     1      -6.641   1.250  -9.543  1.00  0.00     0.040 A 
ATOM     93  F   UNL     1      -6.445   3.392  -8.607  1.00  0.00    -0.206 F 
ATOM     94  C   UNL     1      -6.307  -0.102  -9.558  1.00  0.00     0.006 A 
ENDBRANCH  70  87
ENDBRANCH  44  45
ENDBRANCH  36  39
ENDBRANCH  34  35
ENDBRANCH  33  34
ENDBRANCH  32  33
ENDBRANCH   1  32
TORSDOF 18
