REMARK SMILES Cc1cccc(C(=O)NCCCCCCNC(=O)c2ccc(-c3c4nc(c(-c5c(F)cccc5F)c5ccc([nH]5)c(-c5c(F)cccc5F)c5nc(c(-c6c(F)cccc6F)c6ccc3[nH]6)C=C5)C=C4)cc2)c1OC[C@@H]1C[C@H]2CC[C@@H]1C2
REMARK SMILES IDX 12 1 11 2 10 3 9 4 7 5 8 6 6 8 1 9 2 10 3 11 73 12 4 13 5 14
REMARK SMILES IDX 74 15 75 16 76 17 77 18 81 19 78 20 80 21 82 22 79 23 13 24
REMARK SMILES IDX 14 25 15 26 16 27 17 28 18 30 19 31 20 32 72 33 21 34 71 35
REMARK SMILES IDX 22 36 23 37 24 38 65 39 25 40 70 41 64 42 66 43 26 44 69 45
REMARK SMILES IDX 63 46 62 47 27 49 53 50 36 51 52 52 37 53 40 54 51 55 67 56
REMARK SMILES IDX 38 57 39 58 50 60 68 61 41 62 28 63 29 64 34 65 30 66 31 67
REMARK SMILES IDX 33 68 35 69 32 70 54 71 55 72 60 73 56 74 57 75 59 76 61 77
REMARK SMILES IDX 58 78 42 79 43 80 48 81 44 82 45 83 47 84 49 85 46 86
REMARK H PARENT 9 7 16 29 66 48 40 59
REMARK Flexibility Score: inf
ROOT
ATOM      1  C   UNL     1       0.193   6.280  -0.899  1.00  0.00     0.002 C 
ENDROOT
BRANCH   1   2
ATOM      2  C   UNL     1       0.643   4.822  -0.716  1.00  0.00     0.021 C 
BRANCH   2   3
ATOM      3  C   UNL     1       0.022   4.101   0.486  1.00  0.00     0.116 C 
BRANCH   3   4
ATOM      4  N   UNL     1      -1.255   3.547   0.127  1.00  0.00    -0.352 N 
ATOM      5  C   UNL     1      -1.680   2.279  -0.137  1.00  0.00     0.255 C 
ATOM      6  O   UNL     1      -2.872   2.186  -0.459  1.00  0.00    -0.269 OA
ATOM      7  H   UNL     1      -1.969   4.222   0.057  1.00  0.00     0.163 HD
BRANCH   5   8
ATOM      8  C   UNL     1      -0.893   1.008  -0.016  1.00  0.00     0.082 A 
ATOM      9  C   UNL     1       1.930  -1.068  -1.557  1.00  0.00     0.048 C 
ATOM     10  C   UNL     1       0.792  -0.621  -0.676  1.00  0.00    -0.008 A 
ATOM     11  C   UNL     1      -0.044  -1.659  -0.217  1.00  0.00     0.007 A 
ATOM     12  C   UNL     1       0.420   0.730  -0.467  1.00  0.00     0.134 A 
ATOM     13  C   UNL     1      -1.273  -1.385   0.357  1.00  0.00     0.001 A 
ATOM     14  C   UNL     1      -1.704  -0.067   0.419  1.00  0.00     0.018 A 
BRANCH  12  15
ATOM     15  O   UNL     1       1.251   1.760  -0.802  1.00  0.00    -0.492 OA
BRANCH  15  16
ATOM     16  C   UNL     1       2.595   1.812  -0.258  1.00  0.00     0.233 C 
BRANCH  16  17
ATOM     17  C   UNL     1       2.838   1.337   1.198  1.00  0.00     0.030 C 
ATOM     18  C   UNL     1       3.737   2.324   2.004  1.00  0.00     0.011 C 
ATOM     19  C   UNL     1       3.705   0.045   1.268  1.00  0.00    -0.004 C 
ATOM     20  C   UNL     1       4.929   1.461   2.461  1.00  0.00    -0.010 C 
ATOM     21  C   UNL     1       3.623  -0.539   2.689  1.00  0.00     0.004 C 
ATOM     22  C   UNL     1       5.141   0.575   1.242  1.00  0.00     0.007 C 
ATOM     23  C   UNL     1       4.456   0.448   3.515  1.00  0.00     0.004 C 
ENDBRANCH  16  17
ENDBRANCH  15  16
ENDBRANCH  12  15
ENDBRANCH   5   8
ENDBRANCH   3   4
ENDBRANCH   2   3
ENDBRANCH   1   2
BRANCH   1  24
ATOM     24  C   UNL     1       0.406   7.215   0.305  1.00  0.00     0.002 C 
BRANCH  24  25
ATOM     25  C   UNL     1       1.747   7.080   1.032  1.00  0.00     0.021 C 
BRANCH  25  26
ATOM     26  C   UNL     1       2.932   7.629   0.246  1.00  0.00     0.116 C 
BRANCH  26  27
ATOM     27  N   UNL     1       3.376   8.938   0.710  1.00  0.00    -0.352 N 
ATOM     28  C   UNL     1       4.300   9.808   0.146  1.00  0.00     0.251 C 
ATOM     29  H   UNL     1       2.960   9.252   1.545  1.00  0.00     0.163 HD
ATOM     30  O   UNL     1       4.544  10.873   0.665  1.00  0.00    -0.269 OA
BRANCH  28  31
ATOM     31  C   UNL     1       4.879   9.462  -1.177  1.00  0.00     0.039 A 
ATOM     32  C   UNL     1       4.788  10.424  -2.188  1.00  0.00     0.014 A 
ATOM     33  C   UNL     1       5.280   8.162  -1.470  1.00  0.00     0.014 A 
ATOM     34  C   UNL     1       4.837  10.014  -3.518  1.00  0.00     0.010 A 
ATOM     35  C   UNL     1       5.253   7.739  -2.786  1.00  0.00     0.010 A 
ATOM     36  C   UNL     1       4.949   8.652  -3.801  1.00  0.00    -0.014 A 
BRANCH  36  37
ATOM     37  C   UNL     1       4.578   8.093  -5.096  1.00  0.00     0.031 A 
ATOM     38  C   UNL     1       5.596   7.645  -6.064  1.00  0.00     0.074 A 
ATOM     39  C   UNL     1       3.270   7.966  -5.418  1.00  0.00     0.049 A 
ATOM     40  N   UNL     1       5.410   7.651  -7.342  1.00  0.00    -0.248 NA
ATOM     41  C   UNL     1       6.918   7.174  -5.669  1.00  0.00     0.031 C 
ATOM     42  C   UNL     1       2.705   7.265  -6.567  1.00  0.00     0.029 A 
ATOM     43  N   UNL     1       2.186   8.661  -4.866  1.00  0.00    -0.354 N 
ATOM     44  C   UNL     1       6.451   6.968  -7.914  1.00  0.00     0.074 A 
ATOM     45  C   UNL     1       7.395   6.739  -6.841  1.00  0.00     0.031 C 
ATOM     46  C   UNL     1       1.492   7.776  -6.828  1.00  0.00     0.029 A 
ATOM     47  C   UNL     1       1.288   8.899  -5.931  1.00  0.00     0.049 A 
ATOM     48  H   UNL     1       2.071   8.929  -3.925  1.00  0.00     0.167 HD
ATOM     49  C   UNL     1       6.371   6.559  -9.210  1.00  0.00     0.037 A 
ATOM     50  C   UNL     1       0.974  10.170  -6.311  1.00  0.00     0.037 A 
ATOM     51  C   UNL     1       5.119   6.947  -9.848  1.00  0.00     0.049 A 
ATOM     52  C   UNL     1       1.379  10.530  -7.726  1.00  0.00     0.074 A 
ATOM     53  C   UNL     1       3.925   6.298 -10.116  1.00  0.00     0.029 A 
ATOM     54  N   UNL     1       4.873   8.290 -10.057  1.00  0.00    -0.354 N 
ATOM     55  N   UNL     1       1.990   9.726  -8.551  1.00  0.00    -0.248 NA
ATOM     56  C   UNL     1       1.214  11.875  -8.283  1.00  0.00     0.031 C 
ATOM     57  C   UNL     1       2.959   7.275 -10.492  1.00  0.00     0.029 A 
ATOM     58  C   UNL     1       3.570   8.513 -10.455  1.00  0.00     0.049 A 
ATOM     59  H   UNL     1       5.544   9.001  -9.937  1.00  0.00     0.167 HD
ATOM     60  C   UNL     1       2.367  10.425  -9.668  1.00  0.00     0.074 A 
ATOM     61  C   UNL     1       1.846  11.762  -9.463  1.00  0.00     0.031 C 
ATOM     62  C   UNL     1       3.128   9.881 -10.660  1.00  0.00     0.037 A 
BRANCH  49  63
ATOM     63  C   UNL     1       7.370   5.610  -9.803  1.00  0.00     0.057 A 
ATOM     64  C   UNL     1       6.970   4.551 -10.634  1.00  0.00     0.134 A 
ATOM     65  C   UNL     1       8.749   5.684  -9.548  1.00  0.00     0.134 A 
ATOM     66  F   UNL     1       5.694   4.396 -11.012  1.00  0.00    -0.206 F 
ATOM     67  C   UNL     1       7.863   3.579 -11.098  1.00  0.00     0.040 A 
ATOM     68  C   UNL     1       9.647   4.692  -9.963  1.00  0.00     0.040 A 
ATOM     69  F   UNL     1       9.276   6.729  -8.891  1.00  0.00    -0.206 F 
ATOM     70  C   UNL     1       9.201   3.626 -10.733  1.00  0.00     0.006 A 
ENDBRANCH  49  63
BRANCH  50  71
ATOM     71  C   UNL     1       0.929  11.120  -5.170  1.00  0.00     0.057 A 
ATOM     72  C   UNL     1      -0.042  10.928  -4.170  1.00  0.00     0.134 A 
ATOM     73  C   UNL     1       1.999  11.963  -4.866  1.00  0.00     0.134 A 
ATOM     74  F   UNL     1      -1.096  10.127  -4.396  1.00  0.00    -0.206 F 
ATOM     75  C   UNL     1       0.104  11.463  -2.889  1.00  0.00     0.040 A 
ATOM     76  C   UNL     1       2.147  12.517  -3.591  1.00  0.00     0.040 A 
ATOM     77  F   UNL     1       2.975  12.178  -5.761  1.00  0.00    -0.206 F 
ATOM     78  C   UNL     1       1.220  12.236  -2.588  1.00  0.00     0.006 A 
ENDBRANCH  50  71
BRANCH  62  79
ATOM     79  C   UNL     1       3.532  10.619 -11.903  1.00  0.00     0.057 A 
ATOM     80  C   UNL     1       2.626  11.380 -12.654  1.00  0.00     0.134 A 
ATOM     81  C   UNL     1       4.820  10.482 -12.459  1.00  0.00     0.134 A 
ATOM     82  F   UNL     1       1.353  11.528 -12.256  1.00  0.00    -0.206 F 
ATOM     83  C   UNL     1       2.987  11.997 -13.858  1.00  0.00     0.040 A 
ATOM     84  C   UNL     1       5.179  11.052 -13.682  1.00  0.00     0.040 A 
ATOM     85  F   UNL     1       5.790   9.804 -11.828  1.00  0.00    -0.206 F 
ATOM     86  C   UNL     1       4.264  11.824 -14.383  1.00  0.00     0.006 A 
ENDBRANCH  62  79
ENDBRANCH  36  37
ENDBRANCH  28  31
ENDBRANCH  26  27
ENDBRANCH  25  26
ENDBRANCH  24  25
ENDBRANCH   1  24
TORSDOF 16
