REMARK SMILES COC(=O)c1ccc(C)c2c1[C@H]1C=CC[C@H]1[C@@H](c1ccc(C(=O)NCCCCCCNC(=O)c3ccc(-c4c5nc(c(-c6c(F)cccc6F)c6ccc([nH]6)c(-c6c(F)cccc6F)c6nc(c(-c7c(F)cccc7F)c7ccc4[nH]7)C=C6)C=C5)cc3)cc1)N2
REMARK SMILES IDX 27 1 26 2 25 3 24 4 22 5 23 6 21 8 18 9 19 10 89 11 20 12
REMARK SMILES IDX 88 13 17 14 5 15 6 16 11 17 7 18 10 19 12 20 8 21 90 22
REMARK SMILES IDX 13 23 16 24 9 25 14 27 15 28 3 29 4 30 2 31 1 32 28 33 29 34
REMARK SMILES IDX 30 35 31 36 32 37 33 39 34 40 35 41 87 42 36 43 86 44 37 45
REMARK SMILES IDX 38 46 39 47 80 48 40 49 85 50 79 51 81 52 41 53 84 54 78 55
REMARK SMILES IDX 77 56 42 58 68 59 51 60 67 61 52 62 55 63 66 64 82 65 53 66
REMARK SMILES IDX 54 67 65 69 83 70 56 71 43 72 44 73 49 74 45 75 46 76 48 77
REMARK SMILES IDX 50 78 47 79 69 80 70 81 75 82 71 83 72 84 74 85 76 86 73 87
REMARK SMILES IDX 57 88 58 89 63 90 59 91 60 92 62 93 64 94 61 95
REMARK H PARENT 24 7 90 26 31 38 81 57 55 68
REMARK Flexibility Score: inf
ROOT
ATOM      1  C   UNL     1       8.109  -7.769   5.203  1.00  0.00     0.002 C 
ENDROOT
BRANCH   1   2
ATOM      2  C   UNL     1       7.380  -7.889   3.857  1.00  0.00     0.021 C 
BRANCH   2   3
ATOM      3  C   UNL     1       5.984  -8.493   4.008  1.00  0.00     0.116 C 
BRANCH   3   4
ATOM      4  N   UNL     1       5.077  -7.474   4.474  1.00  0.00    -0.352 N 
ATOM      5  C   UNL     1       4.195  -6.660   3.824  1.00  0.00     0.251 C 
ATOM      6  O   UNL     1       3.620  -5.811   4.509  1.00  0.00    -0.269 OA
ATOM      7  H   UNL     1       5.097  -7.341   5.449  1.00  0.00     0.163 HD
BRANCH   5   8
ATOM      8  C   UNL     1       3.866  -6.775   2.376  1.00  0.00     0.039 A 
ATOM      9  C   UNL     1       3.029  -6.776  -0.348  1.00  0.00    -0.025 A 
ATOM     10  C   UNL     1       2.231  -6.232   0.669  1.00  0.00     0.006 A 
ATOM     11  C   UNL     1       4.238  -7.370   0.042  1.00  0.00     0.006 A 
ATOM     12  C   UNL     1       2.637  -6.232   2.001  1.00  0.00     0.014 A 
ATOM     13  C   UNL     1       4.670  -7.326   1.376  1.00  0.00     0.014 A 
BRANCH   9  14
ATOM     14  C   UNL     1       2.708  -6.636  -1.840  1.00  0.00     0.114 C 
ATOM     15  C   UNL     1       0.138  -3.277  -1.453  1.00  0.00     0.065 A 
ATOM     16  C   UNL     1      -1.192  -3.506  -1.084  1.00  0.00     0.016 A 
ATOM     17  C   UNL     1       0.978  -4.348  -1.833  1.00  0.00    -0.003 A 
ATOM     18  C   UNL     1      -1.704  -4.797  -1.096  1.00  0.00     0.006 A 
ATOM     19  C   UNL     1       0.442  -5.664  -1.860  1.00  0.00     0.042 A 
ATOM     20  C   UNL     1       2.436  -4.112  -2.186  1.00  0.00     0.050 C 
ATOM     21  C   UNL     1      -0.902  -5.885  -1.472  1.00  0.00    -0.028 A 
ATOM     22  N   UNL     1       1.282  -6.746  -2.097  1.00  0.00    -0.377 N 
ATOM     23  C   UNL     1       3.317  -3.546  -1.096  1.00  0.00    -0.023 C 
ATOM     24  C   UNL     1       3.232  -5.378  -2.571  1.00  0.00     0.031 C 
ATOM     25  C   UNL     1      -1.531  -7.251  -1.369  1.00  0.00     0.046 C 
ATOM     26  H   UNL     1       0.909  -7.590  -2.441  1.00  0.00     0.161 HD
ATOM     27  C   UNL     1       4.562  -4.037  -1.156  1.00  0.00    -0.030 C 
ATOM     28  C   UNL     1       4.697  -5.026  -2.267  1.00  0.00     0.034 C 
BRANCH  15  29
ATOM     29  C   UNL     1       0.629  -1.876  -1.426  1.00  0.00     0.338 C 
ATOM     30  O   UNL     1       1.231  -1.334  -2.327  1.00  0.00    -0.246 OA
BRANCH  29  31
ATOM     31  O   UNL     1       0.335  -1.346  -0.208  1.00  0.00    -0.465 OA
ATOM     32  C   UNL     1       0.841  -0.025  -0.018  1.00  0.00     0.282 C 
ENDBRANCH  29  31
ENDBRANCH  15  29
ENDBRANCH   9  14
ENDBRANCH   5   8
ENDBRANCH   3   4
ENDBRANCH   2   3
ENDBRANCH   1   2
BRANCH   1  33
ATOM     33  C   UNL     1       8.306  -9.106   5.932  1.00  0.00     0.002 C 
BRANCH  33  34
ATOM     34  C   UNL     1       8.927 -10.201   5.063  1.00  0.00     0.021 C 
BRANCH  34  35
ATOM     35  C   UNL     1      10.308  -9.825   4.546  1.00  0.00     0.116 C 
BRANCH  35  36
ATOM     36  N   UNL     1      11.268  -9.762   5.638  1.00  0.00    -0.352 N 
ATOM     37  C   UNL     1      12.308 -10.620   5.887  1.00  0.00     0.251 C 
ATOM     38  H   UNL     1      11.157  -9.017   6.271  1.00  0.00     0.163 HD
ATOM     39  O   UNL     1      12.877 -10.644   6.971  1.00  0.00    -0.269 OA
BRANCH  37  40
ATOM     40  C   UNL     1      12.722 -11.522   4.801  1.00  0.00     0.039 A 
ATOM     41  C   UNL     1      12.769 -12.897   5.026  1.00  0.00     0.014 A 
ATOM     42  C   UNL     1      12.994 -10.983   3.538  1.00  0.00     0.014 A 
ATOM     43  C   UNL     1      13.069 -13.745   3.963  1.00  0.00     0.010 A 
ATOM     44  C   UNL     1      13.214 -11.834   2.466  1.00  0.00     0.010 A 
ATOM     45  C   UNL     1      13.283 -13.218   2.678  1.00  0.00    -0.014 A 
BRANCH  45  46
ATOM     46  C   UNL     1      13.675 -14.100   1.558  1.00  0.00     0.031 A 
ATOM     47  C   UNL     1      15.074 -14.020   1.020  1.00  0.00     0.074 A 
ATOM     48  C   UNL     1      12.782 -14.950   1.021  1.00  0.00     0.049 A 
ATOM     49  N   UNL     1      15.646 -14.736   0.088  1.00  0.00    -0.248 NA
ATOM     50  C   UNL     1      15.939 -12.976   1.595  1.00  0.00     0.031 C 
ATOM     51  C   UNL     1      11.386 -15.088   1.437  1.00  0.00     0.029 A 
ATOM     52  N   UNL     1      12.925 -15.866   0.013  1.00  0.00    -0.354 N 
ATOM     53  C   UNL     1      16.937 -14.238  -0.024  1.00  0.00     0.074 A 
ATOM     54  C   UNL     1      17.035 -13.103   0.866  1.00  0.00     0.031 C 
ATOM     55  C   UNL     1      10.812 -16.068   0.718  1.00  0.00     0.029 A 
ATOM     56  C   UNL     1      11.794 -16.607  -0.219  1.00  0.00     0.049 A 
ATOM     57  H   UNL     1      13.760 -15.981  -0.497  1.00  0.00     0.167 HD
ATOM     58  C   UNL     1      17.964 -14.705  -0.773  1.00  0.00     0.037 A 
ATOM     59  C   UNL     1      11.589 -17.622  -1.078  1.00  0.00     0.037 A 
ATOM     60  C   UNL     1      17.857 -15.823  -1.669  1.00  0.00     0.049 A 
ATOM     61  C   UNL     1      12.727 -18.086  -1.946  1.00  0.00     0.074 A 
ATOM     62  C   UNL     1      18.836 -16.400  -2.458  1.00  0.00     0.029 A 
ATOM     63  N   UNL     1      16.684 -16.527  -1.907  1.00  0.00    -0.354 N 
ATOM     64  N   UNL     1      13.968 -17.664  -1.988  1.00  0.00    -0.248 NA
ATOM     65  C   UNL     1      12.432 -19.181  -2.879  1.00  0.00     0.031 C 
ATOM     66  C   UNL     1      18.242 -17.420  -3.212  1.00  0.00     0.029 A 
ATOM     67  C   UNL     1      16.907 -17.516  -2.851  1.00  0.00     0.049 A 
ATOM     68  H   UNL     1      15.821 -16.350  -1.468  1.00  0.00     0.167 HD
ATOM     69  C   UNL     1      14.614 -18.469  -2.918  1.00  0.00     0.074 A 
ATOM     70  C   UNL     1      13.625 -19.409  -3.409  1.00  0.00     0.031 C 
ATOM     71  C   UNL     1      15.908 -18.441  -3.326  1.00  0.00     0.037 A 
BRANCH  58  72
ATOM     72  C   UNL     1      19.272 -13.977  -0.644  1.00  0.00     0.057 A 
ATOM     73  C   UNL     1      19.769 -13.203  -1.698  1.00  0.00     0.134 A 
ATOM     74  C   UNL     1      20.012 -13.995   0.549  1.00  0.00     0.134 A 
ATOM     75  F   UNL     1      19.115 -13.143  -2.868  1.00  0.00    -0.206 F 
ATOM     76  C   UNL     1      20.941 -12.456  -1.565  1.00  0.00     0.040 A 
ATOM     77  C   UNL     1      21.166 -13.225   0.705  1.00  0.00     0.040 A 
ATOM     78  F   UNL     1      19.582 -14.700   1.606  1.00  0.00    -0.206 F 
ATOM     79  C   UNL     1      21.634 -12.452  -0.355  1.00  0.00     0.006 A 
ENDBRANCH  58  72
BRANCH  59  80
ATOM     80  C   UNL     1      10.280 -18.320  -1.115  1.00  0.00     0.057 A 
ATOM     81  C   UNL     1       9.135 -17.712  -1.641  1.00  0.00     0.134 A 
ATOM     82  C   UNL     1      10.156 -19.631  -0.640  1.00  0.00     0.134 A 
ATOM     83  F   UNL     1       9.186 -16.455  -2.105  1.00  0.00    -0.206 F 
ATOM     84  C   UNL     1       7.913 -18.386  -1.697  1.00  0.00     0.040 A 
ATOM     85  C   UNL     1       8.946 -20.324  -0.710  1.00  0.00     0.040 A 
ATOM     86  F   UNL     1      11.223 -20.271  -0.139  1.00  0.00    -0.206 F 
ATOM     87  C   UNL     1       7.819 -19.699  -1.238  1.00  0.00     0.006 A 
ENDBRANCH  59  80
BRANCH  71  88
ATOM     88  C   UNL     1      16.329 -19.487  -4.318  1.00  0.00     0.057 A 
ATOM     89  C   UNL     1      17.195 -20.519  -3.934  1.00  0.00     0.134 A 
ATOM     90  C   UNL     1      15.883 -19.479  -5.646  1.00  0.00     0.134 A 
ATOM     91  F   UNL     1      17.669 -20.582  -2.681  1.00  0.00    -0.206 F 
ATOM     92  C   UNL     1      17.596 -21.509  -4.833  1.00  0.00     0.040 A 
ATOM     93  C   UNL     1      16.251 -20.482  -6.545  1.00  0.00     0.040 A 
ATOM     94  F   UNL     1      15.041 -18.527  -6.075  1.00  0.00    -0.206 F 
ATOM     95  C   UNL     1      17.113 -21.499  -6.139  1.00  0.00     0.006 A 
ENDBRANCH  71  88
ENDBRANCH  45  46
ENDBRANCH  37  40
ENDBRANCH  35  36
ENDBRANCH  34  35
ENDBRANCH  33  34
ENDBRANCH   1  33
TORSDOF 16
