REMARK SMILES Cc1coc2cc3c(cc12)[C@@H](C)[C@H](CCC(=O)N[C@@H](Cc1c[nH]c2ccccc12)C(=O)NCCCCCCNC(=O)c1ccc(-c2c4nc(c(-c5c(F)cccc5F)c5ccc([nH]5)c(-c5c(F)cccc5F)c5nc(c(-c6c(F)cccc6F)c6ccc2[nH]6)C=C5)C=C4)cc1)C(=O)O3
REMARK SMILES IDX 34 1 33 2 32 3 30 4 31 5 19 7 18 8 16 9 17 10 15 12 14 13
REMARK SMILES IDX 13 14 1 15 2 16 3 17 10 18 4 19 5 20 9 21 6 22 8 23 7 24
REMARK SMILES IDX 11 25 98 26 12 27 96 28 97 29 20 30 21 31 22 32 29 33 23 34
REMARK SMILES IDX 24 35 28 36 25 38 27 39 26 40 35 41 36 42 37 43 38 44 39 45
REMARK SMILES IDX 40 46 41 48 42 49 43 50 95 51 44 52 94 53 45 54 46 55 47 56
REMARK SMILES IDX 88 57 48 58 93 59 87 60 89 61 49 62 92 63 86 64 85 65 50 67
REMARK SMILES IDX 76 68 59 69 75 70 60 71 63 72 74 73 90 74 61 75 62 76 73 78
REMARK SMILES IDX 91 79 64 80 51 81 52 82 57 83 53 84 54 85 56 86 58 87 55 88
REMARK SMILES IDX 77 89 78 90 83 91 79 92 80 93 82 94 84 95 81 96 65 97 66 98
REMARK SMILES IDX 71 99 67 100 68 101 70 102 72 103 69 104
REMARK H PARENT 32 6 18 11 23 37 39 47 89 66 63 77
REMARK Flexibility Score: inf
ROOT
ATOM      1  C   UNL     1      -4.786  -3.459  -7.091  1.00  0.00     0.021 C 
ENDROOT
BRANCH   1   2
ATOM      2  C   UNL     1      -4.165  -4.375  -6.072  1.00  0.00     0.116 C 
BRANCH   2   3
ATOM      3  N   UNL     1      -3.917  -5.716  -6.499  1.00  0.00    -0.354 N 
ATOM      4  C   UNL     1      -2.815  -6.454  -6.161  1.00  0.00     0.242 C 
ATOM      5  O   UNL     1      -2.711  -7.587  -6.638  1.00  0.00    -0.273 OA
ATOM      6  H   UNL     1      -4.588  -6.141  -7.080  1.00  0.00     0.163 HD
BRANCH   4   7
ATOM      7  C   UNL     1      -1.720  -5.862  -5.216  1.00  0.00     0.175 C 
BRANCH   7   8
ATOM      8  N   UNL     1      -0.747  -4.966  -5.916  1.00  0.00    -0.344 N 
ATOM      9  C   UNL     1       0.619  -4.871  -6.067  1.00  0.00     0.220 C 
ATOM     10  O   UNL     1       1.003  -3.893  -6.725  1.00  0.00    -0.275 OA
ATOM     11  H   UNL     1      -1.210  -4.246  -6.403  1.00  0.00     0.164 HD
BRANCH   9  12
ATOM     12  C   UNL     1       1.704  -5.861  -5.516  1.00  0.00     0.101 C 
BRANCH  12  13
ATOM     13  C   UNL     1       2.608  -5.494  -4.224  1.00  0.00     0.026 C 
BRANCH  13  14
ATOM     14  C   UNL     1       2.033  -5.927  -2.810  1.00  0.00     0.107 C 
ATOM     15  C   UNL     1       0.920   0.395   0.510  1.00  0.00     0.048 C 
ATOM     16  C   UNL     1       0.857  -0.017  -0.908  1.00  0.00    -0.005 A 
ATOM     17  C   UNL     1       0.497   0.770  -1.985  1.00  0.00     0.199 A 
ATOM     18  C   UNL     1       1.108  -1.319  -1.437  1.00  0.00     0.024 A 
ATOM     19  O   UNL     1       0.474   0.045  -3.130  1.00  0.00    -0.464 OA
ATOM     20  C   UNL     1       0.775  -1.233  -2.785  1.00  0.00     0.137 A 
ATOM     21  C   UNL     1       1.550  -2.565  -0.930  1.00  0.00     0.020 A 
ATOM     22  C   UNL     1       0.678  -2.326  -3.625  1.00  0.00     0.095 A 
ATOM     23  C   UNL     1       1.473  -3.680  -1.770  1.00  0.00    -0.001 A 
ATOM     24  C   UNL     1       0.823  -3.539  -2.978  1.00  0.00     0.138 A 
ATOM     25  C   UNL     1       1.963  -5.075  -1.473  1.00  0.00     0.034 C 
ATOM     26  O   UNL     1       0.162  -4.696  -3.461  1.00  0.00    -0.426 OA
ATOM     27  C   UNL     1       0.952  -5.700  -0.461  1.00  0.00     0.014 C 
ATOM     28  C   UNL     1       0.617  -5.979  -3.115  1.00  0.00     0.314 C 
ATOM     29  O   UNL     1      -0.017  -7.036  -3.156  1.00  0.00    -0.251 OA
ENDBRANCH  13  14
ENDBRANCH  12  13
ENDBRANCH   9  12
ENDBRANCH   7   8
BRANCH   7  30
ATOM     30  C   UNL     1      -2.393  -5.465  -3.828  1.00  0.00     0.072 C 
BRANCH  30  31
ATOM     31  C   UNL     1      -2.928  -4.112  -3.334  1.00  0.00    -0.020 A 
ATOM     32  C   UNL     1      -3.753  -4.080  -2.211  1.00  0.00     0.087 A 
ATOM     33  C   UNL     1      -2.840  -2.730  -3.763  1.00  0.00     0.003 A 
ATOM     34  N   UNL     1      -4.213  -2.813  -2.008  1.00  0.00    -0.361 N 
ATOM     35  C   UNL     1      -3.706  -1.974  -2.964  1.00  0.00     0.046 A 
ATOM     36  C   UNL     1      -2.194  -2.027  -4.804  1.00  0.00     0.010 A 
ATOM     37  H   UNL     1      -4.819  -2.542  -1.281  1.00  0.00     0.166 HD
ATOM     38  C   UNL     1      -3.982  -0.614  -3.186  1.00  0.00     0.026 A 
ATOM     39  C   UNL     1      -2.437  -0.668  -5.035  1.00  0.00     0.001 A 
ATOM     40  C   UNL     1      -3.340   0.024  -4.246  1.00  0.00     0.002 A 
ENDBRANCH  30  31
ENDBRANCH   7  30
ENDBRANCH   4   7
ENDBRANCH   2   3
ENDBRANCH   1   2
BRANCH   1  41
ATOM     41  C   UNL     1      -6.287  -3.642  -7.226  1.00  0.00     0.002 C 
BRANCH  41  42
ATOM     42  C   UNL     1      -7.112  -3.407  -5.952  1.00  0.00     0.002 C 
BRANCH  42  43
ATOM     43  C   UNL     1      -6.874  -2.092  -5.197  1.00  0.00     0.021 C 
BRANCH  43  44
ATOM     44  C   UNL     1      -6.760  -0.837  -6.059  1.00  0.00     0.116 C 
BRANCH  44  45
ATOM     45  N   UNL     1      -7.827  -0.701  -7.024  1.00  0.00    -0.352 N 
ATOM     46  C   UNL     1      -9.111  -0.256  -6.996  1.00  0.00     0.251 C 
ATOM     47  H   UNL     1      -7.558  -1.005  -7.921  1.00  0.00     0.163 HD
ATOM     48  O   UNL     1      -9.739  -0.337  -8.054  1.00  0.00    -0.269 OA
BRANCH  46  49
ATOM     49  C   UNL     1      -9.807   0.247  -5.788  1.00  0.00     0.039 A 
ATOM     50  C   UNL     1      -9.205   0.568  -4.570  1.00  0.00     0.014 A 
ATOM     51  C   UNL     1     -11.201   0.381  -5.914  1.00  0.00     0.014 A 
ATOM     52  C   UNL     1      -9.987   0.882  -3.468  1.00  0.00     0.010 A 
ATOM     53  C   UNL     1     -11.983   0.732  -4.830  1.00  0.00     0.010 A 
ATOM     54  C   UNL     1     -11.377   0.916  -3.593  1.00  0.00    -0.014 A 
BRANCH  54  55
ATOM     55  C   UNL     1     -12.169   1.259  -2.422  1.00  0.00     0.031 A 
ATOM     56  C   UNL     1     -11.875   2.603  -1.852  1.00  0.00     0.074 A 
ATOM     57  C   UNL     1     -13.164   0.470  -1.970  1.00  0.00     0.049 A 
ATOM     58  N   UNL     1     -11.427   2.881  -0.672  1.00  0.00    -0.248 NA
ATOM     59  C   UNL     1     -11.956   3.770  -2.747  1.00  0.00     0.031 C 
ATOM     60  C   UNL     1     -13.706  -0.751  -2.573  1.00  0.00     0.029 A 
ATOM     61  N   UNL     1     -13.977   0.657  -0.896  1.00  0.00    -0.354 N 
ATOM     62  C   UNL     1     -11.345   4.271  -0.606  1.00  0.00     0.074 A 
ATOM     63  C   UNL     1     -11.541   4.753  -1.948  1.00  0.00     0.031 C 
ATOM     64  C   UNL     1     -14.893  -1.046  -1.998  1.00  0.00     0.029 A 
ATOM     65  C   UNL     1     -15.127  -0.123  -0.902  1.00  0.00     0.049 A 
ATOM     66  H   UNL     1     -13.768   1.294  -0.174  1.00  0.00     0.167 HD
ATOM     67  C   UNL     1     -11.326   4.926   0.587  1.00  0.00     0.037 A 
ATOM     68  C   UNL     1     -16.210   0.040  -0.101  1.00  0.00     0.037 A 
ATOM     69  C   UNL     1     -10.970   4.041   1.664  1.00  0.00     0.049 A 
ATOM     70  C   UNL     1     -15.769   0.831   1.077  1.00  0.00     0.074 A 
ATOM     71  C   UNL     1      -9.855   3.281   1.959  1.00  0.00     0.029 A 
ATOM     72  N   UNL     1     -11.981   3.546   2.451  1.00  0.00    -0.354 N 
ATOM     73  N   UNL     1     -14.951   0.371   1.984  1.00  0.00    -0.248 NA
ATOM     74  C   UNL     1     -15.842   2.283   0.978  1.00  0.00     0.031 C 
ATOM     75  C   UNL     1     -10.374   2.072   2.505  1.00  0.00     0.029 A 
ATOM     76  C   UNL     1     -11.761   2.199   2.581  1.00  0.00     0.049 A 
ATOM     77  H   UNL     1     -12.722   4.061   2.847  1.00  0.00     0.167 HD
ATOM     78  C   UNL     1     -14.100   1.431   2.260  1.00  0.00     0.074 A 
ATOM     79  C   UNL     1     -14.738   2.603   1.660  1.00  0.00     0.031 C 
ATOM     80  C   UNL     1     -12.818   1.222   2.682  1.00  0.00     0.037 A 
BRANCH  67  81
ATOM     81  C   UNL     1     -11.970   6.265   0.832  1.00  0.00     0.057 A 
ATOM     82  C   UNL     1     -11.769   6.914   2.064  1.00  0.00     0.134 A 
ATOM     83  C   UNL     1     -13.011   6.790   0.040  1.00  0.00     0.134 A 
ATOM     84  F   UNL     1     -10.817   6.499   2.914  1.00  0.00    -0.206 F 
ATOM     85  C   UNL     1     -12.594   7.955   2.507  1.00  0.00     0.040 A 
ATOM     86  C   UNL     1     -13.808   7.861   0.451  1.00  0.00     0.040 A 
ATOM     87  F   UNL     1     -13.379   6.234  -1.120  1.00  0.00    -0.206 F 
ATOM     88  C   UNL     1     -13.624   8.426   1.702  1.00  0.00     0.006 A 
ENDBRANCH  67  81
BRANCH  68  89
ATOM     89  C   UNL     1     -17.641  -0.146  -0.446  1.00  0.00     0.057 A 
ATOM     90  C   UNL     1     -18.635  -0.166   0.545  1.00  0.00     0.134 A 
ATOM     91  C   UNL     1     -18.103  -0.036  -1.771  1.00  0.00     0.134 A 
ATOM     92  F   UNL     1     -18.301  -0.224   1.842  1.00  0.00    -0.206 F 
ATOM     93  C   UNL     1     -20.000  -0.059   0.238  1.00  0.00     0.040 A 
ATOM     94  C   UNL     1     -19.461   0.064  -2.091  1.00  0.00     0.040 A 
ATOM     95  F   UNL     1     -17.248   0.068  -2.798  1.00  0.00    -0.206 F 
ATOM     96  C   UNL     1     -20.416   0.068  -1.083  1.00  0.00     0.006 A 
ENDBRANCH  68  89
BRANCH  80  97
ATOM     97  C   UNL     1     -12.397  -0.178   3.033  1.00  0.00     0.057 A 
ATOM     98  C   UNL     1     -12.333  -1.231   2.107  1.00  0.00     0.134 A 
ATOM     99  C   UNL     1     -11.839  -0.414   4.294  1.00  0.00     0.134 A 
ATOM    100  F   UNL     1     -12.747  -1.070   0.844  1.00  0.00    -0.206 F 
ATOM    101  C   UNL     1     -11.766  -2.467   2.430  1.00  0.00     0.040 A 
ATOM    102  C   UNL     1     -11.239  -1.633   4.619  1.00  0.00     0.040 A 
ATOM    103  F   UNL     1     -11.809   0.565   5.212  1.00  0.00    -0.206 F 
ATOM    104  C   UNL     1     -11.206  -2.667   3.688  1.00  0.00     0.006 A 
ENDBRANCH  80  97
ENDBRANCH  54  55
ENDBRANCH  46  49
ENDBRANCH  44  45
ENDBRANCH  43  44
ENDBRANCH  42  43
ENDBRANCH  41  42
ENDBRANCH   1  41
TORSDOF 19
