REMARK SMILES C[N@@H+](C[C@H]1CCC[N@@H+]1CC(=O)NCCCCCCNC(=O)c1ccc(-c2c3nc(c(-c4c(F)cccc4F)c4ccc([nH]4)c(-c4c(F)cccc4F)c4nc(c(-c5c(F)cccc5F)c5ccc2[nH]5)C=C4)C=C3)cc1)C1CC1
REMARK SMILES IDX 14 1 13 2 12 3 10 4 11 5 9 7 8 8 4 9 5 10 6 11 7 12 3 14
REMARK SMILES IDX 2 15 1 16 76 18 77 19 78 20 15 21 16 22 17 23 18 24 19 25
REMARK SMILES IDX 20 26 21 28 22 29 23 30 75 31 24 32 74 33 25 34 26 35 27 36
REMARK SMILES IDX 68 37 28 38 73 39 67 40 69 41 29 42 72 43 66 44 65 45 30 47
REMARK SMILES IDX 56 48 39 49 55 50 40 51 43 52 54 53 70 54 41 55 42 56 53 58
REMARK SMILES IDX 71 59 44 60 31 61 32 62 37 63 33 64 34 65 36 66 38 67 35 68
REMARK SMILES IDX 57 69 58 70 63 71 59 72 60 73 62 74 64 75 61 76 45 77 46 78
REMARK SMILES IDX 51 79 47 80 48 81 50 82 52 83 49 84
REMARK H PARENT 12 6 8 13 2 17 19 27 69 46 43 57
REMARK Flexibility Score: inf
ROOT
ATOM      1  C   UNL     1      -3.564   0.507   2.848  1.00  0.00     0.021 C 
ENDROOT
BRANCH   1   2
ATOM      2  C   UNL     1      -2.179   0.434   3.496  1.00  0.00     0.116 C 
BRANCH   2   3
ATOM      3  N   UNL     1      -1.940  -0.889   4.047  1.00  0.00    -0.351 N 
ATOM      4  C   UNL     1      -1.174  -1.923   3.587  1.00  0.00     0.275 C 
ATOM      5  O   UNL     1      -1.261  -2.995   4.193  1.00  0.00    -0.269 OA
ATOM      6  H   UNL     1      -2.409  -1.071   4.893  1.00  0.00     0.163 HD
BRANCH   4   7
ATOM      7  C   UNL     1      -0.220  -1.751   2.391  1.00  0.00     0.363 C 
BRANCH   7   8
ATOM      8  N   UNL     1      -0.699  -2.291   1.097  1.00  0.00    -0.320 N 
ATOM      9  C   UNL     1      -1.900  -1.623   0.569  1.00  0.00     0.240 C 
ATOM     10  C   UNL     1      -3.027  -2.617   0.844  1.00  0.00     0.077 C 
ATOM     11  C   UNL     1      -2.377  -3.970   0.685  1.00  0.00     0.068 C 
ATOM     12  C   UNL     1      -0.935  -3.743   1.114  1.00  0.00     0.263 C 
ATOM     13  H   UNL     1       0.080  -2.089   0.470  1.00  0.00     0.348 HD
BRANCH   9  14
ATOM     14  C   UNL     1      -1.788  -1.278  -0.949  1.00  0.00     0.327 C 
BRANCH  14  15
ATOM     15  N   UNL     1      -1.337   0.098  -1.270  1.00  0.00    -0.330 N 
ATOM     16  C   UNL     1       0.090   0.270  -1.015  1.00  0.00     0.333 C 
ATOM     17  H   UNL     1      -1.429   0.227  -2.278  1.00  0.00     0.348 HD
BRANCH  15  18
ATOM     18  C   UNL     1      -2.232   1.156  -0.749  1.00  0.00     0.184 C 
ATOM     19  C   UNL     1      -1.745   2.359   0.020  1.00  0.00     0.071 C 
ATOM     20  C   UNL     1      -2.215   2.518  -1.393  1.00  0.00     0.071 C 
ENDBRANCH  15  18
ENDBRANCH  14  15
ENDBRANCH   9  14
ENDBRANCH   7   8
ENDBRANCH   4   7
ENDBRANCH   2   3
ENDBRANCH   1   2
BRANCH   1  21
ATOM     21  C   UNL     1      -4.710   0.887   3.785  1.00  0.00     0.002 C 
BRANCH  21  22
ATOM     22  C   UNL     1      -4.803   2.374   4.138  1.00  0.00     0.002 C 
BRANCH  22  23
ATOM     23  C   UNL     1      -4.729   3.359   2.963  1.00  0.00     0.021 C 
BRANCH  23  24
ATOM     24  C   UNL     1      -5.678   3.079   1.796  1.00  0.00     0.116 C 
BRANCH  24  25
ATOM     25  N   UNL     1      -7.053   3.397   2.131  1.00  0.00    -0.352 N 
ATOM     26  C   UNL     1      -7.871   4.358   1.590  1.00  0.00     0.251 C 
ATOM     27  H   UNL     1      -7.455   2.848   2.843  1.00  0.00     0.163 HD
ATOM     28  O   UNL     1      -8.927   4.653   2.138  1.00  0.00    -0.269 OA
BRANCH  26  29
ATOM     29  C   UNL     1      -7.479   5.046   0.340  1.00  0.00     0.039 A 
ATOM     30  C   UNL     1      -7.540   6.442   0.285  1.00  0.00     0.014 A 
ATOM     31  C   UNL     1      -7.106   4.314  -0.791  1.00  0.00     0.014 A 
ATOM     32  C   UNL     1      -7.193   7.109  -0.894  1.00  0.00     0.010 A 
ATOM     33  C   UNL     1      -6.723   4.982  -1.954  1.00  0.00     0.010 A 
ATOM     34  C   UNL     1      -6.770   6.384  -2.020  1.00  0.00    -0.014 A 
BRANCH  34  35
ATOM     35  C   UNL     1      -6.397   7.064  -3.288  1.00  0.00     0.031 A 
ATOM     36  C   UNL     1      -7.258   6.895  -4.509  1.00  0.00     0.074 A 
ATOM     37  C   UNL     1      -5.253   7.770  -3.365  1.00  0.00     0.049 A 
ATOM     38  N   UNL     1      -7.034   7.281  -5.740  1.00  0.00    -0.248 NA
ATOM     39  C   UNL     1      -8.529   6.178  -4.324  1.00  0.00     0.031 C 
ATOM     40  C   UNL     1      -4.325   8.003  -2.259  1.00  0.00     0.029 A 
ATOM     41  N   UNL     1      -4.664   8.400  -4.434  1.00  0.00    -0.354 N 
ATOM     42  C   UNL     1      -8.123   6.835  -6.479  1.00  0.00     0.074 A 
ATOM     43  C   UNL     1      -8.992   6.126  -5.565  1.00  0.00     0.031 C 
ATOM     44  C   UNL     1      -3.280   8.718  -2.707  1.00  0.00     0.029 A 
ATOM     45  C   UNL     1      -3.444   8.959  -4.138  1.00  0.00     0.049 A 
ATOM     46  H   UNL     1      -5.076   8.446  -5.327  1.00  0.00     0.167 HD
ATOM     47  C   UNL     1      -8.378   7.010  -7.798  1.00  0.00     0.037 A 
ATOM     48  C   UNL     1      -2.548   9.574  -4.934  1.00  0.00     0.037 A 
ATOM     49  C   UNL     1      -7.529   7.740  -8.702  1.00  0.00     0.049 A 
ATOM     50  C   UNL     1      -2.843   9.734  -6.401  1.00  0.00     0.074 A 
ATOM     51  C   UNL     1      -7.734   8.017 -10.042  1.00  0.00     0.029 A 
ATOM     52  N   UNL     1      -6.312   8.307  -8.357  1.00  0.00    -0.354 N 
ATOM     53  N   UNL     1      -3.896   9.345  -7.078  1.00  0.00    -0.248 NA
ATOM     54  C   UNL     1      -1.826  10.416  -7.214  1.00  0.00     0.031 C 
ATOM     55  C   UNL     1      -6.623   8.719 -10.519  1.00  0.00     0.029 A 
ATOM     56  C   UNL     1      -5.746   8.915  -9.465  1.00  0.00     0.049 A 
ATOM     57  H   UNL     1      -5.910   8.281  -7.459  1.00  0.00     0.167 HD
ATOM     58  C   UNL     1      -3.683   9.762  -8.386  1.00  0.00     0.074 A 
ATOM     59  C   UNL     1      -2.402  10.436  -8.409  1.00  0.00     0.031 C 
ATOM     60  C   UNL     1      -4.479   9.601  -9.470  1.00  0.00     0.037 A 
BRANCH  47  61
ATOM     61  C   UNL     1      -9.630   6.395  -8.350  1.00  0.00     0.057 A 
ATOM     62  C   UNL     1     -10.898   6.918  -8.066  1.00  0.00     0.134 A 
ATOM     63  C   UNL     1      -9.562   5.296  -9.217  1.00  0.00     0.134 A 
ATOM     64  F   UNL     1     -11.031   7.963  -7.236  1.00  0.00    -0.206 F 
ATOM     65  C   UNL     1     -12.056   6.357  -8.608  1.00  0.00     0.040 A 
ATOM     66  C   UNL     1     -10.711   4.742  -9.784  1.00  0.00     0.040 A 
ATOM     67  F   UNL     1      -8.378   4.753  -9.537  1.00  0.00    -0.206 F 
ATOM     68  C   UNL     1     -11.963   5.270  -9.475  1.00  0.00     0.006 A 
ENDBRANCH  47  61
BRANCH  48  69
ATOM     69  C   UNL     1      -1.276  10.083  -4.363  1.00  0.00     0.057 A 
ATOM     70  C   UNL     1      -1.042  11.457  -4.235  1.00  0.00     0.134 A 
ATOM     71  C   UNL     1      -0.263   9.213  -3.943  1.00  0.00     0.134 A 
ATOM     72  F   UNL     1      -1.967  12.339  -4.641  1.00  0.00    -0.206 F 
ATOM     73  C   UNL     1       0.160  11.949  -3.725  1.00  0.00     0.040 A 
ATOM     74  C   UNL     1       0.935   9.691  -3.410  1.00  0.00     0.040 A 
ATOM     75  F   UNL     1      -0.429   7.886  -4.036  1.00  0.00    -0.206 F 
ATOM     76  C   UNL     1       1.152  11.063  -3.307  1.00  0.00     0.006 A 
ENDBRANCH  48  69
BRANCH  60  77
ATOM     77  C   UNL     1      -4.018  10.199 -10.765  1.00  0.00     0.057 A 
ATOM     78  C   UNL     1      -3.001   9.615 -11.528  1.00  0.00     0.134 A 
ATOM     79  C   UNL     1      -4.648  11.337 -11.285  1.00  0.00     0.134 A 
ATOM     80  F   UNL     1      -2.350   8.531 -11.079  1.00  0.00    -0.206 F 
ATOM     81  C   UNL     1      -2.620  10.148 -12.761  1.00  0.00     0.040 A 
ATOM     82  C   UNL     1      -4.291  11.866 -12.526  1.00  0.00     0.040 A 
ATOM     83  F   UNL     1      -5.636  11.940 -10.605  1.00  0.00    -0.206 F 
ATOM     84  C   UNL     1      -3.272  11.271 -13.267  1.00  0.00     0.006 A 
ENDBRANCH  60  77
ENDBRANCH  34  35
ENDBRANCH  26  29
ENDBRANCH  24  25
ENDBRANCH  23  24
ENDBRANCH  22  23
ENDBRANCH  21  22
ENDBRANCH   1  21
TORSDOF 17
