REMARK SMILES O=C(NCCCCCCNC(=O)c1cc(Br)ccc1OCc1ccccc1F)c1ccc(-c2c3nc(c(-c4c(F)cccc4F)c4ccc([nH]4)c(-c4c(F)cccc4F)c4nc(c(-c5c(F)cccc5F)c5ccc2[nH]5)C=C4)C=C3)cc1
REMARK SMILES IDX 7 1 6 2 5 3 4 4 3 5 1 6 2 7 29 9 30 10 82 11 31 12 81 13
REMARK SMILES IDX 32 14 33 15 34 16 75 17 35 18 80 19 74 20 76 21 36 22 79 23
REMARK SMILES IDX 73 24 72 25 37 27 63 28 46 29 62 30 47 31 50 32 61 33 77 34
REMARK SMILES IDX 48 35 49 36 60 38 78 39 51 40 38 41 39 42 44 43 40 44 41 45
REMARK SMILES IDX 43 46 45 47 42 48 64 49 65 50 70 51 66 52 67 53 69 54 71 55
REMARK SMILES IDX 68 56 52 57 53 58 58 59 54 60 55 61 57 62 59 63 56 64 8 65
REMARK SMILES IDX 9 66 10 67 11 68 12 70 13 71 14 72 19 73 15 74 18 75 16 76
REMARK SMILES IDX 17 77 20 78 21 79 22 80 23 81 27 82 24 83 26 84 28 85 25 86
REMARK H PARENT 3 8 76 26 50 37 10 69
REMARK Flexibility Score: inf
ROOT
ATOM      1  C   UNL     1       4.839   3.725   1.769  1.00  0.00     0.002 C 
ENDROOT
BRANCH   1   2
ATOM      2  C   UNL     1       4.060   3.879   0.460  1.00  0.00     0.002 C 
BRANCH   2   3
ATOM      3  C   UNL     1       4.284   2.795  -0.594  1.00  0.00     0.021 C 
BRANCH   3   4
ATOM      4  C   UNL     1       4.097   1.365  -0.110  1.00  0.00     0.116 C 
BRANCH   4   5
ATOM      5  N   UNL     1       2.714   1.032   0.165  1.00  0.00    -0.352 N 
ATOM      6  O   UNL     1       0.876  -0.285   0.118  1.00  0.00    -0.269 OA
ATOM      7  C   UNL     1       2.084  -0.171  -0.052  1.00  0.00     0.251 C 
ATOM      8  H   UNL     1       2.161   1.749   0.550  1.00  0.00     0.163 HD
BRANCH   7   9
ATOM      9  C   UNL     1       2.877  -1.329  -0.526  1.00  0.00     0.039 A 
ATOM     10  C   UNL     1       4.064  -1.698   0.116  1.00  0.00     0.014 A 
ATOM     11  C   UNL     1       2.412  -2.062  -1.621  1.00  0.00     0.014 A 
ATOM     12  C   UNL     1       4.825  -2.750  -0.386  1.00  0.00     0.010 A 
ATOM     13  C   UNL     1       3.151  -3.150  -2.094  1.00  0.00     0.010 A 
ATOM     14  C   UNL     1       4.366  -3.496  -1.484  1.00  0.00    -0.014 A 
BRANCH  14  15
ATOM     15  C   UNL     1       5.110  -4.704  -1.909  1.00  0.00     0.031 A 
ATOM     16  C   UNL     1       5.878  -4.740  -3.196  1.00  0.00     0.074 A 
ATOM     17  C   UNL     1       5.087  -5.782  -1.103  1.00  0.00     0.049 A 
ATOM     18  N   UNL     1       6.570  -5.725  -3.710  1.00  0.00    -0.248 NA
ATOM     19  C   UNL     1       5.869  -3.519  -4.016  1.00  0.00     0.031 C 
ATOM     20  C   UNL     1       4.365  -5.865   0.169  1.00  0.00     0.029 A 
ATOM     21  N   UNL     1       5.691  -7.006  -1.225  1.00  0.00    -0.354 N 
ATOM     22  C   UNL     1       7.067  -5.252  -4.917  1.00  0.00     0.074 A 
ATOM     23  C   UNL     1       6.592  -3.892  -5.065  1.00  0.00     0.031 C 
ATOM     24  C   UNL     1       4.596  -7.063   0.726  1.00  0.00     0.029 A 
ATOM     25  C   UNL     1       5.444  -7.845  -0.167  1.00  0.00     0.049 A 
ATOM     26  H   UNL     1       6.248  -7.259  -1.997  1.00  0.00     0.167 HD
ATOM     27  C   UNL     1       7.851  -5.897  -5.813  1.00  0.00     0.037 A 
ATOM     28  C   UNL     1       5.845  -9.109   0.056  1.00  0.00     0.037 A 
ATOM     29  C   UNL     1       8.338  -7.242  -5.656  1.00  0.00     0.049 A 
ATOM     30  C   UNL     1       6.696  -9.802  -0.963  1.00  0.00     0.074 A 
ATOM     31  C   UNL     1       9.175  -7.959  -6.494  1.00  0.00     0.029 A 
ATOM     32  N   UNL     1       8.031  -8.075  -4.591  1.00  0.00    -0.354 N 
ATOM     33  N   UNL     1       7.169  -9.336  -2.092  1.00  0.00    -0.248 NA
ATOM     34  C   UNL     1       7.054 -11.200  -0.687  1.00  0.00     0.031 C 
ATOM     35  C   UNL     1       9.354  -9.236  -5.949  1.00  0.00     0.029 A 
ATOM     36  C   UNL     1       8.645  -9.305  -4.761  1.00  0.00     0.049 A 
ATOM     37  H   UNL     1       7.461  -7.828  -3.827  1.00  0.00     0.167 HD
ATOM     38  C   UNL     1       7.874 -10.383  -2.667  1.00  0.00     0.074 A 
ATOM     39  C   UNL     1       7.785 -11.503  -1.751  1.00  0.00     0.031 C 
ATOM     40  C   UNL     1       8.528 -10.413  -3.851  1.00  0.00     0.037 A 
BRANCH  27  41
ATOM     41  C   UNL     1       8.234  -5.161  -7.059  1.00  0.00     0.057 A 
ATOM     42  C   UNL     1       7.601  -5.441  -8.276  1.00  0.00     0.134 A 
ATOM     43  C   UNL     1       9.286  -4.238  -7.069  1.00  0.00     0.134 A 
ATOM     44  F   UNL     1       6.590  -6.320  -8.331  1.00  0.00    -0.206 F 
ATOM     45  C   UNL     1       8.009  -4.834  -9.465  1.00  0.00     0.040 A 
ATOM     46  C   UNL     1       9.696  -3.617  -8.249  1.00  0.00     0.040 A 
ATOM     47  F   UNL     1       9.925  -3.924  -5.932  1.00  0.00    -0.206 F 
ATOM     48  C   UNL     1       9.062  -3.921  -9.453  1.00  0.00     0.006 A 
ENDBRANCH  27  41
BRANCH  28  49
ATOM     49  C   UNL     1       5.431  -9.792   1.301  1.00  0.00     0.057 A 
ATOM     50  C   UNL     1       4.120 -10.248   1.478  1.00  0.00     0.134 A 
ATOM     51  C   UNL     1       6.329  -9.961   2.360  1.00  0.00     0.134 A 
ATOM     52  F   UNL     1       3.216 -10.106   0.498  1.00  0.00    -0.206 F 
ATOM     53  C   UNL     1       3.709 -10.836   2.675  1.00  0.00     0.040 A 
ATOM     54  C   UNL     1       5.936 -10.561   3.556  1.00  0.00     0.040 A 
ATOM     55  F   UNL     1       7.600  -9.553   2.238  1.00  0.00    -0.206 F 
ATOM     56  C   UNL     1       4.620 -10.993   3.718  1.00  0.00     0.006 A 
ENDBRANCH  28  49
BRANCH  40  57
ATOM     57  C   UNL     1       9.181 -11.704  -4.231  1.00  0.00     0.057 A 
ATOM     58  C   UNL     1      10.561 -11.882  -4.088  1.00  0.00     0.134 A 
ATOM     59  C   UNL     1       8.437 -12.758  -4.773  1.00  0.00     0.134 A 
ATOM     60  F   UNL     1      11.325 -10.906  -3.576  1.00  0.00    -0.206 F 
ATOM     61  C   UNL     1      11.183 -13.069  -4.478  1.00  0.00     0.040 A 
ATOM     62  C   UNL     1       9.046 -13.954  -5.155  1.00  0.00     0.040 A 
ATOM     63  F   UNL     1       7.109 -12.647  -4.921  1.00  0.00    -0.206 F 
ATOM     64  C   UNL     1      10.424 -14.109  -5.012  1.00  0.00     0.006 A 
ENDBRANCH  40  57
ENDBRANCH  14  15
ENDBRANCH   7   9
ENDBRANCH   4   5
ENDBRANCH   3   4
ENDBRANCH   2   3
ENDBRANCH   1   2
BRANCH   1  65
ATOM     65  C   UNL     1       6.347   3.457   1.653  1.00  0.00     0.021 C 
BRANCH  65  66
ATOM     66  C   UNL     1       7.137   4.422   0.767  1.00  0.00     0.116 C 
BRANCH  66  67
ATOM     67  N   UNL     1       6.932   5.808   1.138  1.00  0.00    -0.352 N 
ATOM     68  C   UNL     1       7.521   6.331   2.269  1.00  0.00     0.255 C 
ATOM     69  H   UNL     1       6.365   6.384   0.576  1.00  0.00     0.163 HD
ATOM     70  O   UNL     1       6.822   6.450   3.266  1.00  0.00    -0.269 OA
BRANCH  68  71
ATOM     71  C   UNL     1       8.942   6.796   2.183  1.00  0.00     0.082 A 
ATOM     72  C   UNL     1       9.686   6.546   1.013  1.00  0.00     0.033 A 
ATOM     73  C   UNL     1       9.569   7.481   3.238  1.00  0.00     0.132 A 
ATOM     74  C   UNL     1      11.039   6.880   0.938  1.00  0.00     0.019 A 
ATOM     75  C   UNL     1      10.935   7.796   3.152  1.00  0.00     0.048 A 
ATOM     76  Br  UNL     1      12.020   6.466  -0.624  1.00  0.00    -0.051 Br
ATOM     77  C   UNL     1      11.673   7.492   2.009  1.00  0.00     0.019 A 
BRANCH  73  78
ATOM     78  O   UNL     1       9.012   7.806   4.440  1.00  0.00    -0.488 OA
BRANCH  78  79
ATOM     79  C   UNL     1       7.943   8.768   4.485  1.00  0.00     0.268 C 
BRANCH  79  80
ATOM     80  C   UNL     1       7.765   9.765   3.364  1.00  0.00     0.025 A 
ATOM     81  C   UNL     1       6.730   9.622   2.426  1.00  0.00     0.010 A 
ATOM     82  C   UNL     1       8.588  10.888   3.275  1.00  0.00     0.129 A 
ATOM     83  C   UNL     1       6.541  10.571   1.419  1.00  0.00     0.001 A 
ATOM     84  C   UNL     1       8.394  11.849   2.284  1.00  0.00     0.039 A 
ATOM     85  F   UNL     1       9.565  11.075   4.173  1.00  0.00    -0.207 F 
ATOM     86  C   UNL     1       7.371  11.689   1.351  1.00  0.00     0.003 A 
ENDBRANCH  79  80
ENDBRANCH  78  79
ENDBRANCH  73  78
ENDBRANCH  68  71
ENDBRANCH  66  67
ENDBRANCH  65  66
ENDBRANCH   1  65
TORSDOF 16
