REMARK SMILES O=C(Cc1cccn(C(F)F)c1=O)NCCCCCCNC(=O)c1ccc(-c2c3nc(c(-c4c(F)cccc4F)c4ccc([nH]4)c(-c4c(F)cccc4F)c4nc(c(-c5c(F)cccc5F)c5ccc2[nH]5)C=C4)C=C3)cc1
REMARK SMILES IDX 17 1 16 2 15 3 14 4 1 5 2 6 3 8 4 9 5 10 12 11 6 12 8 13
REMARK SMILES IDX 13 14 7 15 9 16 10 17 11 18 18 19 19 20 20 21 21 22 22 23
REMARK SMILES IDX 23 25 24 26 25 27 77 28 26 29 76 30 27 31 28 32 29 33 70 34
REMARK SMILES IDX 30 35 75 36 69 37 71 38 31 39 74 40 68 41 67 42 32 44 58 45
REMARK SMILES IDX 41 46 57 47 42 48 45 49 56 50 72 51 43 52 44 53 55 55 73 56
REMARK SMILES IDX 46 57 33 58 34 59 39 60 35 61 36 62 38 63 40 64 37 65 59 66
REMARK SMILES IDX 60 67 65 68 61 69 62 70 64 71 66 72 63 73 47 74 48 75 53 76
REMARK SMILES IDX 49 77 50 78 52 79 54 80 51 81
REMARK H PARENT 14 7 21 24 71 43 45 54
REMARK Flexibility Score: inf
ROOT
ATOM      1  C   UNL     1       4.158  -3.181   2.094  1.00  0.00     0.002 C 
ENDROOT
BRANCH   1   2
ATOM      2  C   UNL     1       2.646  -3.060   1.852  1.00  0.00     0.021 C 
BRANCH   2   3
ATOM      3  C   UNL     1       2.109  -1.631   1.797  1.00  0.00     0.116 C 
BRANCH   3   4
ATOM      4  N   UNL     1       2.774  -0.858   0.774  1.00  0.00    -0.356 N 
ATOM      5  O   UNL     1       0.923   0.229  -0.046  1.00  0.00    -0.275 OA
ATOM      6  C   UNL     1       2.131   0.016  -0.070  1.00  0.00     0.224 C 
ATOM      7  H   UNL     1       3.748  -0.963   0.675  1.00  0.00     0.163 HD
BRANCH   6   8
ATOM      8  C   UNL     1       3.062   0.713  -1.053  1.00  0.00     0.141 C 
BRANCH   8   9
ATOM      9  C   UNL     1       3.779   1.846  -0.380  1.00  0.00     0.027 A 
ATOM     10  C   UNL     1       3.471   3.141  -0.564  1.00  0.00     0.011 A 
ATOM     11  C   UNL     1       4.921   1.494   0.533  1.00  0.00     0.258 A 
ATOM     12  C   UNL     1       4.199   4.183   0.113  1.00  0.00     0.019 A 
ATOM     13  N   UNL     1       5.557   2.551   1.156  1.00  0.00    -0.258 N 
ATOM     14  O   UNL     1       5.232   0.314   0.696  1.00  0.00    -0.269 OA
ATOM     15  C   UNL     1       5.199   3.869   0.943  1.00  0.00     0.095 A 
BRANCH  13  16
ATOM     16  C   UNL     1       6.635   2.249   2.064  1.00  0.00     0.451 C 
ATOM     17  F   UNL     1       7.770   2.872   1.649  1.00  0.00    -0.185 F 
ATOM     18  F   UNL     1       6.350   2.757   3.292  1.00  0.00    -0.185 F 
ENDBRANCH  13  16
ENDBRANCH   8   9
ENDBRANCH   6   8
ENDBRANCH   3   4
ENDBRANCH   2   3
ENDBRANCH   1   2
BRANCH   1  19
ATOM     19  C   UNL     1       4.679  -2.539   3.384  1.00  0.00     0.002 C 
BRANCH  19  20
ATOM     20  C   UNL     1       4.043  -3.054   4.675  1.00  0.00     0.021 C 
BRANCH  20  21
ATOM     21  C   UNL     1       4.129  -4.562   4.887  1.00  0.00     0.116 C 
BRANCH  21  22
ATOM     22  N   UNL     1       5.491  -5.049   5.054  1.00  0.00    -0.352 N 
ATOM     23  C   UNL     1       5.964  -6.004   5.925  1.00  0.00     0.251 C 
ATOM     24  H   UNL     1       6.165  -4.640   4.463  1.00  0.00     0.163 HD
ATOM     25  O   UNL     1       7.167  -6.226   6.014  1.00  0.00    -0.269 OA
BRANCH  23  26
ATOM     26  C   UNL     1       5.012  -6.731   6.796  1.00  0.00     0.039 A 
ATOM     27  C   UNL     1       3.827  -7.254   6.276  1.00  0.00     0.014 A 
ATOM     28  C   UNL     1       5.291  -6.849   8.161  1.00  0.00     0.014 A 
ATOM     29  C   UNL     1       2.846  -7.729   7.141  1.00  0.00     0.010 A 
ATOM     30  C   UNL     1       4.335  -7.403   9.019  1.00  0.00     0.010 A 
ATOM     31  C   UNL     1       3.081  -7.793   8.524  1.00  0.00    -0.014 A 
BRANCH  31  32
ATOM     32  C   UNL     1       1.987  -8.238   9.428  1.00  0.00     0.031 A 
ATOM     33  C   UNL     1       1.371  -7.284  10.418  1.00  0.00     0.074 A 
ATOM     34  C   UNL     1       1.496  -9.486   9.307  1.00  0.00     0.049 A 
ATOM     35  N   UNL     1       0.376  -7.483  11.248  1.00  0.00    -0.248 NA
ATOM     36  C   UNL     1       1.946  -5.932  10.491  1.00  0.00     0.031 C 
ATOM     37  C   UNL     1       1.998 -10.504   8.382  1.00  0.00     0.029 A 
ATOM     38  N   UNL     1       0.447 -10.101   9.942  1.00  0.00    -0.354 N 
ATOM     39  C   UNL     1       0.220  -6.293  11.950  1.00  0.00     0.074 A 
ATOM     40  C   UNL     1       1.241  -5.387  11.472  1.00  0.00     0.031 C 
ATOM     41  C   UNL     1       1.224 -11.597   8.471  1.00  0.00     0.029 A 
ATOM     42  C   UNL     1       0.207 -11.377   9.494  1.00  0.00     0.049 A 
ATOM     43  H   UNL     1      -0.082  -9.670  10.651  1.00  0.00     0.167 HD
ATOM     44  C   UNL     1      -0.698  -5.978  12.896  1.00  0.00     0.037 A 
ATOM     45  C   UNL     1      -0.724 -12.273   9.869  1.00  0.00     0.037 A 
ATOM     46  C   UNL     1      -1.730  -6.869  13.360  1.00  0.00     0.049 A 
ATOM     47  C   UNL     1      -1.706 -11.909  10.944  1.00  0.00     0.074 A 
ATOM     48  C   UNL     1      -2.721  -6.630  14.297  1.00  0.00     0.029 A 
ATOM     49  N   UNL     1      -1.905  -8.172  12.919  1.00  0.00    -0.354 N 
ATOM     50  N   UNL     1      -1.849 -10.775  11.585  1.00  0.00    -0.248 NA
ATOM     51  C   UNL     1      -2.651 -12.957  11.354  1.00  0.00     0.031 C 
ATOM     52  C   UNL     1      -3.473  -7.801  14.449  1.00  0.00     0.029 A 
ATOM     53  C   UNL     1      -2.975  -8.756  13.578  1.00  0.00     0.049 A 
ATOM     54  H   UNL     1      -1.351  -8.616  12.237  1.00  0.00     0.167 HD
ATOM     55  C   UNL     1      -2.908 -10.967  12.462  1.00  0.00     0.074 A 
ATOM     56  C   UNL     1      -3.385 -12.319  12.254  1.00  0.00     0.031 C 
ATOM     57  C   UNL     1      -3.435 -10.103  13.363  1.00  0.00     0.037 A 
BRANCH  44  58
ATOM     58  C   UNL     1      -0.618  -4.608  13.505  1.00  0.00     0.057 A 
ATOM     59  C   UNL     1      -0.181  -4.438  14.825  1.00  0.00     0.134 A 
ATOM     60  C   UNL     1      -0.999  -3.460  12.798  1.00  0.00     0.134 A 
ATOM     61  F   UNL     1       0.192  -5.496  15.560  1.00  0.00    -0.206 F 
ATOM     62  C   UNL     1      -0.124  -3.176  15.418  1.00  0.00     0.040 A 
ATOM     63  C   UNL     1      -0.925  -2.190  13.373  1.00  0.00     0.040 A 
ATOM     64  F   UNL     1      -1.415  -3.553  11.526  1.00  0.00    -0.206 F 
ATOM     65  C   UNL     1      -0.491  -2.046  14.690  1.00  0.00     0.006 A 
ENDBRANCH  44  58
BRANCH  45  66
ATOM     66  C   UNL     1      -0.772 -13.607   9.223  1.00  0.00     0.057 A 
ATOM     67  C   UNL     1       0.227 -14.562   9.447  1.00  0.00     0.134 A 
ATOM     68  C   UNL     1      -1.829 -13.963   8.378  1.00  0.00     0.134 A 
ATOM     69  F   UNL     1       1.268 -14.279  10.244  1.00  0.00    -0.206 F 
ATOM     70  C   UNL     1       0.182 -15.820   8.847  1.00  0.00     0.040 A 
ATOM     71  C   UNL     1      -1.901 -15.227   7.791  1.00  0.00     0.040 A 
ATOM     72  F   UNL     1      -2.826 -13.097   8.142  1.00  0.00    -0.206 F 
ATOM     73  C   UNL     1      -0.889 -16.159   8.022  1.00  0.00     0.006 A 
ENDBRANCH  45  66
BRANCH  57  74
ATOM     74  C   UNL     1      -4.599 -10.595  14.171  1.00  0.00     0.057 A 
ATOM     75  C   UNL     1      -5.894 -10.127  13.917  1.00  0.00     0.134 A 
ATOM     76  C   UNL     1      -4.437 -11.530  15.201  1.00  0.00     0.134 A 
ATOM     77  F   UNL     1      -6.116  -9.227  12.948  1.00  0.00    -0.206 F 
ATOM     78  C   UNL     1      -6.988 -10.576  14.658  1.00  0.00     0.040 A 
ATOM     79  C   UNL     1      -5.527 -12.005  15.932  1.00  0.00     0.040 A 
ATOM     80  F   UNL     1      -3.223 -12.029  15.481  1.00  0.00    -0.206 F 
ATOM     81  C   UNL     1      -6.807 -11.524  15.663  1.00  0.00     0.006 A 
ENDBRANCH  57  74
ENDBRANCH  31  32
ENDBRANCH  23  26
ENDBRANCH  21  22
ENDBRANCH  20  21
ENDBRANCH  19  20
ENDBRANCH   1  19
TORSDOF 15
