REMARK SMILES COc1cccc(/C=C(/CC(=O)NCCCCCCNC(=O)c2ccc(-c3c4nc(c(-c5c(F)cccc5F)c5ccc([nH]5)c(-c5c(F)cccc5F)c5nc(c(-c6c(F)cccc6F)c6ccc3[nH]6)C=C5)C=C4)cc2)c2nc3ccccc3o2)c1
REMARK SMILES IDX 16 1 15 2 14 3 13 4 11 5 12 6 10 8 9 9 8 10 7 11 3 12 4 13
REMARK SMILES IDX 86 14 5 15 6 16 2 17 1 18 77 19 78 20 85 21 79 22 84 23
REMARK SMILES IDX 80 24 83 25 81 26 82 27 17 28 18 29 19 30 20 31 21 32 22 34
REMARK SMILES IDX 23 35 24 36 76 37 25 38 75 39 26 40 27 41 28 42 69 43 29 44
REMARK SMILES IDX 74 45 68 46 70 47 30 48 73 49 67 50 66 51 31 53 57 54 40 55
REMARK SMILES IDX 56 56 41 57 44 58 55 59 71 60 42 61 43 62 54 64 72 65 45 66
REMARK SMILES IDX 32 67 33 68 38 69 34 70 35 71 37 72 39 73 36 74 58 75 59 76
REMARK SMILES IDX 64 77 60 78 61 79 63 80 65 81 62 82 46 83 47 84 52 85 48 86
REMARK SMILES IDX 49 87 51 88 53 89 50 90
REMARK H PARENT 13 7 20 33 70 52 44 63
REMARK Flexibility Score: inf
ROOT
ATOM      1  C   UNL     1       5.401   2.509  -6.767  1.00  0.00     0.002 C 
ENDROOT
BRANCH   1   2
ATOM      2  C   UNL     1       4.934   2.606  -5.309  1.00  0.00     0.021 C 
BRANCH   2   3
ATOM      3  C   UNL     1       6.062   2.745  -4.286  1.00  0.00     0.116 C 
BRANCH   3   4
ATOM      4  N   UNL     1       6.763   4.006  -4.404  1.00  0.00    -0.356 N 
ATOM      5  C   UNL     1       6.741   5.097  -3.583  1.00  0.00     0.224 C 
ATOM      6  O   UNL     1       7.491   6.040  -3.846  1.00  0.00    -0.275 OA
ATOM      7  H   UNL     1       7.343   4.090  -5.196  1.00  0.00     0.163 HD
BRANCH   5   8
ATOM      8  C   UNL     1       5.881   5.097  -2.320  1.00  0.00     0.141 C 
BRANCH   8   9
ATOM      9  C   UNL     1       4.378   5.069  -2.598  1.00  0.00     0.025 C 
ATOM     10  C   UNL     1       3.668   4.042  -2.067  1.00  0.00     0.018 C 
BRANCH  10  11
ATOM     11  C   UNL     1       2.289   3.500  -2.174  1.00  0.00    -0.021 A 
ATOM     12  C   UNL     1       0.803   1.616  -1.649  1.00  0.00     0.119 A 
ATOM     13  C   UNL     1      -0.231   2.227  -2.347  1.00  0.00     0.046 A 
ATOM     14  C   UNL     1       2.050   2.245  -1.567  1.00  0.00     0.054 A 
ATOM     15  C   UNL     1      -0.025   3.466  -2.940  1.00  0.00     0.004 A 
ATOM     16  C   UNL     1       1.226   4.089  -2.862  1.00  0.00     0.008 A 
BRANCH  12  17
ATOM     17  O   UNL     1       0.528   0.373  -1.149  1.00  0.00    -0.497 OA
ATOM     18  C   UNL     1       1.085   0.110   0.135  1.00  0.00     0.278 C 
ENDBRANCH  12  17
ENDBRANCH  10  11
BRANCH   9  19
ATOM     19  C   UNL     1       3.803   6.085  -3.430  1.00  0.00     0.223 A 
ATOM     20  N   UNL     1       4.359   6.527  -4.551  1.00  0.00    -0.210 NA
ATOM     21  O   UNL     1       2.667   6.809  -3.097  1.00  0.00    -0.436 OA
ATOM     22  C   UNL     1       3.567   7.556  -4.976  1.00  0.00     0.110 A 
ATOM     23  C   UNL     1       2.509   7.712  -4.106  1.00  0.00     0.155 A 
ATOM     24  C   UNL     1       3.673   8.405  -6.084  1.00  0.00     0.032 A 
ATOM     25  C   UNL     1       1.485   8.638  -4.264  1.00  0.00     0.049 A 
ATOM     26  C   UNL     1       2.667   9.362  -6.278  1.00  0.00     0.003 A 
ATOM     27  C   UNL     1       1.588   9.466  -5.389  1.00  0.00     0.004 A 
ENDBRANCH   9  19
ENDBRANCH   8   9
ENDBRANCH   5   8
ENDBRANCH   3   4
ENDBRANCH   2   3
ENDBRANCH   1   2
BRANCH   1  28
ATOM     28  C   UNL     1       6.416   1.401  -7.067  1.00  0.00     0.002 C 
BRANCH  28  29
ATOM     29  C   UNL     1       6.000  -0.008  -6.635  1.00  0.00     0.021 C 
BRANCH  29  30
ATOM     30  C   UNL     1       4.728  -0.534  -7.291  1.00  0.00     0.116 C 
BRANCH  30  31
ATOM     31  N   UNL     1       4.880  -0.717  -8.725  1.00  0.00    -0.352 N 
ATOM     32  C   UNL     1       4.565  -1.799  -9.505  1.00  0.00     0.251 C 
ATOM     33  H   UNL     1       5.266   0.050  -9.207  1.00  0.00     0.163 HD
ATOM     34  O   UNL     1       4.926  -1.831 -10.682  1.00  0.00    -0.269 OA
BRANCH  32  35
ATOM     35  C   UNL     1       3.806  -2.939  -8.944  1.00  0.00     0.039 A 
ATOM     36  C   UNL     1       4.178  -4.238  -9.304  1.00  0.00     0.014 A 
ATOM     37  C   UNL     1       2.706  -2.737  -8.105  1.00  0.00     0.014 A 
ATOM     38  C   UNL     1       3.472  -5.332  -8.798  1.00  0.00     0.010 A 
ATOM     39  C   UNL     1       2.047  -3.829  -7.545  1.00  0.00     0.010 A 
ATOM     40  C   UNL     1       2.410  -5.137  -7.901  1.00  0.00    -0.014 A 
BRANCH  40  41
ATOM     41  C   UNL     1       1.633  -6.285  -7.367  1.00  0.00     0.031 A 
ATOM     42  C   UNL     1       0.180  -6.440  -7.728  1.00  0.00     0.074 A 
ATOM     43  C   UNL     1       2.215  -7.160  -6.524  1.00  0.00     0.049 A 
ATOM     44  N   UNL     1      -0.687  -7.330  -7.315  1.00  0.00    -0.248 NA
ATOM     45  C   UNL     1      -0.379  -5.446  -8.659  1.00  0.00     0.031 C 
ATOM     46  C   UNL     1       3.605  -7.102  -6.068  1.00  0.00     0.029 A 
ATOM     47  N   UNL     1       1.704  -8.268  -5.895  1.00  0.00    -0.354 N 
ATOM     48  C   UNL     1      -1.892  -6.992  -7.919  1.00  0.00     0.074 A 
ATOM     49  C   UNL     1      -1.658  -5.787  -8.684  1.00  0.00     0.031 C 
ATOM     50  C   UNL     1       3.841  -8.140  -5.249  1.00  0.00     0.029 A 
ATOM     51  C   UNL     1       2.614  -8.916  -5.096  1.00  0.00     0.049 A 
ATOM     52  H   UNL     1       0.773  -8.569  -6.005  1.00  0.00     0.167 HD
ATOM     53  C   UNL     1      -3.080  -7.639  -7.863  1.00  0.00     0.037 A 
ATOM     54  C   UNL     1       2.473 -10.012  -4.326  1.00  0.00     0.037 A 
ATOM     55  C   UNL     1      -3.304  -8.856  -7.128  1.00  0.00     0.049 A 
ATOM     56  C   UNL     1       1.144 -10.716  -4.284  1.00  0.00     0.074 A 
ATOM     57  C   UNL     1      -4.460  -9.612  -7.043  1.00  0.00     0.029 A 
ATOM     58  N   UNL     1      -2.348  -9.496  -6.354  1.00  0.00    -0.354 N 
ATOM     59  N   UNL     1       0.027 -10.414  -4.901  1.00  0.00    -0.248 NA
ATOM     60  C   UNL     1       1.059 -11.921  -3.446  1.00  0.00     0.031 C 
ATOM     61  C   UNL     1      -4.213 -10.694  -6.191  1.00  0.00     0.029 A 
ATOM     62  C   UNL     1      -2.890 -10.635  -5.782  1.00  0.00     0.049 A 
ATOM     63  H   UNL     1      -1.422  -9.187  -6.230  1.00  0.00     0.167 HD
ATOM     64  C   UNL     1      -0.879 -11.409  -4.556  1.00  0.00     0.074 A 
ATOM     65  C   UNL     1      -0.180 -12.328  -3.683  1.00  0.00     0.031 C 
ATOM     66  C   UNL     1      -2.174 -11.550  -4.932  1.00  0.00     0.037 A 
BRANCH  53  67
ATOM     67  C   UNL     1      -4.227  -7.046  -8.628  1.00  0.00     0.057 A 
ATOM     68  C   UNL     1      -4.268  -7.066 -10.029  1.00  0.00     0.134 A 
ATOM     69  C   UNL     1      -5.316  -6.474  -7.959  1.00  0.00     0.134 A 
ATOM     70  F   UNL     1      -3.250  -7.587 -10.731  1.00  0.00    -0.206 F 
ATOM     71  C   UNL     1      -5.336  -6.514 -10.737  1.00  0.00     0.040 A 
ATOM     72  C   UNL     1      -6.404  -5.944  -8.655  1.00  0.00     0.040 A 
ATOM     73  F   UNL     1      -5.346  -6.429  -6.619  1.00  0.00    -0.206 F 
ATOM     74  C   UNL     1      -6.412  -5.957 -10.049  1.00  0.00     0.006 A 
ENDBRANCH  53  67
BRANCH  54  75
ATOM     75  C   UNL     1       3.628 -10.536  -3.554  1.00  0.00     0.057 A 
ATOM     76  C   UNL     1       4.245 -11.741  -3.910  1.00  0.00     0.134 A 
ATOM     77  C   UNL     1       4.129  -9.861  -2.435  1.00  0.00     0.134 A 
ATOM     78  F   UNL     1       3.797 -12.443  -4.962  1.00  0.00    -0.206 F 
ATOM     79  C   UNL     1       5.303 -12.269  -3.169  1.00  0.00     0.040 A 
ATOM     80  C   UNL     1       5.202 -10.365  -1.699  1.00  0.00     0.040 A 
ATOM     81  F   UNL     1       3.586  -8.698  -2.046  1.00  0.00    -0.206 F 
ATOM     82  C   UNL     1       5.787 -11.577  -2.061  1.00  0.00     0.006 A 
ENDBRANCH  54  75
BRANCH  66  83
ATOM     83  C   UNL     1      -2.901 -12.769  -4.447  1.00  0.00     0.057 A 
ATOM     84  C   UNL     1      -3.309 -12.909  -3.115  1.00  0.00     0.134 A 
ATOM     85  C   UNL     1      -3.231 -13.799  -5.337  1.00  0.00     0.134 A 
ATOM     86  F   UNL     1      -3.013 -11.964  -2.210  1.00  0.00    -0.206 F 
ATOM     87  C   UNL     1      -4.000 -14.042  -2.680  1.00  0.00     0.040 A 
ATOM     88  C   UNL     1      -3.943 -14.924  -4.921  1.00  0.00     0.040 A 
ATOM     89  F   UNL     1      -2.877 -13.722  -6.629  1.00  0.00    -0.206 F 
ATOM     90  C   UNL     1      -4.324 -15.050  -3.587  1.00  0.00     0.006 A 
ENDBRANCH  66  83
ENDBRANCH  40  41
ENDBRANCH  32  35
ENDBRANCH  30  31
ENDBRANCH  29  30
ENDBRANCH  28  29
ENDBRANCH   1  28
TORSDOF 17
