REMARK SMILES C#CCOc1ccc(/C=C(\Sc2nc(C)n[nH]2)C(=O)NCCCCCCNC(=O)c2ccc(-c3c4nc(c(-c5c(F)cccc5F)c5ccc([nH]5)c(-c5c(F)cccc5F)c5nc(c(-c6c(F)cccc6F)c6ccc3[nH]6)C=C5)C=C4)cc2)cc1
REMARK SMILES IDX 22 1 21 2 20 3 18 4 19 5 10 7 9 8 8 9 5 10 6 11 85 12 7 13
REMARK SMILES IDX 84 14 4 15 3 16 2 17 1 18 11 19 12 20 13 21 17 22 14 23
REMARK SMILES IDX 16 24 15 26 23 27 24 28 25 29 26 30 27 31 28 32 29 34 30 35
REMARK SMILES IDX 31 36 83 37 32 38 82 39 33 40 34 41 35 42 76 43 36 44 81 45
REMARK SMILES IDX 75 46 77 47 37 48 80 49 74 50 73 51 38 53 64 54 47 55 63 56
REMARK SMILES IDX 48 57 51 58 62 59 78 60 49 61 50 62 61 64 79 65 52 66 39 67
REMARK SMILES IDX 40 68 45 69 41 70 42 71 44 72 46 73 43 74 65 75 66 76 71 77
REMARK SMILES IDX 67 78 68 79 70 80 72 81 69 82 53 83 54 84 59 85 55 86 56 87
REMARK SMILES IDX 58 88 60 89 57 90
REMARK H PARENT 20 6 17 25 27 33 77 52 51 63
REMARK Flexibility Score: inf
ROOT
ATOM      1  C   UNL     1      -4.603   1.528  -9.976  1.00  0.00     0.021 C 
ENDROOT
BRANCH   1   2
ATOM      2  C   UNL     1      -3.697   0.354  -9.595  1.00  0.00     0.116 C 
BRANCH   2   3
ATOM      3  N   UNL     1      -2.327   0.811  -9.488  1.00  0.00    -0.352 N 
ATOM      4  C   UNL     1      -1.528   1.028  -8.412  1.00  0.00     0.258 C 
ATOM      5  O   UNL     1      -0.428   1.547  -8.626  1.00  0.00    -0.269 OA
ATOM      6  H   UNL     1      -1.897   0.998 -10.354  1.00  0.00     0.163 HD
BRANCH   4   7
ATOM      7  C   UNL     1      -1.921   0.616  -7.016  1.00  0.00     0.081 C 
ATOM      8  C   UNL     1      -0.874   0.070  -6.360  1.00  0.00     0.029 C 
BRANCH   8   9
ATOM      9  C   UNL     1      -0.840  -0.260  -4.945  1.00  0.00    -0.024 A 
ATOM     10  C   UNL     1      -1.558  -0.624  -2.288  1.00  0.00     0.120 A 
ATOM     11  C   UNL     1      -1.669  -1.677  -3.192  1.00  0.00     0.047 A 
ATOM     12  C   UNL     1      -0.900   0.548  -2.686  1.00  0.00     0.047 A 
ATOM     13  C   UNL     1      -1.328  -1.495  -4.528  1.00  0.00     0.012 A 
ATOM     14  C   UNL     1      -0.501   0.715  -4.011  1.00  0.00     0.012 A 
BRANCH  10  15
ATOM     15  O   UNL     1      -2.175  -0.853  -1.079  1.00  0.00    -0.481 OA
BRANCH  15  16
ATOM     16  C   UNL     1      -1.770  -0.067   0.051  1.00  0.00     0.318 C 
BRANCH  16  17
ATOM     17  C   UNL     1      -0.250  -0.067   0.051  1.00  0.00    -0.065 C 
ATOM     18  C   UNL     1       1.054  -0.067   0.051  1.00  0.00     0.007 C 
ENDBRANCH  16  17
ENDBRANCH  15  16
ENDBRANCH  10  15
ENDBRANCH   8   9
BRANCH   7  19
ATOM     19  S   UNL     1      -3.423   1.238  -6.409  1.00  0.00    -0.045 SA
BRANCH  19  20
ATOM     20  C   UNL     1      -3.990   0.178  -5.171  1.00  0.00     0.188 A 
ATOM     21  N   UNL     1      -4.249  -1.113  -5.148  1.00  0.00    -0.206 NA
ATOM     22  N   UNL     1      -4.416   0.738  -4.004  1.00  0.00    -0.254 N 
ATOM     23  C   UNL     1      -4.765  -1.299  -3.870  1.00  0.00     0.148 A 
ATOM     24  N   UNL     1      -4.947  -0.170  -3.172  1.00  0.00    -0.158 NA
ATOM     25  H   UNL     1      -4.342   1.697  -3.796  1.00  0.00     0.192 HD
ATOM     26  C   UNL     1      -4.985  -2.625  -3.241  1.00  0.00     0.092 C 
ENDBRANCH  19  20
ENDBRANCH   7  19
ENDBRANCH   4   7
ENDBRANCH   2   3
ENDBRANCH   1   2
BRANCH   1  27
ATOM     27  C   UNL     1      -4.442   1.984 -11.434  1.00  0.00     0.002 C 
BRANCH  27  28
ATOM     28  C   UNL     1      -4.664   0.896 -12.498  1.00  0.00     0.002 C 
BRANCH  28  29
ATOM     29  C   UNL     1      -5.949   0.069 -12.353  1.00  0.00     0.021 C 
BRANCH  29  30
ATOM     30  C   UNL     1      -7.218   0.879 -12.565  1.00  0.00     0.116 C 
BRANCH  30  31
ATOM     31  N   UNL     1      -7.376   1.299 -13.956  1.00  0.00    -0.352 N 
ATOM     32  C   UNL     1      -8.387   2.068 -14.504  1.00  0.00     0.251 C 
ATOM     33  H   UNL     1      -6.677   0.998 -14.579  1.00  0.00     0.163 HD
ATOM     34  O   UNL     1      -8.627   2.046 -15.696  1.00  0.00    -0.269 OA
BRANCH  32  35
ATOM     35  C   UNL     1      -9.162   2.934 -13.600  1.00  0.00     0.039 A 
ATOM     36  C   UNL     1     -10.549   3.052 -13.714  1.00  0.00     0.014 A 
ATOM     37  C   UNL     1      -8.462   3.612 -12.605  1.00  0.00     0.014 A 
ATOM     38  C   UNL     1     -11.235   3.805 -12.765  1.00  0.00     0.010 A 
ATOM     39  C   UNL     1      -9.149   4.213 -11.585  1.00  0.00     0.010 A 
ATOM     40  C   UNL     1     -10.525   4.369 -11.693  1.00  0.00    -0.014 A 
BRANCH  40  41
ATOM     41  C   UNL     1     -11.219   5.037 -10.599  1.00  0.00     0.031 A 
ATOM     42  C   UNL     1     -12.233   4.189  -9.914  1.00  0.00     0.074 A 
ATOM     43  C   UNL     1     -10.804   6.221 -10.098  1.00  0.00     0.049 A 
ATOM     44  N   UNL     1     -13.514   4.348  -9.893  1.00  0.00    -0.248 NA
ATOM     45  C   UNL     1     -11.784   2.927  -9.300  1.00  0.00     0.031 C 
ATOM     46  C   UNL     1      -9.613   6.998 -10.466  1.00  0.00     0.029 A 
ATOM     47  N   UNL     1     -11.310   6.940  -9.060  1.00  0.00    -0.354 N 
ATOM     48  C   UNL     1     -14.013   3.337  -9.075  1.00  0.00     0.074 A 
ATOM     49  C   UNL     1     -12.942   2.391  -8.909  1.00  0.00     0.031 C 
ATOM     50  C   UNL     1      -9.363   7.930  -9.519  1.00  0.00     0.029 A 
ATOM     51  C   UNL     1     -10.469   7.940  -8.582  1.00  0.00     0.049 A 
ATOM     52  H   UNL     1     -12.201   6.766  -8.678  1.00  0.00     0.167 HD
ATOM     53  C   UNL     1     -15.177   3.506  -8.388  1.00  0.00     0.037 A 
ATOM     54  C   UNL     1     -10.664   8.705  -7.480  1.00  0.00     0.037 A 
ATOM     55  C   UNL     1     -15.932   4.612  -8.925  1.00  0.00     0.049 A 
ATOM     56  C   UNL     1     -12.104   8.619  -7.139  1.00  0.00     0.074 A 
ATOM     57  C   UNL     1     -16.489   4.913 -10.152  1.00  0.00     0.029 A 
ATOM     58  N   UNL     1     -15.869   5.800  -8.241  1.00  0.00    -0.354 N 
ATOM     59  N   UNL     1     -13.056   9.113  -7.880  1.00  0.00    -0.248 NA
ATOM     60  C   UNL     1     -12.511   7.580  -6.207  1.00  0.00     0.031 C 
ATOM     61  C   UNL     1     -16.281   6.315 -10.316  1.00  0.00     0.029 A 
ATOM     62  C   UNL     1     -15.681   6.803  -9.154  1.00  0.00     0.049 A 
ATOM     63  H   UNL     1     -15.945   5.912  -7.266  1.00  0.00     0.167 HD
ATOM     64  C   UNL     1     -14.066   8.164  -7.833  1.00  0.00     0.074 A 
ATOM     65  C   UNL     1     -13.711   7.289  -6.715  1.00  0.00     0.031 C 
ATOM     66  C   UNL     1     -14.928   8.005  -8.880  1.00  0.00     0.037 A 
BRANCH  53  67
ATOM     67  C   UNL     1     -15.438   2.974  -6.995  1.00  0.00     0.057 A 
ATOM     68  C   UNL     1     -16.709   3.171  -6.420  1.00  0.00     0.134 A 
ATOM     69  C   UNL     1     -14.436   2.569  -6.089  1.00  0.00     0.134 A 
ATOM     70  F   UNL     1     -17.752   3.559  -7.170  1.00  0.00    -0.206 F 
ATOM     71  C   UNL     1     -16.937   3.074  -5.042  1.00  0.00     0.040 A 
ATOM     72  C   UNL     1     -14.666   2.419  -4.718  1.00  0.00     0.040 A 
ATOM     73  F   UNL     1     -13.160   2.395  -6.451  1.00  0.00    -0.206 F 
ATOM     74  C   UNL     1     -15.909   2.709  -4.184  1.00  0.00     0.006 A 
ENDBRANCH  53  67
BRANCH  54  75
ATOM     75  C   UNL     1      -9.666   9.243  -6.528  1.00  0.00     0.057 A 
ATOM     76  C   UNL     1     -10.001  10.268  -5.631  1.00  0.00     0.134 A 
ATOM     77  C   UNL     1      -8.461   8.567  -6.270  1.00  0.00     0.134 A 
ATOM     78  F   UNL     1     -11.150  10.945  -5.771  1.00  0.00    -0.206 F 
ATOM     79  C   UNL     1      -9.202  10.581  -4.522  1.00  0.00     0.040 A 
ATOM     80  C   UNL     1      -7.652   8.872  -5.169  1.00  0.00     0.040 A 
ATOM     81  F   UNL     1      -8.079   7.525  -7.023  1.00  0.00    -0.206 F 
ATOM     82  C   UNL     1      -8.030   9.871  -4.281  1.00  0.00     0.006 A 
ENDBRANCH  54  75
BRANCH  66  83
ATOM     83  C   UNL     1     -14.934   9.062  -9.953  1.00  0.00     0.057 A 
ATOM     84  C   UNL     1     -13.855   9.337 -10.806  1.00  0.00     0.134 A 
ATOM     85  C   UNL     1     -16.139   9.717 -10.228  1.00  0.00     0.134 A 
ATOM     86  F   UNL     1     -12.688   8.696 -10.681  1.00  0.00    -0.206 F 
ATOM     87  C   UNL     1     -13.964  10.248 -11.863  1.00  0.00     0.040 A 
ATOM     88  C   UNL     1     -16.271  10.602 -11.300  1.00  0.00     0.040 A 
ATOM     89  F   UNL     1     -17.229   9.465  -9.486  1.00  0.00    -0.206 F 
ATOM     90  C   UNL     1     -15.178  10.877 -12.117  1.00  0.00     0.006 A 
ENDBRANCH  66  83
ENDBRANCH  40  41
ENDBRANCH  32  35
ENDBRANCH  30  31
ENDBRANCH  29  30
ENDBRANCH  28  29
ENDBRANCH  27  28
ENDBRANCH   1  27
TORSDOF 19
