REMARK SMILES CS(=O)(=O)c1ccc(N2N=C(C(=O)NCCCCCCNC(=O)c3ccc(-c4c5nc(c(-c6c(F)cccc6F)c6ccc([nH]6)c(-c6c(F)cccc6F)c6nc(c(-c7c(F)cccc7F)c7ccc4[nH]7)C=C6)C=C5)cc3)C[C@H]2c2ccco2)cc1
REMARK SMILES IDX 17 1 16 2 15 3 14 4 12 5 13 6 11 8 9 9 10 10 79 11 78 12
REMARK SMILES IDX 8 13 5 14 6 15 86 16 7 17 85 18 2 19 1 20 3 21 4 22 80 23
REMARK SMILES IDX 81 24 84 25 82 26 83 27 18 28 19 29 20 30 21 31 22 32 23 34
REMARK SMILES IDX 24 35 25 36 77 37 26 38 76 39 27 40 28 41 29 42 70 43 30 44
REMARK SMILES IDX 75 45 69 46 71 47 31 48 74 49 68 50 67 51 32 53 58 54 41 55
REMARK SMILES IDX 57 56 42 57 45 58 56 59 72 60 43 61 44 62 55 64 73 65 46 66
REMARK SMILES IDX 33 67 34 68 39 69 35 70 36 71 38 72 40 73 37 74 59 75 60 76
REMARK SMILES IDX 65 77 61 78 62 79 64 80 66 81 63 82 47 83 48 84 53 85 49 86
REMARK SMILES IDX 50 87 52 88 54 89 51 90
REMARK H PARENT 14 7 21 33 71 52 45 63
REMARK Flexibility Score: inf
ROOT
ATOM      1  C   UNL     1       4.261  -1.215  13.320  1.00  0.00     0.002 C 
ENDROOT
BRANCH   1   2
ATOM      2  C   UNL     1       3.159  -0.773  12.355  1.00  0.00     0.021 C 
BRANCH   2   3
ATOM      3  C   UNL     1       3.586   0.324  11.386  1.00  0.00     0.116 C 
BRANCH   3   4
ATOM      4  N   UNL     1       4.442  -0.206  10.345  1.00  0.00    -0.351 N 
ATOM      5  C   UNL     1       4.351  -0.284   8.979  1.00  0.00     0.267 C 
ATOM      6  O   UNL     1       5.226  -0.910   8.386  1.00  0.00    -0.268 OA
ATOM      7  H   UNL     1       5.274  -0.597  10.696  1.00  0.00     0.163 HD
BRANCH   5   8
ATOM      8  C   UNL     1       3.264   0.399   8.162  1.00  0.00     0.128 C 
ATOM      9  N   UNL     1       2.295   1.187   6.436  1.00  0.00    -0.254 N 
ATOM     10  N   UNL     1       3.260   0.331   6.864  1.00  0.00    -0.171 NA
ATOM     11  C   UNL     1       1.464   1.737   7.510  1.00  0.00     0.180 C 
ATOM     12  C   UNL     1       2.162   1.203   8.761  1.00  0.00     0.099 C 
BRANCH   9  13
ATOM     13  C   UNL     1       1.867   1.159   5.115  1.00  0.00     0.060 A 
ATOM     14  C   UNL     1       0.912   1.169   2.476  1.00  0.00     0.067 A 
ATOM     15  C   UNL     1       1.007  -0.038   3.173  1.00  0.00     0.022 A 
ATOM     16  C   UNL     1       1.315   2.364   3.071  1.00  0.00     0.022 A 
ATOM     17  C   UNL     1       1.500  -0.037   4.483  1.00  0.00     0.029 A 
ATOM     18  C   UNL     1       1.792   2.349   4.379  1.00  0.00     0.029 A 
BRANCH  14  19
ATOM     19  S   UNL     1       0.276   1.215   0.820  1.00  0.00     0.175 S 
ATOM     20  C   UNL     1       1.039  -0.142  -0.023  1.00  0.00     0.163 C 
ATOM     21  O   UNL     1       0.775   2.432   0.200  1.00  0.00    -0.224 OA
ATOM     22  O   UNL     1      -1.146   0.957   0.915  1.00  0.00    -0.224 OA
ENDBRANCH  14  19
ENDBRANCH   9  13
BRANCH  11  23
ATOM     23  C   UNL     1       1.262   3.224   7.553  1.00  0.00     0.128 A 
ATOM     24  C   UNL     1       0.379   4.067   6.904  1.00  0.00     0.048 A 
ATOM     25  O   UNL     1       2.061   3.962   8.383  1.00  0.00    -0.467 OA
ATOM     26  C   UNL     1       0.673   5.380   7.340  1.00  0.00     0.042 A 
ATOM     27  C   UNL     1       1.693   5.260   8.253  1.00  0.00     0.195 A 
ENDBRANCH  11  23
ENDBRANCH   5   8
ENDBRANCH   3   4
ENDBRANCH   2   3
ENDBRANCH   1   2
BRANCH   1  28
ATOM     28  C   UNL     1       4.860  -0.092  14.174  1.00  0.00     0.002 C 
BRANCH  28  29
ATOM     29  C   UNL     1       3.841   0.768  14.927  1.00  0.00     0.021 C 
BRANCH  29  30
ATOM     30  C   UNL     1       2.913  -0.012  15.851  1.00  0.00     0.116 C 
BRANCH  30  31
ATOM     31  N   UNL     1       3.646  -0.710  16.893  1.00  0.00    -0.352 N 
ATOM     32  C   UNL     1       3.500  -0.647  18.255  1.00  0.00     0.251 C 
ATOM     33  H   UNL     1       4.351  -1.319  16.575  1.00  0.00     0.163 HD
ATOM     34  O   UNL     1       4.350  -1.143  18.988  1.00  0.00    -0.269 OA
BRANCH  32  35
ATOM     35  C   UNL     1       2.328   0.035  18.842  1.00  0.00     0.039 A 
ATOM     36  C   UNL     1       2.520   0.870  19.945  1.00  0.00     0.014 A 
ATOM     37  C   UNL     1       1.045  -0.157  18.321  1.00  0.00     0.014 A 
ATOM     38  C   UNL     1       1.434   1.554  20.491  1.00  0.00     0.010 A 
ATOM     39  C   UNL     1      -0.023   0.586  18.816  1.00  0.00     0.010 A 
ATOM     40  C   UNL     1       0.159   1.445  19.910  1.00  0.00    -0.014 A 
BRANCH  40  41
ATOM     41  C   UNL     1      -0.984   2.238  20.430  1.00  0.00     0.031 A 
ATOM     42  C   UNL     1      -2.185   1.553  21.019  1.00  0.00     0.074 A 
ATOM     43  C   UNL     1      -0.959   3.581  20.320  1.00  0.00     0.049 A 
ATOM     44  N   UNL     1      -3.284   2.080  21.497  1.00  0.00    -0.248 NA
ATOM     45  C   UNL     1      -2.160   0.083  21.053  1.00  0.00     0.031 C 
ATOM     46  C   UNL     1       0.124   4.359  19.715  1.00  0.00     0.029 A 
ATOM     47  N   UNL     1      -1.873   4.528  20.707  1.00  0.00    -0.354 N 
ATOM     48  C   UNL     1      -4.083   1.009  21.876  1.00  0.00     0.074 A 
ATOM     49  C   UNL     1      -3.368  -0.198  21.521  1.00  0.00     0.031 C 
ATOM     50  C   UNL     1      -0.177   5.665  19.794  1.00  0.00     0.029 A 
ATOM     51  C   UNL     1      -1.488   5.814  20.417  1.00  0.00     0.049 A 
ATOM     52  H   UNL     1      -2.724   4.307  21.151  1.00  0.00     0.167 HD
ATOM     53  C   UNL     1      -5.294   1.029  22.484  1.00  0.00     0.037 A 
ATOM     54  C   UNL     1      -2.122   6.984  20.622  1.00  0.00     0.037 A 
ATOM     55  C   UNL     1      -5.995   2.234  22.848  1.00  0.00     0.049 A 
ATOM     56  C   UNL     1      -3.466   6.981  21.295  1.00  0.00     0.074 A 
ATOM     57  C   UNL     1      -7.192   2.361  23.532  1.00  0.00     0.029 A 
ATOM     58  N   UNL     1      -5.568   3.519  22.549  1.00  0.00    -0.354 N 
ATOM     59  N   UNL     1      -4.172   5.963  21.727  1.00  0.00    -0.248 NA
ATOM     60  C   UNL     1      -4.098   8.288  21.517  1.00  0.00     0.031 C 
ATOM     61  C   UNL     1      -7.520   3.720  23.590  1.00  0.00     0.029 A 
ATOM     62  C   UNL     1      -6.496   4.444  23.002  1.00  0.00     0.049 A 
ATOM     63  H   UNL     1      -4.729   3.742  22.083  1.00  0.00     0.167 HD
ATOM     64  C   UNL     1      -5.318   6.508  22.292  1.00  0.00     0.074 A 
ATOM     65  C   UNL     1      -5.202   7.946  22.166  1.00  0.00     0.031 C 
ATOM     66  C   UNL     1      -6.372   5.874  22.863  1.00  0.00     0.037 A 
BRANCH  53  67
ATOM     67  C   UNL     1      -5.943  -0.293  22.784  1.00  0.00     0.057 A 
ATOM     68  C   UNL     1      -5.429  -1.172  23.748  1.00  0.00     0.134 A 
ATOM     69  C   UNL     1      -7.116  -0.678  22.123  1.00  0.00     0.134 A 
ATOM     70  F   UNL     1      -4.303  -0.871  24.412  1.00  0.00    -0.206 F 
ATOM     71  C   UNL     1      -6.040  -2.398  24.019  1.00  0.00     0.040 A 
ATOM     72  C   UNL     1      -7.753  -1.887  22.408  1.00  0.00     0.040 A 
ATOM     73  F   UNL     1      -7.668   0.117  21.194  1.00  0.00    -0.206 F 
ATOM     74  C   UNL     1      -7.210  -2.755  23.353  1.00  0.00     0.006 A 
ENDBRANCH  53  67
BRANCH  54  75
ATOM     75  C   UNL     1      -1.486   8.256  20.194  1.00  0.00     0.057 A 
ATOM     76  C   UNL     1      -1.025   9.189  21.130  1.00  0.00     0.134 A 
ATOM     77  C   UNL     1      -1.323   8.569  18.839  1.00  0.00     0.134 A 
ATOM     78  F   UNL     1      -1.168   8.954  22.443  1.00  0.00    -0.206 F 
ATOM     79  C   UNL     1      -0.444  10.395  20.736  1.00  0.00     0.040 A 
ATOM     80  C   UNL     1      -0.718   9.759  18.430  1.00  0.00     0.040 A 
ATOM     81  F   UNL     1      -1.734   7.713  17.891  1.00  0.00    -0.206 F 
ATOM     82  C   UNL     1      -0.283  10.680  19.381  1.00  0.00     0.006 A 
ENDBRANCH  54  75
BRANCH  66  83
ATOM     83  C   UNL     1      -7.473   6.735  23.415  1.00  0.00     0.057 A 
ATOM     84  C   UNL     1      -8.335   7.461  22.583  1.00  0.00     0.134 A 
ATOM     85  C   UNL     1      -7.689   6.817  24.797  1.00  0.00     0.134 A 
ATOM     86  F   UNL     1      -8.176   7.437  21.251  1.00  0.00    -0.206 F 
ATOM     87  C   UNL     1      -9.351   8.263  23.107  1.00  0.00     0.040 A 
ATOM     88  C   UNL     1      -8.721   7.590  25.330  1.00  0.00     0.040 A 
ATOM     89  F   UNL     1      -6.907   6.140  25.651  1.00  0.00    -0.206 F 
ATOM     90  C   UNL     1      -9.550   8.322  24.484  1.00  0.00     0.006 A 
ENDBRANCH  66  83
ENDBRANCH  40  41
ENDBRANCH  32  35
ENDBRANCH  30  31
ENDBRANCH  29  30
ENDBRANCH  28  29
ENDBRANCH   1  28
TORSDOF 16
