REMARK SMILES O=C(NCCCCCCNC(=O)[C@H]1CC2(CCN(C(=O)c3cccc(O)c3)CC2)CN1C(=O)C1CC1)c1ccc(-c2c3nc(c(-c4c(F)cccc4F)c4ccc([nH]4)c(-c4c(F)cccc4F)c4nc(c(-c5c(F)cccc5F)c5ccc2[nH]5)C=C4)C=C3)cc1
REMARK SMILES IDX 6 1 5 2 4 3 3 4 1 5 2 6 37 8 38 9 90 10 39 11 89 12 40 13
REMARK SMILES IDX 41 14 42 15 83 16 43 17 88 18 82 19 84 20 44 21 87 22 81 23
REMARK SMILES IDX 80 24 45 26 71 27 54 28 70 29 55 30 58 31 69 32 85 33 56 34
REMARK SMILES IDX 57 35 68 37 86 38 59 39 46 40 47 41 52 42 48 43 49 44 51 45
REMARK SMILES IDX 53 46 50 47 72 48 73 49 78 50 74 51 75 52 77 53 79 54 76 55
REMARK SMILES IDX 60 56 61 57 66 58 62 59 63 60 65 61 67 62 64 63 7 64 8 65
REMARK SMILES IDX 9 66 10 67 11 68 12 70 13 71 14 72 31 73 15 74 30 75 16 76
REMARK SMILES IDX 29 77 17 78 28 79 18 80 19 81 20 82 32 83 33 84 34 85 35 86
REMARK SMILES IDX 36 87 21 88 22 89 27 90 23 91 25 92 24 93 26 94
REMARK H PARENT 3 7 84 25 58 36 10 69 26 95
REMARK Flexibility Score: inf
ROOT
ATOM      1  C   UNL     1       9.915  10.642  -5.453  1.00  0.00     0.002 C 
ENDROOT
BRANCH   1   2
ATOM      2  C   UNL     1       9.824  11.532  -4.218  1.00  0.00     0.021 C 
BRANCH   2   3
ATOM      3  C   UNL     1      11.133  11.691  -3.460  1.00  0.00     0.116 C 
BRANCH   3   4
ATOM      4  N   UNL     1      12.035  12.645  -4.089  1.00  0.00    -0.352 N 
ATOM      5  O   UNL     1      13.175  14.610  -4.186  1.00  0.00    -0.269 OA
ATOM      6  C   UNL     1      12.563  13.795  -3.530  1.00  0.00     0.251 C 
ATOM      7  H   UNL     1      12.300  12.450  -5.017  1.00  0.00     0.163 HD
BRANCH   6   8
ATOM      8  C   UNL     1      12.335  13.999  -2.083  1.00  0.00     0.039 A 
ATOM      9  C   UNL     1      12.667  12.968  -1.204  1.00  0.00     0.014 A 
ATOM     10  C   UNL     1      11.681  15.147  -1.631  1.00  0.00     0.014 A 
ATOM     11  C   UNL     1      12.196  13.013   0.097  1.00  0.00     0.010 A 
ATOM     12  C   UNL     1      11.315  15.241  -0.284  1.00  0.00     0.010 A 
ATOM     13  C   UNL     1      11.550  14.164   0.585  1.00  0.00    -0.014 A 
BRANCH  13  14
ATOM     14  C   UNL     1      11.256  14.234   2.039  1.00  0.00     0.031 A 
ATOM     15  C   UNL     1       9.856  14.341   2.572  1.00  0.00     0.074 A 
ATOM     16  C   UNL     1      12.302  14.132   2.883  1.00  0.00     0.049 A 
ATOM     17  N   UNL     1       9.456  14.361   3.819  1.00  0.00    -0.248 NA
ATOM     18  C   UNL     1       8.765  14.447   1.593  1.00  0.00     0.031 C 
ATOM     19  C   UNL     1      13.707  14.047   2.468  1.00  0.00     0.029 A 
ATOM     20  N   UNL     1      12.357  14.042   4.247  1.00  0.00    -0.354 N 
ATOM     21  C   UNL     1       8.074  14.495   3.778  1.00  0.00     0.074 A 
ATOM     22  C   UNL     1       7.704  14.577   2.381  1.00  0.00     0.031 C 
ATOM     23  C   UNL     1      14.475  13.841   3.544  1.00  0.00     0.029 A 
ATOM     24  C   UNL     1      13.633  13.875   4.731  1.00  0.00     0.049 A 
ATOM     25  H   UNL     1      11.562  14.093   4.825  1.00  0.00     0.167 HD
ATOM     26  C   UNL     1       7.201  14.539   4.815  1.00  0.00     0.037 A 
ATOM     27  C   UNL     1      14.085  13.788   5.993  1.00  0.00     0.037 A 
ATOM     28  C   UNL     1       7.587  14.455   6.203  1.00  0.00     0.049 A 
ATOM     29  C   UNL     1      13.095  13.857   7.114  1.00  0.00     0.074 A 
ATOM     30  C   UNL     1       6.779  14.486   7.328  1.00  0.00     0.029 A 
ATOM     31  N   UNL     1       8.892  14.322   6.657  1.00  0.00    -0.354 N 
ATOM     32  N   UNL     1      11.790  13.972   7.055  1.00  0.00    -0.248 NA
ATOM     33  C   UNL     1      13.638  13.792   8.475  1.00  0.00     0.031 C 
ATOM     34  C   UNL     1       7.598  14.416   8.461  1.00  0.00     0.029 A 
ATOM     35  C   UNL     1       8.912  14.286   8.044  1.00  0.00     0.049 A 
ATOM     36  H   UNL     1       9.687  14.263   6.080  1.00  0.00     0.167 HD
ATOM     37  C   UNL     1      11.354  13.989   8.371  1.00  0.00     0.074 A 
ATOM     38  C   UNL     1      12.532  13.830   9.202  1.00  0.00     0.031 C 
ATOM     39  C   UNL     1      10.096  14.137   8.851  1.00  0.00     0.037 A 
BRANCH  26  40
ATOM     40  C   UNL     1       5.739  14.694   4.499  1.00  0.00     0.057 A 
ATOM     41  C   UNL     1       4.988  13.651   3.943  1.00  0.00     0.134 A 
ATOM     42  C   UNL     1       5.058  15.876   4.821  1.00  0.00     0.134 A 
ATOM     43  F   UNL     1       5.578  12.495   3.602  1.00  0.00    -0.206 F 
ATOM     44  C   UNL     1       3.616  13.780   3.710  1.00  0.00     0.040 A 
ATOM     45  C   UNL     1       3.683  16.009   4.615  1.00  0.00     0.040 A 
ATOM     46  F   UNL     1       5.712  16.913   5.364  1.00  0.00    -0.206 F 
ATOM     47  C   UNL     1       2.958  14.959   4.055  1.00  0.00     0.006 A 
ENDBRANCH  26  40
BRANCH  27  48
ATOM     48  C   UNL     1      15.542  13.666   6.250  1.00  0.00     0.057 A 
ATOM     49  C   UNL     1      16.090  12.512   6.819  1.00  0.00     0.134 A 
ATOM     50  C   UNL     1      16.423  14.707   5.928  1.00  0.00     0.134 A 
ATOM     51  F   UNL     1      15.298  11.486   7.161  1.00  0.00    -0.206 F 
ATOM     52  C   UNL     1      17.457  12.406   7.079  1.00  0.00     0.040 A 
ATOM     53  C   UNL     1      17.795  14.601   6.148  1.00  0.00     0.040 A 
ATOM     54  F   UNL     1      15.963  15.836   5.367  1.00  0.00    -0.206 F 
ATOM     55  C   UNL     1      18.314  13.450   6.736  1.00  0.00     0.006 A 
ENDBRANCH  27  48
BRANCH  39  56
ATOM     56  C   UNL     1       9.945  14.113  10.344  1.00  0.00     0.057 A 
ATOM     57  C   UNL     1      10.410  15.162  11.150  1.00  0.00     0.134 A 
ATOM     58  C   UNL     1       9.344  13.023  10.983  1.00  0.00     0.134 A 
ATOM     59  F   UNL     1      11.012  16.227  10.599  1.00  0.00    -0.206 F 
ATOM     60  C   UNL     1      10.319  15.107  12.541  1.00  0.00     0.040 A 
ATOM     61  C   UNL     1       9.219  12.971  12.372  1.00  0.00     0.040 A 
ATOM     62  F   UNL     1       8.871  11.989  10.270  1.00  0.00    -0.206 F 
ATOM     63  C   UNL     1       9.718  14.009  13.155  1.00  0.00     0.006 A 
ENDBRANCH  39  56
ENDBRANCH  13  14
ENDBRANCH   6   8
ENDBRANCH   3   4
ENDBRANCH   2   3
ENDBRANCH   1   2
BRANCH   1  64
ATOM     64  C   UNL     1      10.477   9.241  -5.204  1.00  0.00     0.002 C 
BRANCH  64  65
ATOM     65  C   UNL     1       9.779   8.415  -4.113  1.00  0.00     0.021 C 
BRANCH  65  66
ATOM     66  C   UNL     1       8.424   7.808  -4.483  1.00  0.00     0.116 C 
BRANCH  66  67
ATOM     67  N   UNL     1       8.352   7.223  -5.812  1.00  0.00    -0.354 N 
ATOM     68  C   UNL     1       8.370   5.920  -6.224  1.00  0.00     0.242 C 
ATOM     69  H   UNL     1       8.276   7.880  -6.542  1.00  0.00     0.163 HD
ATOM     70  O   UNL     1       7.987   5.683  -7.374  1.00  0.00    -0.273 OA
BRANCH  68  71
ATOM     71  C   UNL     1       8.654   4.779  -5.240  1.00  0.00     0.175 C 
ATOM     72  C   UNL     1       8.884   3.340  -5.741  1.00  0.00     0.044 C 
ATOM     73  N   UNL     1       9.637   4.813  -4.177  1.00  0.00    -0.330 N 
ATOM     74  C   UNL     1       9.040   2.533  -4.386  1.00  0.00    -0.006 C 
ATOM     75  C   UNL     1       9.304   3.668  -3.335  1.00  0.00     0.127 C 
ATOM     76  C   UNL     1      10.244   1.556  -4.342  1.00  0.00     0.030 C 
ATOM     77  C   UNL     1       7.737   1.753  -4.093  1.00  0.00     0.030 C 
ATOM     78  C   UNL     1      10.049   0.270  -5.137  1.00  0.00     0.120 C 
ATOM     79  C   UNL     1       7.608   0.496  -4.963  1.00  0.00     0.120 C 
ATOM     80  N   UNL     1       8.776  -0.358  -4.793  1.00  0.00    -0.339 N 
ATOM     81  C   UNL     1       8.587  -1.700  -4.464  1.00  0.00     0.253 C 
ATOM     82  O   UNL     1       7.482  -2.238  -4.418  1.00  0.00    -0.269 OA
BRANCH  73  83
ATOM     83  C   UNL     1      11.005   5.076  -4.334  1.00  0.00     0.226 C 
ATOM     84  O   UNL     1      11.824   4.688  -3.503  1.00  0.00    -0.275 OA
BRANCH  83  85
ATOM     85  C   UNL     1      11.557   5.897  -5.454  1.00  0.00     0.079 C 
ATOM     86  C   UNL     1      12.406   5.179  -6.489  1.00  0.00     0.014 C 
ATOM     87  C   UNL     1      11.215   5.962  -6.918  1.00  0.00     0.014 C 
ENDBRANCH  83  85
ENDBRANCH  73  83
BRANCH  81  88
ATOM     88  C   UNL     1       9.754  -2.538  -4.115  1.00  0.00     0.043 A 
ATOM     89  C   UNL     1      10.530  -2.233  -2.989  1.00  0.00     0.014 A 
ATOM     90  C   UNL     1      10.009  -3.695  -4.855  1.00  0.00     0.060 A 
ATOM     91  C   UNL     1      11.592  -3.067  -2.632  1.00  0.00     0.005 A 
ATOM     92  C   UNL     1      11.071  -4.515  -4.490  1.00  0.00     0.116 A 
ATOM     93  C   UNL     1      11.868  -4.209  -3.388  1.00  0.00     0.046 A 
BRANCH  92  94
ATOM     94  O   UNL     1      11.301  -5.630  -5.240  1.00  0.00    -0.508 OA
ATOM     95  H   UNL     1      12.009  -6.204  -5.022  1.00  0.00     0.293 HD
ENDBRANCH  92  94
ENDBRANCH  81  88
ENDBRANCH  68  71
ENDBRANCH  66  67
ENDBRANCH  65  66
ENDBRANCH  64  65
ENDBRANCH   1  64
TORSDOF 17
