REMARK SMILES O=C(NCCCCCCNC(=O)[C@@H](Cc1ccccc1)N1C(=O)/C(=C/c2ccncc2)SC1=S)c1ccc(-c2c3nc(c(-c4c(F)cccc4F)c4ccc([nH]4)c(-c4c(F)cccc4F)c4nc(c(-c5c(F)cccc5F)c5ccc2[nH]5)C=C4)C=C3)cc1
REMARK SMILES IDX 6 1 5 2 4 3 3 4 1 5 2 6 35 8 36 9 88 10 37 11 87 12 38 13
REMARK SMILES IDX 39 14 40 15 81 16 41 17 86 18 80 19 82 20 42 21 85 22 79 23
REMARK SMILES IDX 78 24 43 26 69 27 52 28 68 29 53 30 56 31 67 32 83 33 54 34
REMARK SMILES IDX 55 35 66 37 84 38 57 39 44 40 45 41 50 42 46 43 47 44 49 45
REMARK SMILES IDX 51 46 48 47 70 48 71 49 76 50 72 51 73 52 75 53 77 54 74 55
REMARK SMILES IDX 58 56 59 57 64 58 60 59 61 60 63 61 65 62 62 63 7 64 8 65
REMARK SMILES IDX 9 66 10 67 11 68 12 70 13 71 14 72 15 73 16 74 20 75 17 76
REMARK SMILES IDX 19 77 18 78 21 79 22 80 33 81 23 82 24 83 32 84 34 85 25 86
REMARK SMILES IDX 26 87 27 88 31 89 28 90 30 91 29 92
REMARK H PARENT 3 7 82 25 56 36 10 69
REMARK Flexibility Score: inf
ROOT
ATOM      1  C   UNL     1       3.550   2.151  -3.349  1.00  0.00     0.002 C 
ENDROOT
BRANCH   1   2
ATOM      2  C   UNL     1       4.341   1.068  -2.616  1.00  0.00     0.021 C 
BRANCH   2   3
ATOM      3  C   UNL     1       4.190   1.058  -1.103  1.00  0.00     0.116 C 
BRANCH   3   4
ATOM      4  N   UNL     1       2.808   0.904  -0.679  1.00  0.00    -0.352 N 
ATOM      5  O   UNL     1       0.994  -0.133   0.165  1.00  0.00    -0.269 OA
ATOM      6  C   UNL     1       2.216  -0.095   0.052  1.00  0.00     0.251 C 
ATOM      7  H   UNL     1       2.204   1.628  -0.960  1.00  0.00     0.163 HD
BRANCH   6   8
ATOM      8  C   UNL     1       3.047  -1.133   0.697  1.00  0.00     0.039 A 
ATOM      9  C   UNL     1       4.233  -0.789   1.347  1.00  0.00     0.014 A 
ATOM     10  C   UNL     1       2.621  -2.465   0.678  1.00  0.00     0.014 A 
ATOM     11  C   UNL     1       5.063  -1.785   1.840  1.00  0.00     0.010 A 
ATOM     12  C   UNL     1       3.406  -3.457   1.275  1.00  0.00     0.010 A 
ATOM     13  C   UNL     1       4.645  -3.127   1.843  1.00  0.00    -0.014 A 
BRANCH  13  14
ATOM     14  C   UNL     1       5.488  -4.127   2.545  1.00  0.00     0.031 A 
ATOM     15  C   UNL     1       6.143  -5.263   1.813  1.00  0.00     0.074 A 
ATOM     16  C   UNL     1       5.706  -3.951   3.864  1.00  0.00     0.049 A 
ATOM     17  N   UNL     1       6.963  -6.172   2.279  1.00  0.00    -0.248 NA
ATOM     18  C   UNL     1       5.837  -5.408   0.382  1.00  0.00     0.031 C 
ATOM     19  C   UNL     1       5.098  -2.897   4.683  1.00  0.00     0.029 A 
ATOM     20  N   UNL     1       6.514  -4.624   4.742  1.00  0.00    -0.354 N 
ATOM     21  C   UNL     1       7.269  -6.997   1.204  1.00  0.00     0.074 A 
ATOM     22  C   UNL     1       6.519  -6.503   0.069  1.00  0.00     0.031 C 
ATOM     23  C   UNL     1       5.603  -2.954   5.922  1.00  0.00     0.029 A 
ATOM     24  C   UNL     1       6.511  -4.089   6.008  1.00  0.00     0.049 A 
ATOM     25  H   UNL     1       7.045  -5.414   4.491  1.00  0.00     0.167 HD
ATOM     26  C   UNL     1       8.108  -8.061   1.170  1.00  0.00     0.037 A 
ATOM     27  C   UNL     1       7.156  -4.477   7.122  1.00  0.00     0.037 A 
ATOM     28  C   UNL     1       8.851  -8.546   2.306  1.00  0.00     0.049 A 
ATOM     29  C   UNL     1       8.063  -5.669   7.053  1.00  0.00     0.074 A 
ATOM     30  C   UNL     1       9.734  -9.611   2.369  1.00  0.00     0.029 A 
ATOM     31  N   UNL     1       8.799  -7.998   3.580  1.00  0.00    -0.354 N 
ATOM     32  N   UNL     1       8.363  -6.420   6.021  1.00  0.00    -0.248 NA
ATOM     33  C   UNL     1       8.722  -6.069   8.303  1.00  0.00     0.031 C 
ATOM     34  C   UNL     1      10.184  -9.732   3.689  1.00  0.00     0.029 A 
ATOM     35  C   UNL     1       9.621  -8.712   4.438  1.00  0.00     0.049 A 
ATOM     36  H   UNL     1       8.258  -7.216   3.837  1.00  0.00     0.167 HD
ATOM     37  C   UNL     1       9.248  -7.377   6.494  1.00  0.00     0.074 A 
ATOM     38  C   UNL     1       9.468  -7.085   7.896  1.00  0.00     0.031 C 
ATOM     39  C   UNL     1       9.820  -8.412   5.832  1.00  0.00     0.037 A 
BRANCH  26  40
ATOM     40  C   UNL     1       8.270  -8.783  -0.138  1.00  0.00     0.057 A 
ATOM     41  C   UNL     1       8.982  -8.222  -1.206  1.00  0.00     0.134 A 
ATOM     42  C   UNL     1       7.771 -10.081  -0.307  1.00  0.00     0.134 A 
ATOM     43  F   UNL     1       9.478  -6.979  -1.113  1.00  0.00    -0.206 F 
ATOM     44  C   UNL     1       9.183  -8.921  -2.398  1.00  0.00     0.040 A 
ATOM     45  C   UNL     1       7.986 -10.799  -1.485  1.00  0.00     0.040 A 
ATOM     46  F   UNL     1       7.087 -10.682   0.678  1.00  0.00    -0.206 F 
ATOM     47  C   UNL     1       8.692 -10.218  -2.536  1.00  0.00     0.006 A 
ENDBRANCH  26  40
BRANCH  27  48
ATOM     48  C   UNL     1       6.944  -3.746   8.396  1.00  0.00     0.057 A 
ATOM     49  C   UNL     1       7.975  -3.019   9.002  1.00  0.00     0.134 A 
ATOM     50  C   UNL     1       5.703  -3.766   9.045  1.00  0.00     0.134 A 
ATOM     51  F   UNL     1       9.191  -2.973   8.438  1.00  0.00    -0.206 F 
ATOM     52  C   UNL     1       7.787  -2.361  10.219  1.00  0.00     0.040 A 
ATOM     53  C   UNL     1       5.491  -3.085  10.243  1.00  0.00     0.040 A 
ATOM     54  F   UNL     1       4.670  -4.435   8.511  1.00  0.00    -0.206 F 
ATOM     55  C   UNL     1       6.540  -2.389  10.840  1.00  0.00     0.006 A 
ENDBRANCH  27  48
BRANCH  39  56
ATOM     56  C   UNL     1      10.748  -9.285   6.625  1.00  0.00     0.057 A 
ATOM     57  C   UNL     1      10.275 -10.152   7.619  1.00  0.00     0.134 A 
ATOM     58  C   UNL     1      12.129  -9.252   6.398  1.00  0.00     0.134 A 
ATOM     59  F   UNL     1       8.964 -10.217   7.897  1.00  0.00    -0.206 F 
ATOM     60  C   UNL     1      11.146 -10.928   8.385  1.00  0.00     0.040 A 
ATOM     61  C   UNL     1      13.008 -10.046   7.137  1.00  0.00     0.040 A 
ATOM     62  F   UNL     1      12.647  -8.450   5.456  1.00  0.00    -0.206 F 
ATOM     63  C   UNL     1      12.517 -10.878   8.141  1.00  0.00     0.006 A 
ENDBRANCH  39  56
ENDBRANCH  13  14
ENDBRANCH   6   8
ENDBRANCH   3   4
ENDBRANCH   2   3
ENDBRANCH   1   2
BRANCH   1  64
ATOM     64  C   UNL     1       3.768   3.599  -2.883  1.00  0.00     0.002 C 
BRANCH  64  65
ATOM     65  C   UNL     1       5.219   4.059  -2.724  1.00  0.00     0.021 C 
BRANCH  65  66
ATOM     66  C   UNL     1       6.093   3.818  -3.942  1.00  0.00     0.116 C 
BRANCH  66  67
ATOM     67  N   UNL     1       6.438   4.983  -4.710  1.00  0.00    -0.354 N 
ATOM     68  C   UNL     1       7.541   5.118  -5.501  1.00  0.00     0.243 C 
ATOM     69  H   UNL     1       5.825   5.751  -4.660  1.00  0.00     0.163 HD
ATOM     70  O   UNL     1       7.393   5.800  -6.522  1.00  0.00    -0.273 OA
BRANCH  68  71
ATOM     71  C   UNL     1       8.919   4.465  -5.187  1.00  0.00     0.185 C 
BRANCH  71  72
ATOM     72  C   UNL     1       9.548   4.748  -3.788  1.00  0.00     0.071 C 
BRANCH  72  73
ATOM     73  C   UNL     1       9.263   3.853  -2.609  1.00  0.00    -0.045 A 
ATOM     74  C   UNL     1       8.472   4.309  -1.544  1.00  0.00     0.004 A 
ATOM     75  C   UNL     1       9.800   2.563  -2.532  1.00  0.00     0.004 A 
ATOM     76  C   UNL     1       8.132   3.455  -0.491  1.00  0.00     0.000 A 
ATOM     77  C   UNL     1       9.433   1.699  -1.499  1.00  0.00     0.000 A 
ATOM     78  C   UNL     1       8.585   2.139  -0.487  1.00  0.00     0.000 A 
ENDBRANCH  72  73
ENDBRANCH  71  72
BRANCH  71  79
ATOM     79  N   UNL     1       9.344   3.219  -5.894  1.00  0.00    -0.280 N 
ATOM     80  C   UNL     1      10.208   3.335  -6.990  1.00  0.00     0.266 C 
ATOM     81  C   UNL     1       9.015   1.907  -5.613  1.00  0.00     0.149 C 
ATOM     82  O   UNL     1      10.606   4.354  -7.523  1.00  0.00    -0.268 OA
ATOM     83  C   UNL     1      10.574   1.972  -7.477  1.00  0.00     0.081 C 
ATOM     84  S   UNL     1      10.295   0.864  -6.201  1.00  0.00    -0.054 SA
ATOM     85  S   UNL     1       7.658   1.181  -5.008  1.00  0.00    -0.052 S 
ATOM     86  C   UNL     1      10.857   1.644  -8.745  1.00  0.00     0.029 C 
BRANCH  86  87
ATOM     87  C   UNL     1      10.902   0.233  -9.155  1.00  0.00    -0.021 A 
ATOM     88  C   UNL     1       9.706  -0.475  -9.325  1.00  0.00     0.028 A 
ATOM     89  C   UNL     1      12.110  -0.458  -9.201  1.00  0.00     0.028 A 
ATOM     90  C   UNL     1       9.771  -1.846  -9.508  1.00  0.00     0.111 A 
ATOM     91  C   UNL     1      12.068  -1.829  -9.402  1.00  0.00     0.111 A 
ATOM     92  N   UNL     1      10.928  -2.538  -9.554  1.00  0.00    -0.265 NA
ENDBRANCH  86  87
ENDBRANCH  71  79
ENDBRANCH  68  71
ENDBRANCH  66  67
ENDBRANCH  65  66
ENDBRANCH  64  65
ENDBRANCH   1  64
TORSDOF 17
