REMARK SMILES CCCCOc1ccc(-c2nc(C)c(C(=O)NCCCCCCNC(=O)c3ccc(-c4c5nc(c(-c6c(F)cccc6F)c6ccc([nH]6)c(-c6c(F)cccc6F)c6nc(c(-c7c(F)cccc7F)c7ccc4[nH]7)C=C6)C=C5)cc3)s2)cc1
REMARK SMILES IDX 19 1 18 2 17 3 15 4 16 5 14 7 10 8 11 9 81 10 12 11 13 12
REMARK SMILES IDX 9 13 6 14 7 15 83 16 8 17 82 18 5 19 4 20 3 21 2 22 1 23
REMARK SMILES IDX 20 24 21 25 22 26 23 27 24 28 25 29 26 31 27 32 28 33 80 34
REMARK SMILES IDX 29 35 79 36 30 37 31 38 32 39 73 40 33 41 78 42 72 43 74 44
REMARK SMILES IDX 34 45 77 46 71 47 70 48 35 50 61 51 44 52 60 53 45 54 48 55
REMARK SMILES IDX 59 56 75 57 46 58 47 59 58 61 76 62 49 63 36 64 37 65 42 66
REMARK SMILES IDX 38 67 39 68 41 69 43 70 40 71 62 72 63 73 68 74 64 75 65 76
REMARK SMILES IDX 67 77 69 78 66 79 50 80 51 81 56 82 52 83 53 84 55 85 57 86
REMARK SMILES IDX 54 87
REMARK H PARENT 17 6 24 30 74 49 48 60
REMARK Flexibility Score: inf
ROOT
ATOM      1  C   UNL     1      -5.614  -0.128  -7.618  1.00  0.00     0.021 C 
ENDROOT
BRANCH   1   2
ATOM      2  C   UNL     1      -6.532  -0.329  -6.410  1.00  0.00     0.116 C 
BRANCH   2   3
ATOM      3  N   UNL     1      -6.287  -1.624  -5.830  1.00  0.00    -0.351 N 
ATOM      4  C   UNL     1      -5.615  -2.042  -4.715  1.00  0.00     0.263 C 
ATOM      5  O   UNL     1      -5.589  -3.273  -4.595  1.00  0.00    -0.268 OA
ATOM      6  H   UNL     1      -6.685  -2.363  -6.345  1.00  0.00     0.163 HD
BRANCH   4   7
ATOM      7  C   UNL     1      -5.025  -1.150  -3.726  1.00  0.00     0.115 A 
ATOM      8  C   UNL     1      -4.063  -0.466  -1.571  1.00  0.00     0.124 A 
ATOM      9  N   UNL     1      -3.972   0.509  -2.445  1.00  0.00    -0.241 NA
ATOM     10  S   UNL     1      -4.918  -1.830  -2.126  1.00  0.00    -0.108 S 
ATOM     11  C   UNL     1      -4.442   0.114  -3.693  1.00  0.00     0.062 A 
ATOM     12  C   UNL     1      -4.157   1.101  -4.766  1.00  0.00     0.068 C 
BRANCH   8  13
ATOM     13  C   UNL     1      -3.445  -0.422  -0.241  1.00  0.00     0.011 A 
ATOM     14  C   UNL     1      -1.935  -0.214   2.100  1.00  0.00     0.119 A 
ATOM     15  C   UNL     1      -2.546   0.921   1.580  1.00  0.00     0.047 A 
ATOM     16  C   UNL     1      -2.162  -1.465   1.539  1.00  0.00     0.047 A 
ATOM     17  C   UNL     1      -3.294   0.816   0.406  1.00  0.00     0.015 A 
ATOM     18  C   UNL     1      -2.891  -1.567   0.356  1.00  0.00     0.015 A 
BRANCH  14  19
ATOM     19  O   UNL     1      -1.091  -0.140   3.170  1.00  0.00    -0.494 OA
BRANCH  19  20
ATOM     20  C   UNL     1       0.191   0.397   2.797  1.00  0.00     0.229 C 
BRANCH  20  21
ATOM     21  C   UNL     1       1.165  -0.692   2.323  1.00  0.00     0.041 C 
BRANCH  21  22
ATOM     22  C   UNL     1       1.175  -1.000   0.819  1.00  0.00     0.000 C 
ATOM     23  C   UNL     1       1.502   0.192  -0.067  1.00  0.00     0.004 C 
ENDBRANCH  21  22
ENDBRANCH  20  21
ENDBRANCH  19  20
ENDBRANCH  14  19
ENDBRANCH   8  13
ENDBRANCH   4   7
ENDBRANCH   2   3
ENDBRANCH   1   2
BRANCH   1  24
ATOM     24  C   UNL     1      -6.239  -0.597  -8.935  1.00  0.00     0.002 C 
BRANCH  24  25
ATOM     25  C   UNL     1      -7.438   0.240  -9.396  1.00  0.00     0.002 C 
BRANCH  25  26
ATOM     26  C   UNL     1      -7.166   1.742  -9.525  1.00  0.00     0.021 C 
BRANCH  26  27
ATOM     27  C   UNL     1      -6.051   2.096 -10.505  1.00  0.00     0.116 C 
BRANCH  27  28
ATOM     28  N   UNL     1      -6.392   1.702 -11.863  1.00  0.00    -0.352 N 
ATOM     29  C   UNL     1      -6.568   2.482 -12.977  1.00  0.00     0.251 C 
ATOM     30  H   UNL     1      -6.513   0.735 -12.002  1.00  0.00     0.163 HD
ATOM     31  O   UNL     1      -7.110   2.019 -13.975  1.00  0.00    -0.269 OA
BRANCH  29  32
ATOM     32  C   UNL     1      -6.104   3.885 -12.973  1.00  0.00     0.039 A 
ATOM     33  C   UNL     1      -6.925   4.872 -13.525  1.00  0.00     0.014 A 
ATOM     34  C   UNL     1      -4.848   4.219 -12.458  1.00  0.00     0.014 A 
ATOM     35  C   UNL     1      -6.506   6.203 -13.515  1.00  0.00     0.010 A 
ATOM     36  C   UNL     1      -4.462   5.554 -12.387  1.00  0.00     0.010 A 
ATOM     37  C   UNL     1      -5.283   6.558 -12.922  1.00  0.00    -0.014 A 
BRANCH  37  38
ATOM     38  C   UNL     1      -4.840   7.972 -12.861  1.00  0.00     0.031 A 
ATOM     39  C   UNL     1      -3.610   8.411 -13.608  1.00  0.00     0.074 A 
ATOM     40  C   UNL     1      -5.508   8.846 -12.085  1.00  0.00     0.049 A 
ATOM     41  N   UNL     1      -3.025   9.582 -13.622  1.00  0.00    -0.248 NA
ATOM     42  C   UNL     1      -2.934   7.392 -14.426  1.00  0.00     0.031 C 
ATOM     43  C   UNL     1      -6.689   8.530 -11.278  1.00  0.00     0.029 A 
ATOM     44  N   UNL     1      -5.284  10.177 -11.838  1.00  0.00    -0.354 N 
ATOM     45  C   UNL     1      -1.909   9.436 -14.436  1.00  0.00     0.074 A 
ATOM     46  C   UNL     1      -1.869   8.053 -14.856  1.00  0.00     0.031 C 
ATOM     47  C   UNL     1      -7.096   9.641 -10.643  1.00  0.00     0.029 A 
ATOM     48  C   UNL     1      -6.187  10.735 -10.967  1.00  0.00     0.049 A 
ATOM     49  H   UNL     1      -4.545  10.683 -12.247  1.00  0.00     0.167 HD
ATOM     50  C   UNL     1      -1.012  10.377 -14.818  1.00  0.00     0.037 A 
ATOM     51  C   UNL     1      -6.267  11.987 -10.479  1.00  0.00     0.037 A 
ATOM     52  C   UNL     1      -1.071  11.758 -14.419  1.00  0.00     0.049 A 
ATOM     53  C   UNL     1      -5.255  13.010 -10.913  1.00  0.00     0.074 A 
ATOM     54  C   UNL     1      -0.244  12.801 -14.800  1.00  0.00     0.029 A 
ATOM     55  N   UNL     1      -2.010  12.289 -13.548  1.00  0.00    -0.354 N 
ATOM     56  N   UNL     1      -4.242  12.874 -11.735  1.00  0.00    -0.248 NA
ATOM     57  C   UNL     1      -5.400  14.363 -10.356  1.00  0.00     0.031 C 
ATOM     58  C   UNL     1      -0.658  13.955 -14.126  1.00  0.00     0.029 A 
ATOM     59  C   UNL     1      -1.771  13.641 -13.362  1.00  0.00     0.049 A 
ATOM     60  H   UNL     1      -2.739  11.781 -13.125  1.00  0.00     0.167 HD
ATOM     61  C   UNL     1      -3.646  14.126 -11.814  1.00  0.00     0.074 A 
ATOM     62  C   UNL     1      -4.420  15.012 -10.969  1.00  0.00     0.031 C 
ATOM     63  C   UNL     1      -2.556  14.508 -12.522  1.00  0.00     0.037 A 
BRANCH  50  64
ATOM     64  C   UNL     1       0.106   9.942 -15.720  1.00  0.00     0.057 A 
ATOM     65  C   UNL     1      -0.118   9.598 -17.059  1.00  0.00     0.134 A 
ATOM     66  C   UNL     1       1.427   9.901 -15.255  1.00  0.00     0.134 A 
ATOM     67  F   UNL     1      -1.361   9.604 -17.564  1.00  0.00    -0.206 F 
ATOM     68  C   UNL     1       0.927   9.204 -17.897  1.00  0.00     0.040 A 
ATOM     69  C   UNL     1       2.484   9.536 -16.090  1.00  0.00     0.040 A 
ATOM     70  F   UNL     1       1.712  10.224 -13.985  1.00  0.00    -0.206 F 
ATOM     71  C   UNL     1       2.234   9.180 -17.414  1.00  0.00     0.006 A 
ENDBRANCH  50  64
BRANCH  51  72
ATOM     72  C   UNL     1      -7.357  12.351  -9.540  1.00  0.00     0.057 A 
ATOM     73  C   UNL     1      -8.392  13.208  -9.934  1.00  0.00     0.134 A 
ATOM     74  C   UNL     1      -7.387  11.864  -8.228  1.00  0.00     0.134 A 
ATOM     75  F   UNL     1      -8.408  13.721 -11.173  1.00  0.00    -0.206 F 
ATOM     76  C   UNL     1      -9.406  13.584  -9.052  1.00  0.00     0.040 A 
ATOM     77  C   UNL     1      -8.409  12.213  -7.342  1.00  0.00     0.040 A 
ATOM     78  F   UNL     1      -6.429  11.033  -7.791  1.00  0.00    -0.206 F 
ATOM     79  C   UNL     1      -9.418  13.082  -7.752  1.00  0.00     0.006 A 
ENDBRANCH  51  72
BRANCH  63  80
ATOM     80  C   UNL     1      -2.155  15.952 -12.437  1.00  0.00     0.057 A 
ATOM     81  C   UNL     1      -1.563  16.488 -11.287  1.00  0.00     0.134 A 
ATOM     82  C   UNL     1      -2.331  16.806 -13.533  1.00  0.00     0.134 A 
ATOM     83  F   UNL     1      -1.380  15.725 -10.198  1.00  0.00    -0.206 F 
ATOM     84  C   UNL     1      -1.180  17.828 -11.222  1.00  0.00     0.040 A 
ATOM     85  C   UNL     1      -1.929  18.141 -13.489  1.00  0.00     0.040 A 
ATOM     86  F   UNL     1      -2.885  16.352 -14.668  1.00  0.00    -0.206 F 
ATOM     87  C   UNL     1      -1.357  18.657 -12.329  1.00  0.00     0.006 A 
ENDBRANCH  63  80
ENDBRANCH  37  38
ENDBRANCH  29  32
ENDBRANCH  27  28
ENDBRANCH  26  27
ENDBRANCH  25  26
ENDBRANCH  24  25
ENDBRANCH   1  24
TORSDOF 18
