REMARK SMILES C[C@H](c1ccncc1)[N@H+]1[C@@H]2CC[C@H]1C[C@H](CC(=O)NCCCCCCNC(=O)c1ccc(-c3c4nc(c(-c5c(F)cccc5F)c5ccc([nH]5)c(-c5c(F)cccc5F)c5nc(c(-c6c(F)cccc6F)c6ccc3[nH]6)C=C5)C=C4)cc1)C2
REMARK SMILES IDX 22 1 21 2 20 3 19 4 17 5 18 6 16 8 15 9 9 10 10 11 13 12
REMARK SMILES IDX 11 14 83 15 12 16 14 17 2 18 1 19 3 20 4 21 8 22 5 23 7 24
REMARK SMILES IDX 6 25 23 26 24 27 25 28 26 29 27 30 28 32 29 33 30 34 82 35
REMARK SMILES IDX 31 36 81 37 32 38 33 39 34 40 75 41 35 42 80 43 74 44 76 45
REMARK SMILES IDX 36 46 79 47 73 48 72 49 37 51 63 52 46 53 62 54 47 55 50 56
REMARK SMILES IDX 61 57 77 58 48 59 49 60 60 62 78 63 51 64 38 65 39 66 44 67
REMARK SMILES IDX 40 68 41 69 43 70 45 71 42 72 64 73 65 74 70 75 66 76 67 77
REMARK SMILES IDX 69 78 71 79 68 80 52 81 53 82 58 83 54 84 55 85 57 86 59 87
REMARK SMILES IDX 56 88
REMARK H PARENT 19 7 9 13 26 31 76 50 50 61
REMARK Flexibility Score: inf
ROOT
ATOM      1  C   UNL     1      -0.836  -3.508  -4.718  1.00  0.00     0.002 C 
ENDROOT
BRANCH   1   2
ATOM      2  C   UNL     1      -0.863  -2.061  -4.211  1.00  0.00     0.021 C 
BRANCH   2   3
ATOM      3  C   UNL     1       0.164  -1.117  -4.864  1.00  0.00     0.116 C 
BRANCH   3   4
ATOM      4  N   UNL     1      -0.503  -0.131  -5.709  1.00  0.00    -0.356 N 
ATOM      5  C   UNL     1      -0.804   1.187  -5.540  1.00  0.00     0.220 C 
ATOM      6  O   UNL     1      -1.472   1.736  -6.420  1.00  0.00    -0.275 OA
ATOM      7  H   UNL     1      -0.794  -0.492  -6.578  1.00  0.00     0.163 HD
BRANCH   5   8
ATOM      8  C   UNL     1      -0.339   1.983  -4.331  1.00  0.00     0.104 C 
BRANCH   8   9
ATOM      9  C   UNL     1      -1.374   2.048  -3.178  1.00  0.00     0.010 C 
ATOM     10  N   UNL     1      -0.826   1.646  -0.282  1.00  0.00    -0.324 N 
ATOM     11  C   UNL     1      -1.350   2.944  -0.723  1.00  0.00     0.185 C 
ATOM     12  C   UNL     1      -1.661   0.681  -0.967  1.00  0.00     0.185 C 
ATOM     13  H   UNL     1      -0.893   1.404   0.707  1.00  0.00     0.349 HD
ATOM     14  C   UNL     1      -2.852   2.738  -0.494  1.00  0.00     0.071 C 
ATOM     15  C   UNL     1      -1.069   3.223  -2.219  1.00  0.00     0.069 C 
ATOM     16  C   UNL     1      -3.065   1.238  -0.681  1.00  0.00     0.071 C 
ATOM     17  C   UNL     1      -1.418   0.689  -2.473  1.00  0.00     0.069 C 
BRANCH  10  18
ATOM     18  C   UNL     1       0.601   1.523   0.045  1.00  0.00     0.212 C 
ATOM     19  C   UNL     1       1.570   2.428  -0.737  1.00  0.00     0.081 C 
BRANCH  18  20
ATOM     20  C   UNL     1       1.310   0.166   0.188  1.00  0.00     0.012 A 
ATOM     21  C   UNL     1       1.315  -0.838  -0.779  1.00  0.00     0.030 A 
ATOM     22  C   UNL     1       2.262   0.027   1.218  1.00  0.00     0.030 A 
ATOM     23  C   UNL     1       2.265  -1.852  -0.726  1.00  0.00     0.111 A 
ATOM     24  C   UNL     1       3.165  -1.030   1.196  1.00  0.00     0.111 A 
ATOM     25  N   UNL     1       3.194  -1.970   0.236  1.00  0.00    -0.265 NA
ENDBRANCH  18  20
ENDBRANCH  10  18
ENDBRANCH   8   9
ENDBRANCH   5   8
ENDBRANCH   3   4
ENDBRANCH   2   3
ENDBRANCH   1   2
BRANCH   1  26
ATOM     26  C   UNL     1       0.340  -4.359  -4.226  1.00  0.00     0.002 C 
BRANCH  26  27
ATOM     27  C   UNL     1       0.429  -4.570  -2.711  1.00  0.00     0.021 C 
BRANCH  27  28
ATOM     28  C   UNL     1      -0.760  -5.250  -2.036  1.00  0.00     0.116 C 
BRANCH  28  29
ATOM     29  N   UNL     1      -0.946  -6.625  -2.465  1.00  0.00    -0.352 N 
ATOM     30  C   UNL     1      -0.778  -7.812  -1.801  1.00  0.00     0.251 C 
ATOM     31  H   UNL     1      -1.244  -6.721  -3.398  1.00  0.00     0.163 HD
ATOM     32  O   UNL     1      -0.853  -8.865  -2.443  1.00  0.00    -0.269 OA
BRANCH  30  33
ATOM     33  C   UNL     1      -0.495  -7.880  -0.346  1.00  0.00     0.039 A 
ATOM     34  C   UNL     1       0.384  -8.870   0.113  1.00  0.00     0.014 A 
ATOM     35  C   UNL     1      -1.132  -7.053   0.582  1.00  0.00     0.014 A 
ATOM     36  C   UNL     1       0.659  -8.996   1.479  1.00  0.00     0.010 A 
ATOM     37  C   UNL     1      -0.803  -7.131   1.938  1.00  0.00     0.010 A 
ATOM     38  C   UNL     1       0.088  -8.110   2.405  1.00  0.00    -0.014 A 
BRANCH  38  39
ATOM     39  C   UNL     1       0.393  -8.216   3.858  1.00  0.00     0.031 A 
ATOM     40  C   UNL     1      -0.690  -8.570   4.843  1.00  0.00     0.074 A 
ATOM     41  C   UNL     1       1.636  -7.952   4.306  1.00  0.00     0.049 A 
ATOM     42  N   UNL     1      -0.628  -8.654   6.149  1.00  0.00    -0.248 NA
ATOM     43  C   UNL     1      -2.025  -8.842   4.288  1.00  0.00     0.031 C 
ATOM     44  C   UNL     1       2.771  -7.557   3.470  1.00  0.00     0.029 A 
ATOM     45  N   UNL     1       2.152  -7.970   5.579  1.00  0.00    -0.354 N 
ATOM     46  C   UNL     1      -1.915  -8.966   6.571  1.00  0.00     0.074 A 
ATOM     47  C   UNL     1      -2.746  -9.015   5.387  1.00  0.00     0.031 C 
ATOM     48  C   UNL     1       3.853  -7.391   4.248  1.00  0.00     0.029 A 
ATOM     49  C   UNL     1       3.484  -7.637   5.639  1.00  0.00     0.049 A 
ATOM     50  H   UNL     1       1.618  -8.200   6.373  1.00  0.00     0.167 HD
ATOM     51  C   UNL     1      -2.362  -9.209   7.827  1.00  0.00     0.037 A 
ATOM     52  C   UNL     1       4.314  -7.537   6.694  1.00  0.00     0.037 A 
ATOM     53  C   UNL     1      -1.534  -9.200   9.004  1.00  0.00     0.049 A 
ATOM     54  C   UNL     1       3.799  -7.829   8.075  1.00  0.00     0.074 A 
ATOM     55  C   UNL     1      -1.887  -9.496  10.310  1.00  0.00     0.029 A 
ATOM     56  N   UNL     1      -0.185  -8.883   9.017  1.00  0.00    -0.354 N 
ATOM     57  N   UNL     1       2.592  -8.176   8.451  1.00  0.00    -0.248 NA
ATOM     58  C   UNL     1       4.764  -7.722   9.180  1.00  0.00     0.031 C 
ATOM     59  C   UNL     1      -0.758  -9.328  11.118  1.00  0.00     0.029 A 
ATOM     60  C   UNL     1       0.306  -8.962  10.310  1.00  0.00     0.049 A 
ATOM     61  H   UNL     1       0.346  -8.637   8.225  1.00  0.00     0.167 HD
ATOM     62  C   UNL     1       2.658  -8.352   9.826  1.00  0.00     0.074 A 
ATOM     63  C   UNL     1       4.026  -8.086  10.219  1.00  0.00     0.031 C 
ATOM     64  C   UNL     1       1.671  -8.702  10.687  1.00  0.00     0.037 A 
BRANCH  51  65
ATOM     65  C   UNL     1      -3.823  -9.514   7.992  1.00  0.00     0.057 A 
ATOM     66  C   UNL     1      -4.372 -10.734   7.577  1.00  0.00     0.134 A 
ATOM     67  C   UNL     1      -4.682  -8.592   8.602  1.00  0.00     0.134 A 
ATOM     68  F   UNL     1      -3.605 -11.655   6.975  1.00  0.00    -0.206 F 
ATOM     69  C   UNL     1      -5.730 -11.016   7.739  1.00  0.00     0.040 A 
ATOM     70  C   UNL     1      -6.037  -8.872   8.792  1.00  0.00     0.040 A 
ATOM     71  F   UNL     1      -4.219  -7.408   9.030  1.00  0.00    -0.206 F 
ATOM     72  C   UNL     1      -6.565 -10.085   8.354  1.00  0.00     0.006 A 
ENDBRANCH  51  65
BRANCH  52  73
ATOM     73  C   UNL     1       5.736  -7.167   6.484  1.00  0.00     0.057 A 
ATOM     74  C   UNL     1       6.755  -8.114   6.633  1.00  0.00     0.134 A 
ATOM     75  C   UNL     1       6.109  -5.863   6.139  1.00  0.00     0.134 A 
ATOM     76  F   UNL     1       6.459  -9.374   6.985  1.00  0.00    -0.206 F 
ATOM     77  C   UNL     1       8.098  -7.776   6.460  1.00  0.00     0.040 A 
ATOM     78  C   UNL     1       7.447  -5.516   5.941  1.00  0.00     0.040 A 
ATOM     79  F   UNL     1       5.178  -4.911   5.981  1.00  0.00    -0.206 F 
ATOM     80  C   UNL     1       8.446  -6.473   6.107  1.00  0.00     0.006 A 
ENDBRANCH  52  73
BRANCH  64  81
ATOM     81  C   UNL     1       2.042  -8.848  12.132  1.00  0.00     0.057 A 
ATOM     82  C   UNL     1       2.284  -7.735  12.947  1.00  0.00     0.134 A 
ATOM     83  C   UNL     1       2.126 -10.115  12.723  1.00  0.00     0.134 A 
ATOM     84  F   UNL     1       2.233  -6.495  12.438  1.00  0.00    -0.206 F 
ATOM     85  C   UNL     1       2.615  -7.879  14.296  1.00  0.00     0.040 A 
ATOM     86  C   UNL     1       2.435 -10.270  14.075  1.00  0.00     0.040 A 
ATOM     87  F   UNL     1       1.899 -11.221  11.998  1.00  0.00    -0.206 F 
ATOM     88  C   UNL     1       2.686  -9.150  14.864  1.00  0.00     0.006 A 
ENDBRANCH  64  81
ENDBRANCH  38  39
ENDBRANCH  30  33
ENDBRANCH  28  29
ENDBRANCH  27  28
ENDBRANCH  26  27
ENDBRANCH   1  26
TORSDOF 16
