REMARK SMILES C[C@@H](C(=O)NCCCCCCNC(=O)c1ccc(-c2c3nc(c(-c4c(F)cccc4F)c4ccc([nH]4)c(-c4c(F)cccc4F)c4nc(c(-c5c(F)cccc5F)c5ccc2[nH]5)C=C4)C=C3)cc1)c1ccc(-c2ccn(C(F)F)c(=O)c2)cc1
REMARK SMILES IDX 8 1 7 2 6 3 5 4 3 5 4 6 2 8 1 9 69 10 70 11 84 12 71 13
REMARK SMILES IDX 83 14 72 15 73 16 74 17 82 18 75 19 80 20 76 21 81 22 77 23
REMARK SMILES IDX 78 24 79 25 9 26 10 27 11 28 12 29 13 30 14 32 15 33 16 34
REMARK SMILES IDX 68 35 17 36 67 37 18 38 19 39 20 40 61 41 21 42 66 43 60 44
REMARK SMILES IDX 62 45 22 46 65 47 59 48 58 49 23 51 49 52 32 53 48 54 33 55
REMARK SMILES IDX 36 56 47 57 63 58 34 59 35 60 46 62 64 63 37 64 24 65 25 66
REMARK SMILES IDX 30 67 26 68 27 69 29 70 31 71 28 72 50 73 51 74 56 75 52 76
REMARK SMILES IDX 53 77 55 78 57 79 54 80 38 81 39 82 44 83 40 84 41 85 43 86
REMARK SMILES IDX 45 87 42 88
REMARK H PARENT 5 7 12 31 62 50 36 61
REMARK Flexibility Score: inf
ROOT
ATOM      1  C   UNL     1       5.055   2.339   1.364  1.00  0.00     0.002 C 
ENDROOT
BRANCH   1   2
ATOM      2  C   UNL     1       4.314   1.147   0.741  1.00  0.00     0.021 C 
BRANCH   2   3
ATOM      3  C   UNL     1       3.520   0.307   1.745  1.00  0.00     0.116 C 
BRANCH   3   4
ATOM      4  N   UNL     1       2.493   1.107   2.374  1.00  0.00    -0.356 N 
ATOM      5  C   UNL     1       1.144   1.135   2.183  1.00  0.00     0.227 C 
ATOM      6  O   UNL     1       0.537   2.018   2.793  1.00  0.00    -0.274 OA
ATOM      7  H   UNL     1       2.823   1.736   3.055  1.00  0.00     0.163 HD
BRANCH   5   8
ATOM      8  C   UNL     1       0.464   0.073   1.298  1.00  0.00     0.105 C 
ATOM      9  C   UNL     1       0.794   0.218  -0.191  1.00  0.00     0.023 C 
BRANCH   8  10
ATOM     10  C   UNL     1      -1.056   0.034   1.436  1.00  0.00    -0.036 A 
ATOM     11  C   UNL     1      -1.830   1.202   1.349  1.00  0.00     0.005 A 
ATOM     12  C   UNL     1      -1.716  -1.197   1.563  1.00  0.00     0.005 A 
ATOM     13  C   UNL     1      -3.221   1.149   1.412  1.00  0.00     0.009 A 
ATOM     14  C   UNL     1      -3.112  -1.253   1.604  1.00  0.00     0.009 A 
ATOM     15  C   UNL     1      -3.875  -0.082   1.524  1.00  0.00    -0.018 A 
BRANCH  15  16
ATOM     16  C   UNL     1      -5.347  -0.154   1.519  1.00  0.00    -0.011 A 
ATOM     17  C   UNL     1      -6.112  -0.754   2.594  1.00  0.00     0.027 A 
ATOM     18  C   UNL     1      -5.995   0.329   0.445  1.00  0.00     0.080 A 
ATOM     19  C   UNL     1      -7.443  -0.855   2.504  1.00  0.00     0.095 A 
ATOM     20  C   UNL     1      -7.475   0.240   0.338  1.00  0.00     0.255 A 
ATOM     21  N   UNL     1      -8.120  -0.379   1.396  1.00  0.00    -0.258 N 
ATOM     22  O   UNL     1      -8.018   0.698  -0.663  1.00  0.00    -0.269 OA
BRANCH  21  23
ATOM     23  C   UNL     1      -9.547  -0.531   1.286  1.00  0.00     0.451 C 
ATOM     24  F   UNL     1     -10.162   0.667   1.143  1.00  0.00    -0.185 F 
ATOM     25  F   UNL     1      -9.868  -1.300   0.217  1.00  0.00    -0.185 F 
ENDBRANCH  21  23
ENDBRANCH  15  16
ENDBRANCH   8  10
ENDBRANCH   5   8
ENDBRANCH   3   4
ENDBRANCH   2   3
ENDBRANCH   1   2
BRANCH   1  26
ATOM     26  C   UNL     1       6.024   1.983   2.495  1.00  0.00     0.002 C 
BRANCH  26  27
ATOM     27  C   UNL     1       7.079   0.937   2.131  1.00  0.00     0.021 C 
BRANCH  27  28
ATOM     28  C   UNL     1       7.968   1.318   0.952  1.00  0.00     0.116 C 
BRANCH  28  29
ATOM     29  N   UNL     1       8.782   2.490   1.235  1.00  0.00    -0.352 N 
ATOM     30  C   UNL     1      10.145   2.632   1.194  1.00  0.00     0.251 C 
ATOM     31  H   UNL     1       8.281   3.297   1.493  1.00  0.00     0.163 HD
ATOM     32  O   UNL     1      10.677   3.639   1.658  1.00  0.00    -0.269 OA
BRANCH  30  33
ATOM     33  C   UNL     1      10.982   1.560   0.617  1.00  0.00     0.039 A 
ATOM     34  C   UNL     1      12.117   1.141   1.314  1.00  0.00     0.014 A 
ATOM     35  C   UNL     1      10.643   0.962  -0.601  1.00  0.00     0.014 A 
ATOM     36  C   UNL     1      12.868   0.068   0.830  1.00  0.00     0.010 A 
ATOM     37  C   UNL     1      11.353  -0.150  -1.047  1.00  0.00     0.010 A 
ATOM     38  C   UNL     1      12.465  -0.617  -0.329  1.00  0.00    -0.014 A 
BRANCH  38  39
ATOM     39  C   UNL     1      13.164  -1.851  -0.769  1.00  0.00     0.031 A 
ATOM     40  C   UNL     1      13.886  -1.895  -2.087  1.00  0.00     0.074 A 
ATOM     41  C   UNL     1      13.084  -2.959  -0.005  1.00  0.00     0.049 A 
ATOM     42  N   UNL     1      14.493  -2.904  -2.660  1.00  0.00    -0.248 NA
ATOM     43  C   UNL     1      13.913  -0.653  -2.875  1.00  0.00     0.031 C 
ATOM     44  C   UNL     1      12.369  -3.059   1.270  1.00  0.00     0.029 A 
ATOM     45  N   UNL     1      13.596  -4.219  -0.194  1.00  0.00    -0.354 N 
ATOM     46  C   UNL     1      14.962  -2.423  -3.876  1.00  0.00     0.074 A 
ATOM     47  C   UNL     1      14.537  -1.044  -3.978  1.00  0.00     0.031 C 
ATOM     48  C   UNL     1      12.500  -4.304   1.753  1.00  0.00     0.029 A 
ATOM     49  C   UNL     1      13.270  -5.104   0.806  1.00  0.00     0.049 A 
ATOM     50  H   UNL     1      14.144  -4.466  -0.974  1.00  0.00     0.167 HD
ATOM     51  C   UNL     1      15.696  -3.070  -4.812  1.00  0.00     0.037 A 
ATOM     52  C   UNL     1      13.543  -6.416   0.939  1.00  0.00     0.037 A 
ATOM     53  C   UNL     1      16.142  -4.434  -4.695  1.00  0.00     0.049 A 
ATOM     54  C   UNL     1      14.348  -7.108  -0.127  1.00  0.00     0.074 A 
ATOM     55  C   UNL     1      16.960  -5.147  -5.554  1.00  0.00     0.029 A 
ATOM     56  N   UNL     1      15.802  -5.293  -3.662  1.00  0.00    -0.354 N 
ATOM     57  N   UNL     1      14.864  -6.613  -1.226  1.00  0.00    -0.248 NA
ATOM     58  C   UNL     1      14.613  -8.541   0.067  1.00  0.00     0.031 C 
ATOM     59  C   UNL     1      17.069  -6.455  -5.071  1.00  0.00     0.029 A 
ATOM     60  C   UNL     1      16.364  -6.540  -3.882  1.00  0.00     0.049 A 
ATOM     61  H   UNL     1      15.245  -5.052  -2.886  1.00  0.00     0.167 HD
ATOM     62  C   UNL     1      15.530  -7.666  -1.840  1.00  0.00     0.074 A 
ATOM     63  C   UNL     1      15.376  -8.819  -0.979  1.00  0.00     0.031 C 
ATOM     64  C   UNL     1      16.205  -7.678  -3.015  1.00  0.00     0.037 A 
BRANCH  51  65
ATOM     65  C   UNL     1      16.077  -2.319  -6.054  1.00  0.00     0.057 A 
ATOM     66  C   UNL     1      17.050  -1.312  -6.039  1.00  0.00     0.134 A 
ATOM     67  C   UNL     1      15.530  -2.672  -7.295  1.00  0.00     0.134 A 
ATOM     68  F   UNL     1      17.606  -0.921  -4.883  1.00  0.00    -0.206 F 
ATOM     69  C   UNL     1      17.461  -0.678  -7.213  1.00  0.00     0.040 A 
ATOM     70  C   UNL     1      15.951  -2.062  -8.478  1.00  0.00     0.040 A 
ATOM     71  F   UNL     1      14.599  -3.634  -7.380  1.00  0.00    -0.206 F 
ATOM     72  C   UNL     1      16.919  -1.061  -8.439  1.00  0.00     0.006 A 
ENDBRANCH  51  65
BRANCH  52  73
ATOM     73  C   UNL     1      13.045  -7.175   2.115  1.00  0.00     0.057 A 
ATOM     74  C   UNL     1      13.928  -7.699   3.067  1.00  0.00     0.134 A 
ATOM     75  C   UNL     1      11.681  -7.434   2.292  1.00  0.00     0.134 A 
ATOM     76  F   UNL     1      15.249  -7.503   2.943  1.00  0.00    -0.206 F 
ATOM     77  C   UNL     1      13.477  -8.483   4.130  1.00  0.00     0.040 A 
ATOM     78  C   UNL     1      11.212  -8.190   3.368  1.00  0.00     0.040 A 
ATOM     79  F   UNL     1      10.780  -6.954   1.421  1.00  0.00    -0.206 F 
ATOM     80  C   UNL     1      12.114  -8.728   4.284  1.00  0.00     0.006 A 
ENDBRANCH  52  73
BRANCH  64  81
ATOM     81  C   UNL     1      16.847  -8.972  -3.424  1.00  0.00     0.057 A 
ATOM     82  C   UNL     1      16.088 -10.069  -3.850  1.00  0.00     0.134 A 
ATOM     83  C   UNL     1      18.241  -9.110  -3.424  1.00  0.00     0.134 A 
ATOM     84  F   UNL     1      14.748 -10.007  -3.860  1.00  0.00    -0.206 F 
ATOM     85  C   UNL     1      16.692 -11.267  -4.238  1.00  0.00     0.040 A 
ATOM     86  C   UNL     1      18.857 -10.291  -3.838  1.00  0.00     0.040 A 
ATOM     87  F   UNL     1      19.027  -8.094  -3.037  1.00  0.00    -0.206 F 
ATOM     88  C   UNL     1      18.082 -11.377  -4.240  1.00  0.00     0.006 A 
ENDBRANCH  64  81
ENDBRANCH  38  39
ENDBRANCH  30  33
ENDBRANCH  28  29
ENDBRANCH  27  28
ENDBRANCH  26  27
ENDBRANCH   1  26
TORSDOF 16
