REMARK SMILES Cc1nccn1C1(C(=O)NCCCCCCNC(=O)c2ccc(-c3c4nc(c(-c5c(F)cccc5F)c5ccc([nH]5)c(-c5c(F)cccc5F)c5nc(c(-c6c(F)cccc6F)c6ccc3[nH]6)C=C5)C=C4)cc2)CCN(C(=O)[C@@H]2C[C@H]2c2ccccc2)CC1
REMARK SMILES IDX 13 1 12 2 11 3 10 4 8 5 9 6 7 8 74 9 89 10 75 11 88 12 76 13
REMARK SMILES IDX 77 14 78 15 6 16 1 17 2 18 3 19 4 20 5 21 79 22 80 23 81 24
REMARK SMILES IDX 82 25 83 26 87 27 84 28 86 29 85 30 14 31 15 32 16 33 17 34
REMARK SMILES IDX 18 35 19 37 20 38 21 39 73 40 22 41 72 42 23 43 24 44 25 45
REMARK SMILES IDX 66 46 26 47 71 48 65 49 67 50 27 51 70 52 64 53 63 54 28 56
REMARK SMILES IDX 54 57 37 58 53 59 38 60 41 61 52 62 68 63 39 64 40 65 51 67
REMARK SMILES IDX 69 68 42 69 29 70 30 71 35 72 31 73 32 74 34 75 36 76 33 77
REMARK SMILES IDX 55 78 56 79 61 80 57 81 58 82 60 83 62 84 59 85 43 86 44 87
REMARK SMILES IDX 49 88 45 89 46 90 48 91 50 92 47 93
REMARK H PARENT 10 7 17 36 67 55 41 66
REMARK Flexibility Score: inf
ROOT
ATOM      1  C   UNL     1       3.590   7.100   1.282  1.00  0.00     0.002 C 
ENDROOT
BRANCH   1   2
ATOM      2  C   UNL     1       3.487   5.592   1.555  1.00  0.00     0.021 C 
BRANCH   2   3
ATOM      3  C   UNL     1       2.078   5.002   1.432  1.00  0.00     0.116 C 
BRANCH   3   4
ATOM      4  N   UNL     1       1.598   5.068   0.059  1.00  0.00    -0.354 N 
ATOM      5  C   UNL     1       1.340   4.120  -0.897  1.00  0.00     0.246 C 
ATOM      6  O   UNL     1       1.274   4.593  -2.035  1.00  0.00    -0.272 OA
ATOM      7  H   UNL     1       1.423   5.987  -0.247  1.00  0.00     0.163 HD
BRANCH   5   8
ATOM      8  C   UNL     1       1.178   2.579  -0.566  1.00  0.00     0.127 C 
ATOM      9  C   UNL     1       2.587   2.110  -0.118  1.00  0.00     0.061 C 
ATOM     10  C   UNL     1       0.075   2.487   0.516  1.00  0.00     0.061 C 
ATOM     11  C   UNL     1       2.686   1.226   1.129  1.00  0.00     0.122 C 
ATOM     12  C   UNL     1       0.234   1.224   1.314  1.00  0.00     0.122 C 
ATOM     13  N   UNL     1       1.513   1.219   2.000  1.00  0.00    -0.342 N 
ATOM     14  C   UNL     1       1.749   0.981   3.361  1.00  0.00     0.226 C 
ATOM     15  O   UNL     1       2.875   0.668   3.748  1.00  0.00    -0.275 OA
BRANCH   8  16
ATOM     16  N   UNL     1       0.691   1.754  -1.743  1.00  0.00    -0.320 N 
ATOM     17  C   UNL     1       1.335  -0.758  -1.224  1.00  0.00     0.087 C 
ATOM     18  C   UNL     1       0.701   0.366  -1.970  1.00  0.00     0.106 A 
ATOM     19  N   UNL     1       0.033   0.067  -3.070  1.00  0.00    -0.242 NA
ATOM     20  C   UNL     1      -0.416   1.229  -3.591  1.00  0.00     0.131 A 
ATOM     21  C   UNL     1      -0.064   2.271  -2.782  1.00  0.00     0.108 A 
ENDBRANCH   8  16
BRANCH  14  22
ATOM     22  C   UNL     1       0.730   1.175   4.440  1.00  0.00     0.087 C 
ATOM     23  C   UNL     1      -0.286   0.089   4.718  1.00  0.00     0.023 C 
ATOM     24  C   UNL     1      -0.736   1.466   4.330  1.00  0.00     0.032 C 
BRANCH  24  25
ATOM     25  C   UNL     1      -1.488   2.413   5.205  1.00  0.00    -0.044 A 
ATOM     26  C   UNL     1      -2.780   2.055   5.621  1.00  0.00     0.004 A 
ATOM     27  C   UNL     1      -1.112   3.763   5.283  1.00  0.00     0.004 A 
ATOM     28  C   UNL     1      -3.710   3.026   5.979  1.00  0.00     0.000 A 
ATOM     29  C   UNL     1      -2.041   4.737   5.648  1.00  0.00     0.000 A 
ATOM     30  C   UNL     1      -3.347   4.370   5.964  1.00  0.00     0.000 A 
ENDBRANCH  24  25
ENDBRANCH  14  22
ENDBRANCH   5   8
ENDBRANCH   3   4
ENDBRANCH   2   3
ENDBRANCH   1   2
BRANCH   1  31
ATOM     31  C   UNL     1       2.659   8.009   2.100  1.00  0.00     0.002 C 
BRANCH  31  32
ATOM     32  C   UNL     1       2.680   7.836   3.626  1.00  0.00     0.021 C 
BRANCH  32  33
ATOM     33  C   UNL     1       4.019   8.155   4.269  1.00  0.00     0.116 C 
BRANCH  33  34
ATOM     34  N   UNL     1       4.395   9.571   4.160  1.00  0.00    -0.352 N 
ATOM     35  C   UNL     1       5.550  10.206   4.605  1.00  0.00     0.251 C 
ATOM     36  H   UNL     1       3.739  10.150   3.709  1.00  0.00     0.163 HD
ATOM     37  O   UNL     1       5.586  11.409   4.780  1.00  0.00    -0.269 OA
BRANCH  35  38
ATOM     38  C   UNL     1       6.750   9.380   4.836  1.00  0.00     0.039 A 
ATOM     39  C   UNL     1       7.687   9.629   5.845  1.00  0.00     0.014 A 
ATOM     40  C   UNL     1       6.898   8.290   3.996  1.00  0.00     0.014 A 
ATOM     41  C   UNL     1       8.752   8.740   5.993  1.00  0.00     0.010 A 
ATOM     42  C   UNL     1       7.707   7.269   4.369  1.00  0.00     0.010 A 
ATOM     43  C   UNL     1       8.748   7.566   5.230  1.00  0.00    -0.014 A 
BRANCH  43  44
ATOM     44  C   UNL     1       9.790   6.559   5.260  1.00  0.00     0.031 A 
ATOM     45  C   UNL     1       9.877   5.811   6.532  1.00  0.00     0.074 A 
ATOM     46  C   UNL     1      10.361   6.141   4.105  1.00  0.00     0.049 A 
ATOM     47  N   UNL     1      10.851   5.821   7.376  1.00  0.00    -0.248 NA
ATOM     48  C   UNL     1       8.680   5.100   7.010  1.00  0.00     0.031 C 
ATOM     49  C   UNL     1      10.092   6.595   2.729  1.00  0.00     0.029 A 
ATOM     50  N   UNL     1      11.218   5.106   3.906  1.00  0.00    -0.354 N 
ATOM     51  C   UNL     1      10.482   4.941   8.389  1.00  0.00     0.074 A 
ATOM     52  C   UNL     1       9.070   4.721   8.229  1.00  0.00     0.031 C 
ATOM     53  C   UNL     1      10.589   5.701   1.847  1.00  0.00     0.029 A 
ATOM     54  C   UNL     1      11.336   4.698   2.578  1.00  0.00     0.049 A 
ATOM     55  H   UNL     1      11.715   4.679   4.640  1.00  0.00     0.167 HD
ATOM     56  C   UNL     1      11.423   4.267   9.106  1.00  0.00     0.037 A 
ATOM     57  C   UNL     1      11.971   3.579   2.145  1.00  0.00     0.037 A 
ATOM     58  C   UNL     1      12.736   4.820   8.866  1.00  0.00     0.049 A 
ATOM     59  C   UNL     1      12.889   3.159   3.240  1.00  0.00     0.074 A 
ATOM     60  C   UNL     1      13.306   6.065   9.048  1.00  0.00     0.029 A 
ATOM     61  N   UNL     1      13.545   4.161   7.969  1.00  0.00    -0.354 N 
ATOM     62  N   UNL     1      13.929   3.858   3.609  1.00  0.00    -0.248 NA
ATOM     63  C   UNL     1      12.357   2.256   4.253  1.00  0.00     0.031 C 
ATOM     64  C   UNL     1      14.122   6.264   7.896  1.00  0.00     0.029 A 
ATOM     65  C   UNL     1      14.080   5.101   7.126  1.00  0.00     0.049 A 
ATOM     66  H   UNL     1      13.710   3.191   7.939  1.00  0.00     0.167 HD
ATOM     67  C   UNL     1      13.913   3.816   4.998  1.00  0.00     0.074 A 
ATOM     68  C   UNL     1      12.963   2.756   5.335  1.00  0.00     0.031 C 
ATOM     69  C   UNL     1      14.420   4.844   5.744  1.00  0.00     0.037 A 
BRANCH  56  70
ATOM     70  C   UNL     1      11.242   2.897   9.713  1.00  0.00     0.057 A 
ATOM     71  C   UNL     1      12.274   2.376  10.517  1.00  0.00     0.134 A 
ATOM     72  C   UNL     1      10.260   1.963   9.329  1.00  0.00     0.134 A 
ATOM     73  F   UNL     1      13.267   3.163  10.961  1.00  0.00    -0.206 F 
ATOM     74  C   UNL     1      12.374   1.015  10.826  1.00  0.00     0.040 A 
ATOM     75  C   UNL     1      10.322   0.611   9.677  1.00  0.00     0.040 A 
ATOM     76  F   UNL     1       9.242   2.272   8.519  1.00  0.00    -0.206 F 
ATOM     77  C   UNL     1      11.401   0.124  10.394  1.00  0.00     0.006 A 
ENDBRANCH  56  70
BRANCH  57  78
ATOM     78  C   UNL     1      11.619   2.705   0.998  1.00  0.00     0.057 A 
ATOM     79  C   UNL     1      12.511   1.740   0.506  1.00  0.00     0.134 A 
ATOM     80  C   UNL     1      10.300   2.618   0.514  1.00  0.00     0.134 A 
ATOM     81  F   UNL     1      13.781   1.708   0.934  1.00  0.00    -0.206 F 
ATOM     82  C   UNL     1      12.111   0.740  -0.395  1.00  0.00     0.040 A 
ATOM     83  C   UNL     1       9.890   1.630  -0.390  1.00  0.00     0.040 A 
ATOM     84  F   UNL     1       9.338   3.435   0.966  1.00  0.00    -0.206 F 
ATOM     85  C   UNL     1      10.794   0.677  -0.838  1.00  0.00     0.006 A 
ENDBRANCH  57  78
BRANCH  69  86
ATOM     86  C   UNL     1      15.185   5.932   5.035  1.00  0.00     0.057 A 
ATOM     87  C   UNL     1      14.621   6.804   4.090  1.00  0.00     0.134 A 
ATOM     88  C   UNL     1      16.481   6.232   5.466  1.00  0.00     0.134 A 
ATOM     89  F   UNL     1      13.354   6.667   3.690  1.00  0.00    -0.206 F 
ATOM     90  C   UNL     1      15.323   7.898   3.574  1.00  0.00     0.040 A 
ATOM     91  C   UNL     1      17.182   7.341   4.985  1.00  0.00     0.040 A 
ATOM     92  F   UNL     1      17.066   5.484   6.414  1.00  0.00    -0.206 F 
ATOM     93  C   UNL     1      16.606   8.174   4.029  1.00  0.00     0.006 A 
ENDBRANCH  69  86
ENDBRANCH  43  44
ENDBRANCH  35  38
ENDBRANCH  33  34
ENDBRANCH  32  33
ENDBRANCH  31  32
ENDBRANCH   1  31
TORSDOF 16
