REMARK SMILES C[C@H]1OCC[C@@H]1C(=O)Nc1ccc(Cl)c(C(=O)NCCCCCCNC(=O)c2ccc(-c3c4nc(c(-c5c(F)cccc5F)c5ccc([nH]5)c(-c5c(F)cccc5F)c5nc(c(-c6c(F)cccc6F)c6ccc3[nH]6)C=C5)C=C4)cc2)c1
REMARK SMILES IDX 21 1 20 2 19 3 18 4 16 5 17 6 15 8 10 9 11 10 82 11 12 12
REMARK SMILES IDX 13 13 14 14 9 15 7 16 8 17 6 19 1 20 2 21 3 22 4 23 5 24
REMARK SMILES IDX 22 25 23 26 24 27 25 28 26 29 27 31 28 32 29 33 81 34 30 35
REMARK SMILES IDX 80 36 31 37 32 38 33 39 74 40 34 41 79 42 73 43 75 44 35 45
REMARK SMILES IDX 78 46 72 47 71 48 36 50 62 51 45 52 61 53 46 54 49 55 60 56
REMARK SMILES IDX 76 57 47 58 48 59 59 61 77 62 50 63 37 64 38 65 43 66 39 67
REMARK SMILES IDX 40 68 42 69 44 70 41 71 63 72 64 73 69 74 65 75 66 76 68 77
REMARK SMILES IDX 70 78 67 79 51 80 52 81 57 82 53 83 54 84 56 85 58 86 55 87
REMARK H PARENT 18 7 9 18 25 30 75 49 49 60
REMARK Flexibility Score: inf
ROOT
ATOM      1  C   UNL     1      -2.247   4.817   7.939  1.00  0.00     0.002 C 
ENDROOT
BRANCH   1   2
ATOM      2  C   UNL     1      -2.891   3.760   7.041  1.00  0.00     0.021 C 
BRANCH   2   3
ATOM      3  C   UNL     1      -2.114   3.357   5.799  1.00  0.00     0.116 C 
BRANCH   3   4
ATOM      4  N   UNL     1      -0.836   2.713   6.024  1.00  0.00    -0.352 N 
ATOM      5  C   UNL     1      -0.169   1.798   5.235  1.00  0.00     0.252 C 
ATOM      6  O   UNL     1       0.957   1.433   5.575  1.00  0.00    -0.269 OA
ATOM      7  H   UNL     1      -0.378   2.963   6.859  1.00  0.00     0.163 HD
BRANCH   5   8
ATOM      8  C   UNL     1      -0.817   1.141   4.069  1.00  0.00     0.060 A 
ATOM      9  C   UNL     1      -1.161  -0.917   2.841  1.00  0.00     0.042 A 
ATOM     10  C   UNL     1      -2.217  -0.329   2.161  1.00  0.00     0.028 A 
ATOM     11  C   UNL     1      -0.566  -0.235   3.901  1.00  0.00     0.041 A 
ATOM     12  C   UNL     1      -2.420   1.039   2.268  1.00  0.00     0.023 A 
ATOM     13  C   UNL     1      -1.609   1.789   3.115  1.00  0.00     0.053 A 
ATOM     14  Cl  UNL     1      -1.501   3.476   2.754  1.00  0.00    -0.083 Cl
BRANCH   9  15
ATOM     15  N   UNL     1      -0.664  -2.158   2.441  1.00  0.00    -0.326 N 
ATOM     16  C   UNL     1      -0.250  -2.549   1.192  1.00  0.00     0.230 C 
ATOM     17  O   UNL     1      -0.003  -3.752   1.035  1.00  0.00    -0.274 OA
ATOM     18  H   UNL     1      -0.601  -2.842   3.146  1.00  0.00     0.169 HD
BRANCH  16  19
ATOM     19  C   UNL     1       0.027  -1.583   0.021  1.00  0.00     0.110 C 
ATOM     20  C   UNL     1       2.060  -0.131  -0.467  1.00  0.00     0.039 C 
ATOM     21  C   UNL     1       0.818  -0.331   0.398  1.00  0.00     0.127 C 
ATOM     22  O   UNL     1      -0.054   0.787   0.178  1.00  0.00    -0.378 OA
ATOM     23  C   UNL     1      -1.004   0.424  -0.824  1.00  0.00     0.161 C 
ATOM     24  C   UNL     1      -1.163  -1.084  -0.773  1.00  0.00     0.044 C 
ENDBRANCH  16  19
ENDBRANCH   9  15
ENDBRANCH   5   8
ENDBRANCH   3   4
ENDBRANCH   2   3
ENDBRANCH   1   2
BRANCH   1  25
ATOM     25  C   UNL     1      -1.675   6.069   7.266  1.00  0.00     0.002 C 
BRANCH  25  26
ATOM     26  C   UNL     1      -2.583   6.839   6.304  1.00  0.00     0.021 C 
BRANCH  26  27
ATOM     27  C   UNL     1      -3.966   7.214   6.821  1.00  0.00     0.116 C 
BRANCH  27  28
ATOM     28  N   UNL     1      -3.926   8.033   8.018  1.00  0.00    -0.352 N 
ATOM     29  C   UNL     1      -4.591   9.194   8.314  1.00  0.00     0.251 C 
ATOM     30  H   UNL     1      -3.327   7.704   8.727  1.00  0.00     0.163 HD
ATOM     31  O   UNL     1      -4.323   9.795   9.357  1.00  0.00    -0.269 OA
BRANCH  29  32
ATOM     32  C   UNL     1      -5.610   9.754   7.396  1.00  0.00     0.039 A 
ATOM     33  C   UNL     1      -5.646  11.140   7.210  1.00  0.00     0.014 A 
ATOM     34  C   UNL     1      -6.559   8.947   6.761  1.00  0.00     0.014 A 
ATOM     35  C   UNL     1      -6.601  11.710   6.364  1.00  0.00     0.010 A 
ATOM     36  C   UNL     1      -7.467   9.509   5.862  1.00  0.00     0.010 A 
ATOM     37  C   UNL     1      -7.508  10.897   5.666  1.00  0.00    -0.014 A 
BRANCH  37  38
ATOM     38  C   UNL     1      -8.521  11.494   4.757  1.00  0.00     0.031 A 
ATOM     39  C   UNL     1      -9.988  11.387   5.081  1.00  0.00     0.074 A 
ATOM     40  C   UNL     1      -8.128  12.101   3.620  1.00  0.00     0.049 A 
ATOM     41  N   UNL     1     -11.020  11.816   4.399  1.00  0.00    -0.248 NA
ATOM     42  C   UNL     1     -10.343  10.684   6.324  1.00  0.00     0.031 C 
ATOM     43  C   UNL     1      -6.743  12.230   3.165  1.00  0.00     0.029 A 
ATOM     44  N   UNL     1      -8.859  12.720   2.637  1.00  0.00    -0.354 N 
ATOM     45  C   UNL     1     -12.141  11.421   5.118  1.00  0.00     0.074 A 
ATOM     46  C   UNL     1     -11.666  10.676   6.263  1.00  0.00     0.031 C 
ATOM     47  C   UNL     1      -6.723  12.905   2.004  1.00  0.00     0.029 A 
ATOM     48  C   UNL     1      -8.092  13.233   1.619  1.00  0.00     0.049 A 
ATOM     49  H   UNL     1      -9.841  12.790   2.660  1.00  0.00     0.167 HD
ATOM     50  C   UNL     1     -13.447  11.675   4.862  1.00  0.00     0.037 A 
ATOM     51  C   UNL     1      -8.452  13.895   0.503  1.00  0.00     0.037 A 
ATOM     52  C   UNL     1     -13.919  12.446   3.741  1.00  0.00     0.049 A 
ATOM     53  C   UNL     1      -9.906  14.190   0.258  1.00  0.00     0.074 A 
ATOM     54  C   UNL     1     -15.219  12.803   3.425  1.00  0.00     0.029 A 
ATOM     55  N   UNL     1     -13.107  12.983   2.755  1.00  0.00    -0.354 N 
ATOM     56  N   UNL     1     -10.950  13.864   0.981  1.00  0.00    -0.248 NA
ATOM     57  C   UNL     1     -10.230  14.960  -0.951  1.00  0.00     0.031 C 
ATOM     58  C   UNL     1     -15.196  13.528   2.229  1.00  0.00     0.029 A 
ATOM     59  C   UNL     1     -13.878  13.662   1.825  1.00  0.00     0.049 A 
ATOM     60  H   UNL     1     -12.127  12.896   2.721  1.00  0.00     0.167 HD
ATOM     61  C   UNL     1     -12.048  14.418   0.336  1.00  0.00     0.074 A 
ATOM     62  C   UNL     1     -11.541  15.111  -0.831  1.00  0.00     0.031 C 
ATOM     63  C   UNL     1     -13.358  14.360   0.679  1.00  0.00     0.037 A 
BRANCH  50  64
ATOM     64  C   UNL     1     -14.462  11.120   5.819  1.00  0.00     0.057 A 
ATOM     65  C   UNL     1     -14.615  11.633   7.114  1.00  0.00     0.134 A 
ATOM     66  C   UNL     1     -15.325  10.087   5.428  1.00  0.00     0.134 A 
ATOM     67  F   UNL     1     -13.813  12.614   7.555  1.00  0.00    -0.206 F 
ATOM     68  C   UNL     1     -15.571  11.123   7.994  1.00  0.00     0.040 A 
ATOM     69  C   UNL     1     -16.303   9.588   6.290  1.00  0.00     0.040 A 
ATOM     70  F   UNL     1     -15.238   9.554   4.200  1.00  0.00    -0.206 F 
ATOM     71  C   UNL     1     -16.424  10.102   7.580  1.00  0.00     0.006 A 
ENDBRANCH  50  64
BRANCH  51  72
ATOM     72  C   UNL     1      -7.417  14.358  -0.455  1.00  0.00     0.057 A 
ATOM     73  C   UNL     1      -7.123  15.720  -0.599  1.00  0.00     0.134 A 
ATOM     74  C   UNL     1      -6.713  13.457  -1.262  1.00  0.00     0.134 A 
ATOM     75  F   UNL     1      -7.778  16.633   0.133  1.00  0.00    -0.206 F 
ATOM     76  C   UNL     1      -6.185  16.171  -1.529  1.00  0.00     0.040 A 
ATOM     77  C   UNL     1      -5.753  13.892  -2.177  1.00  0.00     0.040 A 
ATOM     78  F   UNL     1      -6.942  12.139  -1.165  1.00  0.00    -0.206 F 
ATOM     79  C   UNL     1      -5.494  15.254  -2.319  1.00  0.00     0.006 A 
ENDBRANCH  51  72
BRANCH  63  80
ATOM     80  C   UNL     1     -14.327  15.108  -0.190  1.00  0.00     0.057 A 
ATOM     81  C   UNL     1     -14.662  14.671  -1.477  1.00  0.00     0.134 A 
ATOM     82  C   UNL     1     -14.949  16.272   0.281  1.00  0.00     0.134 A 
ATOM     83  F   UNL     1     -14.092  13.571  -1.992  1.00  0.00    -0.206 F 
ATOM     84  C   UNL     1     -15.558  15.382  -2.278  1.00  0.00     0.040 A 
ATOM     85  C   UNL     1     -15.866  16.976  -0.499  1.00  0.00     0.040 A 
ATOM     86  F   UNL     1     -14.680  16.739   1.510  1.00  0.00    -0.206 F 
ATOM     87  C   UNL     1     -16.166  16.535  -1.786  1.00  0.00     0.006 A 
ENDBRANCH  63  80
ENDBRANCH  37  38
ENDBRANCH  29  32
ENDBRANCH  27  28
ENDBRANCH  26  27
ENDBRANCH  25  26
ENDBRANCH   1  25
TORSDOF 15
