REMARK SMILES Cc1ccccc1[C@@H]1[NH2+][C@@H](C(=O)NCCCCCCNC(=O)c2ccc(-c3c4nc(c(-c5c(F)cccc5F)c5ccc([nH]5)c(-c5c(F)cccc5F)c5nc(c(-c6c(F)cccc6F)c6ccc3[nH]6)C=C5)C=C4)cc2)CC2=c3ccccc3=N[C@@H]21
REMARK SMILES IDX 17 1 16 2 15 3 14 4 13 5 11 6 12 7 10 9 8 10 9 11 86 12
REMARK SMILES IDX 78 15 85 16 77 17 79 18 84 19 80 20 83 21 81 22 82 23 7 24
REMARK SMILES IDX 1 25 2 26 3 27 4 28 6 29 5 30 18 31 19 32 20 33 21 34 22 36
REMARK SMILES IDX 23 37 24 38 76 39 25 40 75 41 26 42 27 43 28 44 69 45 29 46
REMARK SMILES IDX 74 47 68 48 70 49 30 50 73 51 67 52 66 53 31 55 57 56 40 57
REMARK SMILES IDX 56 58 41 59 44 60 55 61 71 62 42 63 43 64 54 66 72 67 45 68
REMARK SMILES IDX 32 69 33 70 38 71 34 72 35 73 37 74 39 75 36 76 58 77 59 78
REMARK SMILES IDX 64 79 60 80 61 81 63 82 65 83 62 84 46 85 47 86 52 87 48 88
REMARK SMILES IDX 49 89 51 90 53 91 50 92
REMARK H PARENT 13 8 9 13 9 14 20 35 70 54 44 65
REMARK Flexibility Score: inf
ROOT
ATOM      1  C   UNL     1       4.031   4.676  -4.280  1.00  0.00     0.002 C 
ENDROOT
BRANCH   1   2
ATOM      2  C   UNL     1       3.082   4.141  -3.202  1.00  0.00     0.002 C 
BRANCH   2   3
ATOM      3  C   UNL     1       3.315   4.636  -1.766  1.00  0.00     0.021 C 
BRANCH   3   4
ATOM      4  C   UNL     1       2.953   6.103  -1.432  1.00  0.00     0.116 C 
BRANCH   4   5
ATOM      5  N   UNL     1       1.574   6.491  -1.073  1.00  0.00    -0.351 N 
ATOM      6  C   UNL     1       0.996   6.478   0.223  1.00  0.00     0.278 C 
ATOM      7  O   UNL     1       0.179   7.321   0.572  1.00  0.00    -0.268 OA
ATOM      8  H   UNL     1       0.994   6.790  -1.810  1.00  0.00     0.163 HD
BRANCH   6   9
ATOM      9  C   UNL     1       1.290   5.174   0.970  1.00  0.00     0.277 C 
ATOM     10  C   UNL     1       0.385   2.829   0.631  1.00  0.00     0.243 C 
ATOM     11  N   UNL     1       0.499   4.228   0.195  1.00  0.00    -0.327 N 
ATOM     12  C   UNL     1       1.587   2.370   1.566  1.00  0.00     0.196 C 
ATOM     13  H   UNL     1      -0.450   4.601   0.156  1.00  0.00     0.347 HD
ATOM     14  H   UNL     1       1.015   4.156  -0.682  1.00  0.00     0.347 HD
ATOM     15  C   UNL     1       2.075   3.551   2.448  1.00  0.00    -0.024 C 
ATOM     16  N   UNL     1       2.814   1.964   0.819  1.00  0.00    -0.270 NA
ATOM     17  C   UNL     1       1.210   4.824   2.452  1.00  0.00     0.109 C 
ATOM     18  C   UNL     1       3.415   3.652   2.414  1.00  0.00     0.002 A 
ATOM     19  C   UNL     1       3.759   2.689   1.341  1.00  0.00     0.066 A 
ATOM     20  C   UNL     1       4.271   4.787   2.670  1.00  0.00     0.010 A 
ATOM     21  C   UNL     1       5.146   2.772   0.816  1.00  0.00     0.028 A 
ATOM     22  C   UNL     1       5.441   4.890   2.019  1.00  0.00     0.001 A 
ATOM     23  C   UNL     1       5.901   3.840   1.129  1.00  0.00     0.002 A 
BRANCH  10  24
ATOM     24  C   UNL     1      -0.183   2.058  -0.603  1.00  0.00     0.015 A 
ATOM     25  C   UNL     1      -1.694   0.537   0.791  1.00  0.00     0.045 C 
ATOM     26  C   UNL     1      -1.234   1.126  -0.510  1.00  0.00    -0.042 A 
ATOM     27  C   UNL     1      -2.002   0.813  -1.663  1.00  0.00     0.004 A 
ATOM     28  C   UNL     1      -1.758   1.401  -2.904  1.00  0.00     0.000 A 
ATOM     29  C   UNL     1       0.097   2.531  -1.917  1.00  0.00     0.010 A 
ATOM     30  C   UNL     1      -0.693   2.261  -3.033  1.00  0.00     0.001 A 
ENDBRANCH  10  24
ENDBRANCH   6   9
ENDBRANCH   4   5
ENDBRANCH   3   4
ENDBRANCH   2   3
ENDBRANCH   1   2
BRANCH   1  31
ATOM     31  C   UNL     1       5.524   4.630  -3.955  1.00  0.00     0.021 C 
BRANCH  31  32
ATOM     32  C   UNL     1       6.109   3.228  -3.827  1.00  0.00     0.116 C 
BRANCH  32  33
ATOM     33  N   UNL     1       6.516   2.674  -5.106  1.00  0.00    -0.352 N 
ATOM     34  C   UNL     1       7.219   1.528  -5.433  1.00  0.00     0.251 C 
ATOM     35  H   UNL     1       6.240   3.212  -5.883  1.00  0.00     0.163 HD
ATOM     36  O   UNL     1       7.603   1.391  -6.576  1.00  0.00    -0.269 OA
BRANCH  34  37
ATOM     37  C   UNL     1       7.345   0.396  -4.469  1.00  0.00     0.039 A 
ATOM     38  C   UNL     1       7.397  -0.892  -5.030  1.00  0.00     0.014 A 
ATOM     39  C   UNL     1       7.163   0.535  -3.099  1.00  0.00     0.014 A 
ATOM     40  C   UNL     1       6.985  -1.992  -4.283  1.00  0.00     0.010 A 
ATOM     41  C   UNL     1       6.680  -0.533  -2.375  1.00  0.00     0.010 A 
ATOM     42  C   UNL     1       6.512  -1.771  -2.995  1.00  0.00    -0.014 A 
BRANCH  42  43
ATOM     43  C   UNL     1       5.768  -2.752  -2.225  1.00  0.00     0.031 A 
ATOM     44  C   UNL     1       6.459  -3.557  -1.208  1.00  0.00     0.074 A 
ATOM     45  C   UNL     1       4.426  -2.809  -2.367  1.00  0.00     0.049 A 
ATOM     46  N   UNL     1       5.999  -4.649  -0.705  1.00  0.00    -0.248 NA
ATOM     47  C   UNL     1       7.772  -3.192  -0.696  1.00  0.00     0.031 C 
ATOM     48  C   UNL     1       3.468  -3.499  -1.513  1.00  0.00     0.029 A 
ATOM     49  N   UNL     1       3.674  -2.405  -3.480  1.00  0.00    -0.354 N 
ATOM     50  C   UNL     1       6.797  -4.991   0.362  1.00  0.00     0.074 A 
ATOM     51  C   UNL     1       7.922  -4.087   0.284  1.00  0.00     0.031 C 
ATOM     52  C   UNL     1       2.361  -3.752  -2.230  1.00  0.00     0.029 A 
ATOM     53  C   UNL     1       2.638  -3.362  -3.602  1.00  0.00     0.049 A 
ATOM     54  H   UNL     1       3.833  -1.622  -4.054  1.00  0.00     0.167 HD
ATOM     55  C   UNL     1       6.344  -5.925   1.248  1.00  0.00     0.037 A 
ATOM     56  C   UNL     1       2.608  -4.202  -4.679  1.00  0.00     0.037 A 
ATOM     57  C   UNL     1       5.084  -6.514   0.788  1.00  0.00     0.049 A 
ATOM     58  C   UNL     1       2.808  -5.665  -4.342  1.00  0.00     0.074 A 
ATOM     59  C   UNL     1       3.746  -6.279   1.061  1.00  0.00     0.029 A 
ATOM     60  N   UNL     1       5.105  -7.296  -0.352  1.00  0.00    -0.354 N 
ATOM     61  N   UNL     1       3.059  -6.118  -3.144  1.00  0.00    -0.248 NA
ATOM     62  C   UNL     1       2.818  -6.730  -5.347  1.00  0.00     0.031 C 
ATOM     63  C   UNL     1       2.970  -6.885   0.029  1.00  0.00     0.029 A 
ATOM     64  C   UNL     1       3.837  -7.498  -0.857  1.00  0.00     0.049 A 
ATOM     65  H   UNL     1       5.925  -7.663  -0.754  1.00  0.00     0.167 HD
ATOM     66  C   UNL     1       3.313  -7.460  -3.208  1.00  0.00     0.074 A 
ATOM     67  C   UNL     1       3.138  -7.805  -4.606  1.00  0.00     0.031 C 
ATOM     68  C   UNL     1       3.692  -8.195  -2.124  1.00  0.00     0.037 A 
BRANCH  55  69
ATOM     69  C   UNL     1       6.912  -6.147   2.631  1.00  0.00     0.057 A 
ATOM     70  C   UNL     1       6.103  -6.673   3.659  1.00  0.00     0.134 A 
ATOM     71  C   UNL     1       8.218  -5.825   3.041  1.00  0.00     0.134 A 
ATOM     72  F   UNL     1       4.867  -7.129   3.418  1.00  0.00    -0.206 F 
ATOM     73  C   UNL     1       6.520  -6.759   4.994  1.00  0.00     0.040 A 
ATOM     74  C   UNL     1       8.632  -5.854   4.381  1.00  0.00     0.040 A 
ATOM     75  F   UNL     1       9.183  -5.534   2.163  1.00  0.00    -0.206 F 
ATOM     76  C   UNL     1       7.776  -6.312   5.368  1.00  0.00     0.006 A 
ENDBRANCH  55  69
BRANCH  56  77
ATOM     77  C   UNL     1       3.072  -3.530  -5.924  1.00  0.00     0.057 A 
ATOM     78  C   UNL     1       2.315  -2.452  -6.418  1.00  0.00     0.134 A 
ATOM     79  C   UNL     1       4.394  -3.637  -6.365  1.00  0.00     0.134 A 
ATOM     80  F   UNL     1       1.035  -2.298  -6.042  1.00  0.00    -0.206 F 
ATOM     81  C   UNL     1       2.887  -1.447  -7.202  1.00  0.00     0.040 A 
ATOM     82  C   UNL     1       4.972  -2.644  -7.164  1.00  0.00     0.040 A 
ATOM     83  F   UNL     1       5.181  -4.632  -5.931  1.00  0.00    -0.206 F 
ATOM     84  C   UNL     1       4.233  -1.524  -7.544  1.00  0.00     0.006 A 
ENDBRANCH  56  77
BRANCH  68  85
ATOM     85  C   UNL     1       3.953  -9.666  -2.194  1.00  0.00     0.057 A 
ATOM     86  C   UNL     1       3.011 -10.559  -2.718  1.00  0.00     0.134 A 
ATOM     87  C   UNL     1       5.095 -10.239  -1.606  1.00  0.00     0.134 A 
ATOM     88  F   UNL     1       1.877 -10.111  -3.278  1.00  0.00    -0.206 F 
ATOM     89  C   UNL     1       3.197 -11.944  -2.665  1.00  0.00     0.040 A 
ATOM     90  C   UNL     1       5.270 -11.620  -1.505  1.00  0.00     0.040 A 
ATOM     91  F   UNL     1       6.088  -9.478  -1.121  1.00  0.00    -0.206 F 
ATOM     92  C   UNL     1       4.319 -12.479  -2.040  1.00  0.00     0.006 A 
ENDBRANCH  68  85
ENDBRANCH  42  43
ENDBRANCH  34  37
ENDBRANCH  32  33
ENDBRANCH  31  32
ENDBRANCH   1  31
TORSDOF 14
