REMARK SMILES Cc1ccc(-c2noc(CCC(=O)NCCCCCCNC(=O)c3ccc(-c4c5nc(c(-c6c(F)cccc6F)c6ccc([nH]6)c(-c6c(F)cccc6F)c6nc(c(-c7c(F)cccc7F)c7ccc4[nH]7)C=C6)C=C5)cc3)n2)cc1C
REMARK SMILES IDX 17 1 16 2 15 3 14 4 12 5 13 6 11 8 10 9 9 10 6 11 7 12 78 13
REMARK SMILES IDX 8 14 5 15 1 16 2 17 3 18 80 19 4 20 79 21 81 22 18 23 19 24
REMARK SMILES IDX 20 25 21 26 22 27 23 29 24 30 25 31 77 32 26 33 76 34 27 35
REMARK SMILES IDX 28 36 29 37 70 38 30 39 75 40 69 41 71 42 31 43 74 44 68 45
REMARK SMILES IDX 67 46 32 48 58 49 41 50 57 51 42 52 45 53 56 54 72 55 43 56
REMARK SMILES IDX 44 57 55 59 73 60 46 61 33 62 34 63 39 64 35 65 36 66 38 67
REMARK SMILES IDX 40 68 37 69 59 70 60 71 65 72 61 73 62 74 64 75 66 76 63 77
REMARK SMILES IDX 47 78 48 79 53 80 49 81 50 82 52 83 54 84 51 85
REMARK H PARENT 14 7 21 28 71 47 45 58
REMARK Flexibility Score: inf
ROOT
ATOM      1  C   UNL     1      -3.777  -4.471   2.748  1.00  0.00     0.002 C 
ENDROOT
BRANCH   1   2
ATOM      2  C   UNL     1      -4.073  -3.679   1.471  1.00  0.00     0.021 C 
BRANCH   2   3
ATOM      3  C   UNL     1      -4.181  -4.550   0.220  1.00  0.00     0.116 C 
BRANCH   3   4
ATOM      4  N   UNL     1      -5.559  -4.934  -0.013  1.00  0.00    -0.356 N 
ATOM      5  C   UNL     1      -6.395  -4.581  -1.024  1.00  0.00     0.220 C 
ATOM      6  O   UNL     1      -7.573  -4.936  -0.969  1.00  0.00    -0.275 OA
ATOM      7  H   UNL     1      -5.946  -5.539   0.660  1.00  0.00     0.163 HD
BRANCH   5   8
ATOM      8  C   UNL     1      -5.891  -3.757  -2.187  1.00  0.00     0.110 C 
BRANCH   8   9
ATOM      9  C   UNL     1      -6.189  -2.278  -1.993  1.00  0.00     0.110 C 
BRANCH   9  10
ATOM     10  C   UNL     1      -5.136  -1.550  -1.240  1.00  0.00     0.227 A 
ATOM     11  C   UNL     1      -3.441  -0.541  -0.517  1.00  0.00     0.202 A 
ATOM     12  N   UNL     1      -4.443  -0.070   0.244  1.00  0.00    -0.057 NA
ATOM     13  N   UNL     1      -3.835  -1.497  -1.431  1.00  0.00    -0.191 NA
ATOM     14  O   UNL     1      -5.566  -0.737  -0.234  1.00  0.00    -0.339 OA
BRANCH  11  15
ATOM     15  C   UNL     1      -2.068  -0.073  -0.393  1.00  0.00     0.023 A 
ATOM     16  C   UNL     1       1.974   1.420   0.062  1.00  0.00     0.044 C 
ATOM     17  C   UNL     1       0.584   0.865  -0.100  1.00  0.00    -0.048 A 
ATOM     18  C   UNL     1      -0.502   1.753  -0.068  1.00  0.00     0.004 A 
ATOM     19  C   UNL     1       0.340  -0.511  -0.287  1.00  0.00    -0.047 A 
ATOM     20  C   UNL     1      -1.812   1.289  -0.204  1.00  0.00     0.012 A 
ATOM     21  C   UNL     1      -0.988  -0.964  -0.441  1.00  0.00     0.015 A 
ATOM     22  C   UNL     1       1.446  -1.533  -0.264  1.00  0.00     0.044 C 
ENDBRANCH  11  15
ENDBRANCH   9  10
ENDBRANCH   8   9
ENDBRANCH   5   8
ENDBRANCH   3   4
ENDBRANCH   2   3
ENDBRANCH   1   2
BRANCH   1  23
ATOM     23  C   UNL     1      -2.409  -5.166   2.777  1.00  0.00     0.002 C 
BRANCH  23  24
ATOM     24  C   UNL     1      -1.209  -4.281   2.422  1.00  0.00     0.021 C 
BRANCH  24  25
ATOM     25  C   UNL     1      -1.072  -3.012   3.259  1.00  0.00     0.116 C 
BRANCH  25  26
ATOM     26  N   UNL     1      -0.849  -3.309   4.664  1.00  0.00    -0.352 N 
ATOM     27  C   UNL     1       0.195  -2.951   5.478  1.00  0.00     0.251 C 
ATOM     28  H   UNL     1      -1.551  -3.847   5.096  1.00  0.00     0.163 HD
ATOM     29  O   UNL     1       0.307  -3.457   6.592  1.00  0.00    -0.269 OA
BRANCH  27  30
ATOM     30  C   UNL     1       1.198  -1.968   5.018  1.00  0.00     0.039 A 
ATOM     31  C   UNL     1       2.551  -2.225   5.259  1.00  0.00     0.014 A 
ATOM     32  C   UNL     1       0.809  -0.778   4.395  1.00  0.00     0.014 A 
ATOM     33  C   UNL     1       3.518  -1.312   4.836  1.00  0.00     0.010 A 
ATOM     34  C   UNL     1       1.776   0.106   3.925  1.00  0.00     0.010 A 
ATOM     35  C   UNL     1       3.138  -0.148   4.150  1.00  0.00    -0.014 A 
BRANCH  35  36
ATOM     36  C   UNL     1       4.147   0.833   3.684  1.00  0.00     0.031 A 
ATOM     37  C   UNL     1       4.212   2.197   4.310  1.00  0.00     0.074 A 
ATOM     38  C   UNL     1       4.958   0.524   2.656  1.00  0.00     0.049 A 
ATOM     39  N   UNL     1       4.958   3.222   3.987  1.00  0.00    -0.248 NA
ATOM     40  C   UNL     1       3.300   2.446   5.437  1.00  0.00     0.031 C 
ATOM     41  C   UNL     1       4.978  -0.756   1.948  1.00  0.00     0.029 A 
ATOM     42  N   UNL     1       5.915   1.274   2.020  1.00  0.00    -0.354 N 
ATOM     43  C   UNL     1       4.593   4.242   4.856  1.00  0.00     0.074 A 
ATOM     44  C   UNL     1       3.531   3.724   5.693  1.00  0.00     0.031 C 
ATOM     45  C   UNL     1       5.916  -0.710   0.987  1.00  0.00     0.029 A 
ATOM     46  C   UNL     1       6.538   0.611   0.992  1.00  0.00     0.049 A 
ATOM     47  H   UNL     1       6.133   2.199   2.276  1.00  0.00     0.167 HD
ATOM     48  C   UNL     1       5.107   5.490   4.960  1.00  0.00     0.037 A 
ATOM     49  C   UNL     1       7.503   1.024   0.149  1.00  0.00     0.037 A 
ATOM     50  C   UNL     1       6.183   5.996   4.149  1.00  0.00     0.049 A 
ATOM     51  C   UNL     1       8.047   2.418   0.272  1.00  0.00     0.074 A 
ATOM     52  C   UNL     1       6.812   7.226   4.218  1.00  0.00     0.029 A 
ATOM     53  N   UNL     1       6.789   5.293   3.119  1.00  0.00    -0.354 N 
ATOM     54  N   UNL     1       7.723   3.358   1.125  1.00  0.00    -0.248 NA
ATOM     55  C   UNL     1       9.091   2.808  -0.687  1.00  0.00     0.031 C 
ATOM     56  C   UNL     1       7.780   7.279   3.208  1.00  0.00     0.029 A 
ATOM     57  C   UNL     1       7.774   6.070   2.532  1.00  0.00     0.049 A 
ATOM     58  H   UNL     1       6.554   4.377   2.846  1.00  0.00     0.167 HD
ATOM     59  C   UNL     1       8.543   4.440   0.828  1.00  0.00     0.074 A 
ATOM     60  C   UNL     1       9.378   4.039  -0.286  1.00  0.00     0.031 C 
ATOM     61  C   UNL     1       8.601   5.653   1.429  1.00  0.00     0.037 A 
BRANCH  48  62
ATOM     62  C   UNL     1       4.500   6.393   5.991  1.00  0.00     0.057 A 
ATOM     63  C   UNL     1       4.720   6.201   7.361  1.00  0.00     0.134 A 
ATOM     64  C   UNL     1       3.684   7.466   5.610  1.00  0.00     0.134 A 
ATOM     65  F   UNL     1       5.479   5.182   7.791  1.00  0.00    -0.206 F 
ATOM     66  C   UNL     1       4.124   7.025   8.318  1.00  0.00     0.040 A 
ATOM     67  C   UNL     1       3.102   8.311   6.557  1.00  0.00     0.040 A 
ATOM     68  F   UNL     1       3.437   7.707   4.314  1.00  0.00    -0.206 F 
ATOM     69  C   UNL     1       3.315   8.085   7.915  1.00  0.00     0.006 A 
ENDBRANCH  48  62
BRANCH  49  70
ATOM     70  C   UNL     1       8.044   0.086  -0.862  1.00  0.00     0.057 A 
ATOM     71  C   UNL     1       9.310  -0.487  -0.698  1.00  0.00     0.134 A 
ATOM     72  C   UNL     1       7.310  -0.274  -1.998  1.00  0.00     0.134 A 
ATOM     73  F   UNL     1      10.063  -0.165   0.363  1.00  0.00    -0.206 F 
ATOM     74  C   UNL     1       9.832  -1.381  -1.633  1.00  0.00     0.040 A 
ATOM     75  C   UNL     1       7.814  -1.180  -2.933  1.00  0.00     0.040 A 
ATOM     76  F   UNL     1       6.088   0.237  -2.205  1.00  0.00    -0.206 F 
ATOM     77  C   UNL     1       9.080  -1.734  -2.752  1.00  0.00     0.006 A 
ENDBRANCH  49  70
BRANCH  61  78
ATOM     78  C   UNL     1       9.625   6.620   0.919  1.00  0.00     0.057 A 
ATOM     79  C   UNL     1       9.444   7.322  -0.278  1.00  0.00     0.134 A 
ATOM     80  C   UNL     1      10.787   6.881   1.656  1.00  0.00     0.134 A 
ATOM     81  F   UNL     1       8.358   7.105  -1.036  1.00  0.00    -0.206 F 
ATOM     82  C   UNL     1      10.391   8.242  -0.733  1.00  0.00     0.040 A 
ATOM     83  C   UNL     1      11.732   7.811   1.222  1.00  0.00     0.040 A 
ATOM     84  F   UNL     1      11.016   6.244   2.814  1.00  0.00    -0.206 F 
ATOM     85  C   UNL     1      11.536   8.493   0.022  1.00  0.00     0.006 A 
ENDBRANCH  61  78
ENDBRANCH  35  36
ENDBRANCH  27  30
ENDBRANCH  25  26
ENDBRANCH  24  25
ENDBRANCH  23  24
ENDBRANCH   1  23
TORSDOF 16
