REMARK SMILES O=C(NCCCCCCNC(=O)c1ccc(N2C(=O)[C@@H]3N=NC(c4ccccc4)=C3[C@H]2c2cccc(Br)c2)cc1)c1ccc(-c2c3nc(c(-c4c(F)cccc4F)c4ccc([nH]4)c(-c4c(F)cccc4F)c4nc(c(-c5c(F)cccc5F)c5ccc2[nH]5)C=C4)C=C3)cc1
REMARK SMILES IDX 6 1 5 2 4 3 3 4 1 5 2 6 41 8 42 9 94 10 43 11 93 12 44 13
REMARK SMILES IDX 45 14 46 15 87 16 47 17 92 18 86 19 88 20 48 21 91 22 85 23
REMARK SMILES IDX 84 24 49 26 75 27 58 28 74 29 59 30 62 31 73 32 89 33 60 34
REMARK SMILES IDX 61 35 72 37 90 38 63 39 50 40 51 41 56 42 52 43 53 44 55 45
REMARK SMILES IDX 57 46 54 47 76 48 77 49 82 50 78 51 79 52 81 53 83 54 80 55
REMARK SMILES IDX 64 56 65 57 70 58 66 59 67 60 69 61 71 62 68 63 7 64 8 65
REMARK SMILES IDX 9 66 10 67 11 68 12 70 13 71 14 72 40 73 15 74 39 75 16 76
REMARK SMILES IDX 17 77 18 78 31 79 20 80 19 81 30 82 21 83 23 84 22 85 32 86
REMARK SMILES IDX 33 87 38 88 34 89 36 90 35 91 37 92 24 93 25 94 29 95 26 96
REMARK SMILES IDX 28 97 27 98
REMARK H PARENT 3 7 88 25 62 36 10 69
REMARK Flexibility Score: inf
ROOT
ATOM      1  C   UNL     1       4.341   1.174   3.279  1.00  0.00     0.002 C 
ENDROOT
BRANCH   1   2
ATOM      2  C   UNL     1       4.823   1.339   1.832  1.00  0.00     0.021 C 
BRANCH   2   3
ATOM      3  C   UNL     1       4.579   0.139   0.915  1.00  0.00     0.116 C 
BRANCH   3   4
ATOM      4  N   UNL     1       3.186  -0.236   0.781  1.00  0.00    -0.352 N 
ATOM      5  O   UNL     1       1.117  -0.532   0.082  1.00  0.00    -0.269 OA
ATOM      6  C   UNL     1       2.143   0.148  -0.015  1.00  0.00     0.251 C 
ATOM      7  H   UNL     1       2.928  -0.940   1.419  1.00  0.00     0.163 HD
BRANCH   6   8
ATOM      8  C   UNL     1       2.126   1.322  -0.936  1.00  0.00     0.039 A 
ATOM      9  C   UNL     1       3.220   2.117  -1.274  1.00  0.00     0.014 A 
ATOM     10  C   UNL     1       0.872   1.647  -1.497  1.00  0.00     0.014 A 
ATOM     11  C   UNL     1       3.055   3.227  -2.109  1.00  0.00     0.010 A 
ATOM     12  C   UNL     1       0.702   2.751  -2.332  1.00  0.00     0.010 A 
ATOM     13  C   UNL     1       1.795   3.556  -2.626  1.00  0.00    -0.014 A 
BRANCH  13  14
ATOM     14  C   UNL     1       1.713   4.653  -3.592  1.00  0.00     0.031 A 
ATOM     15  C   UNL     1       2.443   4.421  -4.872  1.00  0.00     0.074 A 
ATOM     16  C   UNL     1       0.955   5.762  -3.471  1.00  0.00     0.049 A 
ATOM     17  N   UNL     1       3.468   5.063  -5.331  1.00  0.00    -0.248 NA
ATOM     18  C   UNL     1       2.020   3.289  -5.709  1.00  0.00     0.031 C 
ATOM     19  C   UNL     1      -0.079   6.054  -2.479  1.00  0.00     0.029 A 
ATOM     20  N   UNL     1       0.910   6.852  -4.296  1.00  0.00    -0.354 N 
ATOM     21  C   UNL     1       3.726   4.531  -6.593  1.00  0.00     0.074 A 
ATOM     22  C   UNL     1       2.882   3.371  -6.724  1.00  0.00     0.031 C 
ATOM     23  C   UNL     1      -0.777   7.146  -2.872  1.00  0.00     0.029 A 
ATOM     24  C   UNL     1      -0.159   7.707  -4.063  1.00  0.00     0.049 A 
ATOM     25  H   UNL     1       1.581   7.018  -4.997  1.00  0.00     0.167 HD
ATOM     26  C   UNL     1       4.484   5.194  -7.510  1.00  0.00     0.037 A 
ATOM     27  C   UNL     1      -0.531   8.772  -4.818  1.00  0.00     0.037 A 
ATOM     28  C   UNL     1       5.273   6.231  -6.899  1.00  0.00     0.049 A 
ATOM     29  C   UNL     1       0.625   9.178  -5.650  1.00  0.00     0.074 A 
ATOM     30  C   UNL     1       6.233   6.274  -5.905  1.00  0.00     0.029 A 
ATOM     31  N   UNL     1       4.890   7.535  -7.090  1.00  0.00    -0.354 N 
ATOM     32  N   UNL     1       1.690   9.771  -5.194  1.00  0.00    -0.248 NA
ATOM     33  C   UNL     1       0.759   8.584  -6.971  1.00  0.00     0.031 C 
ATOM     34  C   UNL     1       5.997   7.500  -5.217  1.00  0.00     0.029 A 
ATOM     35  C   UNL     1       4.942   8.143  -5.864  1.00  0.00     0.049 A 
ATOM     36  H   UNL     1       4.628   7.952  -7.942  1.00  0.00     0.167 HD
ATOM     37  C   UNL     1       2.728   9.245  -5.943  1.00  0.00     0.074 A 
ATOM     38  C   UNL     1       2.087   8.616  -7.094  1.00  0.00     0.031 C 
ATOM     39  C   UNL     1       3.983   9.124  -5.420  1.00  0.00     0.037 A 
BRANCH  26  40
ATOM     40  C   UNL     1       4.266   5.142  -9.004  1.00  0.00     0.057 A 
ATOM     41  C   UNL     1       5.207   5.746  -9.861  1.00  0.00     0.134 A 
ATOM     42  C   UNL     1       3.039   4.803  -9.607  1.00  0.00     0.134 A 
ATOM     43  F   UNL     1       6.410   6.127  -9.405  1.00  0.00    -0.206 F 
ATOM     44  C   UNL     1       4.914   6.067 -11.192  1.00  0.00     0.040 A 
ATOM     45  C   UNL     1       2.757   5.071 -10.950  1.00  0.00     0.040 A 
ATOM     46  F   UNL     1       2.017   4.293  -8.910  1.00  0.00    -0.206 F 
ATOM     47  C   UNL     1       3.681   5.737 -11.738  1.00  0.00     0.006 A 
ENDBRANCH  26  40
BRANCH  27  48
ATOM     48  C   UNL     1      -1.875   9.347  -5.050  1.00  0.00     0.057 A 
ATOM     49  C   UNL     1      -2.035  10.637  -5.580  1.00  0.00     0.134 A 
ATOM     50  C   UNL     1      -3.024   8.540  -5.037  1.00  0.00     0.134 A 
ATOM     51  F   UNL     1      -0.990  11.473  -5.670  1.00  0.00    -0.206 F 
ATOM     52  C   UNL     1      -3.256  11.085  -6.099  1.00  0.00     0.040 A 
ATOM     53  C   UNL     1      -4.252   8.977  -5.544  1.00  0.00     0.040 A 
ATOM     54  F   UNL     1      -2.969   7.267  -4.617  1.00  0.00    -0.206 F 
ATOM     55  C   UNL     1      -4.367  10.248  -6.094  1.00  0.00     0.006 A 
ENDBRANCH  27  48
BRANCH  39  56
ATOM     56  C   UNL     1       4.293   9.859  -4.147  1.00  0.00     0.057 A 
ATOM     57  C   UNL     1       3.615   9.665  -2.933  1.00  0.00     0.134 A 
ATOM     58  C   UNL     1       5.403  10.712  -4.122  1.00  0.00     0.134 A 
ATOM     59  F   UNL     1       2.610   8.785  -2.828  1.00  0.00    -0.206 F 
ATOM     60  C   UNL     1       3.991  10.338  -1.766  1.00  0.00     0.040 A 
ATOM     61  C   UNL     1       5.812  11.358  -2.954  1.00  0.00     0.040 A 
ATOM     62  F   UNL     1       6.135  10.903  -5.231  1.00  0.00    -0.206 F 
ATOM     63  C   UNL     1       5.096  11.184  -1.774  1.00  0.00     0.006 A 
ENDBRANCH  39  56
ENDBRANCH  13  14
ENDBRANCH   6   8
ENDBRANCH   3   4
ENDBRANCH   2   3
ENDBRANCH   1   2
BRANCH   1  64
ATOM     64  C   UNL     1       4.905  -0.018   4.059  1.00  0.00     0.002 C 
BRANCH  64  65
ATOM     65  C   UNL     1       6.434  -0.131   4.122  1.00  0.00     0.021 C 
BRANCH  65  66
ATOM     66  C   UNL     1       7.174   1.054   4.748  1.00  0.00     0.116 C 
BRANCH  66  67
ATOM     67  N   UNL     1       6.930   1.179   6.174  1.00  0.00    -0.352 N 
ATOM     68  C   UNL     1       7.826   1.307   7.206  1.00  0.00     0.251 C 
ATOM     69  H   UNL     1       5.982   1.171   6.439  1.00  0.00     0.163 HD
ATOM     70  O   UNL     1       7.431   1.267   8.368  1.00  0.00    -0.269 OA
BRANCH  68  71
ATOM     71  C   UNL     1       9.279   1.445   6.944  1.00  0.00     0.039 A 
ATOM     72  C   UNL     1      10.134   0.536   7.563  1.00  0.00     0.016 A 
ATOM     73  C   UNL     1       9.813   2.467   6.145  1.00  0.00     0.016 A 
ATOM     74  C   UNL     1      11.507   0.601   7.318  1.00  0.00     0.027 A 
ATOM     75  C   UNL     1      11.203   2.541   5.913  1.00  0.00     0.027 A 
ATOM     76  C   UNL     1      12.055   1.588   6.474  1.00  0.00     0.045 A 
BRANCH  76  77
ATOM     77  N   UNL     1      13.444   1.524   6.128  1.00  0.00    -0.299 N 
ATOM     78  C   UNL     1      13.941   0.205   5.853  1.00  0.00     0.259 C 
ATOM     79  C   UNL     1      14.444   2.302   6.902  1.00  0.00     0.152 C 
ATOM     80  C   UNL     1      15.262   0.049   6.546  1.00  0.00     0.248 C 
ATOM     81  O   UNL     1      13.362  -0.670   5.220  1.00  0.00    -0.271 OA
ATOM     82  C   UNL     1      15.110   1.142   7.531  1.00  0.00     0.021 C 
ATOM     83  N   UNL     1      15.404  -1.125   7.419  1.00  0.00    -0.170 NA
ATOM     84  C   UNL     1      15.400   0.627   8.721  1.00  0.00     0.097 C 
ATOM     85  N   UNL     1      15.614  -0.734   8.609  1.00  0.00    -0.154 NA
BRANCH  79  86
ATOM     86  C   UNL     1      15.455   3.095   6.044  1.00  0.00    -0.020 A 
ATOM     87  C   UNL     1      16.854   2.904   6.192  1.00  0.00     0.006 A 
ATOM     88  C   UNL     1      15.044   4.073   5.125  1.00  0.00     0.022 A 
ATOM     89  C   UNL     1      17.792   3.603   5.431  1.00  0.00     0.002 A 
ATOM     90  C   UNL     1      15.995   4.798   4.385  1.00  0.00     0.018 A 
ATOM     91  C   UNL     1      17.362   4.558   4.524  1.00  0.00     0.016 A 
ATOM     92  Br  UNL     1      15.431   6.147   3.183  1.00  0.00    -0.051 Br
ENDBRANCH  79  86
BRANCH  84  93
ATOM     93  C   UNL     1      15.347   1.236  10.047  1.00  0.00     0.002 A 
ATOM     94  C   UNL     1      16.419   2.010  10.514  1.00  0.00     0.010 A 
ATOM     95  C   UNL     1      14.327   0.875  10.936  1.00  0.00     0.010 A 
ATOM     96  C   UNL     1      16.505   2.346  11.868  1.00  0.00     0.001 A 
ATOM     97  C   UNL     1      14.413   1.217  12.287  1.00  0.00     0.001 A 
ATOM     98  C   UNL     1      15.514   1.931  12.757  1.00  0.00     0.000 A 
ENDBRANCH  84  93
ENDBRANCH  76  77
ENDBRANCH  68  71
ENDBRANCH  66  67
ENDBRANCH  65  66
ENDBRANCH  64  65
ENDBRANCH   1  64
TORSDOF 16
