REMARK SMILES O=C(NCCCCCCNC(=O)c1cc(S(=O)(=O)Nc2cccc(Cl)c2)ccc1O)c1ccc(-c2c3nc(c(-c4c(F)cccc4F)c4ccc([nH]4)c(-c4c(F)cccc4F)c4nc(c(-c5c(F)cccc5F)c5ccc2[nH]5)C=C4)C=C3)cc1
REMARK SMILES IDX 7 1 6 2 5 3 4 4 3 5 1 6 2 7 31 9 32 10 84 11 33 12 83 13
REMARK SMILES IDX 34 14 35 15 36 16 77 17 37 18 82 19 76 20 78 21 38 22 81 23
REMARK SMILES IDX 75 24 74 25 39 27 65 28 48 29 64 30 49 31 52 32 63 33 79 34
REMARK SMILES IDX 50 35 51 36 62 38 80 39 53 40 40 41 41 42 46 43 42 44 43 45
REMARK SMILES IDX 45 46 47 47 44 48 66 49 67 50 72 51 68 52 69 53 71 54 73 55
REMARK SMILES IDX 70 56 54 57 55 58 60 59 56 60 57 61 59 62 61 63 58 64 8 65
REMARK SMILES IDX 9 66 10 67 11 68 12 70 13 71 14 72 29 73 15 74 28 75 27 76
REMARK SMILES IDX 30 77 16 79 17 80 18 81 19 82 20 84 21 85 26 86 22 87 24 88
REMARK SMILES IDX 23 89 25 90
REMARK H PARENT 3 8 78 26 52 37 10 69 30 78 19 83
REMARK Flexibility Score: inf
ROOT
ATOM      1  C   UNL     1       4.697  -3.547  -2.600  1.00  0.00     0.002 C 
ENDROOT
BRANCH   1   2
ATOM      2  C   UNL     1       4.212  -3.731  -1.159  1.00  0.00     0.002 C 
BRANCH   2   3
ATOM      3  C   UNL     1       4.719  -2.700  -0.151  1.00  0.00     0.021 C 
BRANCH   3   4
ATOM      4  C   UNL     1       4.471  -1.245  -0.530  1.00  0.00     0.116 C 
BRANCH   4   5
ATOM      5  N   UNL     1       3.057  -0.916  -0.634  1.00  0.00    -0.352 N 
ATOM      6  O   UNL     1       1.117   0.115  -0.109  1.00  0.00    -0.269 OA
ATOM      7  C   UNL     1       2.339   0.071  -0.002  1.00  0.00     0.251 C 
ATOM      8  H   UNL     1       2.538  -1.485  -1.248  1.00  0.00     0.163 HD
BRANCH   7   9
ATOM      9  C   UNL     1       3.041   1.063   0.842  1.00  0.00     0.039 A 
ATOM     10  C   UNL     1       4.227   1.655   0.407  1.00  0.00     0.014 A 
ATOM     11  C   UNL     1       2.516   1.385   2.097  1.00  0.00     0.014 A 
ATOM     12  C   UNL     1       4.980   2.416   1.292  1.00  0.00     0.010 A 
ATOM     13  C   UNL     1       3.227   2.236   2.948  1.00  0.00     0.010 A 
ATOM     14  C   UNL     1       4.491   2.719   2.573  1.00  0.00    -0.014 A 
BRANCH  14  15
ATOM     15  C   UNL     1       5.314   3.557   3.485  1.00  0.00     0.031 A 
ATOM     16  C   UNL     1       5.830   3.014   4.791  1.00  0.00     0.074 A 
ATOM     17  C   UNL     1       5.637   4.808   3.103  1.00  0.00     0.049 A 
ATOM     18  N   UNL     1       6.602   3.593   5.677  1.00  0.00    -0.248 NA
ATOM     19  C   UNL     1       5.422   1.649   5.158  1.00  0.00     0.031 C 
ATOM     20  C   UNL     1       5.191   5.452   1.865  1.00  0.00     0.029 A 
ATOM     21  N   UNL     1       6.432   5.752   3.699  1.00  0.00    -0.354 N 
ATOM     22  C   UNL     1       6.751   2.678   6.713  1.00  0.00     0.074 A 
ATOM     23  C   UNL     1       5.967   1.514   6.359  1.00  0.00     0.031 C 
ATOM     24  C   UNL     1       5.763   6.659   1.766  1.00  0.00     0.029 A 
ATOM     25  C   UNL     1       6.562   6.904   2.961  1.00  0.00     0.049 A 
ATOM     26  H   UNL     1       6.867   5.619   4.572  1.00  0.00     0.167 HD
ATOM     27  C   UNL     1       7.480   2.795   7.850  1.00  0.00     0.037 A 
ATOM     28  C   UNL     1       7.240   8.036   3.219  1.00  0.00     0.037 A 
ATOM     29  C   UNL     1       8.273   3.950   8.190  1.00  0.00     0.049 A 
ATOM     30  C   UNL     1       8.022   8.145   4.496  1.00  0.00     0.074 A 
ATOM     31  C   UNL     1       9.079   4.146   9.299  1.00  0.00     0.029 A 
ATOM     32  N   UNL     1       8.353   5.108   7.431  1.00  0.00    -0.354 N 
ATOM     33  N   UNL     1       8.189   7.253   5.442  1.00  0.00    -0.248 NA
ATOM     34  C   UNL     1       8.712   9.418   4.738  1.00  0.00     0.031 C 
ATOM     35  C   UNL     1       9.603   5.441   9.237  1.00  0.00     0.029 A 
ATOM     36  C   UNL     1       9.176   6.030   8.059  1.00  0.00     0.049 A 
ATOM     37  H   UNL     1       7.893   5.253   6.573  1.00  0.00     0.167 HD
ATOM     38  C   UNL     1       9.028   7.845   6.376  1.00  0.00     0.074 A 
ATOM     39  C   UNL     1       9.347   9.165   5.873  1.00  0.00     0.031 C 
ATOM     40  C   UNL     1       9.495   7.338   7.544  1.00  0.00     0.037 A 
BRANCH  27  41
ATOM     41  C   UNL     1       7.437   1.652   8.827  1.00  0.00     0.057 A 
ATOM     42  C   UNL     1       8.044   0.418   8.560  1.00  0.00     0.134 A 
ATOM     43  C   UNL     1       6.813   1.806  10.072  1.00  0.00     0.134 A 
ATOM     44  F   UNL     1       8.652   0.198   7.384  1.00  0.00    -0.206 F 
ATOM     45  C   UNL     1       8.009  -0.629   9.484  1.00  0.00     0.040 A 
ATOM     46  C   UNL     1       6.796   0.776  11.015  1.00  0.00     0.040 A 
ATOM     47  F   UNL     1       6.220   2.963  10.399  1.00  0.00    -0.206 F 
ATOM     48  C   UNL     1       7.389  -0.449  10.719  1.00  0.00     0.006 A 
ENDBRANCH  27  41
BRANCH  28  49
ATOM     49  C   UNL     1       7.214   9.155   2.243  1.00  0.00     0.057 A 
ATOM     50  C   UNL     1       8.363   9.523   1.534  1.00  0.00     0.134 A 
ATOM     51  C   UNL     1       6.044   9.883   1.998  1.00  0.00     0.134 A 
ATOM     52  F   UNL     1       9.519   8.873   1.737  1.00  0.00    -0.206 F 
ATOM     53  C   UNL     1       8.355  10.588   0.632  1.00  0.00     0.040 A 
ATOM     54  C   UNL     1       6.013  10.930   1.076  1.00  0.00     0.040 A 
ATOM     55  F   UNL     1       4.906   9.573   2.638  1.00  0.00    -0.206 F 
ATOM     56  C   UNL     1       7.175  11.290   0.397  1.00  0.00     0.006 A 
ENDBRANCH  28  49
BRANCH  40  57
ATOM     57  C   UNL     1      10.445   8.196   8.329  1.00  0.00     0.057 A 
ATOM     58  C   UNL     1      10.031   9.362   8.986  1.00  0.00     0.134 A 
ATOM     59  C   UNL     1      11.796   7.840   8.436  1.00  0.00     0.134 A 
ATOM     60  F   UNL     1       8.754   9.768   8.911  1.00  0.00    -0.206 F 
ATOM     61  C   UNL     1      10.933  10.160   9.692  1.00  0.00     0.040 A 
ATOM     62  C   UNL     1      12.700   8.613   9.165  1.00  0.00     0.040 A 
ATOM     63  F   UNL     1      12.258   6.731   7.839  1.00  0.00    -0.206 F 
ATOM     64  C   UNL     1      12.271   9.783   9.788  1.00  0.00     0.006 A 
ENDBRANCH  40  57
ENDBRANCH  14  15
ENDBRANCH   7   9
ENDBRANCH   4   5
ENDBRANCH   3   4
ENDBRANCH   2   3
ENDBRANCH   1   2
BRANCH   1  65
ATOM     65  C   UNL     1       6.212  -3.455  -2.783  1.00  0.00     0.021 C 
BRANCH  65  66
ATOM     66  C   UNL     1       7.006  -4.628  -2.223  1.00  0.00     0.116 C 
BRANCH  66  67
ATOM     67  N   UNL     1       6.740  -5.890  -2.897  1.00  0.00    -0.352 N 
ATOM     68  C   UNL     1       7.644  -6.867  -3.262  1.00  0.00     0.255 C 
ATOM     69  H   UNL     1       5.798  -6.070  -3.120  1.00  0.00     0.163 HD
ATOM     70  O   UNL     1       7.275  -7.874  -3.856  1.00  0.00    -0.269 OA
BRANCH  68  71
ATOM     71  C   UNL     1       9.087  -6.630  -3.031  1.00  0.00     0.082 A 
ATOM     72  C   UNL     1       9.938  -6.642  -4.143  1.00  0.00     0.040 A 
ATOM     73  C   UNL     1       9.585  -6.271  -1.776  1.00  0.00     0.128 A 
ATOM     74  C   UNL     1      11.231  -6.116  -4.027  1.00  0.00     0.088 A 
ATOM     75  C   UNL     1      10.829  -5.665  -1.681  1.00  0.00     0.048 A 
ATOM     76  C   UNL     1      11.605  -5.507  -2.830  1.00  0.00     0.026 A 
BRANCH  73  77
ATOM     77  O   UNL     1       8.830  -6.440  -0.651  1.00  0.00    -0.507 OA
ATOM     78  H   UNL     1       7.988  -6.848  -0.708  1.00  0.00     0.293 HD
ENDBRANCH  73  77
BRANCH  74  79
ATOM     79  S   UNL     1      12.294  -6.187  -5.452  1.00  0.00     0.261 S 
ATOM     80  O   UNL     1      11.914  -7.362  -6.205  1.00  0.00    -0.201 OA
ATOM     81  O   UNL     1      12.240  -4.872  -6.061  1.00  0.00    -0.201 OA
BRANCH  79  82
ATOM     82  N   UNL     1      13.934  -6.431  -5.054  1.00  0.00    -0.280 N 
ATOM     83  H   UNL     1      14.557  -6.720  -5.759  1.00  0.00     0.180 HD
BRANCH  82  84
ATOM     84  C   UNL     1      14.434  -6.229  -3.733  1.00  0.00     0.050 A 
ATOM     85  C   UNL     1      14.198  -7.200  -2.757  1.00  0.00     0.027 A 
ATOM     86  C   UNL     1      15.084  -5.037  -3.401  1.00  0.00     0.047 A 
ATOM     87  C   UNL     1      14.559  -6.956  -1.430  1.00  0.00     0.004 A 
ATOM     88  C   UNL     1      15.453  -4.808  -2.074  1.00  0.00     0.043 A 
ATOM     89  C   UNL     1      15.179  -5.754  -1.086  1.00  0.00     0.020 A 
ATOM     90  Cl  UNL     1      16.212  -3.325  -1.644  1.00  0.00    -0.084 Cl
ENDBRANCH  82  84
ENDBRANCH  79  82
ENDBRANCH  74  79
ENDBRANCH  68  71
ENDBRANCH  66  67
ENDBRANCH  65  66
ENDBRANCH   1  65
TORSDOF 17
