REMARK SMILES O=C(COc1ccc(/C=C2\C(=O)N(c3ccc(Cl)cc3Cl)C(=O)N=C2O)cc1Cl)NCCCCCCNC(=O)c1ccc(-c2c3nc(c(-c4c(F)cccc4F)c4ccc([nH]4)c(-c4c(F)cccc4F)c4nc(c(-c5c(F)cccc5F)c5ccc2[nH]5)C=C4)C=C3)cc1
REMARK SMILES IDX 32 1 31 2 30 3 1 4 2 5 3 7 4 8 5 9 6 10 28 11 7 12 27 13
REMARK SMILES IDX 29 14 8 15 9 16 10 17 11 18 25 19 12 20 13 21 24 22 22 23
REMARK SMILES IDX 23 24 26 25 14 27 15 28 20 29 16 30 19 31 21 32 17 33 18 34
REMARK SMILES IDX 33 35 34 36 35 37 36 38 37 39 38 40 39 42 40 43 41 44 93 45
REMARK SMILES IDX 42 46 92 47 43 48 44 49 45 50 86 51 46 52 91 53 85 54 87 55
REMARK SMILES IDX 47 56 90 57 84 58 83 59 48 61 74 62 57 63 73 64 58 65 61 66
REMARK SMILES IDX 72 67 88 68 59 69 60 70 71 72 89 73 62 74 49 75 50 76 55 77
REMARK SMILES IDX 51 78 52 79 54 80 56 81 53 82 75 83 76 84 81 85 77 86 78 87
REMARK SMILES IDX 80 88 82 89 79 90 63 91 64 92 69 93 65 94 66 95 68 96 70 97
REMARK SMILES IDX 67 98
REMARK H PARENT 30 6 26 26 37 41 87 60 61 71
REMARK Flexibility Score: inf
ROOT
ATOM      1  C   UNL     1       2.915  -1.442   3.565  1.00  0.00     0.021 C 
ENDROOT
BRANCH   1   2
ATOM      2  C   UNL     1       2.110  -0.496   2.686  1.00  0.00     0.116 C 
BRANCH   2   3
ATOM      3  N   UNL     1       2.708  -0.264   1.394  1.00  0.00    -0.353 N 
ATOM      4  O   UNL     1       1.234  -1.510   0.135  1.00  0.00    -0.271 OA
ATOM      5  C   UNL     1       2.125  -0.670   0.211  1.00  0.00     0.257 C 
ATOM      6  H   UNL     1       3.572   0.206   1.355  1.00  0.00     0.163 HD
BRANCH   5   7
ATOM      7  C   UNL     1       2.685   0.053  -1.017  1.00  0.00     0.329 C 
BRANCH   7   8
ATOM      8  O   UNL     1       3.432   1.214  -0.635  1.00  0.00    -0.482 OA
BRANCH   8   9
ATOM      9  C   UNL     1       2.875   2.402  -1.026  1.00  0.00     0.138 A 
ATOM     10  C   UNL     1       3.667   3.170  -1.880  1.00  0.00     0.048 A 
ATOM     11  C   UNL     1       1.686   2.947  -0.527  1.00  0.00     0.083 A 
ATOM     12  C   UNL     1       3.269   4.460  -2.245  1.00  0.00     0.012 A 
ATOM     13  C   UNL     1       1.280   4.229  -0.918  1.00  0.00     0.032 A 
ATOM     14  Cl  UNL     1       0.690   2.164   0.640  1.00  0.00    -0.080 Cl
ATOM     15  C   UNL     1       2.058   4.996  -1.789  1.00  0.00    -0.023 A 
BRANCH  15  16
ATOM     16  C   UNL     1       1.623   6.376  -2.069  1.00  0.00     0.027 C 
ATOM     17  C   UNL     1       1.755   7.079  -3.208  1.00  0.00     0.103 C 
ATOM     18  C   UNL     1       2.353   6.554  -4.451  1.00  0.00     0.272 C 
ATOM     19  C   UNL     1       1.457   8.502  -3.265  1.00  0.00     0.228 C 
ATOM     20  O   UNL     1       2.147   5.405  -4.827  1.00  0.00    -0.268 OA
ATOM     21  N   UNL     1       3.164   7.497  -5.064  1.00  0.00    -0.224 N 
ATOM     22  N   UNL     1       1.927   9.331  -4.117  1.00  0.00    -0.156 NA
ATOM     23  C   UNL     1       2.856   8.869  -5.026  1.00  0.00     0.358 C 
ATOM     24  O   UNL     1       3.350   9.659  -5.831  1.00  0.00    -0.245 OA
BRANCH  19  25
ATOM     25  O   UNL     1       0.599   8.956  -2.345  1.00  0.00    -0.493 OA
ATOM     26  H   UNL     1       0.239   8.368  -1.709  1.00  0.00     0.295 HD
ENDBRANCH  19  25
BRANCH  21  27
ATOM     27  C   UNL     1       4.279   7.049  -5.846  1.00  0.00     0.073 A 
ATOM     28  C   UNL     1       4.125   6.013  -6.782  1.00  0.00     0.030 A 
ATOM     29  C   UNL     1       5.579   7.552  -5.616  1.00  0.00     0.066 A 
ATOM     30  C   UNL     1       5.225   5.509  -7.483  1.00  0.00     0.023 A 
ATOM     31  C   UNL     1       6.676   7.052  -6.325  1.00  0.00     0.043 A 
ATOM     32  Cl  UNL     1       5.934   8.652  -4.323  1.00  0.00    -0.082 Cl
ATOM     33  C   UNL     1       6.493   6.033  -7.254  1.00  0.00     0.042 A 
ATOM     34  Cl  UNL     1       7.848   5.388  -8.093  1.00  0.00    -0.084 Cl
ENDBRANCH  21  27
ENDBRANCH  15  16
ENDBRANCH   8   9
ENDBRANCH   7   8
ENDBRANCH   5   7
ENDBRANCH   2   3
ENDBRANCH   1   2
BRANCH   1  35
ATOM     35  C   UNL     1       4.386  -1.066   3.772  1.00  0.00     0.002 C 
BRANCH  35  36
ATOM     36  C   UNL     1       4.671   0.358   4.259  1.00  0.00     0.002 C 
BRANCH  36  37
ATOM     37  C   UNL     1       3.958   0.796   5.539  1.00  0.00     0.021 C 
BRANCH  37  38
ATOM     38  C   UNL     1       4.100  -0.136   6.737  1.00  0.00     0.116 C 
BRANCH  38  39
ATOM     39  N   UNL     1       5.476  -0.332   7.157  1.00  0.00    -0.352 N 
ATOM     40  C   UNL     1       5.995  -0.406   8.428  1.00  0.00     0.251 C 
ATOM     41  H   UNL     1       6.131  -0.425   6.428  1.00  0.00     0.163 HD
ATOM     42  O   UNL     1       7.208  -0.491   8.592  1.00  0.00    -0.269 OA
BRANCH  40  43
ATOM     43  C   UNL     1       5.099  -0.344   9.606  1.00  0.00     0.039 A 
ATOM     44  C   UNL     1       5.460   0.481  10.676  1.00  0.00     0.014 A 
ATOM     45  C   UNL     1       3.918  -1.089   9.667  1.00  0.00     0.014 A 
ATOM     46  C   UNL     1       4.607   0.610  11.775  1.00  0.00     0.010 A 
ATOM     47  C   UNL     1       3.040  -0.914  10.735  1.00  0.00     0.010 A 
ATOM     48  C   UNL     1       3.375  -0.061  11.798  1.00  0.00    -0.014 A 
BRANCH  48  49
ATOM     49  C   UNL     1       2.422   0.122  12.921  1.00  0.00     0.031 A 
ATOM     50  C   UNL     1       2.101  -1.025  13.838  1.00  0.00     0.074 A 
ATOM     51  C   UNL     1       1.795   1.303  13.078  1.00  0.00     0.049 A 
ATOM     52  N   UNL     1       1.249  -1.077  14.830  1.00  0.00    -0.248 NA
ATOM     53  C   UNL     1       2.816  -2.287  13.591  1.00  0.00     0.031 C 
ATOM     54  C   UNL     1       1.986   2.483  12.233  1.00  0.00     0.029 A 
ATOM     55  N   UNL     1       0.861   1.703  14.001  1.00  0.00    -0.354 N 
ATOM     56  C   UNL     1       1.309  -2.378  15.312  1.00  0.00     0.074 A 
ATOM     57  C   UNL     1       2.253  -3.093  14.479  1.00  0.00     0.031 C 
ATOM     58  C   UNL     1       1.212   3.481  12.690  1.00  0.00     0.029 A 
ATOM     59  C   UNL     1       0.448   3.003  13.838  1.00  0.00     0.049 A 
ATOM     60  H   UNL     1       0.519   1.114  14.711  1.00  0.00     0.167 HD
ATOM     61  C   UNL     1       0.652  -2.924  16.363  1.00  0.00     0.037 A 
ATOM     62  C   UNL     1      -0.448   3.727  14.534  1.00  0.00     0.037 A 
ATOM     63  C   UNL     1      -0.260  -2.206  17.213  1.00  0.00     0.049 A 
ATOM     64  C   UNL     1      -1.163   3.099  15.697  1.00  0.00     0.074 A 
ATOM     65  C   UNL     1      -0.917  -2.652  18.347  1.00  0.00     0.029 A 
ATOM     66  N   UNL     1      -0.645  -0.888  17.021  1.00  0.00    -0.354 N 
ATOM     67  N   UNL     1      -1.048   1.887  16.181  1.00  0.00    -0.248 NA
ATOM     68  C   UNL     1      -2.132   3.943  16.412  1.00  0.00     0.031 C 
ATOM     69  C   UNL     1      -1.725  -1.613  18.823  1.00  0.00     0.029 A 
ATOM     70  C   UNL     1      -1.545  -0.510  18.004  1.00  0.00     0.049 A 
ATOM     71  H   UNL     1      -0.326  -0.306  16.294  1.00  0.00     0.167 HD
ATOM     72  C   UNL     1      -1.907   1.829  17.270  1.00  0.00     0.074 A 
ATOM     73  C   UNL     1      -2.531   3.132  17.381  1.00  0.00     0.031 C 
ATOM     74  C   UNL     1      -2.153   0.791  18.105  1.00  0.00     0.037 A 
BRANCH  61  75
ATOM     75  C   UNL     1       0.902  -4.374  16.651  1.00  0.00     0.057 A 
ATOM     76  C   UNL     1       2.112  -4.819  17.198  1.00  0.00     0.134 A 
ATOM     77  C   UNL     1      -0.085  -5.334  16.395  1.00  0.00     0.134 A 
ATOM     78  F   UNL     1       3.103  -3.951  17.454  1.00  0.00    -0.206 F 
ATOM     79  C   UNL     1       2.343  -6.172  17.456  1.00  0.00     0.040 A 
ATOM     80  C   UNL     1       0.125  -6.686  16.670  1.00  0.00     0.040 A 
ATOM     81  F   UNL     1      -1.268  -4.973  15.876  1.00  0.00    -0.206 F 
ATOM     82  C   UNL     1       1.345  -7.109  17.195  1.00  0.00     0.006 A 
ENDBRANCH  61  75
BRANCH  62  83
ATOM     83  C   UNL     1      -0.697   5.143  14.173  1.00  0.00     0.057 A 
ATOM     84  C   UNL     1      -0.218   6.182  14.980  1.00  0.00     0.134 A 
ATOM     85  C   UNL     1      -1.414   5.494  13.024  1.00  0.00     0.134 A 
ATOM     86  F   UNL     1       0.459   5.905  16.104  1.00  0.00    -0.206 F 
ATOM     87  C   UNL     1      -0.455   7.520  14.665  1.00  0.00     0.040 A 
ATOM     88  C   UNL     1      -1.642   6.828  12.686  1.00  0.00     0.040 A 
ATOM     89  F   UNL     1      -1.895   4.543  12.209  1.00  0.00    -0.206 F 
ATOM     90  C   UNL     1      -1.166   7.846  13.511  1.00  0.00     0.006 A 
ENDBRANCH  62  83
BRANCH  74  91
ATOM     91  C   UNL     1      -3.114   1.033  19.230  1.00  0.00     0.057 A 
ATOM     92  C   UNL     1      -4.496   1.099  19.016  1.00  0.00     0.134 A 
ATOM     93  C   UNL     1      -2.652   1.169  20.545  1.00  0.00     0.134 A 
ATOM     94  F   UNL     1      -4.998   0.992  17.777  1.00  0.00    -0.206 F 
ATOM     95  C   UNL     1      -5.385   1.311  20.070  1.00  0.00     0.040 A 
ATOM     96  C   UNL     1      -3.533   1.360  21.610  1.00  0.00     0.040 A 
ATOM     97  F   UNL     1      -1.340   1.110  20.816  1.00  0.00    -0.206 F 
ATOM     98  C   UNL     1      -4.904   1.436  21.373  1.00  0.00     0.006 A 
ENDBRANCH  74  91
ENDBRANCH  48  49
ENDBRANCH  40  43
ENDBRANCH  38  39
ENDBRANCH  37  38
ENDBRANCH  36  37
ENDBRANCH  35  36
ENDBRANCH   1  35
TORSDOF 18
