REMARK SMILES C[C@@H](C(=O)NCCCCCCNC(=O)c1ccc(-c2c3nc(c(-c4c(F)cccc4F)c4ccc([nH]4)c(-c4c(F)cccc4F)c4nc(c(-c5c(F)cccc5F)c5ccc2[nH]5)C=C4)C=C3)cc1)N1C(=O)CSc2cccn2-c2ccccc21
REMARK SMILES IDX 7 1 6 2 5 3 3 4 4 5 2 7 1 8 69 9 70 10 71 11 84 13 79 14
REMARK SMILES IDX 83 15 80 16 82 17 81 18 78 19 74 20 77 21 75 22 76 23 73 24
REMARK SMILES IDX 72 25 8 27 9 28 10 29 11 30 12 31 13 32 14 34 15 35 16 36
REMARK SMILES IDX 68 37 17 38 67 39 18 40 19 41 20 42 61 43 21 44 66 45 60 46
REMARK SMILES IDX 62 47 22 48 65 49 59 50 58 51 23 53 49 54 32 55 48 56 33 57
REMARK SMILES IDX 36 58 47 59 63 60 34 61 35 62 46 64 64 65 37 66 24 67 25 68
REMARK SMILES IDX 30 69 26 70 27 71 29 72 31 73 28 74 50 75 51 76 56 77 52 78
REMARK SMILES IDX 53 79 55 80 57 81 54 82 38 83 39 84 44 85 40 86 41 87 43 88
REMARK SMILES IDX 45 89 42 90
REMARK H PARENT 5 6 12 33 62 52 36 63
REMARK Flexibility Score: 80.00
ROOT
ATOM      1  C   UNL     1       4.015  -1.274  -0.559  1.00  0.00     0.021 C 
ENDROOT
BRANCH   1   2
ATOM      2  C   UNL     1       2.972  -0.733  -1.542  1.00  0.00     0.116 C 
BRANCH   2   3
ATOM      3  N   UNL     1       1.979  -1.745  -1.836  1.00  0.00    -0.354 N 
ATOM      4  C   UNL     1       0.730  -1.966  -1.340  1.00  0.00     0.242 C 
ATOM      5  O   UNL     1       0.185  -3.002  -1.735  1.00  0.00    -0.273 OA
ATOM      6  H   UNL     1       2.259  -2.394  -2.522  1.00  0.00     0.163 HD
BRANCH   4   7
ATOM      7  C   UNL     1       0.032  -0.950  -0.395  1.00  0.00     0.176 C 
ATOM      8  C   UNL     1       0.733  -0.670   0.933  1.00  0.00     0.042 C 
BRANCH   7   9
ATOM      9  N   UNL     1      -1.408  -1.251  -0.198  1.00  0.00    -0.297 N 
BRANCH   9  10
ATOM     10  C   UNL     1      -2.300  -0.798  -1.167  1.00  0.00     0.238 CG0
ATOM     11  O   UNL     1      -1.926  -0.260  -2.213  1.00  0.00    -0.274 OA
ATOM     12  G   UNL     1      -3.775  -0.928  -0.847  1.00  0.00     0.000 G0
ENDBRANCH   9  10
BRANCH   9  13
ATOM     13  C   UNL     1      -1.851  -2.115   0.846  1.00  0.00     0.069 A 
ATOM     14  C   UNL     1      -2.587  -1.669   1.960  1.00  0.00     0.070 A 
ATOM     15  C   UNL     1      -1.622  -3.495   0.720  1.00  0.00     0.028 A 
ATOM     16  C   UNL     1      -3.051  -2.590   2.921  1.00  0.00     0.029 A 
ATOM     17  C   UNL     1      -2.113  -4.406   1.659  1.00  0.00     0.002 A 
ATOM     18  C   UNL     1      -2.832  -3.955   2.758  1.00  0.00     0.002 A 
BRANCH  14  19
ATOM     19  N   UNL     1      -2.795  -0.295   2.237  1.00  0.00    -0.310 N 
ATOM     20  C   UNL     1      -3.335   0.720   1.461  1.00  0.00     0.080 A 
ATOM     21  C   UNL     1      -2.467   0.257   3.470  1.00  0.00     0.092 A 
ATOM     22  C   UNL     1      -3.175   1.912   2.150  1.00  0.00     0.035 A 
ATOM     23  C   UNL     1      -2.647   1.618   3.423  1.00  0.00     0.021 A 
BRANCH  20  24
ATOM     24  S   UNL     1      -4.316   0.555   0.023  1.00  0.00    -0.098 SA
BRANCH  24  25
ATOM     25  C   UNL     1      -3.775  -0.928  -0.847  1.00  0.00     0.177 CG0
ATOM     26  G   UNL     1      -2.300  -0.798  -1.167  1.00  0.00     0.000 G0
ENDBRANCH  24  25
ENDBRANCH  20  24
ENDBRANCH  14  19
ENDBRANCH   9  13
ENDBRANCH   7   9
ENDBRANCH   4   7
ENDBRANCH   2   3
ENDBRANCH   1   2
BRANCH   1  27
ATOM     27  C   UNL     1       4.804  -2.486  -1.078  1.00  0.00     0.002 C 
BRANCH  27  28
ATOM     28  C   UNL     1       5.694  -2.216  -2.296  1.00  0.00     0.002 C 
BRANCH  28  29
ATOM     29  C   UNL     1       6.765  -1.143  -2.093  1.00  0.00     0.021 C 
BRANCH  29  30
ATOM     30  C   UNL     1       7.737  -1.411  -0.949  1.00  0.00     0.116 C 
BRANCH  30  31
ATOM     31  N   UNL     1       8.564  -2.584  -1.179  1.00  0.00    -0.352 N 
ATOM     32  C   UNL     1       9.921  -2.732  -1.031  1.00  0.00     0.251 C 
ATOM     33  H   UNL     1       8.083  -3.387  -1.483  1.00  0.00     0.163 HD
ATOM     34  O   UNL     1      10.475  -3.757  -1.422  1.00  0.00    -0.269 OA
BRANCH  32  35
ATOM     35  C   UNL     1      10.726  -1.652  -0.420  1.00  0.00     0.039 A 
ATOM     36  C   UNL     1      11.954  -1.314  -0.997  1.00  0.00     0.014 A 
ATOM     37  C   UNL     1      10.289  -0.989   0.731  1.00  0.00     0.014 A 
ATOM     38  C   UNL     1      12.722  -0.286  -0.446  1.00  0.00     0.010 A 
ATOM     39  C   UNL     1      11.020   0.084   1.235  1.00  0.00     0.010 A 
ATOM     40  C   UNL     1      12.252   0.435   0.663  1.00  0.00    -0.014 A 
BRANCH  40  41
ATOM     41  C   UNL     1      13.053   1.532   1.266  1.00  0.00     0.031 A 
ATOM     42  C   UNL     1      13.581   1.393   2.668  1.00  0.00     0.074 A 
ATOM     43  C   UNL     1      13.260   2.671   0.579  1.00  0.00     0.049 A 
ATOM     44  N   UNL     1      14.250   2.254   3.392  1.00  0.00    -0.248 NA
ATOM     45  C   UNL     1      13.290   0.127   3.360  1.00  0.00     0.031 C 
ATOM     46  C   UNL     1      12.768   2.949  -0.771  1.00  0.00     0.029 A 
ATOM     47  N   UNL     1      13.936   3.813   0.929  1.00  0.00    -0.354 N 
ATOM     48  C   UNL     1      14.436   1.646   4.627  1.00  0.00     0.074 A 
ATOM     49  C   UNL     1      13.765   0.366   4.573  1.00  0.00     0.031 C 
ATOM     50  C   UNL     1      13.184   4.169  -1.147  1.00  0.00     0.029 A 
ATOM     51  C   UNL     1      13.942   4.772  -0.055  1.00  0.00     0.049 A 
ATOM     52  H   UNL     1      14.374   3.934   1.802  1.00  0.00     0.167 HD
ATOM     53  C   UNL     1      15.122   2.102   5.703  1.00  0.00     0.037 A 
ATOM     54  C   UNL     1      14.501   5.997  -0.073  1.00  0.00     0.037 A 
ATOM     55  C   UNL     1      15.822   3.359   5.742  1.00  0.00     0.049 A 
ATOM     56  C   UNL     1      15.269   6.476   1.128  1.00  0.00     0.074 A 
ATOM     57  C   UNL     1      16.604   3.880   6.758  1.00  0.00     0.029 A 
ATOM     58  N   UNL     1      15.823   4.293   4.717  1.00  0.00    -0.354 N 
ATOM     59  N   UNL     1      15.495   5.864   2.264  1.00  0.00    -0.248 NA
ATOM     60  C   UNL     1      15.867   7.816   1.038  1.00  0.00     0.031 C 
ATOM     61  C   UNL     1      17.045   5.148   6.363  1.00  0.00     0.029 A 
ATOM     62  C   UNL     1      16.578   5.395   5.082  1.00  0.00     0.049 A 
ATOM     63  H   UNL     1      15.356   4.188   3.856  1.00  0.00     0.167 HD
ATOM     64  C   UNL     1      16.294   6.723   3.007  1.00  0.00     0.074 A 
ATOM     65  C   UNL     1      16.516   7.899   2.191  1.00  0.00     0.031 C 
ATOM     66  C   UNL     1      16.804   6.551   4.252  1.00  0.00     0.037 A 
BRANCH  53  67
ATOM     67  C   UNL     1      15.142   1.231   6.926  1.00  0.00     0.057 A 
ATOM     68  C   UNL     1      15.837   0.014   6.960  1.00  0.00     0.134 A 
ATOM     69  C   UNL     1      14.465   1.619   8.089  1.00  0.00     0.134 A 
ATOM     70  F   UNL     1      16.496  -0.423   5.877  1.00  0.00    -0.206 F 
ATOM     71  C   UNL     1      15.828  -0.801   8.093  1.00  0.00     0.040 A 
ATOM     72  C   UNL     1      14.474   0.826   9.238  1.00  0.00     0.040 A 
ATOM     73  F   UNL     1      13.786   2.775   8.129  1.00  0.00    -0.206 F 
ATOM     74  C   UNL     1      15.148  -0.393   9.239  1.00  0.00     0.006 A 
ENDBRANCH  53  67
BRANCH  54  75
ATOM     75  C   UNL     1      14.400   6.840  -1.291  1.00  0.00     0.057 A 
ATOM     76  C   UNL     1      15.521   7.070  -2.097  1.00  0.00     0.134 A 
ATOM     77  C   UNL     1      13.194   7.436  -1.676  1.00  0.00     0.134 A 
ATOM     78  F   UNL     1      16.709   6.540  -1.768  1.00  0.00    -0.206 F 
ATOM     79  C   UNL     1      15.452   7.877  -3.234  1.00  0.00     0.040 A 
ATOM     80  C   UNL     1      13.105   8.227  -2.823  1.00  0.00     0.040 A 
ATOM     81  F   UNL     1      12.083   7.248  -0.950  1.00  0.00    -0.206 F 
ATOM     82  C   UNL     1      14.239   8.455  -3.602  1.00  0.00     0.006 A 
ENDBRANCH  54  75
BRANCH  66  83
ATOM     83  C   UNL     1      17.698   7.632   4.784  1.00  0.00     0.057 A 
ATOM     84  C   UNL     1      17.200   8.877   5.189  1.00  0.00     0.134 A 
ATOM     85  C   UNL     1      19.074   7.408   4.924  1.00  0.00     0.134 A 
ATOM     86  F   UNL     1      15.894   9.159   5.069  1.00  0.00    -0.206 F 
ATOM     87  C   UNL     1      18.044   9.870   5.691  1.00  0.00     0.040 A 
ATOM     88  C   UNL     1      19.923   8.383   5.449  1.00  0.00     0.040 A 
ATOM     89  F   UNL     1      19.613   6.234   4.564  1.00  0.00    -0.206 F 
ATOM     90  C   UNL     1      19.409   9.622   5.827  1.00  0.00     0.006 A 
ENDBRANCH  66  83
ENDBRANCH  40  41
ENDBRANCH  32  35
ENDBRANCH  30  31
ENDBRANCH  29  30
ENDBRANCH  28  29
ENDBRANCH  27  28
ENDBRANCH   1  27
TORSDOF 14
