REMARK SMILES C/C(=N/OCC(=O)NCCCCCCNC(=O)c1ccc(-c2c3nc(c(-c4c(F)cccc4F)c4ccc([nH]4)c(-c4c(F)cccc4F)c4nc(c(-c5c(F)cccc5F)c5ccc2[nH]5)C=C4)C=C3)cc1)c1ccc(C)cc1
REMARK SMILES IDX 11 1 10 2 9 3 8 4 6 5 7 6 5 8 4 9 3 10 1 11 2 12 72 13 73 14
REMARK SMILES IDX 78 15 74 16 77 17 75 18 76 19 12 20 13 21 14 22 15 23 16 24
REMARK SMILES IDX 17 26 18 27 19 28 71 29 20 30 70 31 21 32 22 33 23 34 64 35
REMARK SMILES IDX 24 36 69 37 63 38 65 39 25 40 68 41 62 42 61 43 26 45 52 46
REMARK SMILES IDX 35 47 51 48 36 49 39 50 50 51 66 52 37 53 38 54 49 56 67 57
REMARK SMILES IDX 40 58 27 59 28 60 33 61 29 62 30 63 32 64 34 65 31 66 53 67
REMARK SMILES IDX 54 68 59 69 55 70 56 71 58 72 60 73 57 74 41 75 42 76 47 77
REMARK SMILES IDX 43 78 44 79 46 80 48 81 45 82
REMARK H PARENT 8 7 15 25 65 44 39 55
REMARK Flexibility Score: inf
ROOT
ATOM      1  C   UNL     1       3.237   5.449  -1.048  1.00  0.00     0.002 C 
ENDROOT
BRANCH   1   2
ATOM      2  C   UNL     1       2.252   4.867  -0.024  1.00  0.00     0.021 C 
BRANCH   2   3
ATOM      3  C   UNL     1       0.875   5.535  -0.029  1.00  0.00     0.116 C 
BRANCH   3   4
ATOM      4  N   UNL     1       0.196   5.337  -1.295  1.00  0.00    -0.353 N 
ATOM      5  C   UNL     1      -0.882   4.544  -1.579  1.00  0.00     0.260 C 
ATOM      6  O   UNL     1      -1.284   4.509  -2.744  1.00  0.00    -0.271 OA
ATOM      7  H   UNL     1       0.560   5.844  -2.055  1.00  0.00     0.163 HD
BRANCH   5   8
ATOM      8  C   UNL     1      -1.626   3.835  -0.451  1.00  0.00     0.363 C 
BRANCH   8   9
ATOM      9  O   UNL     1      -0.813   3.103   0.447  1.00  0.00    -0.385 OA
BRANCH   9  10
ATOM     10  N   UNL     1      -0.434   1.887  -0.128  1.00  0.00    -0.091 NA
ATOM     11  C   UNL     1       0.910  -0.091   0.069  1.00  0.00     0.071 C 
ATOM     12  C   UNL     1       0.374   1.206   0.634  1.00  0.00     0.084 C 
BRANCH  12  13
ATOM     13  C   UNL     1       0.824   1.587   2.007  1.00  0.00    -0.001 A 
ATOM     14  C   UNL     1      -0.096   2.071   2.944  1.00  0.00     0.010 A 
ATOM     15  C   UNL     1       2.170   1.466   2.366  1.00  0.00     0.010 A 
ATOM     16  C   UNL     1       0.334   2.478   4.209  1.00  0.00     0.004 A 
ATOM     17  C   UNL     1       2.596   1.861   3.638  1.00  0.00     0.004 A 
ATOM     18  C   UNL     1       1.683   2.380   4.565  1.00  0.00    -0.051 A 
ATOM     19  C   UNL     1       2.135   2.854   5.915  1.00  0.00     0.044 C 
ENDBRANCH  12  13
ENDBRANCH   9  10
ENDBRANCH   8   9
ENDBRANCH   5   8
ENDBRANCH   3   4
ENDBRANCH   2   3
ENDBRANCH   1   2
BRANCH   1  20
ATOM     20  C   UNL     1       3.499   6.954  -0.926  1.00  0.00     0.002 C 
BRANCH  20  21
ATOM     21  C   UNL     1       4.022   7.415   0.436  1.00  0.00     0.021 C 
BRANCH  21  22
ATOM     22  C   UNL     1       5.343   6.779   0.862  1.00  0.00     0.116 C 
BRANCH  22  23
ATOM     23  N   UNL     1       6.438   7.122  -0.034  1.00  0.00    -0.352 N 
ATOM     24  C   UNL     1       7.651   7.701   0.244  1.00  0.00     0.251 C 
ATOM     25  H   UNL     1       6.285   6.907  -0.983  1.00  0.00     0.163 HD
ATOM     26  O   UNL     1       8.379   8.080  -0.671  1.00  0.00    -0.269 OA
BRANCH  24  27
ATOM     27  C   UNL     1       8.075   7.896   1.646  1.00  0.00     0.039 A 
ATOM     28  C   UNL     1       8.619   9.127   2.021  1.00  0.00     0.014 A 
ATOM     29  C   UNL     1       7.929   6.875   2.590  1.00  0.00     0.014 A 
ATOM     30  C   UNL     1       8.934   9.365   3.361  1.00  0.00     0.010 A 
ATOM     31  C   UNL     1       8.178   7.137   3.935  1.00  0.00     0.010 A 
ATOM     32  C   UNL     1       8.666   8.390   4.335  1.00  0.00    -0.014 A 
BRANCH  32  33
ATOM     33  C   UNL     1       8.829   8.684   5.781  1.00  0.00     0.031 A 
ATOM     34  C   UNL     1       9.831   7.936   6.611  1.00  0.00     0.074 A 
ATOM     35  C   UNL     1       8.007   9.579   6.364  1.00  0.00     0.049 A 
ATOM     36  N   UNL     1      10.062   8.015   7.897  1.00  0.00    -0.248 NA
ATOM     37  C   UNL     1      10.665   6.951   5.907  1.00  0.00     0.031 C 
ATOM     38  C   UNL     1       6.965  10.341   5.674  1.00  0.00     0.029 A 
ATOM     39  N   UNL     1       7.911   9.991   7.669  1.00  0.00    -0.354 N 
ATOM     40  C   UNL     1      11.062   7.088   8.159  1.00  0.00     0.074 A 
ATOM     41  C   UNL     1      11.353   6.420   6.908  1.00  0.00     0.031 C 
ATOM     42  C   UNL     1       6.356  11.149   6.555  1.00  0.00     0.029 A 
ATOM     43  C   UNL     1       6.929  10.928   7.879  1.00  0.00     0.049 A 
ATOM     44  H   UNL     1       8.491   9.647   8.387  1.00  0.00     0.167 HD
ATOM     45  C   UNL     1      11.692   6.830   9.331  1.00  0.00     0.037 A 
ATOM     46  C   UNL     1       6.526  11.534   9.011  1.00  0.00     0.037 A 
ATOM     47  C   UNL     1      11.398   7.500  10.572  1.00  0.00     0.049 A 
ATOM     48  C   UNL     1       7.203  11.195  10.308  1.00  0.00     0.074 A 
ATOM     49  C   UNL     1      12.026   7.361  11.798  1.00  0.00     0.029 A 
ATOM     50  N   UNL     1      10.377   8.423  10.752  1.00  0.00    -0.354 N 
ATOM     51  N   UNL     1       8.201  10.374  10.528  1.00  0.00    -0.248 NA
ATOM     52  C   UNL     1       6.692  11.860  11.514  1.00  0.00     0.031 C 
ATOM     53  C   UNL     1      11.345   8.150  12.732  1.00  0.00     0.029 A 
ATOM     54  C   UNL     1      10.327   8.825  12.078  1.00  0.00     0.049 A 
ATOM     55  H   UNL     1       9.776   8.745  10.041  1.00  0.00     0.167 HD
ATOM     56  C   UNL     1       8.449  10.435  11.893  1.00  0.00     0.074 A 
ATOM     57  C   UNL     1       7.509  11.388  12.446  1.00  0.00     0.031 C 
ATOM     58  C   UNL     1       9.373   9.760  12.621  1.00  0.00     0.037 A 
BRANCH  45  59
ATOM     59  C   UNL     1      12.749   5.762   9.323  1.00  0.00     0.057 A 
ATOM     60  C   UNL     1      13.965   5.925   8.645  1.00  0.00     0.134 A 
ATOM     61  C   UNL     1      12.553   4.557  10.011  1.00  0.00     0.134 A 
ATOM     62  F   UNL     1      14.216   7.051   7.960  1.00  0.00    -0.206 F 
ATOM     63  C   UNL     1      14.928   4.914   8.615  1.00  0.00     0.040 A 
ATOM     64  C   UNL     1      13.522   3.552  10.014  1.00  0.00     0.040 A 
ATOM     65  F   UNL     1      11.418   4.336  10.690  1.00  0.00    -0.206 F 
ATOM     66  C   UNL     1      14.709   3.724   9.305  1.00  0.00     0.006 A 
ENDBRANCH  45  59
BRANCH  46  67
ATOM     67  C   UNL     1       5.437  12.541   8.958  1.00  0.00     0.057 A 
ATOM     68  C   UNL     1       5.707  13.900   9.154  1.00  0.00     0.134 A 
ATOM     69  C   UNL     1       4.112  12.178   8.685  1.00  0.00     0.134 A 
ATOM     70  F   UNL     1       6.954  14.306   9.437  1.00  0.00    -0.206 F 
ATOM     71  C   UNL     1       4.699  14.863   9.086  1.00  0.00     0.040 A 
ATOM     72  C   UNL     1       3.098  13.133   8.591  1.00  0.00     0.040 A 
ATOM     73  F   UNL     1       3.790  10.893   8.482  1.00  0.00    -0.206 F 
ATOM     74  C   UNL     1       3.391  14.480   8.796  1.00  0.00     0.006 A 
ENDBRANCH  46  67
BRANCH  58  75
ATOM     75  C   UNL     1       9.411  10.028  14.098  1.00  0.00     0.057 A 
ATOM     76  C   UNL     1       8.404   9.566  14.956  1.00  0.00     0.134 A 
ATOM     77  C   UNL     1      10.483  10.721  14.675  1.00  0.00     0.134 A 
ATOM     78  F   UNL     1       7.341   8.910  14.466  1.00  0.00    -0.206 F 
ATOM     79  C   UNL     1       8.452   9.801  16.332  1.00  0.00     0.040 A 
ATOM     80  C   UNL     1      10.557  10.937  16.052  1.00  0.00     0.040 A 
ATOM     81  F   UNL     1      11.484  11.185  13.912  1.00  0.00    -0.206 F 
ATOM     82  C   UNL     1       9.536  10.480  16.884  1.00  0.00     0.006 A 
ENDBRANCH  58  75
ENDBRANCH  32  33
ENDBRANCH  24  27
ENDBRANCH  22  23
ENDBRANCH  21  22
ENDBRANCH  20  21
ENDBRANCH   1  20
TORSDOF 16
