REMARK SMILES COc1ccc(Cl)cc1C[NH2+]CCC(=O)NCCCCCCNC(=O)c1ccc(-c2c3nc(c(-c4c(F)cccc4F)c4ccc([nH]4)c(-c4c(F)cccc4F)c4nc(c(-c5c(F)cccc5F)c5ccc2[nH]5)C=C4)C=C3)cc1
REMARK SMILES IDX 18 1 17 2 16 3 14 4 15 5 13 7 12 8 11 9 10 12 9 13 3 14 4 15
REMARK SMILES IDX 5 16 8 17 6 18 7 19 2 20 1 21 19 22 20 23 21 24 22 25 23 26
REMARK SMILES IDX 24 27 25 29 26 30 27 31 79 32 28 33 78 34 29 35 30 36 31 37
REMARK SMILES IDX 72 38 32 39 77 40 71 41 73 42 33 43 76 44 70 45 69 46 34 48
REMARK SMILES IDX 60 49 43 50 59 51 44 52 47 53 58 54 74 55 45 56 46 57 57 59
REMARK SMILES IDX 75 60 48 61 35 62 36 63 41 64 37 65 38 66 40 67 42 68 39 69
REMARK SMILES IDX 61 70 62 71 67 72 63 73 64 74 66 75 68 76 65 77 49 78 50 79
REMARK SMILES IDX 55 80 51 81 52 82 54 83 56 84 53 85
REMARK H PARENT 16 6 11 10 11 11 23 28 73 47 47 58
REMARK Flexibility Score: inf
ROOT
ATOM      1  C   UNL     1      -1.206   3.385  -0.712  1.00  0.00     0.021 C 
ENDROOT
BRANCH   1   2
ATOM      2  C   UNL     1      -1.612   2.035  -0.113  1.00  0.00     0.116 C 
BRANCH   2   3
ATOM      3  N   UNL     1      -3.013   2.040   0.259  1.00  0.00    -0.356 N 
ATOM      4  C   UNL     1      -4.062   1.370  -0.296  1.00  0.00     0.225 C 
ATOM      5  O   UNL     1      -5.192   1.581   0.146  1.00  0.00    -0.275 OA
ATOM      6  H   UNL     1      -3.241   2.612   1.027  1.00  0.00     0.163 HD
BRANCH   4   7
ATOM      7  C   UNL     1      -3.834   0.370  -1.410  1.00  0.00     0.161 C 
BRANCH   7   8
ATOM      8  C   UNL     1      -3.863   0.989  -2.813  1.00  0.00     0.270 C 
BRANCH   8   9
ATOM      9  N   UNL     1      -2.580   1.456  -3.351  1.00  0.00    -0.342 N 
ATOM     10  H   UNL     1      -2.761   1.970  -4.214  1.00  0.00     0.346 HD
ATOM     11  H   UNL     1      -2.151   2.039  -2.633  1.00  0.00     0.346 HD
BRANCH   9  12
ATOM     12  C   UNL     1      -1.634   0.375  -3.646  1.00  0.00     0.301 C 
BRANCH  12  13
ATOM     13  C   UNL     1      -0.202   0.879  -3.679  1.00  0.00     0.050 A 
ATOM     14  C   UNL     1       0.796   0.360  -2.829  1.00  0.00     0.127 A 
ATOM     15  C   UNL     1       2.115   0.819  -2.934  1.00  0.00     0.048 A 
ATOM     16  C   UNL     1       2.441   1.834  -3.836  1.00  0.00     0.024 A 
ATOM     17  C   UNL     1       0.144   1.903  -4.581  1.00  0.00     0.034 A 
ATOM     18  C   UNL     1       1.450   2.384  -4.643  1.00  0.00     0.041 A 
ATOM     19  Cl  UNL     1       1.844   3.672  -5.712  1.00  0.00    -0.084 Cl
BRANCH  14  20
ATOM     20  O   UNL     1       0.417  -0.615  -1.942  1.00  0.00    -0.496 OA
ATOM     21  C   UNL     1       1.124  -0.637  -0.704  1.00  0.00     0.278 C 
ENDBRANCH  14  20
ENDBRANCH  12  13
ENDBRANCH   9  12
ENDBRANCH   8   9
ENDBRANCH   7   8
ENDBRANCH   4   7
ENDBRANCH   2   3
ENDBRANCH   1   2
BRANCH   1  22
ATOM     22  C   UNL     1      -0.539   4.332   0.290  1.00  0.00     0.002 C 
BRANCH  22  23
ATOM     23  C   UNL     1       0.828   3.870   0.811  1.00  0.00     0.002 C 
BRANCH  23  24
ATOM     24  C   UNL     1       1.869   3.539  -0.263  1.00  0.00     0.021 C 
BRANCH  24  25
ATOM     25  C   UNL     1       2.248   4.697  -1.184  1.00  0.00     0.116 C 
BRANCH  25  26
ATOM     26  N   UNL     1       2.959   5.741  -0.466  1.00  0.00    -0.352 N 
ATOM     27  C   UNL     1       4.215   6.255  -0.669  1.00  0.00     0.251 C 
ATOM     28  H   UNL     1       2.462   6.142   0.283  1.00  0.00     0.163 HD
ATOM     29  O   UNL     1       4.719   6.973   0.190  1.00  0.00    -0.269 OA
BRANCH  27  30
ATOM     30  C   UNL     1       4.977   5.952  -1.904  1.00  0.00     0.039 A 
ATOM     31  C   UNL     1       6.356   5.736  -1.800  1.00  0.00     0.014 A 
ATOM     32  C   UNL     1       4.369   5.954  -3.163  1.00  0.00     0.014 A 
ATOM     33  C   UNL     1       7.115   5.486  -2.946  1.00  0.00     0.010 A 
ATOM     34  C   UNL     1       5.117   5.651  -4.301  1.00  0.00     0.010 A 
ATOM     35  C   UNL     1       6.499   5.423  -4.205  1.00  0.00    -0.014 A 
BRANCH  35  36
ATOM     36  C   UNL     1       7.290   5.139  -5.430  1.00  0.00     0.031 A 
ATOM     37  C   UNL     1       7.469   6.200  -6.482  1.00  0.00     0.074 A 
ATOM     38  C   UNL     1       7.814   3.912  -5.618  1.00  0.00     0.049 A 
ATOM     39  N   UNL     1       8.065   6.119  -7.645  1.00  0.00    -0.248 NA
ATOM     40  C   UNL     1       6.889   7.521  -6.193  1.00  0.00     0.031 C 
ATOM     41  C   UNL     1       7.694   2.789  -4.688  1.00  0.00     0.029 A 
ATOM     42  N   UNL     1       8.544   3.403  -6.663  1.00  0.00    -0.354 N 
ATOM     43  C   UNL     1       7.925   7.372  -8.229  1.00  0.00     0.074 A 
ATOM     44  C   UNL     1       7.152   8.182  -7.312  1.00  0.00     0.031 C 
ATOM     45  C   UNL     1       8.334   1.725  -5.200  1.00  0.00     0.029 A 
ATOM     46  C   UNL     1       8.881   2.081  -6.506  1.00  0.00     0.049 A 
ATOM     47  H   UNL     1       8.802   3.935  -7.450  1.00  0.00     0.167 HD
ATOM     48  C   UNL     1       8.413   7.815  -9.413  1.00  0.00     0.037 A 
ATOM     49  C   UNL     1       9.545   1.246  -7.328  1.00  0.00     0.037 A 
ATOM     50  C   UNL     1       9.194   7.018 -10.322  1.00  0.00     0.049 A 
ATOM     51  C   UNL     1      10.057   1.756  -8.646  1.00  0.00     0.074 A 
ATOM     52  C   UNL     1       9.758   7.389 -11.531  1.00  0.00     0.029 A 
ATOM     53  N   UNL     1       9.524   5.687 -10.120  1.00  0.00    -0.354 N 
ATOM     54  N   UNL     1       9.954   2.955  -9.164  1.00  0.00    -0.248 NA
ATOM     55  C   UNL     1      10.783   0.796  -9.491  1.00  0.00     0.031 C 
ATOM     56  C   UNL     1      10.404   6.274 -12.075  1.00  0.00     0.029 A 
ATOM     57  C   UNL     1      10.273   5.218 -11.187  1.00  0.00     0.049 A 
ATOM     58  H   UNL     1       9.264   5.153  -9.334  1.00  0.00     0.167 HD
ATOM     59  C   UNL     1      10.621   2.901 -10.381  1.00  0.00     0.074 A 
ATOM     60  C   UNL     1      11.137   1.556 -10.518  1.00  0.00     0.031 C 
ATOM     61  C   UNL     1      10.789   3.880 -11.304  1.00  0.00     0.037 A 
BRANCH  48  62
ATOM     62  C   UNL     1       8.121   9.237  -9.791  1.00  0.00     0.057 A 
ATOM     63  C   UNL     1       8.758  10.310  -9.153  1.00  0.00     0.134 A 
ATOM     64  C   UNL     1       7.229   9.538 -10.827  1.00  0.00     0.134 A 
ATOM     65  F   UNL     1       9.616  10.089  -8.146  1.00  0.00    -0.206 F 
ATOM     66  C   UNL     1       8.502  11.632  -9.519  1.00  0.00     0.040 A 
ATOM     67  C   UNL     1       6.982  10.855 -11.218  1.00  0.00     0.040 A 
ATOM     68  F   UNL     1       6.592   8.557 -11.484  1.00  0.00    -0.206 F 
ATOM     69  C   UNL     1       7.616  11.907 -10.559  1.00  0.00     0.006 A 
ENDBRANCH  48  62
BRANCH  49  70
ATOM     70  C   UNL     1       9.772  -0.165  -6.927  1.00  0.00     0.057 A 
ATOM     71  C   UNL     1      11.050  -0.622  -6.588  1.00  0.00     0.134 A 
ATOM     72  C   UNL     1       8.723  -1.091  -6.893  1.00  0.00     0.134 A 
ATOM     73  F   UNL     1      12.097   0.215  -6.622  1.00  0.00    -0.206 F 
ATOM     74  C   UNL     1      11.282  -1.956  -6.248  1.00  0.00     0.040 A 
ATOM     75  C   UNL     1       8.937  -2.423  -6.533  1.00  0.00     0.040 A 
ATOM     76  F   UNL     1       7.474  -0.713  -7.201  1.00  0.00    -0.206 F 
ATOM     77  C   UNL     1      10.222  -2.860  -6.217  1.00  0.00     0.006 A 
ENDBRANCH  49  70
BRANCH  61  78
ATOM     78  C   UNL     1      11.589   3.540 -12.525  1.00  0.00     0.057 A 
ATOM     79  C   UNL     1      11.067   2.742 -13.550  1.00  0.00     0.134 A 
ATOM     80  C   UNL     1      12.884   4.046 -12.692  1.00  0.00     0.134 A 
ATOM     81  F   UNL     1       9.838   2.215 -13.442  1.00  0.00    -0.206 F 
ATOM     82  C   UNL     1      11.812   2.445 -14.692  1.00  0.00     0.040 A 
ATOM     83  C   UNL     1      13.631   3.774 -13.839  1.00  0.00     0.040 A 
ATOM     84  F   UNL     1      13.440   4.822 -11.749  1.00  0.00    -0.206 F 
ATOM     85  C   UNL     1      13.096   2.967 -14.841  1.00  0.00     0.006 A 
ENDBRANCH  61  78
ENDBRANCH  35  36
ENDBRANCH  27  30
ENDBRANCH  25  26
ENDBRANCH  24  25
ENDBRANCH  23  24
ENDBRANCH  22  23
ENDBRANCH   1  22
TORSDOF 18
