REMARK SMILES CC[C@H](C)N1C(=O)c2ccccc2[C@@H](C(=O)NCCCCCCNC(=O)c2ccc(-c3c4nc(c(-c5c(F)cccc5F)c5ccc([nH]5)c(-c5c(F)cccc5F)c5nc(c(-c6c(F)cccc6F)c6ccc3[nH]6)C=C5)C=C4)cc2)C12CCCCC2
REMARK SMILES IDX 20 1 19 2 18 3 17 4 15 5 16 6 14 8 5 9 6 10 81 11 7 12 8 13
REMARK SMILES IDX 82 14 86 15 9 16 13 17 83 18 85 19 10 20 12 21 84 22 11 23
REMARK SMILES IDX 3 24 4 25 2 26 1 27 21 28 22 29 23 30 24 31 25 32 26 34
REMARK SMILES IDX 27 35 28 36 80 37 29 38 79 39 30 40 31 41 32 42 73 43 33 44
REMARK SMILES IDX 78 45 72 46 74 47 34 48 77 49 71 50 70 51 35 53 61 54 44 55
REMARK SMILES IDX 60 56 45 57 48 58 59 59 75 60 46 61 47 62 58 64 76 65 49 66
REMARK SMILES IDX 36 67 37 68 42 69 38 70 39 71 41 72 43 73 40 74 62 75 63 76
REMARK SMILES IDX 68 77 64 78 65 79 67 80 69 81 66 82 50 83 51 84 56 85 52 86
REMARK SMILES IDX 53 87 55 88 57 89 54 90
REMARK H PARENT 17 7 24 33 74 52 48 63
REMARK Flexibility Score: inf
ROOT
ATOM      1  C   UNL     1      -4.372   6.720   2.532  1.00  0.00     0.002 C 
ENDROOT
BRANCH   1   2
ATOM      2  C   UNL     1      -3.606   6.120   1.354  1.00  0.00     0.021 C 
BRANCH   2   3
ATOM      3  C   UNL     1      -2.398   6.928   0.875  1.00  0.00     0.116 C 
BRANCH   3   4
ATOM      4  N   UNL     1      -1.379   7.061   1.905  1.00  0.00    -0.355 N 
ATOM      5  C   UNL     1      -0.087   6.635   1.999  1.00  0.00     0.229 C 
ATOM      6  O   UNL     1       0.512   6.964   3.030  1.00  0.00    -0.274 OA
ATOM      7  H   UNL     1      -1.684   7.562   2.696  1.00  0.00     0.163 HD
BRANCH   5   8
ATOM      8  C   UNL     1       0.649   5.835   0.898  1.00  0.00     0.135 C 
ATOM      9  N   UNL     1       0.503   3.684  -0.563  1.00  0.00    -0.329 N 
ATOM     10  C   UNL     1      -0.052   4.457  -1.604  1.00  0.00     0.254 C 
ATOM     11  C   UNL     1       0.439   4.247   0.870  1.00  0.00     0.059 C 
ATOM     12  O   UNL     1      -0.634   4.009  -2.587  1.00  0.00    -0.269 OA
ATOM     13  C   UNL     1       0.146   5.925  -1.569  1.00  0.00     0.044 A 
ATOM     14  C   UNL     1      -0.962   3.821   1.387  1.00  0.00     0.030 C 
ATOM     15  C   UNL     1       1.557   3.642   1.789  1.00  0.00     0.030 C 
ATOM     16  C   UNL     1      -0.057   6.673  -2.743  1.00  0.00     0.014 A 
ATOM     17  C   UNL     1       0.558   6.572  -0.415  1.00  0.00    -0.020 A 
ATOM     18  C   UNL     1      -1.205   3.864   2.893  1.00  0.00     0.002 C 
ATOM     19  C   UNL     1       1.287   3.771   3.290  1.00  0.00     0.002 C 
ATOM     20  C   UNL     1       0.179   8.049  -2.769  1.00  0.00     0.001 A 
ATOM     21  C   UNL     1       0.846   7.955  -0.464  1.00  0.00     0.005 A 
ATOM     22  C   UNL     1      -0.078   3.227   3.686  1.00  0.00     0.000 C 
ATOM     23  C   UNL     1       0.647   8.690  -1.630  1.00  0.00     0.000 A 
BRANCH   9  24
ATOM     24  C   UNL     1       0.944   2.250  -0.849  1.00  0.00     0.082 C 
ATOM     25  C   UNL     1       0.358   1.144   0.055  1.00  0.00     0.031 C 
BRANCH  24  26
ATOM     26  C   UNL     1       0.761   1.774  -2.324  1.00  0.00     0.021 C 
ATOM     27  C   UNL     1       1.260   0.366  -2.634  1.00  0.00     0.006 C 
ENDBRANCH  24  26
ENDBRANCH   9  24
ENDBRANCH   5   8
ENDBRANCH   3   4
ENDBRANCH   2   3
ENDBRANCH   1   2
BRANCH   1  28
ATOM     28  C   UNL     1      -5.317   7.859   2.164  1.00  0.00     0.002 C 
BRANCH  28  29
ATOM     29  C   UNL     1      -6.297   7.546   1.032  1.00  0.00     0.021 C 
BRANCH  29  30
ATOM     30  C   UNL     1      -7.028   6.213   1.156  1.00  0.00     0.116 C 
BRANCH  30  31
ATOM     31  N   UNL     1      -7.986   6.199   2.249  1.00  0.00    -0.352 N 
ATOM     32  C   UNL     1      -9.329   5.912   2.183  1.00  0.00     0.251 C 
ATOM     33  H   UNL     1      -7.633   6.421   3.141  1.00  0.00     0.163 HD
ATOM     34  O   UNL     1     -10.069   6.068   3.147  1.00  0.00    -0.269 OA
BRANCH  32  35
ATOM     35  C   UNL     1      -9.867   5.438   0.894  1.00  0.00     0.039 A 
ATOM     36  C   UNL     1      -9.314   4.301   0.295  1.00  0.00     0.014 A 
ATOM     37  C   UNL     1     -10.823   6.207   0.230  1.00  0.00     0.014 A 
ATOM     38  C   UNL     1      -9.616   4.017  -1.031  1.00  0.00     0.010 A 
ATOM     39  C   UNL     1     -11.175   5.876  -1.079  1.00  0.00     0.010 A 
ATOM     40  C   UNL     1     -10.540   4.808  -1.736  1.00  0.00    -0.014 A 
BRANCH  40  41
ATOM     41  C   UNL     1     -10.818   4.518  -3.165  1.00  0.00     0.031 A 
ATOM     42  C   UNL     1     -10.436   5.503  -4.237  1.00  0.00     0.074 A 
ATOM     43  C   UNL     1     -11.390   3.346  -3.499  1.00  0.00     0.049 A 
ATOM     44  N   UNL     1     -10.645   5.441  -5.529  1.00  0.00    -0.248 NA
ATOM     45  C   UNL     1      -9.733   6.721  -3.803  1.00  0.00     0.031 C 
ATOM     46  C   UNL     1     -11.789   2.302  -2.553  1.00  0.00     0.029 A 
ATOM     47  N   UNL     1     -11.729   2.833  -4.724  1.00  0.00    -0.354 N 
ATOM     48  C   UNL     1     -10.126   6.616  -6.057  1.00  0.00     0.074 A 
ATOM     49  C   UNL     1      -9.607   7.384  -4.945  1.00  0.00     0.031 C 
ATOM     50  C   UNL     1     -12.288   1.260  -3.234  1.00  0.00     0.029 A 
ATOM     51  C   UNL     1     -12.304   1.588  -4.655  1.00  0.00     0.049 A 
ATOM     52  H   UNL     1     -11.574   3.311  -5.571  1.00  0.00     0.167 HD
ATOM     53  C   UNL     1     -10.080   7.015  -7.351  1.00  0.00     0.037 A 
ATOM     54  C   UNL     1     -12.815   0.809  -5.626  1.00  0.00     0.037 A 
ATOM     55  C   UNL     1     -10.570   6.236  -8.459  1.00  0.00     0.049 A 
ATOM     56  C   UNL     1     -12.793   1.297  -7.045  1.00  0.00     0.074 A 
ATOM     57  C   UNL     1     -10.534   6.537  -9.810  1.00  0.00     0.029 A 
ATOM     58  N   UNL     1     -11.185   4.999  -8.343  1.00  0.00    -0.354 N 
ATOM     59  N   UNL     1     -12.292   2.407  -7.529  1.00  0.00    -0.248 NA
ATOM     60  C   UNL     1     -13.420   0.429  -8.050  1.00  0.00     0.031 C 
ATOM     61  C   UNL     1     -11.164   5.500 -10.508  1.00  0.00     0.029 A 
ATOM     62  C   UNL     1     -11.556   4.535  -9.595  1.00  0.00     0.049 A 
ATOM     63  H   UNL     1     -11.336   4.520  -7.496  1.00  0.00     0.167 HD
ATOM     64  C   UNL     1     -12.532   2.365  -8.896  1.00  0.00     0.074 A 
ATOM     65  C   UNL     1     -13.204   1.111  -9.165  1.00  0.00     0.031 C 
ATOM     66  C   UNL     1     -12.227   3.286  -9.843  1.00  0.00     0.037 A 
BRANCH  53  67
ATOM     67  C   UNL     1      -9.497   8.367  -7.642  1.00  0.00     0.057 A 
ATOM     68  C   UNL     1     -10.323   9.426  -8.042  1.00  0.00     0.134 A 
ATOM     69  C   UNL     1      -8.120   8.614  -7.570  1.00  0.00     0.134 A 
ATOM     70  F   UNL     1     -11.650   9.256  -8.139  1.00  0.00    -0.206 F 
ATOM     71  C   UNL     1      -9.800  10.681  -8.362  1.00  0.00     0.040 A 
ATOM     72  C   UNL     1      -7.588   9.871  -7.866  1.00  0.00     0.040 A 
ATOM     73  F   UNL     1      -7.276   7.647  -7.182  1.00  0.00    -0.206 F 
ATOM     74  C   UNL     1      -8.428  10.907  -8.270  1.00  0.00     0.006 A 
ENDBRANCH  53  67
BRANCH  54  75
ATOM     75  C   UNL     1     -13.418  -0.501  -5.282  1.00  0.00     0.057 A 
ATOM     76  C   UNL     1     -14.622  -0.585  -4.572  1.00  0.00     0.134 A 
ATOM     77  C   UNL     1     -12.808  -1.701  -5.665  1.00  0.00     0.134 A 
ATOM     78  F   UNL     1     -15.252   0.530  -4.175  1.00  0.00    -0.206 F 
ATOM     79  C   UNL     1     -15.193  -1.814  -4.246  1.00  0.00     0.040 A 
ATOM     80  C   UNL     1     -13.382  -2.938  -5.367  1.00  0.00     0.040 A 
ATOM     81  F   UNL     1     -11.664  -1.683  -6.364  1.00  0.00    -0.206 F 
ATOM     82  C   UNL     1     -14.576  -2.996  -4.651  1.00  0.00     0.006 A 
ENDBRANCH  54  75
BRANCH  66  83
ATOM     83  C   UNL     1     -12.604   2.953 -11.255  1.00  0.00     0.057 A 
ATOM     84  C   UNL     1     -11.626   2.590 -12.189  1.00  0.00     0.134 A 
ATOM     85  C   UNL     1     -13.933   3.004 -11.692  1.00  0.00     0.134 A 
ATOM     86  F   UNL     1     -10.334   2.527 -11.833  1.00  0.00    -0.206 F 
ATOM     87  C   UNL     1     -11.957   2.289 -13.510  1.00  0.00     0.040 A 
ATOM     88  C   UNL     1     -14.280   2.683 -13.005  1.00  0.00     0.040 A 
ATOM     89  F   UNL     1     -14.917   3.328 -10.840  1.00  0.00    -0.206 F 
ATOM     90  C   UNL     1     -13.289   2.330 -13.920  1.00  0.00     0.006 A 
ENDBRANCH  66  83
ENDBRANCH  40  41
ENDBRANCH  32  35
ENDBRANCH  30  31
ENDBRANCH  29  30
ENDBRANCH  28  29
ENDBRANCH   1  28
TORSDOF 15
