REMARK SMILES Cn1c(COc2ccc(C(=O)NCCCCCCNC(=O)c3ccc(-c4c5nc(c(-c6c(F)cccc6F)c6ccc([nH]6)c(-c6c(F)cccc6F)c6nc(c(-c7c(F)cccc7F)c7ccc4[nH]7)C=C6)C=C5)cc3)cc2)nc2ccccc21
REMARK SMILES IDX 15 1 14 2 13 3 12 4 10 5 11 6 9 8 6 9 7 10 77 11 8 12 76 13
REMARK SMILES IDX 5 14 4 15 3 16 1 17 2 18 84 19 78 20 79 21 83 22 80 23 82 24
REMARK SMILES IDX 81 25 16 26 17 27 18 28 19 29 20 30 21 32 22 33 23 34 75 35
REMARK SMILES IDX 24 36 74 37 25 38 26 39 27 40 68 41 28 42 73 43 67 44 69 45
REMARK SMILES IDX 29 46 72 47 66 48 65 49 30 51 56 52 39 53 55 54 40 55 43 56
REMARK SMILES IDX 54 57 70 58 41 59 42 60 53 62 71 63 44 64 31 65 32 66 37 67
REMARK SMILES IDX 33 68 34 69 36 70 38 71 35 72 57 73 58 74 63 75 59 76 60 77
REMARK SMILES IDX 62 78 64 79 61 80 45 81 46 82 51 83 47 84 48 85 50 86 52 87
REMARK SMILES IDX 49 88
REMARK H PARENT 12 7 19 31 69 50 43 61
REMARK Flexibility Score: inf
ROOT
ATOM      1  C   UNL     1       0.961   1.881  -7.190  1.00  0.00     0.002 C 
ENDROOT
BRANCH   1   2
ATOM      2  C   UNL     1       0.443   1.134  -5.953  1.00  0.00     0.021 C 
BRANCH   2   3
ATOM      3  C   UNL     1      -0.957   1.569  -5.515  1.00  0.00     0.116 C 
BRANCH   3   4
ATOM      4  N   UNL     1      -1.969   0.988  -6.380  1.00  0.00    -0.352 N 
ATOM      5  C   UNL     1      -2.895   0.001  -6.149  1.00  0.00     0.251 C 
ATOM      6  O   UNL     1      -3.715  -0.259  -7.027  1.00  0.00    -0.269 OA
ATOM      7  H   UNL     1      -1.995   1.366  -7.288  1.00  0.00     0.163 HD
BRANCH   5   8
ATOM      8  C   UNL     1      -2.973  -0.709  -4.848  1.00  0.00     0.040 A 
ATOM      9  C   UNL     1      -3.246  -1.915  -2.347  1.00  0.00     0.120 A 
ATOM     10  C   UNL     1      -4.385  -1.606  -3.083  1.00  0.00     0.047 A 
ATOM     11  C   UNL     1      -1.979  -1.730  -2.896  1.00  0.00     0.047 A 
ATOM     12  C   UNL     1      -4.247  -1.000  -4.336  1.00  0.00     0.017 A 
ATOM     13  C   UNL     1      -1.841  -1.130  -4.147  1.00  0.00     0.017 A 
BRANCH   9  14
ATOM     14  O   UNL     1      -3.363  -2.478  -1.105  1.00  0.00    -0.486 OA
BRANCH  14  15
ATOM     15  C   UNL     1      -3.358  -1.483  -0.057  1.00  0.00     0.304 C 
BRANCH  15  16
ATOM     16  C   UNL     1      -1.965  -0.965   0.157  1.00  0.00     0.147 A 
ATOM     17  C   UNL     1      -2.465   1.522   0.040  1.00  0.00     0.151 C 
ATOM     18  N   UNL     1      -1.604   0.367   0.130  1.00  0.00    -0.328 N 
ATOM     19  C   UNL     1      -0.227   0.440   0.140  1.00  0.00     0.068 A 
ATOM     20  N   UNL     1      -0.893  -1.724   0.314  1.00  0.00    -0.229 NA
ATOM     21  C   UNL     1       0.184  -0.882   0.256  1.00  0.00     0.089 A 
ATOM     22  C   UNL     1       0.679   1.506   0.047  1.00  0.00     0.028 A 
ATOM     23  C   UNL     1       1.553  -1.184   0.267  1.00  0.00     0.030 A 
ATOM     24  C   UNL     1       2.042   1.186   0.053  1.00  0.00     0.002 A 
ATOM     25  C   UNL     1       2.475  -0.137   0.157  1.00  0.00     0.002 A 
ENDBRANCH  15  16
ENDBRANCH  14  15
ENDBRANCH   9  14
ENDBRANCH   5   8
ENDBRANCH   3   4
ENDBRANCH   2   3
ENDBRANCH   1   2
BRANCH   1  26
ATOM     26  C   UNL     1       1.172   3.387  -6.996  1.00  0.00     0.002 C 
BRANCH  26  27
ATOM     27  C   UNL     1       2.103   3.769  -5.842  1.00  0.00     0.021 C 
BRANCH  27  28
ATOM     28  C   UNL     1       3.524   3.228  -5.968  1.00  0.00     0.116 C 
BRANCH  28  29
ATOM     29  N   UNL     1       4.221   3.797  -7.110  1.00  0.00    -0.352 N 
ATOM     30  C   UNL     1       5.414   4.475  -7.154  1.00  0.00     0.251 C 
ATOM     31  H   UNL     1       3.772   3.679  -7.979  1.00  0.00     0.163 HD
ATOM     32  O   UNL     1       5.747   5.076  -8.169  1.00  0.00    -0.269 OA
BRANCH  30  33
ATOM     33  C   UNL     1       6.294   4.493  -5.966  1.00  0.00     0.039 A 
ATOM     34  C   UNL     1       6.889   5.698  -5.583  1.00  0.00     0.014 A 
ATOM     35  C   UNL     1       6.549   3.322  -5.247  1.00  0.00     0.014 A 
ATOM     36  C   UNL     1       7.696   5.739  -4.444  1.00  0.00     0.010 A 
ATOM     37  C   UNL     1       7.298   3.379  -4.074  1.00  0.00     0.010 A 
ATOM     38  C   UNL     1       7.882   4.587  -3.664  1.00  0.00    -0.014 A 
BRANCH  38  39
ATOM     39  C   UNL     1       8.690   4.622  -2.419  1.00  0.00     0.031 A 
ATOM     40  C   UNL     1       9.967   3.834  -2.326  1.00  0.00     0.074 A 
ATOM     41  C   UNL     1       8.245   5.317  -1.355  1.00  0.00     0.049 A 
ATOM     42  N   UNL     1      10.771   3.679  -1.304  1.00  0.00    -0.248 NA
ATOM     43  C   UNL     1      10.385   3.105  -3.534  1.00  0.00     0.031 C 
ATOM     44  C   UNL     1       7.004   6.094  -1.308  1.00  0.00     0.029 A 
ATOM     45  N   UNL     1       8.783   5.477  -0.103  1.00  0.00    -0.354 N 
ATOM     46  C   UNL     1      11.781   2.833  -1.743  1.00  0.00     0.074 A 
ATOM     47  C   UNL     1      11.460   2.461  -3.104  1.00  0.00     0.031 C 
ATOM     48  C   UNL     1       6.889   6.667  -0.099  1.00  0.00     0.029 A 
ATOM     49  C   UNL     1       8.024   6.268   0.726  1.00  0.00     0.049 A 
ATOM     50  H   UNL     1       9.632   5.064   0.175  1.00  0.00     0.167 HD
ATOM     51  C   UNL     1      12.889   2.422  -1.082  1.00  0.00     0.037 A 
ATOM     52  C   UNL     1       8.221   6.625   2.010  1.00  0.00     0.037 A 
ATOM     53  C   UNL     1      13.217   2.807   0.266  1.00  0.00     0.049 A 
ATOM     54  C   UNL     1       9.447   6.134   2.729  1.00  0.00     0.074 A 
ATOM     55  C   UNL     1      14.334   2.474   1.011  1.00  0.00     0.029 A 
ATOM     56  N   UNL     1      12.427   3.615   1.069  1.00  0.00    -0.354 N 
ATOM     57  N   UNL     1      10.419   5.375   2.284  1.00  0.00    -0.248 NA
ATOM     58  C   UNL     1       9.604   6.553   4.129  1.00  0.00     0.031 C 
ATOM     59  C   UNL     1      14.202   3.049   2.279  1.00  0.00     0.029 A 
ATOM     60  C   UNL     1      13.025   3.779   2.308  1.00  0.00     0.049 A 
ATOM     61  H   UNL     1      11.568   4.014   0.799  1.00  0.00     0.167 HD
ATOM     62  C   UNL     1      11.318   5.254   3.336  1.00  0.00     0.074 A 
ATOM     63  C   UNL     1      10.782   6.027   4.436  1.00  0.00     0.031 C 
ATOM     64  C   UNL     1      12.484   4.565   3.386  1.00  0.00     0.037 A 
BRANCH  51  65
ATOM     65  C   UNL     1      13.836   1.515  -1.814  1.00  0.00     0.057 A 
ATOM     66  C   UNL     1      14.626   1.978  -2.874  1.00  0.00     0.134 A 
ATOM     67  C   UNL     1      13.988   0.176  -1.433  1.00  0.00     0.134 A 
ATOM     68  F   UNL     1      14.520   3.248  -3.296  1.00  0.00    -0.206 F 
ATOM     69  C   UNL     1      15.516   1.137  -3.544  1.00  0.00     0.040 A 
ATOM     70  C   UNL     1      14.894  -0.668  -2.078  1.00  0.00     0.040 A 
ATOM     71  F   UNL     1      13.267  -0.331  -0.421  1.00  0.00    -0.206 F 
ATOM     72  C   UNL     1      15.657  -0.189  -3.141  1.00  0.00     0.006 A 
ENDBRANCH  51  65
BRANCH  52  73
ATOM     73  C   UNL     1       7.248   7.512   2.697  1.00  0.00     0.057 A 
ATOM     74  C   UNL     1       7.594   8.822   3.050  1.00  0.00     0.134 A 
ATOM     75  C   UNL     1       5.966   7.069   3.041  1.00  0.00     0.134 A 
ATOM     76  F   UNL     1       8.815   9.297   2.764  1.00  0.00    -0.206 F 
ATOM     77  C   UNL     1       6.710   9.651   3.743  1.00  0.00     0.040 A 
ATOM     78  C   UNL     1       5.062   7.896   3.711  1.00  0.00     0.040 A 
ATOM     79  F   UNL     1       5.569   5.827   2.723  1.00  0.00    -0.206 F 
ATOM     80  C   UNL     1       5.438   9.188   4.072  1.00  0.00     0.006 A 
ENDBRANCH  52  73
BRANCH  64  81
ATOM     81  C   UNL     1      13.279   4.653   4.656  1.00  0.00     0.057 A 
ATOM     82  C   UNL     1      12.875   4.004   5.829  1.00  0.00     0.134 A 
ATOM     83  C   UNL     1      14.482   5.369   4.693  1.00  0.00     0.134 A 
ATOM     84  F   UNL     1      11.724   3.315   5.863  1.00  0.00    -0.206 F 
ATOM     85  C   UNL     1      13.629   4.083   7.001  1.00  0.00     0.040 A 
ATOM     86  C   UNL     1      15.258   5.433   5.851  1.00  0.00     0.040 A 
ATOM     87  F   UNL     1      14.930   6.006   3.600  1.00  0.00    -0.206 F 
ATOM     88  C   UNL     1      14.828   4.794   7.011  1.00  0.00     0.006 A 
ENDBRANCH  64  81
ENDBRANCH  38  39
ENDBRANCH  30  33
ENDBRANCH  28  29
ENDBRANCH  27  28
ENDBRANCH  26  27
ENDBRANCH   1  26
TORSDOF 16
