REMARK SMILES Cc1cc(Cl)ccc1Oc1cc(C)c(N)c(C(=O)NCCCCCCNC(=O)c2ccc(-c3c4nc(c(-c5c(F)cccc5F)c5ccc([nH]5)c(-c5c(F)cccc5F)c5nc(c(-c6c(F)cccc6F)c6ccc3[nH]6)C=C5)C=C4)cc2)c1
REMARK SMILES IDX 22 1 21 2 20 3 19 4 17 5 18 6 16 8 10 9 11 10 83 11 12 12
REMARK SMILES IDX 13 13 14 14 9 15 8 16 1 17 2 18 3 19 4 20 7 21 5 22 6 23
REMARK SMILES IDX 15 24 23 27 24 28 25 29 26 30 27 31 28 33 29 34 30 35 82 36
REMARK SMILES IDX 31 37 81 38 32 39 33 40 34 41 75 42 35 43 80 44 74 45 76 46
REMARK SMILES IDX 36 47 79 48 73 49 72 50 37 52 63 53 46 54 62 55 47 56 50 57
REMARK SMILES IDX 61 58 77 59 48 60 49 61 60 63 78 64 51 65 38 66 39 67 44 68
REMARK SMILES IDX 40 69 41 70 43 71 45 72 42 73 64 74 65 75 70 76 66 77 67 78
REMARK SMILES IDX 69 79 71 80 68 81 52 82 53 83 58 84 54 85 55 86 57 87 59 88
REMARK SMILES IDX 56 89
REMARK H PARENT 19 7 15 25 15 26 26 32 76 51 50 62
REMARK Flexibility Score: inf
ROOT
ATOM      1  C   UNL     1      -6.279  -1.139   5.892  1.00  0.00     0.002 C 
ENDROOT
BRANCH   1   2
ATOM      2  C   UNL     1      -5.559  -1.092   4.534  1.00  0.00     0.021 C 
BRANCH   2   3
ATOM      3  C   UNL     1      -6.504  -1.321   3.351  1.00  0.00     0.116 C 
BRANCH   3   4
ATOM      4  N   UNL     1      -7.229  -0.099   3.064  1.00  0.00    -0.352 N 
ATOM      5  C   UNL     1      -7.140   0.890   2.119  1.00  0.00     0.253 C 
ATOM      6  O   UNL     1      -7.934   1.824   2.272  1.00  0.00    -0.269 OA
ATOM      7  H   UNL     1      -7.961   0.060   3.703  1.00  0.00     0.163 HD
BRANCH   5   8
ATOM      8  C   UNL     1      -6.222   0.870   0.926  1.00  0.00     0.066 A 
ATOM      9  C   UNL     1      -4.317  -0.015  -0.288  1.00  0.00     0.128 A 
ATOM     10  C   UNL     1      -4.662   0.705  -1.423  1.00  0.00     0.052 A 
ATOM     11  C   UNL     1      -5.076   0.073   0.878  1.00  0.00     0.063 A 
ATOM     12  C   UNL     1      -5.717   1.622  -1.363  1.00  0.00    -0.024 A 
ATOM     13  C   UNL     1      -5.935   2.550  -2.529  1.00  0.00     0.047 C 
ATOM     14  C   UNL     1      -6.523   1.694  -0.200  1.00  0.00     0.048 A 
BRANCH   9  15
ATOM     15  O   UNL     1      -3.283  -0.903  -0.319  1.00  0.00    -0.457 OA
BRANCH  15  16
ATOM     16  C   UNL     1      -1.977  -0.492  -0.152  1.00  0.00     0.130 A 
ATOM     17  C   UNL     1      -2.256   2.060   0.220  1.00  0.00     0.048 C 
ATOM     18  C   UNL     1      -1.456   0.794   0.085  1.00  0.00    -0.007 A 
ATOM     19  C   UNL     1      -0.053   0.938   0.178  1.00  0.00     0.027 A 
ATOM     20  C   UNL     1       0.802  -0.158   0.081  1.00  0.00     0.041 A 
ATOM     21  C   UNL     1      -1.095  -1.588  -0.238  1.00  0.00     0.049 A 
ATOM     22  Cl  UNL     1       2.502   0.068   0.207  1.00  0.00    -0.084 Cl
ATOM     23  C   UNL     1       0.285  -1.428  -0.117  1.00  0.00     0.024 A 
ENDBRANCH  15  16
ENDBRANCH   9  15
BRANCH  14  24
ATOM     24  N   UNL     1      -7.528   2.661  -0.139  1.00  0.00    -0.398 N 
ATOM     25  H   UNL     1      -7.721   3.220  -0.926  1.00  0.00     0.156 HD
ATOM     26  H   UNL     1      -8.043   2.784   0.691  1.00  0.00     0.156 HD
ENDBRANCH  14  24
ENDBRANCH   5   8
ENDBRANCH   3   4
ENDBRANCH   2   3
ENDBRANCH   1   2
BRANCH   1  27
ATOM     27  C   UNL     1      -6.946  -2.482   6.220  1.00  0.00     0.002 C 
BRANCH  27  28
ATOM     28  C   UNL     1      -6.021  -3.697   6.126  1.00  0.00     0.021 C 
BRANCH  28  29
ATOM     29  C   UNL     1      -4.838  -3.652   7.087  1.00  0.00     0.116 C 
BRANCH  29  30
ATOM     30  N   UNL     1      -5.275  -3.701   8.473  1.00  0.00    -0.352 N 
ATOM     31  C   UNL     1      -4.945  -4.601   9.455  1.00  0.00     0.251 C 
ATOM     32  H   UNL     1      -5.896  -2.988   8.746  1.00  0.00     0.163 HD
ATOM     33  O   UNL     1      -5.588  -4.643  10.498  1.00  0.00    -0.269 OA
BRANCH  31  34
ATOM     34  C   UNL     1      -3.814  -5.528   9.247  1.00  0.00     0.039 A 
ATOM     35  C   UNL     1      -3.962  -6.869   9.609  1.00  0.00     0.014 A 
ATOM     36  C   UNL     1      -2.607  -5.070   8.713  1.00  0.00     0.014 A 
ATOM     37  C   UNL     1      -2.915  -7.763   9.385  1.00  0.00     0.010 A 
ATOM     38  C   UNL     1      -1.591  -5.975   8.423  1.00  0.00     0.010 A 
ATOM     39  C   UNL     1      -1.732  -7.328   8.764  1.00  0.00    -0.014 A 
BRANCH  39  40
ATOM     40  C   UNL     1      -0.634  -8.277   8.458  1.00  0.00     0.031 A 
ATOM     41  C   UNL     1       0.706  -8.124   9.119  1.00  0.00     0.074 A 
ATOM     42  C   UNL     1      -0.825  -9.232   7.528  1.00  0.00     0.049 A 
ATOM     43  N   UNL     1       1.802  -8.817   8.937  1.00  0.00    -0.248 NA
ATOM     44  C   UNL     1       0.842  -7.029  10.092  1.00  0.00     0.031 C 
ATOM     45  C   UNL     1      -2.062  -9.443   6.774  1.00  0.00     0.029 A 
ATOM     46  N   UNL     1       0.026 -10.195   7.048  1.00  0.00    -0.354 N 
ATOM     47  C   UNL     1       2.759  -8.232   9.756  1.00  0.00     0.074 A 
ATOM     48  C   UNL     1       2.130  -7.096  10.396  1.00  0.00     0.031 C 
ATOM     49  C   UNL     1      -1.896 -10.481   5.940  1.00  0.00     0.029 A 
ATOM     50  C   UNL     1      -0.532 -10.985   6.073  1.00  0.00     0.049 A 
ATOM     51  H   UNL     1       0.949 -10.309   7.371  1.00  0.00     0.167 HD
ATOM     52  C   UNL     1       4.039  -8.618   9.970  1.00  0.00     0.037 A 
ATOM     53  C   UNL     1      -0.003 -11.997   5.360  1.00  0.00     0.037 A 
ATOM     54  C   UNL     1       4.652  -9.762   9.347  1.00  0.00     0.049 A 
ATOM     55  C   UNL     1       1.416 -12.415   5.621  1.00  0.00     0.074 A 
ATOM     56  C   UNL     1       5.915 -10.286   9.558  1.00  0.00     0.029 A 
ATOM     57  N   UNL     1       4.047 -10.554   8.382  1.00  0.00    -0.354 N 
ATOM     58  N   UNL     1       2.285 -11.907   6.462  1.00  0.00    -0.248 NA
ATOM     59  C   UNL     1       1.926 -13.550   4.842  1.00  0.00     0.031 C 
ATOM     60  C   UNL     1       6.093 -11.362   8.682  1.00  0.00     0.029 A 
ATOM     61  C   UNL     1       4.922 -11.543   7.964  1.00  0.00     0.049 A 
ATOM     62  H   UNL     1       3.130 -10.431   8.044  1.00  0.00     0.167 HD
ATOM     63  C   UNL     1       3.436 -12.672   6.329  1.00  0.00     0.074 A 
ATOM     64  C   UNL     1       3.148 -13.688   5.337  1.00  0.00     0.031 C 
ATOM     65  C   UNL     1       4.624 -12.544   6.970  1.00  0.00     0.037 A 
BRANCH  52  66
ATOM     66  C   UNL     1       4.863  -7.787  10.912  1.00  0.00     0.057 A 
ATOM     67  C   UNL     1       4.604  -7.748  12.290  1.00  0.00     0.134 A 
ATOM     68  C   UNL     1       5.939  -7.026  10.438  1.00  0.00     0.134 A 
ATOM     69  F   UNL     1       3.582  -8.444  12.809  1.00  0.00    -0.206 F 
ATOM     70  C   UNL     1       5.362  -6.956  13.154  1.00  0.00     0.040 A 
ATOM     71  C   UNL     1       6.723  -6.254  11.297  1.00  0.00     0.040 A 
ATOM     72  F   UNL     1       6.248  -7.021   9.133  1.00  0.00    -0.206 F 
ATOM     73  C   UNL     1       6.429  -6.210  12.659  1.00  0.00     0.006 A 
ENDBRANCH  52  66
BRANCH  53  74
ATOM     74  C   UNL     1      -0.835 -12.694   4.348  1.00  0.00     0.057 A 
ATOM     75  C   UNL     1      -1.296 -13.997   4.565  1.00  0.00     0.134 A 
ATOM     76  C   UNL     1      -1.208 -12.067   3.153  1.00  0.00     0.134 A 
ATOM     77  F   UNL     1      -0.958 -14.655   5.684  1.00  0.00    -0.206 F 
ATOM     78  C   UNL     1      -2.091 -14.657   3.627  1.00  0.00     0.040 A 
ATOM     79  C   UNL     1      -2.022 -12.706   2.217  1.00  0.00     0.040 A 
ATOM     80  F   UNL     1      -0.807 -10.814   2.891  1.00  0.00    -0.206 F 
ATOM     81  C   UNL     1      -2.462 -14.007   2.451  1.00  0.00     0.006 A 
ENDBRANCH  53  74
BRANCH  65  82
ATOM     82  C   UNL     1       5.695 -13.540   6.634  1.00  0.00     0.057 A 
ATOM     83  C   UNL     1       6.371 -13.512   5.407  1.00  0.00     0.134 A 
ATOM     84  C   UNL     1       6.083 -14.513   7.564  1.00  0.00     0.134 A 
ATOM     85  F   UNL     1       6.039 -12.614   4.467  1.00  0.00    -0.206 F 
ATOM     86  C   UNL     1       7.379 -14.431   5.109  1.00  0.00     0.040 A 
ATOM     87  C   UNL     1       7.107 -15.419   7.288  1.00  0.00     0.040 A 
ATOM     88  F   UNL     1       5.482 -14.588   8.761  1.00  0.00    -0.206 F 
ATOM     89  C   UNL     1       7.754 -15.384   6.055  1.00  0.00     0.006 A 
ENDBRANCH  65  82
ENDBRANCH  39  40
ENDBRANCH  31  34
ENDBRANCH  29  30
ENDBRANCH  28  29
ENDBRANCH  27  28
ENDBRANCH   1  27
TORSDOF 16
