REMARK SMILES O=C(NCCCCCCNC(=O)c1ccc(C[NH+]2CC[NH2+]CC2)c(Br)c1)c1ccc(-c2c3nc(c(-c4c(F)cccc4F)c4ccc([nH]4)c(-c4c(F)cccc4F)c4nc(c(-c5c(F)cccc5F)c5ccc2[nH]5)C=C4)C=C3)cc1
REMARK SMILES IDX 6 1 5 2 4 3 3 4 1 5 2 6 27 8 28 9 80 10 29 11 79 12 30 13
REMARK SMILES IDX 31 14 32 15 73 16 33 17 78 18 72 19 74 20 34 21 77 22 71 23
REMARK SMILES IDX 70 24 35 26 61 27 44 28 60 29 45 30 48 31 59 32 75 33 46 34
REMARK SMILES IDX 47 35 58 37 76 38 49 39 36 40 37 41 42 42 38 43 39 44 41 45
REMARK SMILES IDX 43 46 40 47 62 48 63 49 68 50 64 51 65 52 67 53 69 54 66 55
REMARK SMILES IDX 50 56 51 57 56 58 52 59 53 60 55 61 57 62 54 63 7 64 8 65
REMARK SMILES IDX 9 66 10 67 11 68 12 70 13 71 14 72 26 73 15 74 24 75 16 76
REMARK SMILES IDX 25 77 17 78 18 79 19 80 23 81 20 83 22 84 21 85
REMARK H PARENT 3 7 74 25 48 36 10 69 18 82 21 86 21 87
REMARK Flexibility Score: inf
ROOT
ATOM      1  C   UNL     1       4.326  -2.014   3.245  1.00  0.00     0.002 C 
ENDROOT
BRANCH   1   2
ATOM      2  C   UNL     1       4.769  -0.817   2.402  1.00  0.00     0.021 C 
BRANCH   2   3
ATOM      3  C   UNL     1       4.469  -0.934   0.910  1.00  0.00     0.116 C 
BRANCH   3   4
ATOM      4  N   UNL     1       3.042  -0.992   0.636  1.00  0.00    -0.352 N 
ATOM      5  O   UNL     1       1.037  -0.256  -0.088  1.00  0.00    -0.269 OA
ATOM      6  C   UNL     1       2.260  -0.153  -0.118  1.00  0.00     0.251 C 
ATOM      7  H   UNL     1       2.565  -1.746   1.053  1.00  0.00     0.163 HD
BRANCH   6   8
ATOM      8  C   UNL     1       2.887   0.892  -0.954  1.00  0.00     0.039 A 
ATOM      9  C   UNL     1       3.989   0.601  -1.765  1.00  0.00     0.014 A 
ATOM     10  C   UNL     1       2.341   2.178  -0.947  1.00  0.00     0.014 A 
ATOM     11  C   UNL     1       4.617   1.621  -2.474  1.00  0.00     0.010 A 
ATOM     12  C   UNL     1       2.928   3.183  -1.715  1.00  0.00     0.010 A 
ATOM     13  C   UNL     1       4.086   2.920  -2.465  1.00  0.00    -0.014 A 
BRANCH  13  14
ATOM     14  C   UNL     1       4.710   3.994  -3.276  1.00  0.00     0.031 A 
ATOM     15  C   UNL     1       5.317   5.197  -2.614  1.00  0.00     0.074 A 
ATOM     16  C   UNL     1       4.683   3.904  -4.618  1.00  0.00     0.049 A 
ATOM     17  N   UNL     1       5.805   6.283  -3.158  1.00  0.00    -0.248 NA
ATOM     18  C   UNL     1       5.372   5.182  -1.145  1.00  0.00     0.031 C 
ATOM     19  C   UNL     1       4.122   2.784  -5.375  1.00  0.00     0.029 A 
ATOM     20  N   UNL     1       5.119   4.776  -5.583  1.00  0.00    -0.354 N 
ATOM     21  C   UNL     1       6.202   7.091  -2.101  1.00  0.00     0.074 A 
ATOM     22  C   UNL     1       5.874   6.381  -0.883  1.00  0.00     0.031 C 
ATOM     23  C   UNL     1       4.246   3.036  -6.686  1.00  0.00     0.029 A 
ATOM     24  C   UNL     1       4.835   4.360  -6.861  1.00  0.00     0.049 A 
ATOM     25  H   UNL     1       5.588   5.617  -5.380  1.00  0.00     0.167 HD
ATOM     26  C   UNL     1       6.788   8.313  -2.145  1.00  0.00     0.037 A 
ATOM     27  C   UNL     1       4.992   4.987  -8.041  1.00  0.00     0.037 A 
ATOM     28  C   UNL     1       7.105   9.012  -3.365  1.00  0.00     0.049 A 
ATOM     29  C   UNL     1       5.593   6.362  -8.067  1.00  0.00     0.074 A 
ATOM     30  C   UNL     1       7.732  10.236  -3.520  1.00  0.00     0.029 A 
ATOM     31  N   UNL     1       6.801   8.556  -4.641  1.00  0.00    -0.354 N 
ATOM     32  N   UNL     1       6.000   7.102  -7.065  1.00  0.00    -0.248 NA
ATOM     33  C   UNL     1       5.759   6.990  -9.385  1.00  0.00     0.031 C 
ATOM     34  C   UNL     1       7.750  10.549  -4.883  1.00  0.00     0.029 A 
ATOM     35  C   UNL     1       7.200   9.489  -5.585  1.00  0.00     0.049 A 
ATOM     36  H   UNL     1       6.367   7.696  -4.845  1.00  0.00     0.167 HD
ATOM     37  C   UNL     1       6.500   8.268  -7.630  1.00  0.00     0.074 A 
ATOM     38  C   UNL     1       6.343   8.137  -9.064  1.00  0.00     0.031 C 
ATOM     39  C   UNL     1       7.049   9.343  -7.012  1.00  0.00     0.037 A 
BRANCH  26  40
ATOM     40  C   UNL     1       7.081   8.987  -0.834  1.00  0.00     0.057 A 
ATOM     41  C   UNL     1       8.054   8.506   0.053  1.00  0.00     0.134 A 
ATOM     42  C   UNL     1       6.383  10.142  -0.456  1.00  0.00     0.134 A 
ATOM     43  F   UNL     1       8.756   7.401  -0.240  1.00  0.00    -0.206 F 
ATOM     44  C   UNL     1       8.290   9.122   1.284  1.00  0.00     0.040 A 
ATOM     45  C   UNL     1       6.633  10.785   0.757  1.00  0.00     0.040 A 
ATOM     46  F   UNL     1       5.447  10.667  -1.261  1.00  0.00    -0.206 F 
ATOM     47  C   UNL     1       7.580  10.268   1.638  1.00  0.00     0.006 A 
ENDBRANCH  26  40
BRANCH  27  48
ATOM     48  C   UNL     1       4.554   4.308  -9.284  1.00  0.00     0.057 A 
ATOM     49  C   UNL     1       5.483   3.813 -10.205  1.00  0.00     0.134 A 
ATOM     50  C   UNL     1       3.196   4.090  -9.554  1.00  0.00     0.134 A 
ATOM     51  F   UNL     1       6.795   4.002 -10.008  1.00  0.00    -0.206 F 
ATOM     52  C   UNL     1       5.078   3.127 -11.352  1.00  0.00     0.040 A 
ATOM     53  C   UNL     1       2.779   3.384 -10.682  1.00  0.00     0.040 A 
ATOM     54  F   UNL     1       2.258   4.530  -8.703  1.00  0.00    -0.206 F 
ATOM     55  C   UNL     1       3.723   2.902 -11.587  1.00  0.00     0.006 A 
ENDBRANCH  27  48
BRANCH  39  56
ATOM     56  C   UNL     1       7.577  10.449  -7.879  1.00  0.00     0.057 A 
ATOM     57  C   UNL     1       6.731  11.336  -8.555  1.00  0.00     0.134 A 
ATOM     58  C   UNL     1       8.957  10.672  -7.973  1.00  0.00     0.134 A 
ATOM     59  F   UNL     1       5.401  11.170  -8.519  1.00  0.00    -0.206 F 
ATOM     60  C   UNL     1       7.241  12.403  -9.298  1.00  0.00     0.040 A 
ATOM     61  C   UNL     1       9.477  11.750  -8.689  1.00  0.00     0.040 A 
ATOM     62  F   UNL     1       9.822   9.861  -7.344  1.00  0.00    -0.206 F 
ATOM     63  C   UNL     1       8.617  12.619  -9.356  1.00  0.00     0.006 A 
ENDBRANCH  39  56
ENDBRANCH  13  14
ENDBRANCH   6   8
ENDBRANCH   3   4
ENDBRANCH   2   3
ENDBRANCH   1   2
BRANCH   1  64
ATOM     64  C   UNL     1       4.904  -3.366   2.815  1.00  0.00     0.002 C 
BRANCH  64  65
ATOM     65  C   UNL     1       6.435  -3.458   2.810  1.00  0.00     0.021 C 
BRANCH  65  66
ATOM     66  C   UNL     1       7.104  -3.200   4.161  1.00  0.00     0.116 C 
BRANCH  66  67
ATOM     67  N   UNL     1       6.682  -4.162   5.172  1.00  0.00    -0.352 N 
ATOM     68  C   UNL     1       7.446  -5.002   5.942  1.00  0.00     0.251 C 
ATOM     69  H   UNL     1       5.711  -4.216   5.324  1.00  0.00     0.163 HD
ATOM     70  O   UNL     1       6.930  -5.878   6.630  1.00  0.00    -0.269 OA
BRANCH  68  71
ATOM     71  C   UNL     1       8.908  -4.853   5.924  1.00  0.00     0.040 A 
ATOM     72  C   UNL     1       9.493  -3.666   6.360  1.00  0.00     0.014 A 
ATOM     73  C   UNL     1       9.692  -5.898   5.440  1.00  0.00     0.030 A 
ATOM     74  C   UNL     1      10.858  -3.471   6.169  1.00  0.00     0.011 A 
ATOM     75  C   UNL     1      11.061  -5.694   5.242  1.00  0.00     0.027 A 
ATOM     76  C   UNL     1      11.642  -4.440   5.513  1.00  0.00     0.020 A 
ATOM     77  Br  UNL     1      12.047  -7.171   4.567  1.00  0.00    -0.050 Br
BRANCH  76  78
ATOM     78  C   UNL     1      13.030  -4.038   5.057  1.00  0.00     0.300 C 
BRANCH  78  79
ATOM     79  N   UNL     1      13.121  -3.286   3.793  1.00  0.00    -0.322 N 
ATOM     80  C   UNL     1      12.718  -4.011   2.582  1.00  0.00     0.324 C 
ATOM     81  C   UNL     1      12.595  -1.915   3.800  1.00  0.00     0.324 C 
ATOM     82  H   UNL     1      14.134  -3.183   3.738  1.00  0.00     0.348 HD
ATOM     83  C   UNL     1      11.236  -3.847   2.174  1.00  0.00     0.322 C 
ATOM     84  C   UNL     1      11.139  -1.728   3.301  1.00  0.00     0.322 C 
ATOM     85  N   UNL     1      10.824  -2.437   2.051  1.00  0.00    -0.337 N 
ATOM     86  H   UNL     1       9.820  -2.389   1.875  1.00  0.00     0.346 HD
ATOM     87  H   UNL     1      11.323  -2.002   1.275  1.00  0.00     0.346 HD
ENDBRANCH  78  79
ENDBRANCH  76  78
ENDBRANCH  68  71
ENDBRANCH  66  67
ENDBRANCH  65  66
ENDBRANCH  64  65
ENDBRANCH   1  64
TORSDOF 15
