REMARK SMILES CCC(CC)C[N@H+]1[C@@H]2CC[C@H]1C[C@H](CC(=O)NCCCCCCNC(=O)c1ccc(-c3c4nc(c(-c5c(F)cccc5F)c5ccc([nH]5)c(-c5c(F)cccc5F)c5nc(c(-c6c(F)cccc6F)c6ccc3[nH]6)C=C5)C=C4)cc1)C2
REMARK SMILES IDX 19 1 18 2 17 3 15 4 16 5 14 7 13 8 7 9 8 10 11 11 9 13 81 14
REMARK SMILES IDX 10 15 12 16 6 17 3 18 2 19 1 20 4 21 5 22 20 23 21 24 22 25
REMARK SMILES IDX 23 26 24 27 25 28 26 30 27 31 28 32 80 33 29 34 79 35 30 36
REMARK SMILES IDX 31 37 32 38 73 39 33 40 78 41 72 42 74 43 34 44 77 45 71 46
REMARK SMILES IDX 70 47 35 49 61 50 44 51 60 52 45 53 48 54 59 55 75 56 46 57
REMARK SMILES IDX 47 58 58 60 76 61 49 62 36 63 37 64 42 65 38 66 39 67 41 68
REMARK SMILES IDX 43 69 40 70 62 71 63 72 68 73 64 74 65 75 67 76 69 77 66 78
REMARK SMILES IDX 50 79 51 80 56 81 52 82 53 83 55 84 57 85 54 86
REMARK H PARENT 17 6 7 12 24 29 74 48 48 59
REMARK Flexibility Score: inf
ROOT
ATOM      1  C   UNL     1       4.498  -0.263   0.529  1.00  0.00     0.021 C 
ENDROOT
BRANCH   1   2
ATOM      2  C   UNL     1       3.357   0.384  -0.274  1.00  0.00     0.116 C 
BRANCH   2   3
ATOM      3  N   UNL     1       3.316  -0.130  -1.638  1.00  0.00    -0.356 N 
ATOM      4  C   UNL     1       2.531  -1.044  -2.277  1.00  0.00     0.220 C 
ATOM      5  O   UNL     1       2.829  -1.315  -3.444  1.00  0.00    -0.275 OA
ATOM      6  H   UNL     1       4.002   0.268  -2.222  1.00  0.00     0.163 HD
BRANCH   4   7
ATOM      7  C   UNL     1       1.284  -1.661  -1.651  1.00  0.00     0.104 C 
BRANCH   7   8
ATOM      8  C   UNL     1       1.444  -2.923  -0.762  1.00  0.00     0.010 C 
ATOM      9  N   UNL     1       0.787  -3.437   2.072  1.00  0.00    -0.330 N 
ATOM     10  C   UNL     1       0.069  -4.189   1.060  1.00  0.00     0.184 C 
ATOM     11  C   UNL     1       2.179  -3.485   1.685  1.00  0.00     0.184 C 
ATOM     12  H   UNL     1       0.623  -3.835   2.996  1.00  0.00     0.348 HD
ATOM     13  C   UNL     1       0.953  -5.450   0.994  1.00  0.00     0.071 C 
ATOM     14  C   UNL     1       0.062  -3.486  -0.312  1.00  0.00     0.069 C 
ATOM     15  C   UNL     1       2.355  -4.974   1.386  1.00  0.00     0.071 C 
ATOM     16  C   UNL     1       2.387  -2.663   0.419  1.00  0.00     0.069 C 
BRANCH   9  17
ATOM     17  C   UNL     1       0.210  -2.381   2.892  1.00  0.00     0.266 C 
BRANCH  17  18
ATOM     18  C   UNL     1       0.372  -0.857   2.567  1.00  0.00     0.044 C 
BRANCH  18  19
ATOM     19  C   UNL     1      -0.503  -0.430   1.379  1.00  0.00     0.006 C 
ATOM     20  C   UNL     1      -0.370   1.015   0.913  1.00  0.00     0.004 C 
ENDBRANCH  18  19
BRANCH  18  21
ATOM     21  C   UNL     1       0.086   0.022   3.815  1.00  0.00     0.006 C 
ATOM     22  C   UNL     1      -1.385   0.276   4.122  1.00  0.00     0.004 C 
ENDBRANCH  18  21
ENDBRANCH  17  18
ENDBRANCH   9  17
ENDBRANCH   7   8
ENDBRANCH   4   7
ENDBRANCH   2   3
ENDBRANCH   1   2
BRANCH   1  23
ATOM     23  C   UNL     1       5.748   0.603   0.661  1.00  0.00     0.002 C 
BRANCH  23  24
ATOM     24  C   UNL     1       5.631   1.737   1.682  1.00  0.00     0.002 C 
BRANCH  24  25
ATOM     25  C   UNL     1       5.417   1.310   3.141  1.00  0.00     0.021 C 
BRANCH  25  26
ATOM     26  C   UNL     1       6.413   0.290   3.692  1.00  0.00     0.116 C 
BRANCH  26  27
ATOM     27  N   UNL     1       7.793   0.715   3.530  1.00  0.00    -0.352 N 
ATOM     28  C   UNL     1       8.794   0.872   4.454  1.00  0.00     0.251 C 
ATOM     29  H   UNL     1       8.052   0.925   2.603  1.00  0.00     0.163 HD
ATOM     30  O   UNL     1       9.841   1.421   4.126  1.00  0.00    -0.269 OA
BRANCH  28  31
ATOM     31  C   UNL     1       8.625   0.394   5.843  1.00  0.00     0.039 A 
ATOM     32  C   UNL     1       9.115   1.187   6.885  1.00  0.00     0.014 A 
ATOM     33  C   UNL     1       8.052  -0.849   6.124  1.00  0.00     0.014 A 
ATOM     34  C   UNL     1       8.997   0.752   8.207  1.00  0.00     0.010 A 
ATOM     35  C   UNL     1       7.873  -1.252   7.446  1.00  0.00     0.010 A 
ATOM     36  C   UNL     1       8.357  -0.463   8.500  1.00  0.00    -0.014 A 
BRANCH  36  37
ATOM     37  C   UNL     1       8.217  -0.926   9.903  1.00  0.00     0.031 A 
ATOM     38  C   UNL     1       8.935  -2.163  10.369  1.00  0.00     0.074 A 
ATOM     39  C   UNL     1       7.418  -0.250  10.751  1.00  0.00     0.049 A 
ATOM     40  N   UNL     1       8.927  -2.730  11.549  1.00  0.00    -0.248 NA
ATOM     41  C   UNL     1       9.752  -2.872   9.370  1.00  0.00     0.031 C 
ATOM     42  C   UNL     1       6.633   0.937  10.406  1.00  0.00     0.029 A 
ATOM     43  N   UNL     1       7.134  -0.463  12.076  1.00  0.00    -0.354 N 
ATOM     44  C   UNL     1       9.726  -3.861  11.432  1.00  0.00     0.074 A 
ATOM     45  C   UNL     1      10.155  -3.933  10.053  1.00  0.00     0.031 C 
ATOM     46  C   UNL     1       5.981   1.364  11.500  1.00  0.00     0.029 A 
ATOM     47  C   UNL     1       6.276   0.466  12.611  1.00  0.00     0.049 A 
ATOM     48  H   UNL     1       7.510  -1.212  12.593  1.00  0.00     0.167 HD
ATOM     49  C   UNL     1      10.091  -4.744  12.392  1.00  0.00     0.037 A 
ATOM     50  C   UNL     1       5.787   0.582  13.860  1.00  0.00     0.037 A 
ATOM     51  C   UNL     1       9.681  -4.656  13.769  1.00  0.00     0.049 A 
ATOM     52  C   UNL     1       6.206  -0.412  14.907  1.00  0.00     0.074 A 
ATOM     53  C   UNL     1      10.039  -5.469  14.830  1.00  0.00     0.029 A 
ATOM     54  N   UNL     1       8.818  -3.695  14.275  1.00  0.00    -0.354 N 
ATOM     55  N   UNL     1       7.018  -1.436  14.798  1.00  0.00    -0.248 NA
ATOM     56  C   UNL     1       5.648  -0.229  16.254  1.00  0.00     0.031 C 
ATOM     57  C   UNL     1       9.361  -5.024  15.970  1.00  0.00     0.029 A 
ATOM     58  C   UNL     1       8.617  -3.907  15.629  1.00  0.00     0.049 A 
ATOM     59  H   UNL     1       8.409  -2.970  13.749  1.00  0.00     0.167 HD
ATOM     60  C   UNL     1       7.088  -2.002  16.064  1.00  0.00     0.074 A 
ATOM     61  C   UNL     1       6.251  -1.197  16.929  1.00  0.00     0.031 C 
ATOM     62  C   UNL     1       7.782  -3.092  16.475  1.00  0.00     0.037 A 
BRANCH  49  63
ATOM     63  C   UNL     1      10.986  -5.878  11.984  1.00  0.00     0.057 A 
ATOM     64  C   UNL     1      12.329  -5.670  11.637  1.00  0.00     0.134 A 
ATOM     65  C   UNL     1      10.513  -7.196  11.963  1.00  0.00     0.134 A 
ATOM     66  F   UNL     1      12.843  -4.431  11.625  1.00  0.00    -0.206 F 
ATOM     67  C   UNL     1      13.158  -6.726  11.258  1.00  0.00     0.040 A 
ATOM     68  C   UNL     1      11.340  -8.264  11.612  1.00  0.00     0.040 A 
ATOM     69  F   UNL     1       9.240  -7.468  12.290  1.00  0.00    -0.206 F 
ATOM     70  C   UNL     1      12.666  -8.030  11.251  1.00  0.00     0.006 A 
ENDBRANCH  49  63
BRANCH  50  71
ATOM     71  C   UNL     1       4.870   1.700  14.200  1.00  0.00     0.057 A 
ATOM     72  C   UNL     1       5.285   2.743  15.036  1.00  0.00     0.134 A 
ATOM     73  C   UNL     1       3.561   1.748  13.709  1.00  0.00     0.134 A 
ATOM     74  F   UNL     1       6.523   2.742  15.552  1.00  0.00    -0.206 F 
ATOM     75  C   UNL     1       4.426   3.784  15.388  1.00  0.00     0.040 A 
ATOM     76  C   UNL     1       2.698   2.796  14.033  1.00  0.00     0.040 A 
ATOM     77  F   UNL     1       3.105   0.783  12.897  1.00  0.00    -0.206 F 
ATOM     78  C   UNL     1       3.128   3.814  14.882  1.00  0.00     0.006 A 
ENDBRANCH  50  71
BRANCH  62  79
ATOM     79  C   UNL     1       7.686  -3.456  17.927  1.00  0.00     0.057 A 
ATOM     80  C   UNL     1       6.522  -4.011  18.474  1.00  0.00     0.134 A 
ATOM     81  C   UNL     1       8.781  -3.276  18.782  1.00  0.00     0.134 A 
ATOM     82  F   UNL     1       5.434  -4.196  17.711  1.00  0.00    -0.206 F 
ATOM     83  C   UNL     1       6.442  -4.351  19.825  1.00  0.00     0.040 A 
ATOM     84  C   UNL     1       8.722  -3.637  20.128  1.00  0.00     0.040 A 
ATOM     85  F   UNL     1       9.929  -2.758  18.319  1.00  0.00    -0.206 F 
ATOM     86  C   UNL     1       7.547  -4.169  20.655  1.00  0.00     0.006 A 
ENDBRANCH  62  79
ENDBRANCH  36  37
ENDBRANCH  28  31
ENDBRANCH  26  27
ENDBRANCH  25  26
ENDBRANCH  24  25
ENDBRANCH  23  24
ENDBRANCH   1  23
TORSDOF 18
