REMARK SMILES CS(=O)(=O)c1ccc(-n2nc(C(F)(F)F)cc2-c2ccc(CC(=O)NCCCCCCNC(=O)c3ccc(-c4c5nc(c(-c6c(F)cccc6F)c6ccc([nH]6)c(-c6c(F)cccc6F)c6nc(c(-c7c(F)cccc7F)c7ccc4[nH]7)C=C6)C=C5)cc3)cc2)cc1
REMARK SMILES IDX 27 1 26 2 25 3 23 4 24 5 22 7 21 8 18 9 19 10 90 11 20 12
REMARK SMILES IDX 89 13 17 14 9 15 10 16 11 17 16 18 8 19 5 20 6 21 92 22 7 23
REMARK SMILES IDX 91 24 2 25 1 26 3 27 4 28 12 29 13 30 14 31 15 32 28 33
REMARK SMILES IDX 29 34 30 35 31 36 32 37 33 38 34 40 35 41 36 42 88 43 37 44
REMARK SMILES IDX 87 45 38 46 39 47 40 48 81 49 41 50 86 51 80 52 82 53 42 54
REMARK SMILES IDX 85 55 79 56 78 57 43 59 69 60 52 61 68 62 53 63 56 64 67 65
REMARK SMILES IDX 83 66 54 67 55 68 66 70 84 71 57 72 44 73 45 74 50 75 46 76
REMARK SMILES IDX 47 77 49 78 51 79 48 80 70 81 71 82 76 83 72 84 73 85 75 86
REMARK SMILES IDX 77 87 74 88 58 89 59 90 64 91 60 92 61 93 63 94 65 95 62 96
REMARK H PARENT 25 6 32 39 82 58 56 69
REMARK Flexibility Score: inf
ROOT
ATOM      1  C   UNL     1       4.242   1.347  -6.242  1.00  0.00     0.021 C 
ENDROOT
BRANCH   1   2
ATOM      2  C   UNL     1       4.346   1.420  -7.767  1.00  0.00     0.116 C 
BRANCH   2   3
ATOM      3  N   UNL     1       3.147   0.911  -8.401  1.00  0.00    -0.356 N 
ATOM      4  C   UNL     1       2.172   1.589  -9.075  1.00  0.00     0.224 C 
ATOM      5  O   UNL     1       1.181   0.966  -9.458  1.00  0.00    -0.275 OA
ATOM      6  H   UNL     1       3.017  -0.063  -8.338  1.00  0.00     0.163 HD
BRANCH   4   7
ATOM      7  C   UNL     1       2.345   3.066  -9.389  1.00  0.00     0.135 C 
BRANCH   7   8
ATOM      8  C   UNL     1       2.319   3.964  -8.176  1.00  0.00    -0.039 A 
ATOM      9  C   UNL     1       2.355   5.528  -5.838  1.00  0.00     0.000 A 
ATOM     10  C   UNL     1       1.234   4.749  -6.161  1.00  0.00     0.010 A 
ATOM     11  C   UNL     1       3.432   5.566  -6.726  1.00  0.00     0.010 A 
ATOM     12  C   UNL     1       1.220   3.964  -7.314  1.00  0.00     0.005 A 
ATOM     13  C   UNL     1       3.406   4.804  -7.893  1.00  0.00     0.005 A 
BRANCH   9  14
ATOM     14  C   UNL     1       2.388   6.327  -4.615  1.00  0.00     0.075 A 
ATOM     15  N   UNL     1       1.966   5.906  -3.363  1.00  0.00    -0.233 N 
ATOM     16  N   UNL     1       1.845   6.940  -2.490  1.00  0.00    -0.163 NA
ATOM     17  C   UNL     1       2.399   7.993  -3.123  1.00  0.00     0.167 A 
ATOM     18  C   UNL     1       2.724   7.658  -4.459  1.00  0.00     0.064 A 
BRANCH  15  19
ATOM     19  C   UNL     1       1.646   4.588  -2.953  1.00  0.00     0.065 A 
ATOM     20  C   UNL     1       0.925   2.012  -2.201  1.00  0.00     0.067 A 
ATOM     21  C   UNL     1       2.140   2.224  -2.861  1.00  0.00     0.022 A 
ATOM     22  C   UNL     1       0.061   3.076  -1.928  1.00  0.00     0.022 A 
ATOM     23  C   UNL     1       2.501   3.517  -3.246  1.00  0.00     0.030 A 
ATOM     24  C   UNL     1       0.430   4.367  -2.299  1.00  0.00     0.030 A 
BRANCH  20  25
ATOM     25  S   UNL     1       0.409   0.358  -1.801  1.00  0.00     0.175 S 
ATOM     26  C   UNL     1       0.992   0.121  -0.146  1.00  0.00     0.163 C 
ATOM     27  O   UNL     1       1.151  -0.543  -2.672  1.00  0.00    -0.224 OA
ATOM     28  O   UNL     1      -1.036   0.347  -1.781  1.00  0.00    -0.224 OA
ENDBRANCH  20  25
ENDBRANCH  15  19
BRANCH  17  29
ATOM     29  C   UNL     1       2.602   9.336  -2.475  1.00  0.00     0.435 C 
ATOM     30  F   UNL     1       1.511   9.771  -1.794  1.00  0.00    -0.164 F 
ATOM     31  F   UNL     1       3.644   9.328  -1.599  1.00  0.00    -0.164 F 
ATOM     32  F   UNL     1       2.891  10.299  -3.396  1.00  0.00    -0.164 F 
ENDBRANCH  17  29
ENDBRANCH   9  14
ENDBRANCH   7   8
ENDBRANCH   4   7
ENDBRANCH   2   3
ENDBRANCH   1   2
BRANCH   1  33
ATOM     33  C   UNL     1       4.304  -0.081  -5.685  1.00  0.00     0.002 C 
BRANCH  33  34
ATOM     34  C   UNL     1       5.525  -0.908  -6.118  1.00  0.00     0.002 C 
BRANCH  34  35
ATOM     35  C   UNL     1       6.898  -0.271  -5.858  1.00  0.00     0.021 C 
BRANCH  35  36
ATOM     36  C   UNL     1       7.229  -0.119  -4.382  1.00  0.00     0.116 C 
BRANCH  36  37
ATOM     37  N   UNL     1       7.405  -1.410  -3.718  1.00  0.00    -0.352 N 
ATOM     38  C   UNL     1       7.718  -1.663  -2.398  1.00  0.00     0.251 C 
ATOM     39  H   UNL     1       7.285  -2.204  -4.288  1.00  0.00     0.163 HD
ATOM     40  O   UNL     1       8.219  -2.729  -2.062  1.00  0.00    -0.269 OA
BRANCH  38  41
ATOM     41  C   UNL     1       7.417  -0.635  -1.386  1.00  0.00     0.039 A 
ATOM     42  C   UNL     1       8.255  -0.421  -0.287  1.00  0.00     0.014 A 
ATOM     43  C   UNL     1       6.253   0.114  -1.550  1.00  0.00     0.014 A 
ATOM     44  C   UNL     1       7.935   0.595   0.612  1.00  0.00     0.010 A 
ATOM     45  C   UNL     1       6.030   1.213  -0.767  1.00  0.00     0.010 A 
ATOM     46  C   UNL     1       6.822   1.411   0.355  1.00  0.00    -0.014 A 
BRANCH  46  47
ATOM     47  C   UNL     1       6.544   2.599   1.153  1.00  0.00     0.031 A 
ATOM     48  C   UNL     1       7.641   3.601   1.090  1.00  0.00     0.074 A 
ATOM     49  C   UNL     1       5.315   2.868   1.649  1.00  0.00     0.049 A 
ATOM     50  N   UNL     1       8.441   3.957   2.038  1.00  0.00    -0.248 NA
ATOM     51  C   UNL     1       8.020   4.130  -0.234  1.00  0.00     0.031 C 
ATOM     52  C   UNL     1       4.079   2.095   1.475  1.00  0.00     0.029 A 
ATOM     53  N   UNL     1       4.877   3.959   2.337  1.00  0.00    -0.354 N 
ATOM     54  C   UNL     1       9.251   4.948   1.489  1.00  0.00     0.074 A 
ATOM     55  C   UNL     1       9.122   4.821   0.064  1.00  0.00     0.031 C 
ATOM     56  C   UNL     1       3.013   2.845   1.840  1.00  0.00     0.029 A 
ATOM     57  C   UNL     1       3.488   4.088   2.417  1.00  0.00     0.049 A 
ATOM     58  H   UNL     1       5.494   4.608   2.748  1.00  0.00     0.167 HD
ATOM     59  C   UNL     1       9.689   5.984   2.258  1.00  0.00     0.037 A 
ATOM     60  C   UNL     1       2.802   5.161   2.901  1.00  0.00     0.037 A 
ATOM     61  C   UNL     1       9.577   5.649   3.661  1.00  0.00     0.049 A 
ATOM     62  C   UNL     1       3.761   5.966   3.695  1.00  0.00     0.074 A 
ATOM     63  C   UNL     1      10.054   4.626   4.459  1.00  0.00     0.029 A 
ATOM     64  N   UNL     1       8.539   6.210   4.365  1.00  0.00    -0.354 N 
ATOM     65  N   UNL     1       4.256   5.575   4.833  1.00  0.00    -0.248 NA
ATOM     66  C   UNL     1       4.527   6.976   2.982  1.00  0.00     0.031 C 
ATOM     67  C   UNL     1       8.975   4.310   5.338  1.00  0.00     0.029 A 
ATOM     68  C   UNL     1       7.945   5.218   5.100  1.00  0.00     0.049 A 
ATOM     69  H   UNL     1       8.270   7.157   4.346  1.00  0.00     0.167 HD
ATOM     70  C   UNL     1       5.593   5.932   4.765  1.00  0.00     0.074 A 
ATOM     71  C   UNL     1       5.687   6.852   3.631  1.00  0.00     0.031 C 
ATOM     72  C   UNL     1       6.541   5.211   5.431  1.00  0.00     0.037 A 
BRANCH  59  73
ATOM     73  C   UNL     1       9.781   7.421   1.778  1.00  0.00     0.057 A 
ATOM     74  C   UNL     1      10.234   8.402   2.682  1.00  0.00     0.134 A 
ATOM     75  C   UNL     1       9.184   7.937   0.607  1.00  0.00     0.134 A 
ATOM     76  F   UNL     1      10.831   8.056   3.833  1.00  0.00    -0.206 F 
ATOM     77  C   UNL     1      10.005   9.771   2.491  1.00  0.00     0.040 A 
ATOM     78  C   UNL     1       8.995   9.304   0.385  1.00  0.00     0.040 A 
ATOM     79  F   UNL     1       8.664   7.165  -0.352  1.00  0.00    -0.206 F 
ATOM     80  C   UNL     1       9.370  10.225   1.345  1.00  0.00     0.006 A 
ENDBRANCH  59  73
BRANCH  60  81
ATOM     81  C   UNL     1       1.486   5.735   2.522  1.00  0.00     0.057 A 
ATOM     82  C   UNL     1       0.869   6.723   3.309  1.00  0.00     0.134 A 
ATOM     83  C   UNL     1       0.974   5.581   1.229  1.00  0.00     0.134 A 
ATOM     84  F   UNL     1       1.304   6.971   4.553  1.00  0.00    -0.206 F 
ATOM     85  C   UNL     1      -0.159   7.543   2.821  1.00  0.00     0.040 A 
ATOM     86  C   UNL     1      -0.048   6.398   0.729  1.00  0.00     0.040 A 
ATOM     87  F   UNL     1       1.516   4.694   0.386  1.00  0.00    -0.206 F 
ATOM     88  C   UNL     1      -0.607   7.395   1.516  1.00  0.00     0.006 A 
ENDBRANCH  60  81
BRANCH  72  89
ATOM     89  C   UNL     1       6.077   4.187   6.433  1.00  0.00     0.057 A 
ATOM     90  C   UNL     1       5.290   3.064   6.128  1.00  0.00     0.134 A 
ATOM     91  C   UNL     1       6.564   4.276   7.741  1.00  0.00     0.134 A 
ATOM     92  F   UNL     1       4.854   2.836   4.883  1.00  0.00    -0.206 F 
ATOM     93  C   UNL     1       4.971   2.102   7.092  1.00  0.00     0.040 A 
ATOM     94  C   UNL     1       6.284   3.304   8.703  1.00  0.00     0.040 A 
ATOM     95  F   UNL     1       7.364   5.294   8.095  1.00  0.00    -0.206 F 
ATOM     96  C   UNL     1       5.475   2.217   8.384  1.00  0.00     0.006 A 
ENDBRANCH  72  89
ENDBRANCH  46  47
ENDBRANCH  38  41
ENDBRANCH  36  37
ENDBRANCH  35  36
ENDBRANCH  34  35
ENDBRANCH  33  34
ENDBRANCH   1  33
TORSDOF 18
