REMARK SMILES CC1CC[NH+]([C@H](c2ccc(F)cc2)c2ccc([C@@H](C)C(=O)NCCCCCCNC(=O)c3ccc(-c4c5nc(c(-c6c(F)cccc6F)c6ccc([nH]6)c(-c6c(F)cccc6F)c6nc(c(-c7c(F)cccc7F)c7ccc4[nH]7)C=C6)C=C5)cc3)cc2-c2ccc(C(F)(F)F)cc2)CC1
REMARK SMILES IDX 25 1 24 2 23 3 22 4 20 5 21 6 18 8 19 9 17 10 14 11 15 12
REMARK SMILES IDX 87 13 16 14 86 15 6 16 5 17 1 18 2 19 3 20 99 21 4 22 98 23
REMARK SMILES IDX 7 25 8 26 13 27 9 28 12 29 10 30 11 31 88 32 89 33 97 34
REMARK SMILES IDX 90 35 96 36 91 37 92 38 93 39 94 40 95 41 26 42 27 43 28 44
REMARK SMILES IDX 29 45 30 46 31 48 32 49 33 50 85 51 34 52 84 53 35 54 36 55
REMARK SMILES IDX 37 56 78 57 38 58 83 59 77 60 79 61 39 62 82 63 76 64 75 65
REMARK SMILES IDX 40 67 66 68 49 69 65 70 50 71 53 72 64 73 80 74 51 75 52 76
REMARK SMILES IDX 63 78 81 79 54 80 41 81 42 82 47 83 43 84 44 85 46 86 48 87
REMARK SMILES IDX 45 88 67 89 68 90 73 91 69 92 70 93 72 94 74 95 71 96 55 97
REMARK SMILES IDX 56 98 61 99 57 100 58 101 60 102 62 103 59 104
REMARK H PARENT 22 7 5 24 29 47 79 66 53 77
REMARK Flexibility Score: inf
ROOT
ATOM      1  C   UNL     1      -0.060   6.441  -3.437  1.00  0.00     0.002 C 
ENDROOT
BRANCH   1   2
ATOM      2  C   UNL     1       1.001   5.396  -3.789  1.00  0.00     0.021 C 
BRANCH   2   3
ATOM      3  C   UNL     1       2.228   5.972  -4.510  1.00  0.00     0.116 C 
BRANCH   3   4
ATOM      4  N   UNL     1       3.277   6.332  -3.579  1.00  0.00    -0.356 N 
ATOM      5  C   UNL     1       4.436   5.723  -3.206  1.00  0.00     0.227 C 
ATOM      6  O   UNL     1       5.077   6.288  -2.311  1.00  0.00    -0.274 OA
ATOM      7  H   UNL     1       3.121   7.191  -3.124  1.00  0.00     0.163 HD
BRANCH   5   8
ATOM      8  C   UNL     1       4.979   4.419  -3.823  1.00  0.00     0.105 C 
ATOM      9  C   UNL     1       5.246   4.508  -5.324  1.00  0.00     0.023 C 
BRANCH   8  10
ATOM     10  C   UNL     1       4.223   3.183  -3.370  1.00  0.00    -0.035 A 
ATOM     11  C   UNL     1       2.623   1.100  -2.220  1.00  0.00     0.022 A 
ATOM     12  C   UNL     1       2.175   1.913  -3.272  1.00  0.00     0.011 A 
ATOM     13  C   UNL     1       3.986   1.255  -1.842  1.00  0.00    -0.009 A 
ATOM     14  C   UNL     1       2.988   2.851  -3.895  1.00  0.00     0.005 A 
ATOM     15  C   UNL     1       4.727   2.347  -2.366  1.00  0.00     0.013 A 
BRANCH  11  16
ATOM     16  C   UNL     1       1.679   0.044  -1.574  1.00  0.00     0.247 C 
BRANCH  16  17
ATOM     17  N   UNL     1       0.246   0.006  -2.025  1.00  0.00    -0.325 N 
ATOM     18  C   UNL     1      -3.308   1.267  -4.256  1.00  0.00     0.008 C 
ATOM     19  C   UNL     1      -1.918   1.106  -3.663  1.00  0.00    -0.003 C 
ATOM     20  C   UNL     1      -1.308  -0.242  -4.039  1.00  0.00     0.065 C 
ATOM     21  C   UNL     1      -1.978   1.184  -2.147  1.00  0.00     0.065 C 
ATOM     22  C   UNL     1       0.066  -0.477  -3.399  1.00  0.00     0.263 C 
ATOM     23  C   UNL     1      -0.573   1.126  -1.565  1.00  0.00     0.263 C 
ATOM     24  H   UNL     1      -0.195  -0.749  -1.500  1.00  0.00     0.348 HD
ENDBRANCH  16  17
BRANCH  16  25
ATOM     25  C   UNL     1       1.751   0.017  -0.033  1.00  0.00     0.014 A 
ATOM     26  C   UNL     1       1.589   1.183   0.743  1.00  0.00     0.013 A 
ATOM     27  C   UNL     1       1.983  -1.201   0.633  1.00  0.00     0.013 A 
ATOM     28  C   UNL     1       1.635   1.126   2.137  1.00  0.00     0.040 A 
ATOM     29  C   UNL     1       2.070  -1.248   2.026  1.00  0.00     0.040 A 
ATOM     30  C   UNL     1       1.885  -0.087   2.764  1.00  0.00     0.123 A 
ATOM     31  F   UNL     1       1.948  -0.137   4.101  1.00  0.00    -0.207 F 
ENDBRANCH  16  25
ENDBRANCH  11  16
BRANCH  13  32
ATOM     32  C   UNL     1       4.707   0.301  -0.976  1.00  0.00    -0.018 A 
ATOM     33  C   UNL     1       5.298   0.703   0.230  1.00  0.00     0.009 A 
ATOM     34  C   UNL     1       4.862  -1.039  -1.373  1.00  0.00     0.009 A 
ATOM     35  C   UNL     1       5.990  -0.211   1.031  1.00  0.00     0.014 A 
ATOM     36  C   UNL     1       5.539  -1.959  -0.569  1.00  0.00     0.014 A 
ATOM     37  C   UNL     1       6.104  -1.556   0.647  1.00  0.00     0.056 A 
BRANCH  37  38
ATOM     38  C   UNL     1       6.842  -2.537   1.524  1.00  0.00     0.416 C 
ATOM     39  F   UNL     1       8.186  -2.318   1.533  1.00  0.00    -0.166 F 
ATOM     40  F   UNL     1       6.444  -2.483   2.825  1.00  0.00    -0.166 F 
ATOM     41  F   UNL     1       6.678  -3.835   1.141  1.00  0.00    -0.166 F 
ENDBRANCH  37  38
ENDBRANCH  13  32
ENDBRANCH   8  10
ENDBRANCH   5   8
ENDBRANCH   3   4
ENDBRANCH   2   3
ENDBRANCH   1   2
BRANCH   1  42
ATOM     42  C   UNL     1      -0.693   7.143  -4.644  1.00  0.00     0.002 C 
BRANCH  42  43
ATOM     43  C   UNL     1      -1.362   6.212  -5.660  1.00  0.00     0.021 C 
BRANCH  43  44
ATOM     44  C   UNL     1      -2.561   5.447  -5.108  1.00  0.00     0.116 C 
BRANCH  44  45
ATOM     45  N   UNL     1      -3.639   6.352  -4.728  1.00  0.00    -0.352 N 
ATOM     46  C   UNL     1      -4.907   6.459  -5.250  1.00  0.00     0.251 C 
ATOM     47  H   UNL     1      -3.430   6.974  -3.994  1.00  0.00     0.163 HD
ATOM     48  O   UNL     1      -5.605   7.436  -5.016  1.00  0.00    -0.269 OA
BRANCH  46  49
ATOM     49  C   UNL     1      -5.421   5.363  -6.095  1.00  0.00     0.039 A 
ATOM     50  C   UNL     1      -6.028   5.636  -7.321  1.00  0.00     0.014 A 
ATOM     51  C   UNL     1      -5.276   4.049  -5.657  1.00  0.00     0.014 A 
ATOM     52  C   UNL     1      -6.413   4.575  -8.148  1.00  0.00     0.010 A 
ATOM     53  C   UNL     1      -5.580   3.000  -6.512  1.00  0.00     0.010 A 
ATOM     54  C   UNL     1      -6.149   3.248  -7.769  1.00  0.00    -0.014 A 
BRANCH  54  55
ATOM     55  C   UNL     1      -6.435   2.086  -8.649  1.00  0.00     0.031 A 
ATOM     56  C   UNL     1      -7.352   0.994  -8.170  1.00  0.00     0.074 A 
ATOM     57  C   UNL     1      -5.772   1.945  -9.814  1.00  0.00     0.049 A 
ATOM     58  N   UNL     1      -7.588  -0.180  -8.698  1.00  0.00    -0.248 NA
ATOM     59  C   UNL     1      -8.066   1.236  -6.905  1.00  0.00     0.031 C 
ATOM     60  C   UNL     1      -4.818   2.907 -10.367  1.00  0.00     0.029 A 
ATOM     61  N   UNL     1      -5.781   0.923 -10.731  1.00  0.00    -0.354 N 
ATOM     62  C   UNL     1      -8.454  -0.820  -7.821  1.00  0.00     0.074 A 
ATOM     63  C   UNL     1      -8.655   0.068  -6.698  1.00  0.00     0.031 C 
ATOM     64  C   UNL     1      -4.351   2.441 -11.535  1.00  0.00     0.029 A 
ATOM     65  C   UNL     1      -4.928   1.124 -11.790  1.00  0.00     0.049 A 
ATOM     66  H   UNL     1      -6.345   0.121 -10.639  1.00  0.00     0.167 HD
ATOM     67  C   UNL     1      -9.049  -2.029  -7.952  1.00  0.00     0.037 A 
ATOM     68  C   UNL     1      -4.628   0.332 -12.838  1.00  0.00     0.037 A 
ATOM     69  C   UNL     1      -8.875  -2.890  -9.091  1.00  0.00     0.049 A 
ATOM     70  C   UNL     1      -5.289  -1.012 -12.961  1.00  0.00     0.074 A 
ATOM     71  C   UNL     1      -9.495  -4.098  -9.354  1.00  0.00     0.029 A 
ATOM     72  N   UNL     1      -8.021  -2.636 -10.153  1.00  0.00    -0.354 N 
ATOM     73  N   UNL     1      -6.154  -1.580 -12.155  1.00  0.00    -0.248 NA
ATOM     74  C   UNL     1      -4.936  -1.829 -14.132  1.00  0.00     0.031 C 
ATOM     75  C   UNL     1      -8.972  -4.604 -10.545  1.00  0.00     0.029 A 
ATOM     76  C   UNL     1      -8.074  -3.681 -11.058  1.00  0.00     0.049 A 
ATOM     77  H   UNL     1      -7.460  -1.832 -10.249  1.00  0.00     0.167 HD
ATOM     78  C   UNL     1      -6.468  -2.803 -12.732  1.00  0.00     0.074 A 
ATOM     79  C   UNL     1      -5.704  -2.897 -13.958  1.00  0.00     0.031 C 
ATOM     80  C   UNL     1      -7.318  -3.758 -12.283  1.00  0.00     0.037 A 
BRANCH  67  81
ATOM     81  C   UNL     1      -9.955  -2.490  -6.848  1.00  0.00     0.057 A 
ATOM     82  C   UNL     1      -9.620  -3.604  -6.066  1.00  0.00     0.134 A 
ATOM     83  C   UNL     1     -11.190  -1.877  -6.599  1.00  0.00     0.134 A 
ATOM     84  F   UNL     1      -8.457  -4.245  -6.256  1.00  0.00    -0.206 F 
ATOM     85  C   UNL     1     -10.483  -4.094  -5.085  1.00  0.00     0.040 A 
ATOM     86  C   UNL     1     -12.047  -2.339  -5.600  1.00  0.00     0.040 A 
ATOM     87  F   UNL     1     -11.569  -0.801  -7.306  1.00  0.00    -0.206 F 
ATOM     88  C   UNL     1     -11.699  -3.458  -4.846  1.00  0.00     0.006 A 
ENDBRANCH  67  81
BRANCH  68  89
ATOM     89  C   UNL     1      -3.673   0.818 -13.867  1.00  0.00     0.057 A 
ATOM     90  C   UNL     1      -2.308   0.968 -13.593  1.00  0.00     0.134 A 
ATOM     91  C   UNL     1      -4.120   1.196 -15.138  1.00  0.00     0.134 A 
ATOM     92  F   UNL     1      -1.818   0.633 -12.390  1.00  0.00    -0.206 F 
ATOM     93  C   UNL     1      -1.427   1.500 -14.537  1.00  0.00     0.040 A 
ATOM     94  C   UNL     1      -3.246   1.707 -16.099  1.00  0.00     0.040 A 
ATOM     95  F   UNL     1      -5.413   1.060 -15.466  1.00  0.00    -0.206 F 
ATOM     96  C   UNL     1      -1.896   1.870 -15.795  1.00  0.00     0.006 A 
ENDBRANCH  68  89
BRANCH  80  97
ATOM     97  C   UNL     1      -7.508  -4.989 -13.119  1.00  0.00     0.057 A 
ATOM     98  C   UNL     1      -8.730  -5.226 -13.764  1.00  0.00     0.134 A 
ATOM     99  C   UNL     1      -6.543  -6.001 -13.168  1.00  0.00     0.134 A 
ATOM    100  F   UNL     1      -9.701  -4.300 -13.743  1.00  0.00    -0.206 F 
ATOM    101  C   UNL     1      -8.998  -6.439 -14.398  1.00  0.00     0.040 A 
ATOM    102  C   UNL     1      -6.790  -7.210 -13.822  1.00  0.00     0.040 A 
ATOM    103  F   UNL     1      -5.351  -5.833 -12.578  1.00  0.00    -0.206 F 
ATOM    104  C   UNL     1      -8.027  -7.437 -14.424  1.00  0.00     0.006 A 
ENDBRANCH  80  97
ENDBRANCH  54  55
ENDBRANCH  46  49
ENDBRANCH  44  45
ENDBRANCH  43  44
ENDBRANCH  42  43
ENDBRANCH   1  42
TORSDOF 19
