REMARK SMILES O=C(/C=C/c1ccccc1)Nc1ccc(O)cc1C(=O)NCCCCCCNC(=O)c1ccc(-c2c3nc(c(-c4c(F)cccc4F)c4ccc([nH]4)c(-c4c(F)cccc4F)c4nc(c(-c5c(F)cccc5F)c5ccc2[nH]5)C=C4)C=C3)cc1
REMARK SMILES IDX 24 1 23 2 22 3 21 4 19 5 20 6 18 8 12 9 13 10 14 11 17 12
REMARK SMILES IDX 15 13 11 14 1 15 2 16 3 18 4 19 5 20 6 21 10 22 7 23 9 24
REMARK SMILES IDX 8 25 16 26 25 28 26 29 27 30 28 31 29 32 30 34 31 35 32 36
REMARK SMILES IDX 84 37 33 38 83 39 34 40 35 41 36 42 77 43 37 44 82 45 76 46
REMARK SMILES IDX 78 47 38 48 81 49 75 50 74 51 39 53 65 54 48 55 64 56 49 57
REMARK SMILES IDX 52 58 63 59 79 60 50 61 51 62 62 64 80 65 53 66 40 67 41 68
REMARK SMILES IDX 46 69 42 70 43 71 45 72 47 73 44 74 66 75 67 76 72 77 68 78
REMARK SMILES IDX 69 79 71 80 73 81 70 82 54 83 55 84 60 85 56 86 57 87 59 88
REMARK SMILES IDX 61 89 58 90
REMARK H PARENT 21 7 11 17 16 27 28 33 78 52 52 63
REMARK Flexibility Score: inf
ROOT
ATOM      1  C   UNL     1       2.449  -3.457  -1.008  1.00  0.00     0.002 C 
ENDROOT
BRANCH   1   2
ATOM      2  C   UNL     1       3.115  -2.513   0.010  1.00  0.00     0.021 C 
BRANCH   2   3
ATOM      3  C   UNL     1       2.434  -1.182   0.357  1.00  0.00     0.116 C 
BRANCH   3   4
ATOM      4  N   UNL     1       1.226  -1.224   1.148  1.00  0.00    -0.352 N 
ATOM      5  C   UNL     1       0.584  -0.279   1.931  1.00  0.00     0.253 C 
ATOM      6  O   UNL     1      -0.591  -0.567   2.206  1.00  0.00    -0.269 OA
ATOM      7  H   UNL     1       0.769  -2.096   1.127  1.00  0.00     0.163 HD
BRANCH   5   8
ATOM      8  C   UNL     1       1.169   0.943   2.616  1.00  0.00     0.067 A 
ATOM      9  C   UNL     1       2.223   1.812   2.275  1.00  0.00     0.054 A 
ATOM     10  C   UNL     1       2.700   2.760   3.218  1.00  0.00     0.031 A 
ATOM     11  C   UNL     1       2.081   2.959   4.442  1.00  0.00     0.048 A 
ATOM     12  C   UNL     1       0.547   1.191   3.877  1.00  0.00     0.062 A 
ATOM     13  C   UNL     1       0.984   2.189   4.752  1.00  0.00     0.116 A 
BRANCH   9  14
ATOM     14  N   UNL     1       2.920   1.925   1.067  1.00  0.00    -0.322 N 
ATOM     15  O   UNL     1       1.264   1.770  -0.535  1.00  0.00    -0.270 OA
ATOM     16  C   UNL     1       2.442   1.774  -0.203  1.00  0.00     0.248 C 
ATOM     17  H   UNL     1       3.878   2.140   1.142  1.00  0.00     0.170 HD
BRANCH  16  18
ATOM     18  C   UNL     1       3.508   1.456  -1.206  1.00  0.00     0.072 C 
ATOM     19  C   UNL     1       4.795   1.287  -0.857  1.00  0.00     0.014 C 
BRANCH  19  20
ATOM     20  C   UNL     1       5.714   0.427  -1.592  1.00  0.00    -0.025 A 
ATOM     21  C   UNL     1       6.450  -0.490  -0.820  1.00  0.00     0.008 A 
ATOM     22  C   UNL     1       5.853   0.452  -2.976  1.00  0.00     0.008 A 
ATOM     23  C   UNL     1       7.311  -1.388  -1.423  1.00  0.00     0.001 A 
ATOM     24  C   UNL     1       6.730  -0.441  -3.579  1.00  0.00     0.001 A 
ATOM     25  C   UNL     1       7.456  -1.346  -2.797  1.00  0.00     0.000 A 
ENDBRANCH  19  20
ENDBRANCH  16  18
ENDBRANCH   9  14
BRANCH  13  26
ATOM     26  O   UNL     1       0.364   2.437   5.939  1.00  0.00    -0.508 OA
ATOM     27  H   UNL     1       0.683   3.115   6.502  1.00  0.00     0.293 HD
ENDBRANCH  13  26
ENDBRANCH   5   8
ENDBRANCH   3   4
ENDBRANCH   2   3
ENDBRANCH   1   2
BRANCH   1  28
ATOM     28  C   UNL     1       2.162  -2.963  -2.441  1.00  0.00     0.002 C 
BRANCH  28  29
ATOM     29  C   UNL     1       3.326  -2.473  -3.332  1.00  0.00     0.021 C 
BRANCH  29  30
ATOM     30  C   UNL     1       4.451  -3.469  -3.692  1.00  0.00     0.116 C 
BRANCH  30  31
ATOM     31  N   UNL     1       4.324  -4.074  -5.021  1.00  0.00    -0.352 N 
ATOM     32  C   UNL     1       5.084  -4.027  -6.173  1.00  0.00     0.251 C 
ATOM     33  H   UNL     1       3.522  -4.636  -5.112  1.00  0.00     0.163 HD
ATOM     34  O   UNL     1       4.701  -4.682  -7.144  1.00  0.00    -0.269 OA
BRANCH  32  35
ATOM     35  C   UNL     1       6.320  -3.211  -6.350  1.00  0.00     0.039 A 
ATOM     36  C   UNL     1       6.455  -2.442  -7.514  1.00  0.00     0.014 A 
ATOM     37  C   UNL     1       7.418  -3.281  -5.504  1.00  0.00     0.014 A 
ATOM     38  C   UNL     1       7.617  -1.677  -7.766  1.00  0.00     0.010 A 
ATOM     39  C   UNL     1       8.553  -2.456  -5.731  1.00  0.00     0.010 A 
ATOM     40  C   UNL     1       8.671  -1.598  -6.839  1.00  0.00    -0.014 A 
BRANCH  40  41
ATOM     41  C   UNL     1       9.832  -0.625  -7.021  1.00  0.00     0.031 A 
ATOM     42  C   UNL     1      11.287  -1.023  -6.787  1.00  0.00     0.074 A 
ATOM     43  C   UNL     1       9.614   0.677  -7.342  1.00  0.00     0.049 A 
ATOM     44  N   UNL     1      12.378  -0.287  -6.861  1.00  0.00    -0.248 NA
ATOM     45  C   UNL     1      11.552  -2.404  -6.364  1.00  0.00     0.031 C 
ATOM     46  C   UNL     1       8.304   1.314  -7.492  1.00  0.00     0.029 A 
ATOM     47  N   UNL     1      10.496   1.710  -7.609  1.00  0.00    -0.354 N 
ATOM     48  C   UNL     1      13.431  -1.102  -6.449  1.00  0.00     0.074 A 
ATOM     49  C   UNL     1      12.836  -2.357  -6.043  1.00  0.00     0.031 C 
ATOM     50  C   UNL     1       8.464   2.582  -7.903  1.00  0.00     0.029 A 
ATOM     51  C   UNL     1       9.888   2.885  -7.998  1.00  0.00     0.049 A 
ATOM     52  H   UNL     1      11.473   1.613  -7.529  1.00  0.00     0.167 HD
ATOM     53  C   UNL     1      14.771  -0.875  -6.452  1.00  0.00     0.037 A 
ATOM     54  C   UNL     1      10.393   4.073  -8.397  1.00  0.00     0.037 A 
ATOM     55  C   UNL     1      15.410   0.325  -6.932  1.00  0.00     0.049 A 
ATOM     56  C   UNL     1      11.883   4.290  -8.460  1.00  0.00     0.074 A 
ATOM     57  C   UNL     1      16.765   0.584  -7.070  1.00  0.00     0.029 A 
ATOM     58  N   UNL     1      14.746   1.459  -7.367  1.00  0.00    -0.354 N 
ATOM     59  N   UNL     1      12.853   3.462  -8.162  1.00  0.00    -0.248 NA
ATOM     60  C   UNL     1      12.348   5.610  -8.922  1.00  0.00     0.031 C 
ATOM     61  C   UNL     1      16.921   1.887  -7.554  1.00  0.00     0.029 A 
ATOM     62  C   UNL     1      15.662   2.422  -7.762  1.00  0.00     0.049 A 
ATOM     63  H   UNL     1      13.767   1.566  -7.391  1.00  0.00     0.167 HD
ATOM     64  C   UNL     1      14.034   4.145  -8.435  1.00  0.00     0.074 A 
ATOM     65  C   UNL     1      13.664   5.450  -8.933  1.00  0.00     0.031 C 
ATOM     66  C   UNL     1      15.310   3.717  -8.283  1.00  0.00     0.037 A 
BRANCH  53  67
ATOM     67  C   UNL     1      15.666  -1.984  -5.955  1.00  0.00     0.057 A 
ATOM     68  C   UNL     1      15.797  -3.194  -6.651  1.00  0.00     0.134 A 
ATOM     69  C   UNL     1      16.435  -1.828  -4.793  1.00  0.00     0.134 A 
ATOM     70  F   UNL     1      15.096  -3.410  -7.775  1.00  0.00    -0.206 F 
ATOM     71  C   UNL     1      16.610  -4.227  -6.183  1.00  0.00     0.040 A 
ATOM     72  C   UNL     1      17.283  -2.840  -4.335  1.00  0.00     0.040 A 
ATOM     73  F   UNL     1      16.387  -0.687  -4.089  1.00  0.00    -0.206 F 
ATOM     74  C   UNL     1      17.360  -4.050  -5.023  1.00  0.00     0.006 A 
ENDBRANCH  53  67
BRANCH  54  75
ATOM     75  C   UNL     1       9.480   5.167  -8.836  1.00  0.00     0.057 A 
ATOM     76  C   UNL     1       9.417   5.551 -10.183  1.00  0.00     0.134 A 
ATOM     77  C   UNL     1       8.683   5.875  -7.930  1.00  0.00     0.134 A 
ATOM     78  F   UNL     1      10.179   4.933 -11.097  1.00  0.00    -0.206 F 
ATOM     79  C   UNL     1       8.612   6.610 -10.608  1.00  0.00     0.040 A 
ATOM     80  C   UNL     1       7.851   6.918  -8.346  1.00  0.00     0.040 A 
ATOM     81  F   UNL     1       8.696   5.560  -6.626  1.00  0.00    -0.206 F 
ATOM     82  C   UNL     1       7.821   7.293  -9.688  1.00  0.00     0.006 A 
ENDBRANCH  54  75
BRANCH  66  83
ATOM     83  C   UNL     1      16.418   4.639  -8.707  1.00  0.00     0.057 A 
ATOM     84  C   UNL     1      16.748   5.792  -7.983  1.00  0.00     0.134 A 
ATOM     85  C   UNL     1      17.200   4.341  -9.832  1.00  0.00     0.134 A 
ATOM     86  F   UNL     1      16.035   6.143  -6.902  1.00  0.00    -0.206 F 
ATOM     87  C   UNL     1      17.802   6.623  -8.371  1.00  0.00     0.040 A 
ATOM     88  C   UNL     1      18.272   5.150 -10.215  1.00  0.00     0.040 A 
ATOM     89  F   UNL     1      16.946   3.249 -10.568  1.00  0.00    -0.206 F 
ATOM     90  C   UNL     1      18.573   6.298  -9.486  1.00  0.00     0.006 A 
ENDBRANCH  66  83
ENDBRANCH  40  41
ENDBRANCH  32  35
ENDBRANCH  30  31
ENDBRANCH  29  30
ENDBRANCH  28  29
ENDBRANCH   1  28
TORSDOF 17
