REMARK SMILES C[C@H](/N=C(\Cc1ccccc1)C(=O)OC(C)(C)C)C(=O)NCCCCCCNC(=O)c1ccc(-c2c3nc(c(-c4c(F)cccc4F)c4ccc([nH]4)c(-c4c(F)cccc4F)c4nc(c(-c5c(F)cccc5F)c5ccc2[nH]5)C=C4)C=C3)cc1
REMARK SMILES IDX 23 1 22 2 21 3 19 4 20 5 2 7 1 8 3 9 4 10 5 11 6 12 7 13
REMARK SMILES IDX 11 14 8 15 10 16 9 17 12 18 13 19 14 20 15 21 16 22 17 23
REMARK SMILES IDX 18 24 24 25 25 26 26 27 27 28 28 29 29 30 30 32 31 33 32 34
REMARK SMILES IDX 84 35 33 36 83 37 34 38 35 39 36 40 77 41 37 42 82 43 76 44
REMARK SMILES IDX 78 45 38 46 81 47 75 48 74 49 39 51 65 52 48 53 64 54 49 55
REMARK SMILES IDX 52 56 63 57 79 58 50 59 51 60 62 62 80 63 53 64 40 65 41 66
REMARK SMILES IDX 46 67 42 68 43 69 45 70 47 71 44 72 66 73 67 74 72 75 68 76
REMARK SMILES IDX 69 77 71 78 73 79 70 80 54 81 55 82 60 83 56 84 57 85 59 86
REMARK SMILES IDX 61 87 58 88
REMARK H PARENT 21 6 28 31 78 50 52 61
REMARK Flexibility Score: inf
ROOT
ATOM      1  C   UNL     1      -2.542  -0.280   1.878  1.00  0.00     0.021 C 
ENDROOT
BRANCH   1   2
ATOM      2  C   UNL     1      -2.208  -1.379   0.867  1.00  0.00     0.116 C 
BRANCH   2   3
ATOM      3  N   UNL     1      -1.945  -0.848  -0.450  1.00  0.00    -0.354 N 
ATOM      4  C   UNL     1      -0.805  -0.717  -1.178  1.00  0.00     0.244 C 
ATOM      5  O   UNL     1      -0.943  -0.285  -2.329  1.00  0.00    -0.273 OA
ATOM      6  H   UNL     1      -2.749  -0.516  -0.911  1.00  0.00     0.163 HD
BRANCH   4   7
ATOM      7  C   UNL     1       0.586  -1.113  -0.658  1.00  0.00     0.191 C 
ATOM      8  C   UNL     1       0.815  -2.602  -0.522  1.00  0.00     0.044 C 
BRANCH   7   9
ATOM      9  N   UNL     1       1.025  -0.248   0.429  1.00  0.00    -0.269 NA
ATOM     10  C   UNL     1       1.255  -0.392   1.679  1.00  0.00     0.125 C 
BRANCH  10  11
ATOM     11  C   UNL     1       0.993  -1.589   2.557  1.00  0.00     0.099 C 
BRANCH  11  12
ATOM     12  C   UNL     1       2.152  -2.220   3.292  1.00  0.00    -0.042 A 
ATOM     13  C   UNL     1       2.763  -1.593   4.386  1.00  0.00     0.004 A 
ATOM     14  C   UNL     1       2.539  -3.534   2.982  1.00  0.00     0.004 A 
ATOM     15  C   UNL     1       3.726  -2.255   5.150  1.00  0.00     0.000 A 
ATOM     16  C   UNL     1       3.491  -4.202   3.755  1.00  0.00     0.000 A 
ATOM     17  C   UNL     1       4.083  -3.564   4.841  1.00  0.00     0.000 A 
ENDBRANCH  11  12
ENDBRANCH  10  11
BRANCH  10  18
ATOM     18  C   UNL     1       1.779   0.872   2.380  1.00  0.00     0.353 C 
ATOM     19  O   UNL     1       2.646   1.573   1.902  1.00  0.00    -0.245 OA
BRANCH  18  20
ATOM     20  O   UNL     1       1.084   1.071   3.519  1.00  0.00    -0.455 OA
BRANCH  20  21
ATOM     21  C   UNL     1       1.313   2.250   4.336  1.00  0.00     0.104 C 
ATOM     22  C   UNL     1       2.797   2.565   4.577  1.00  0.00     0.056 C 
ATOM     23  C   UNL     1       0.586   3.442   3.711  1.00  0.00     0.056 C 
ATOM     24  C   UNL     1       0.668   1.910   5.688  1.00  0.00     0.056 C 
ENDBRANCH  20  21
ENDBRANCH  18  20
ENDBRANCH  10  18
ENDBRANCH   7   9
ENDBRANCH   4   7
ENDBRANCH   2   3
ENDBRANCH   1   2
BRANCH   1  25
ATOM     25  C   UNL     1      -3.865  -0.516   2.618  1.00  0.00     0.002 C 
BRANCH  25  26
ATOM     26  C   UNL     1      -3.961  -1.818   3.420  1.00  0.00     0.002 C 
BRANCH  26  27
ATOM     27  C   UNL     1      -2.951  -1.984   4.558  1.00  0.00     0.021 C 
BRANCH  27  28
ATOM     28  C   UNL     1      -2.946  -0.875   5.610  1.00  0.00     0.116 C 
BRANCH  28  29
ATOM     29  N   UNL     1      -4.256  -0.656   6.201  1.00  0.00    -0.352 N 
ATOM     30  C   UNL     1      -4.686  -0.726   7.501  1.00  0.00     0.251 C 
ATOM     31  H   UNL     1      -4.957  -0.416   5.554  1.00  0.00     0.163 HD
ATOM     32  O   UNL     1      -5.891  -0.657   7.736  1.00  0.00    -0.269 OA
BRANCH  30  33
ATOM     33  C   UNL     1      -3.739  -0.894   8.626  1.00  0.00     0.039 A 
ATOM     34  C   UNL     1      -4.117  -1.718   9.693  1.00  0.00     0.014 A 
ATOM     35  C   UNL     1      -2.529  -0.196   8.687  1.00  0.00     0.014 A 
ATOM     36  C   UNL     1      -3.267  -1.884  10.790  1.00  0.00     0.010 A 
ATOM     37  C   UNL     1      -1.656  -0.403   9.756  1.00  0.00     0.010 A 
ATOM     38  C   UNL     1      -2.019  -1.245  10.819  1.00  0.00    -0.014 A 
BRANCH  38  39
ATOM     39  C   UNL     1      -1.087  -1.440  11.957  1.00  0.00     0.031 A 
ATOM     40  C   UNL     1      -0.783  -0.305  12.894  1.00  0.00     0.074 A 
ATOM     41  C   UNL     1      -0.470  -2.626  12.117  1.00  0.00     0.049 A 
ATOM     42  N   UNL     1       0.061  -0.262  13.893  1.00  0.00    -0.248 NA
ATOM     43  C   UNL     1      -1.510   0.953  12.664  1.00  0.00     0.031 C 
ATOM     44  C   UNL     1      -0.657  -3.800  11.264  1.00  0.00     0.029 A 
ATOM     45  N   UNL     1       0.448  -3.035  13.052  1.00  0.00    -0.354 N 
ATOM     46  C   UNL     1      -0.014   1.031  14.396  1.00  0.00     0.074 A 
ATOM     47  C   UNL     1      -0.967   1.748  13.575  1.00  0.00     0.031 C 
ATOM     48  C   UNL     1       0.107  -4.803  11.725  1.00  0.00     0.029 A 
ATOM     49  C   UNL     1       0.860  -4.335  12.885  1.00  0.00     0.049 A 
ATOM     50  H   UNL     1       0.780  -2.453  13.773  1.00  0.00     0.167 HD
ATOM     51  C   UNL     1       0.641   1.568  15.453  1.00  0.00     0.037 A 
ATOM     52  C   UNL     1       1.747  -5.064  13.586  1.00  0.00     0.037 A 
ATOM     53  C   UNL     1       1.557   0.847  16.297  1.00  0.00     0.049 A 
ATOM     54  C   UNL     1       2.455  -4.448  14.757  1.00  0.00     0.074 A 
ATOM     55  C   UNL     1       2.215   1.289  17.433  1.00  0.00     0.029 A 
ATOM     56  N   UNL     1       1.941  -0.470  16.100  1.00  0.00    -0.354 N 
ATOM     57  N   UNL     1       2.343  -3.237  15.245  1.00  0.00    -0.248 NA
ATOM     58  C   UNL     1       3.415  -5.301  15.474  1.00  0.00     0.031 C 
ATOM     59  C   UNL     1       3.018   0.246  17.908  1.00  0.00     0.029 A 
ATOM     60  C   UNL     1       2.839  -0.852  17.083  1.00  0.00     0.049 A 
ATOM     61  H   UNL     1       1.622  -1.048  15.370  1.00  0.00     0.167 HD
ATOM     62  C   UNL     1       3.198  -3.188  16.337  1.00  0.00     0.074 A 
ATOM     63  C   UNL     1       3.819  -4.492  16.444  1.00  0.00     0.031 C 
ATOM     64  C   UNL     1       3.444  -2.155  17.178  1.00  0.00     0.037 A 
BRANCH  51  65
ATOM     65  C   UNL     1       0.389   3.014  15.753  1.00  0.00     0.057 A 
ATOM     66  C   UNL     1      -0.802   3.445  16.351  1.00  0.00     0.134 A 
ATOM     67  C   UNL     1       1.357   3.982  15.461  1.00  0.00     0.134 A 
ATOM     68  F   UNL     1      -1.773   2.567  16.641  1.00  0.00    -0.206 F 
ATOM     69  C   UNL     1      -1.030   4.794  16.628  1.00  0.00     0.040 A 
ATOM     70  C   UNL     1       1.148   5.331  15.752  1.00  0.00     0.040 A 
ATOM     71  F   UNL     1       2.520   3.633  14.890  1.00  0.00    -0.206 F 
ATOM     72  C   UNL     1      -0.051   5.741  16.332  1.00  0.00     0.006 A 
ENDBRANCH  51  65
BRANCH  52  73
ATOM     73  C   UNL     1       1.997  -6.476  13.213  1.00  0.00     0.057 A 
ATOM     74  C   UNL     1       1.476  -7.521  13.983  1.00  0.00     0.134 A 
ATOM     75  C   UNL     1       2.752  -6.814  12.085  1.00  0.00     0.134 A 
ATOM     76  F   UNL     1       0.760  -7.255  15.085  1.00  0.00    -0.206 F 
ATOM     77  C   UNL     1       1.705  -8.857  13.649  1.00  0.00     0.040 A 
ATOM     78  C   UNL     1       2.976  -8.145  11.730  1.00  0.00     0.040 A 
ATOM     79  F   UNL     1       3.274  -5.854  11.307  1.00  0.00    -0.206 F 
ATOM     80  C   UNL     1       2.454  -9.171  12.517  1.00  0.00     0.006 A 
ENDBRANCH  52  73
BRANCH  64  81
ATOM     81  C   UNL     1       4.405  -2.404  18.299  1.00  0.00     0.057 A 
ATOM     82  C   UNL     1       5.788  -2.425  18.088  1.00  0.00     0.134 A 
ATOM     83  C   UNL     1       3.942  -2.597  19.606  1.00  0.00     0.134 A 
ATOM     84  F   UNL     1       6.290  -2.262  16.855  1.00  0.00    -0.206 F 
ATOM     85  C   UNL     1       6.680  -2.645  19.139  1.00  0.00     0.040 A 
ATOM     86  C   UNL     1       4.824  -2.801  20.667  1.00  0.00     0.040 A 
ATOM     87  F   UNL     1       2.627  -2.584  19.872  1.00  0.00    -0.206 F 
ATOM     88  C   UNL     1       6.198  -2.829  20.434  1.00  0.00     0.006 A 
ENDBRANCH  64  81
ENDBRANCH  38  39
ENDBRANCH  30  33
ENDBRANCH  28  29
ENDBRANCH  27  28
ENDBRANCH  26  27
ENDBRANCH  25  26
ENDBRANCH   1  25
TORSDOF 19
