REMARK SMILES Cc1noc(C)c1[C@H](C)NC(=O)NC[C@@](C)(O)C(=O)NCCCCCCNC(=O)c1ccc(-c2c3nc(c(-c4c(F)cccc4F)c4ccc([nH]4)c(-c4c(F)cccc4F)c4nc(c(-c5c(F)cccc5F)c5ccc2[nH]5)C=C4)C=C3)cc1
REMARK SMILES IDX 22 1 21 2 20 3 18 4 19 5 15 7 16 8 14 9 13 10 10 11 11 12
REMARK SMILES IDX 12 14 8 16 9 17 7 18 1 19 2 20 3 21 4 22 5 23 6 24 17 25
REMARK SMILES IDX 23 27 24 28 25 29 26 30 27 31 28 32 29 34 30 35 31 36 83 37
REMARK SMILES IDX 32 38 82 39 33 40 34 41 35 42 76 43 36 44 81 45 75 46 77 47
REMARK SMILES IDX 37 48 80 49 74 50 73 51 38 53 64 54 47 55 63 56 48 57 51 58
REMARK SMILES IDX 62 59 78 60 49 61 50 62 61 64 79 65 52 66 39 67 40 68 45 69
REMARK SMILES IDX 41 70 42 71 44 72 46 73 43 74 65 75 66 76 71 77 67 78 68 79
REMARK SMILES IDX 70 80 72 81 69 82 53 83 54 84 59 85 55 86 56 87 58 88 60 89
REMARK SMILES IDX 57 90
REMARK H PARENT 20 6 10 13 13 15 17 26 27 33 77 52 51 63
REMARK Flexibility Score: inf
ROOT
ATOM      1  C   UNL     1       2.816   7.407  -3.197  1.00  0.00     0.021 C 
ENDROOT
BRANCH   1   2
ATOM      2  C   UNL     1       3.229   7.417  -1.725  1.00  0.00     0.116 C 
BRANCH   2   3
ATOM      3  N   UNL     1       2.115   7.184  -0.829  1.00  0.00    -0.354 N 
ATOM      4  C   UNL     1       1.917   6.241   0.141  1.00  0.00     0.253 C 
ATOM      5  O   UNL     1       0.920   6.417   0.844  1.00  0.00    -0.272 OA
ATOM      6  H   UNL     1       1.369   7.818  -0.937  1.00  0.00     0.163 HD
BRANCH   4   7
ATOM      7  C   UNL     1       2.956   5.108   0.397  1.00  0.00     0.157 C 
ATOM      8  C   UNL     1       4.116   5.757   1.174  1.00  0.00     0.055 C 
BRANCH   7   9
ATOM      9  C   UNL     1       2.441   3.861   1.188  1.00  0.00     0.162 C 
BRANCH   9  10
ATOM     10  N   UNL     1       1.295   3.997   2.062  1.00  0.00    -0.335 N 
ATOM     11  N   UNL     1      -0.616   3.301   0.841  1.00  0.00    -0.331 N 
ATOM     12  C   UNL     1      -0.023   3.793   1.936  1.00  0.00     0.315 C 
ATOM     13  H   UNL     1      -1.598   3.359   0.873  1.00  0.00     0.165 HD
ATOM     14  O   UNL     1      -0.737   4.065   2.904  1.00  0.00    -0.249 OA
ATOM     15  H   UNL     1       1.543   4.313   2.961  1.00  0.00     0.165 HD
BRANCH  11  16
ATOM     16  C   UNL     1      -0.119   2.701  -0.385  1.00  0.00     0.116 C 
ATOM     17  C   UNL     1       0.213   1.235  -0.113  1.00  0.00     0.036 C 
BRANCH  16  18
ATOM     18  C   UNL     1      -1.117   2.939  -1.486  1.00  0.00     0.040 A 
ATOM     19  C   UNL     1      -1.018   5.557  -1.599  1.00  0.00     0.071 C 
ATOM     20  C   UNL     1      -1.495   4.218  -2.010  1.00  0.00     0.086 A 
ATOM     21  N   UNL     1      -2.362   4.108  -3.019  1.00  0.00    -0.085 NA
ATOM     22  O   UNL     1      -2.568   2.761  -3.188  1.00  0.00    -0.361 OA
ATOM     23  C   UNL     1      -1.823   2.062  -2.292  1.00  0.00     0.139 A 
ATOM     24  C   UNL     1      -1.933   0.595  -2.420  1.00  0.00     0.091 C 
ENDBRANCH  16  18
ENDBRANCH  11  16
ENDBRANCH   9  10
ENDBRANCH   7   9
BRANCH   7  25
ATOM     25  O   UNL     1       3.465   4.595  -0.848  1.00  0.00    -0.378 OA
ATOM     26  H   UNL     1       4.109   3.892  -0.669  1.00  0.00     0.212 HD
ENDBRANCH   7  25
ENDBRANCH   4   7
ENDBRANCH   2   3
ENDBRANCH   1   2
BRANCH   1  27
ATOM     27  C   UNL     1       1.768   8.453  -3.602  1.00  0.00     0.002 C 
BRANCH  27  28
ATOM     28  C   UNL     1       2.046   9.895  -3.167  1.00  0.00     0.002 C 
BRANCH  28  29
ATOM     29  C   UNL     1       3.417  10.455  -3.550  1.00  0.00     0.021 C 
BRANCH  29  30
ATOM     30  C   UNL     1       3.724  10.455  -5.042  1.00  0.00     0.116 C 
BRANCH  30  31
ATOM     31  N   UNL     1       2.863  11.357  -5.788  1.00  0.00    -0.352 N 
ATOM     32  C   UNL     1       3.198  12.394  -6.623  1.00  0.00     0.251 C 
ATOM     33  H   UNL     1       1.897  11.202  -5.679  1.00  0.00     0.163 HD
ATOM     34  O   UNL     1       2.328  13.161  -7.031  1.00  0.00    -0.269 OA
BRANCH  32  35
ATOM     35  C   UNL     1       4.608  12.611  -7.015  1.00  0.00     0.039 A 
ATOM     36  C   UNL     1       5.116  13.914  -7.013  1.00  0.00     0.014 A 
ATOM     37  C   UNL     1       5.428  11.544  -7.394  1.00  0.00     0.014 A 
ATOM     38  C   UNL     1       6.459  14.137  -7.325  1.00  0.00     0.010 A 
ATOM     39  C   UNL     1       6.784  11.758  -7.628  1.00  0.00     0.010 A 
ATOM     40  C   UNL     1       7.315  13.057  -7.598  1.00  0.00    -0.014 A 
BRANCH  40  41
ATOM     41  C   UNL     1       8.766  13.268  -7.848  1.00  0.00     0.031 A 
ATOM     42  C   UNL     1       9.369  12.904  -9.177  1.00  0.00     0.074 A 
ATOM     43  C   UNL     1       9.553  13.734  -6.857  1.00  0.00     0.049 A 
ATOM     44  N   UNL     1      10.621  12.954  -9.559  1.00  0.00    -0.248 NA
ATOM     45  C   UNL     1       8.450  12.393 -10.208  1.00  0.00     0.031 C 
ATOM     46  C   UNL     1       9.099  14.087  -5.509  1.00  0.00     0.029 A 
ATOM     47  N   UNL     1      10.903  13.983  -6.825  1.00  0.00    -0.354 N 
ATOM     48  C   UNL     1      10.641  12.471 -10.861  1.00  0.00     0.074 A 
ATOM     49  C   UNL     1       9.286  12.086 -11.190  1.00  0.00     0.031 C 
ATOM     50  C   UNL     1      10.146  14.528  -4.793  1.00  0.00     0.029 A 
ATOM     51  C   UNL     1      11.351  14.449  -5.612  1.00  0.00     0.049 A 
ATOM     52  H   UNL     1      11.494  13.842  -7.600  1.00  0.00     0.167 HD
ATOM     53  C   UNL     1      11.689  12.376 -11.713  1.00  0.00     0.037 A 
ATOM     54  C   UNL     1      12.595  14.764  -5.202  1.00  0.00     0.037 A 
ATOM     55  C   UNL     1      13.032  12.786 -11.395  1.00  0.00     0.049 A 
ATOM     56  C   UNL     1      13.743  14.629  -6.166  1.00  0.00     0.074 A 
ATOM     57  C   UNL     1      14.147  12.790 -12.215  1.00  0.00     0.029 A 
ATOM     58  N   UNL     1      13.443  13.261 -10.159  1.00  0.00    -0.354 N 
ATOM     59  N   UNL     1      13.732  14.241  -7.418  1.00  0.00    -0.248 NA
ATOM     60  C   UNL     1      15.078  14.980  -5.660  1.00  0.00     0.031 C 
ATOM     61  C   UNL     1      15.244  13.212 -11.459  1.00  0.00     0.029 A 
ATOM     62  C   UNL     1      14.801  13.531 -10.187  1.00  0.00     0.049 A 
ATOM     63  H   UNL     1      12.857  13.387  -9.378  1.00  0.00     0.167 HD
ATOM     64  C   UNL     1      15.046  14.338  -7.858  1.00  0.00     0.074 A 
ATOM     65  C   UNL     1      15.825  14.835  -6.744  1.00  0.00     0.031 C 
ATOM     66  C   UNL     1      15.562  14.042  -9.076  1.00  0.00     0.037 A 
BRANCH  53  67
ATOM     67  C   UNL     1      11.434  11.810 -13.081  1.00  0.00     0.057 A 
ATOM     68  C   UNL     1      10.711  12.515 -14.051  1.00  0.00     0.134 A 
ATOM     69  C   UNL     1      11.979  10.574 -13.453  1.00  0.00     0.134 A 
ATOM     70  F   UNL     1      10.154  13.700 -13.758  1.00  0.00    -0.206 F 
ATOM     71  C   UNL     1      10.525  12.005 -15.338  1.00  0.00     0.040 A 
ATOM     72  C   UNL     1      11.824  10.066 -14.744  1.00  0.00     0.040 A 
ATOM     73  F   UNL     1      12.688   9.849 -12.575  1.00  0.00    -0.206 F 
ATOM     74  C   UNL     1      11.092  10.781 -15.690  1.00  0.00     0.006 A 
ENDBRANCH  53  67
BRANCH  54  75
ATOM     75  C   UNL     1      12.833  15.246  -3.815  1.00  0.00     0.057 A 
ATOM     76  C   UNL     1      13.266  16.555  -3.568  1.00  0.00     0.134 A 
ATOM     77  C   UNL     1      12.678  14.401  -2.709  1.00  0.00     0.134 A 
ATOM     78  F   UNL     1      13.452  17.407  -4.587  1.00  0.00    -0.206 F 
ATOM     79  C   UNL     1      13.571  16.995  -2.279  1.00  0.00     0.040 A 
ATOM     80  C   UNL     1      12.950  14.837  -1.411  1.00  0.00     0.040 A 
ATOM     81  F   UNL     1      12.259  13.138  -2.874  1.00  0.00    -0.206 F 
ATOM     82  C   UNL     1      13.411  16.134  -1.195  1.00  0.00     0.006 A 
ENDBRANCH  54  75
BRANCH  66  83
ATOM     83  C   UNL     1      17.027  14.295  -9.285  1.00  0.00     0.057 A 
ATOM     84  C   UNL     1      18.013  13.508  -8.677  1.00  0.00     0.134 A 
ATOM     85  C   UNL     1      17.456  15.319 -10.141  1.00  0.00     0.134 A 
ATOM     86  F   UNL     1      17.672  12.520  -7.836  1.00  0.00    -0.206 F 
ATOM     87  C   UNL     1      19.372  13.748  -8.890  1.00  0.00     0.040 A 
ATOM     88  C   UNL     1      18.810  15.548 -10.387  1.00  0.00     0.040 A 
ATOM     89  F   UNL     1      16.564  16.104 -10.765  1.00  0.00    -0.206 F 
ATOM     90  C   UNL     1      19.773  14.765  -9.754  1.00  0.00     0.006 A 
ENDBRANCH  66  83
ENDBRANCH  40  41
ENDBRANCH  32  35
ENDBRANCH  30  31
ENDBRANCH  29  30
ENDBRANCH  28  29
ENDBRANCH  27  28
ENDBRANCH   1  27
TORSDOF 18
