REMARK SMILES Cc1ccc(C)c(OCC(=O)N[C@@H](Cc2ccccc2)C(=O)NCCCCCCNC(=O)c2ccc(-c3c4nc(c(-c5c(F)cccc5F)c5ccc([nH]5)c(-c5c(F)cccc5F)c5nc(c(-c6c(F)cccc6F)c6ccc3[nH]6)C=C5)C=C4)cc2)c1
REMARK SMILES IDX 25 1 24 2 23 3 21 4 22 5 13 7 12 8 10 9 11 10 9 12 8 13 7 14
REMARK SMILES IDX 1 15 2 16 3 17 87 18 4 19 5 20 6 21 14 22 15 23 16 24 20 25
REMARK SMILES IDX 17 26 19 27 18 28 26 29 27 30 28 31 29 32 30 33 31 34 32 36
REMARK SMILES IDX 33 37 34 38 86 39 35 40 85 41 36 42 37 43 38 44 79 45 39 46
REMARK SMILES IDX 84 47 78 48 80 49 40 50 83 51 77 52 76 53 41 55 67 56 50 57
REMARK SMILES IDX 66 58 51 59 54 60 65 61 81 62 52 63 53 64 64 66 82 67 55 68
REMARK SMILES IDX 42 69 43 70 48 71 44 72 45 73 47 74 49 75 46 76 68 77 69 78
REMARK SMILES IDX 74 79 70 80 71 81 73 82 75 83 72 84 56 85 57 86 62 87 58 88
REMARK SMILES IDX 59 89 61 90 63 91 60 92
REMARK H PARENT 23 6 12 11 30 35 80 54 54 65
REMARK Flexibility Score: inf
ROOT
ATOM      1  C   UNL     1       0.182   5.691   6.043  1.00  0.00     0.021 C 
ENDROOT
BRANCH   1   2
ATOM      2  C   UNL     1      -0.832   4.731   5.431  1.00  0.00     0.116 C 
BRANCH   2   3
ATOM      3  N   UNL     1      -1.751   5.321   4.477  1.00  0.00    -0.354 N 
ATOM      4  C   UNL     1      -2.514   4.703   3.521  1.00  0.00     0.242 C 
ATOM      5  O   UNL     1      -3.609   5.219   3.266  1.00  0.00    -0.273 OA
ATOM      6  H   UNL     1      -1.839   6.300   4.523  1.00  0.00     0.163 HD
BRANCH   4   7
ATOM      7  C   UNL     1      -2.104   3.387   2.810  1.00  0.00     0.175 C 
BRANCH   7   8
ATOM      8  N   UNL     1      -0.685   3.384   2.476  1.00  0.00    -0.341 N 
ATOM      9  C   UNL     1      -0.146   3.749   1.280  1.00  0.00     0.258 C 
ATOM     10  O   UNL     1       0.991   4.219   1.279  1.00  0.00    -0.271 OA
ATOM     11  H   UNL     1      -0.061   3.092   3.179  1.00  0.00     0.164 HD
BRANCH   9  12
ATOM     12  C   UNL     1      -0.924   3.553  -0.024  1.00  0.00     0.329 C 
BRANCH  12  13
ATOM     13  O   UNL     1      -1.544   2.287  -0.198  1.00  0.00    -0.483 OA
BRANCH  13  14
ATOM     14  C   UNL     1      -0.765   1.160  -0.157  1.00  0.00     0.123 A 
ATOM     15  C   UNL     1       2.859  -0.047  -0.101  1.00  0.00     0.044 C 
ATOM     16  C   UNL     1       1.358  -0.045  -0.092  1.00  0.00    -0.047 A 
ATOM     17  C   UNL     1       0.662  -1.250   0.025  1.00  0.00     0.004 A 
ATOM     18  C   UNL     1       0.636   1.152  -0.207  1.00  0.00     0.050 A 
ATOM     19  C   UNL     1      -0.732  -1.257   0.037  1.00  0.00     0.007 A 
ATOM     20  C   UNL     1      -1.457  -0.058  -0.047  1.00  0.00    -0.009 A 
ATOM     21  C   UNL     1      -2.959  -0.135  -0.035  1.00  0.00     0.048 C 
ENDBRANCH  13  14
ENDBRANCH  12  13
ENDBRANCH   9  12
ENDBRANCH   7   8
BRANCH   7  22
ATOM     22  C   UNL     1      -2.627   2.082   3.436  1.00  0.00     0.070 C 
BRANCH  22  23
ATOM     23  C   UNL     1      -2.186   1.718   4.830  1.00  0.00    -0.045 A 
ATOM     24  C   UNL     1      -1.122   0.830   5.043  1.00  0.00     0.004 A 
ATOM     25  C   UNL     1      -2.868   2.232   5.941  1.00  0.00     0.004 A 
ATOM     26  C   UNL     1      -0.727   0.497   6.341  1.00  0.00     0.000 A 
ATOM     27  C   UNL     1      -2.461   1.911   7.237  1.00  0.00     0.000 A 
ATOM     28  C   UNL     1      -1.385   1.050   7.438  1.00  0.00     0.000 A 
ENDBRANCH  22  23
ENDBRANCH   7  22
ENDBRANCH   4   7
ENDBRANCH   2   3
ENDBRANCH   1   2
BRANCH   1  29
ATOM     29  C   UNL     1      -0.351   6.675   7.092  1.00  0.00     0.002 C 
BRANCH  29  30
ATOM     30  C   UNL     1      -1.303   6.165   8.184  1.00  0.00     0.002 C 
BRANCH  30  31
ATOM     31  C   UNL     1      -0.980   4.891   8.977  1.00  0.00     0.021 C 
BRANCH  31  32
ATOM     32  C   UNL     1       0.260   4.852   9.862  1.00  0.00     0.116 C 
BRANCH  32  33
ATOM     33  N   UNL     1       0.398   6.000  10.757  1.00  0.00    -0.352 N 
ATOM     34  C   UNL     1       1.450   6.814  11.123  1.00  0.00     0.251 C 
ATOM     35  H   UNL     1      -0.448   6.247  11.197  1.00  0.00     0.163 HD
ATOM     36  O   UNL     1       1.294   7.591  12.068  1.00  0.00    -0.269 OA
BRANCH  34  37
ATOM     37  C   UNL     1       2.751   6.806  10.417  1.00  0.00     0.039 A 
ATOM     38  C   UNL     1       3.734   7.775  10.647  1.00  0.00     0.014 A 
ATOM     39  C   UNL     1       2.937   5.938   9.357  1.00  0.00     0.014 A 
ATOM     40  C   UNL     1       4.745   7.941   9.689  1.00  0.00     0.010 A 
ATOM     41  C   UNL     1       4.152   5.826   8.758  1.00  0.00     0.010 A 
ATOM     42  C   UNL     1       4.875   6.990   8.679  1.00  0.00    -0.014 A 
BRANCH  42  43
ATOM     43  C   UNL     1       5.654   7.145   7.466  1.00  0.00     0.031 A 
ATOM     44  C   UNL     1       7.026   6.610   7.496  1.00  0.00     0.074 A 
ATOM     45  C   UNL     1       5.096   7.356   6.252  1.00  0.00     0.049 A 
ATOM     46  N   UNL     1       8.125   7.284   7.489  1.00  0.00    -0.248 NA
ATOM     47  C   UNL     1       7.204   5.157   7.619  1.00  0.00     0.031 C 
ATOM     48  C   UNL     1       3.680   7.386   5.869  1.00  0.00     0.029 A 
ATOM     49  N   UNL     1       5.736   7.466   5.054  1.00  0.00    -0.354 N 
ATOM     50  C   UNL     1       9.141   6.341   7.465  1.00  0.00     0.074 A 
ATOM     51  C   UNL     1       8.528   5.065   7.734  1.00  0.00     0.031 C 
ATOM     52  C   UNL     1       3.579   7.307   4.519  1.00  0.00     0.029 A 
ATOM     53  C   UNL     1       4.913   7.372   3.945  1.00  0.00     0.049 A 
ATOM     54  H   UNL     1       6.708   7.601   4.983  1.00  0.00     0.167 HD
ATOM     55  C   UNL     1      10.392   6.636   7.023  1.00  0.00     0.037 A 
ATOM     56  C   UNL     1       5.321   7.295   2.656  1.00  0.00     0.037 A 
ATOM     57  C   UNL     1      10.560   8.043   6.770  1.00  0.00     0.049 A 
ATOM     58  C   UNL     1       6.738   7.725   2.584  1.00  0.00     0.074 A 
ATOM     59  C   UNL     1      10.414   9.191   7.527  1.00  0.00     0.029 A 
ATOM     60  N   UNL     1      10.544   8.464   5.460  1.00  0.00    -0.354 N 
ATOM     61  N   UNL     1       7.147   8.949   2.763  1.00  0.00    -0.248 NA
ATOM     62  C   UNL     1       7.766   6.702   2.710  1.00  0.00     0.031 C 
ATOM     63  C   UNL     1       9.827  10.146   6.645  1.00  0.00     0.029 A 
ATOM     64  C   UNL     1       9.684   9.533   5.401  1.00  0.00     0.049 A 
ATOM     65  H   UNL     1      11.050   8.074   4.711  1.00  0.00     0.167 HD
ATOM     66  C   UNL     1       8.355   8.823   3.433  1.00  0.00     0.074 A 
ATOM     67  C   UNL     1       8.739   7.425   3.268  1.00  0.00     0.031 C 
ATOM     68  C   UNL     1       8.783   9.785   4.301  1.00  0.00     0.037 A 
BRANCH  55  69
ATOM     69  C   UNL     1      11.374   5.614   6.547  1.00  0.00     0.057 A 
ATOM     70  C   UNL     1      12.744   5.912   6.561  1.00  0.00     0.134 A 
ATOM     71  C   UNL     1      11.012   4.426   5.884  1.00  0.00     0.134 A 
ATOM     72  F   UNL     1      13.193   7.043   7.127  1.00  0.00    -0.206 F 
ATOM     73  C   UNL     1      13.691   5.086   5.949  1.00  0.00     0.040 A 
ATOM     74  C   UNL     1      11.954   3.563   5.320  1.00  0.00     0.040 A 
ATOM     75  F   UNL     1       9.730   4.094   5.677  1.00  0.00    -0.206 F 
ATOM     76  C   UNL     1      13.298   3.902   5.334  1.00  0.00     0.006 A 
ENDBRANCH  55  69
BRANCH  56  77
ATOM     77  C   UNL     1       4.689   6.565   1.542  1.00  0.00     0.057 A 
ATOM     78  C   UNL     1       4.886   6.941   0.208  1.00  0.00     0.134 A 
ATOM     79  C   UNL     1       4.119   5.301   1.760  1.00  0.00     0.134 A 
ATOM     80  F   UNL     1       5.477   8.108  -0.087  1.00  0.00    -0.206 F 
ATOM     81  C   UNL     1       4.536   6.103  -0.858  1.00  0.00     0.040 A 
ATOM     82  C   UNL     1       3.790   4.448   0.705  1.00  0.00     0.040 A 
ATOM     83  F   UNL     1       3.953   4.826   3.004  1.00  0.00    -0.206 F 
ATOM     84  C   UNL     1       3.991   4.847  -0.610  1.00  0.00     0.006 A 
ENDBRANCH  56  77
BRANCH  68  85
ATOM     85  C   UNL     1       8.054  11.099   4.299  1.00  0.00     0.057 A 
ATOM     86  C   UNL     1       6.705  11.243   4.656  1.00  0.00     0.134 A 
ATOM     87  C   UNL     1       8.772  12.274   4.057  1.00  0.00     0.134 A 
ATOM     88  F   UNL     1       5.965  10.186   5.010  1.00  0.00    -0.206 F 
ATOM     89  C   UNL     1       6.084  12.494   4.715  1.00  0.00     0.040 A 
ATOM     90  C   UNL     1       8.173  13.534   4.146  1.00  0.00     0.040 A 
ATOM     91  F   UNL     1      10.082  12.220   3.768  1.00  0.00    -0.206 F 
ATOM     92  C   UNL     1       6.821  13.646   4.464  1.00  0.00     0.006 A 
ENDBRANCH  68  85
ENDBRANCH  42  43
ENDBRANCH  34  37
ENDBRANCH  32  33
ENDBRANCH  31  32
ENDBRANCH  30  31
ENDBRANCH  29  30
ENDBRANCH   1  29
TORSDOF 19
