REMARK SMILES Cc1cccc(N2CCN(c3ncc(NC(=O)c4ccccc4F)cc3C(=O)NCCCCCCNC(=O)c3ccc(-c4c5nc(c(-c6c(F)cccc6F)c6ccc([nH]6)c(-c6c(F)cccc6F)c6nc(c(-c7c(F)cccc7F)c7ccc4[nH]7)C=C6)C=C5)cc3)C[C@@H]2C)c1
REMARK SMILES IDX 32 1 31 2 30 3 29 4 27 5 28 6 26 8 11 9 12 10 13 11 25 12
REMARK SMILES IDX 14 13 10 14 7 15 8 16 94 17 9 18 93 19 95 20 6 21 1 22 2 23
REMARK SMILES IDX 3 24 96 25 4 26 5 27 15 28 16 29 17 31 18 32 19 33 23 34
REMARK SMILES IDX 20 35 22 36 24 37 21 38 33 39 34 40 35 41 36 42 37 43 38 45
REMARK SMILES IDX 39 46 40 47 92 48 41 49 91 50 42 51 43 52 44 53 85 54 45 55
REMARK SMILES IDX 90 56 84 57 86 58 46 59 89 60 83 61 82 62 47 64 73 65 56 66
REMARK SMILES IDX 72 67 57 68 60 69 71 70 87 71 58 72 59 73 70 75 88 76 61 77
REMARK SMILES IDX 48 78 49 79 54 80 50 81 51 82 53 83 55 84 52 85 74 86 75 87
REMARK SMILES IDX 80 88 76 89 77 90 79 91 81 92 78 93 62 94 63 95 68 96 64 97
REMARK SMILES IDX 65 98 67 99 69 100 66 101
REMARK H PARENT 29 7 15 30 36 44 86 63 60 74
REMARK Flexibility Score: inf
ROOT
ATOM      1  C   UNL     1      -6.639   6.391  -4.828  1.00  0.00     0.002 C 
ENDROOT
BRANCH   1   2
ATOM      2  C   UNL     1      -6.810   7.028  -3.440  1.00  0.00     0.021 C 
BRANCH   2   3
ATOM      3  C   UNL     1      -6.921   6.008  -2.297  1.00  0.00     0.116 C 
BRANCH   3   4
ATOM      4  N   UNL     1      -5.630   5.400  -2.048  1.00  0.00    -0.352 N 
ATOM      5  C   UNL     1      -4.582   6.046  -1.429  1.00  0.00     0.255 C 
ATOM      6  O   UNL     1      -3.545   6.231  -2.054  1.00  0.00    -0.269 OA
ATOM      7  H   UNL     1      -5.493   4.469  -2.337  1.00  0.00     0.163 HD
BRANCH   5   8
ATOM      8  C   UNL     1      -4.729   6.487  -0.027  1.00  0.00     0.084 A 
ATOM      9  C   UNL     1      -4.046   5.853   1.027  1.00  0.00     0.141 A 
ATOM     10  N   UNL     1      -4.253   6.261   2.309  1.00  0.00    -0.236 NA
ATOM     11  C   UNL     1      -5.120   7.279   2.550  1.00  0.00     0.139 A 
ATOM     12  C   UNL     1      -5.618   7.531   0.250  1.00  0.00     0.045 A 
ATOM     13  C   UNL     1      -5.838   7.928   1.559  1.00  0.00     0.060 A 
BRANCH   9  14
ATOM     14  N   UNL     1      -3.260   4.731   0.850  1.00  0.00    -0.352 N 
ATOM     15  N   UNL     1      -1.754   2.339   0.459  1.00  0.00    -0.365 N 
ATOM     16  C   UNL     1      -2.933   2.341   1.347  1.00  0.00     0.138 C 
ATOM     17  C   UNL     1      -1.679   3.420  -0.561  1.00  0.00     0.098 C 
ATOM     18  C   UNL     1      -3.203   3.743   1.938  1.00  0.00     0.139 C 
ATOM     19  C   UNL     1      -1.994   4.800   0.094  1.00  0.00     0.142 C 
ATOM     20  C   UNL     1      -2.631   3.116  -1.725  1.00  0.00     0.033 C 
BRANCH  15  21
ATOM     21  C   UNL     1      -1.077   1.150   0.227  1.00  0.00     0.037 A 
ATOM     22  C   UNL     1       2.543  -0.021  -0.141  1.00  0.00     0.044 C 
ATOM     23  C   UNL     1       1.046  -0.039  -0.080  1.00  0.00    -0.049 A 
ATOM     24  C   UNL     1       0.357  -1.253  -0.144  1.00  0.00     0.003 A 
ATOM     25  C   UNL     1       0.319   1.150   0.092  1.00  0.00     0.029 A 
ATOM     26  C   UNL     1      -1.030  -1.274  -0.038  1.00  0.00     0.002 A 
ATOM     27  C   UNL     1      -1.736  -0.084   0.152  1.00  0.00     0.026 A 
ENDBRANCH  15  21
ENDBRANCH   9  14
BRANCH  13  28
ATOM     28  N   UNL     1      -6.816   8.909   1.787  1.00  0.00    -0.320 N 
ATOM     29  C   UNL     1      -6.904   9.855   2.779  1.00  0.00     0.258 C 
ATOM     30  H   UNL     1      -7.554   8.920   1.135  1.00  0.00     0.170 HD
ATOM     31  O   UNL     1      -7.991  10.364   3.043  1.00  0.00    -0.269 OA
BRANCH  29  32
ATOM     32  C   UNL     1      -5.690  10.365   3.452  1.00  0.00     0.075 A 
ATOM     33  C   UNL     1      -5.782  10.768   4.790  1.00  0.00     0.017 A 
ATOM     34  C   UNL     1      -4.494  10.566   2.759  1.00  0.00     0.135 A 
ATOM     35  C   UNL     1      -4.665  11.307   5.433  1.00  0.00     0.001 A 
ATOM     36  C   UNL     1      -3.374  11.079   3.403  1.00  0.00     0.040 A 
ATOM     37  F   UNL     1      -4.397  10.312   1.445  1.00  0.00    -0.206 F 
ATOM     38  C   UNL     1      -3.458  11.447   4.745  1.00  0.00     0.003 A 
ENDBRANCH  29  32
ENDBRANCH  13  28
ENDBRANCH   5   8
ENDBRANCH   3   4
ENDBRANCH   2   3
ENDBRANCH   1   2
BRANCH   1  39
ATOM     39  C   UNL     1      -7.734   5.395  -5.244  1.00  0.00     0.002 C 
BRANCH  39  40
ATOM     40  C   UNL     1      -9.173   5.860  -5.010  1.00  0.00     0.021 C 
BRANCH  40  41
ATOM     41  C   UNL     1      -9.594   7.017  -5.904  1.00  0.00     0.116 C 
BRANCH  41  42
ATOM     42  N   UNL     1     -10.234   6.603  -7.144  1.00  0.00    -0.352 N 
ATOM     43  C   UNL     1     -10.641   7.353  -8.232  1.00  0.00     0.251 C 
ATOM     44  H   UNL     1     -10.404   5.636  -7.221  1.00  0.00     0.163 HD
ATOM     45  O   UNL     1     -11.243   6.806  -9.150  1.00  0.00    -0.269 OA
BRANCH  43  46
ATOM     46  C   UNL     1     -10.222   8.771  -8.367  1.00  0.00     0.039 A 
ATOM     47  C   UNL     1      -9.833   9.219  -9.639  1.00  0.00     0.014 A 
ATOM     48  C   UNL     1     -10.001   9.576  -7.256  1.00  0.00     0.014 A 
ATOM     49  C   UNL     1      -8.995  10.324  -9.753  1.00  0.00     0.010 A 
ATOM     50  C   UNL     1      -9.075  10.590  -7.349  1.00  0.00     0.010 A 
ATOM     51  C   UNL     1      -8.523  10.922  -8.589  1.00  0.00    -0.014 A 
BRANCH  51  52
ATOM     52  C   UNL     1      -7.396  11.841  -8.539  1.00  0.00     0.031 A 
ATOM     53  C   UNL     1      -7.623  13.267  -8.235  1.00  0.00     0.074 A 
ATOM     54  C   UNL     1      -6.145  11.334  -8.588  1.00  0.00     0.049 A 
ATOM     55  N   UNL     1      -6.753  14.199  -8.416  1.00  0.00    -0.248 NA
ATOM     56  C   UNL     1      -8.894  13.765  -7.724  1.00  0.00     0.031 C 
ATOM     57  C   UNL     1      -4.904  11.989  -8.183  1.00  0.00     0.029 A 
ATOM     58  N   UNL     1      -5.725  10.152  -9.216  1.00  0.00    -0.354 N 
ATOM     59  C   UNL     1      -7.221  15.342  -7.806  1.00  0.00     0.074 A 
ATOM     60  C   UNL     1      -8.583  15.033  -7.444  1.00  0.00     0.031 C 
ATOM     61  C   UNL     1      -3.874  11.382  -8.793  1.00  0.00     0.029 A 
ATOM     62  C   UNL     1      -4.439  10.428  -9.731  1.00  0.00     0.049 A 
ATOM     63  H   UNL     1      -6.224   9.306  -9.284  1.00  0.00     0.167 HD
ATOM     64  C   UNL     1      -6.349  16.366  -7.572  1.00  0.00     0.037 A 
ATOM     65  C   UNL     1      -4.202  10.435 -11.075  1.00  0.00     0.037 A 
ATOM     66  C   UNL     1      -5.047  16.082  -8.178  1.00  0.00     0.049 A 
ATOM     67  C   UNL     1      -3.708  11.763 -11.599  1.00  0.00     0.074 A 
ATOM     68  C   UNL     1      -3.863  15.574  -7.666  1.00  0.00     0.029 A 
ATOM     69  N   UNL     1      -4.939  16.014  -9.563  1.00  0.00    -0.354 N 
ATOM     70  N   UNL     1      -3.887  12.900 -10.985  1.00  0.00    -0.248 NA
ATOM     71  C   UNL     1      -2.978  11.916 -12.855  1.00  0.00     0.031 C 
ATOM     72  C   UNL     1      -3.063  15.144  -8.755  1.00  0.00     0.029 A 
ATOM     73  C   UNL     1      -3.751  15.411  -9.927  1.00  0.00     0.049 A 
ATOM     74  H   UNL     1      -5.615  16.348 -10.195  1.00  0.00     0.167 HD
ATOM     75  C   UNL     1      -3.338  13.914 -11.728  1.00  0.00     0.074 A 
ATOM     76  C   UNL     1      -2.767  13.244 -12.881  1.00  0.00     0.031 C 
ATOM     77  C   UNL     1      -3.407  15.219 -11.328  1.00  0.00     0.037 A 
BRANCH  64  78
ATOM     78  C   UNL     1      -6.576  17.479  -6.567  1.00  0.00     0.057 A 
ATOM     79  C   UNL     1      -5.483  18.118  -5.944  1.00  0.00     0.134 A 
ATOM     80  C   UNL     1      -7.828  17.931  -6.119  1.00  0.00     0.134 A 
ATOM     81  F   UNL     1      -4.219  17.891  -6.325  1.00  0.00    -0.206 F 
ATOM     82  C   UNL     1      -5.626  19.032  -4.890  1.00  0.00     0.040 A 
ATOM     83  C   UNL     1      -7.987  18.806  -5.032  1.00  0.00     0.040 A 
ATOM     84  F   UNL     1      -8.962  17.607  -6.748  1.00  0.00    -0.206 F 
ATOM     85  C   UNL     1      -6.881  19.351  -4.402  1.00  0.00     0.006 A 
ENDBRANCH  64  78
BRANCH  65  86
ATOM     86  C   UNL     1      -5.062   9.481 -11.823  1.00  0.00     0.057 A 
ATOM     87  C   UNL     1      -4.884   8.105 -11.595  1.00  0.00     0.134 A 
ATOM     88  C   UNL     1      -6.271   9.880 -12.400  1.00  0.00     0.134 A 
ATOM     89  F   UNL     1      -3.743   7.657 -11.046  1.00  0.00    -0.206 F 
ATOM     90  C   UNL     1      -5.909   7.182 -11.812  1.00  0.00     0.040 A 
ATOM     91  C   UNL     1      -7.302   8.960 -12.633  1.00  0.00     0.040 A 
ATOM     92  F   UNL     1      -6.525  11.176 -12.629  1.00  0.00    -0.206 F 
ATOM     93  C   UNL     1      -7.138   7.616 -12.299  1.00  0.00     0.006 A 
ENDBRANCH  65  86
BRANCH  77  94
ATOM     94  C   UNL     1      -3.080  16.433 -12.169  1.00  0.00     0.057 A 
ATOM     95  C   UNL     1      -3.153  16.470 -13.569  1.00  0.00     0.134 A 
ATOM     96  C   UNL     1      -2.825  17.682 -11.554  1.00  0.00     0.134 A 
ATOM     97  F   UNL     1      -3.499  15.393 -14.285  1.00  0.00    -0.206 F 
ATOM     98  C   UNL     1      -2.932  17.644 -14.304  1.00  0.00     0.040 A 
ATOM     99  C   UNL     1      -2.660  18.869 -12.275  1.00  0.00     0.040 A 
ATOM    100  F   UNL     1      -2.752  17.814 -10.221  1.00  0.00    -0.206 F 
ATOM    101  C   UNL     1      -2.698  18.851 -13.659  1.00  0.00     0.006 A 
ENDBRANCH  77  94
ENDBRANCH  51  52
ENDBRANCH  43  46
ENDBRANCH  41  42
ENDBRANCH  40  41
ENDBRANCH  39  40
ENDBRANCH   1  39
TORSDOF 17
