REMARK SMILES NC(=O)c1ccc(Nc2ccc(C(=O)NCCCCCCNC(=O)c3ccc(-c4c5nc(c(-c6c(F)cccc6F)c6ccc([nH]6)c(-c6c(F)cccc6F)c6nc(c(-c7c(F)cccc7F)c7ccc4[nH]7)C=C6)C=C5)cc3)c(Cl)c2)nn1
REMARK SMILES IDX 18 1 17 2 16 3 15 4 13 5 14 6 12 8 9 9 10 10 81 11 11 12
REMARK SMILES IDX 79 13 80 14 8 15 7 17 4 18 5 19 83 20 6 21 82 22 2 23 1 24
REMARK SMILES IDX 3 27 19 28 20 29 21 30 22 31 23 32 24 34 25 35 26 36 78 37
REMARK SMILES IDX 27 38 77 39 28 40 29 41 30 42 71 43 31 44 76 45 70 46 72 47
REMARK SMILES IDX 32 48 75 49 69 50 68 51 33 53 59 54 42 55 58 56 43 57 46 58
REMARK SMILES IDX 57 59 73 60 44 61 45 62 56 64 74 65 47 66 34 67 35 68 40 69
REMARK SMILES IDX 36 70 37 71 39 72 41 73 38 74 60 75 61 76 66 77 62 78 63 79
REMARK SMILES IDX 65 80 67 81 64 82 48 83 49 84 54 85 50 86 51 87 53 88 55 89
REMARK SMILES IDX 52 90
REMARK H PARENT 15 7 8 16 1 25 1 26 22 33 72 52 46 63
REMARK Flexibility Score: inf
ROOT
ATOM      1  C   UNL     1      -2.182  11.246  -7.830  1.00  0.00     0.002 C 
ENDROOT
BRANCH   1   2
ATOM      2  C   UNL     1      -1.388  10.002  -7.420  1.00  0.00     0.021 C 
BRANCH   2   3
ATOM      3  C   UNL     1       0.035  10.321  -6.941  1.00  0.00     0.116 C 
BRANCH   3   4
ATOM      4  N   UNL     1       0.035  10.444  -5.503  1.00  0.00    -0.352 N 
ATOM      5  C   UNL     1       0.354   9.631  -4.457  1.00  0.00     0.252 C 
ATOM      6  O   UNL     1       0.086  10.111  -3.348  1.00  0.00    -0.269 OA
ATOM      7  H   UNL     1      -0.271  11.332  -5.206  1.00  0.00     0.163 HD
BRANCH   5   8
ATOM      8  C   UNL     1       1.064   8.312  -4.499  1.00  0.00     0.058 A 
ATOM      9  C   UNL     1       2.523   5.883  -4.102  1.00  0.00     0.041 A 
ATOM     10  C   UNL     1       2.409   6.809  -3.074  1.00  0.00     0.027 A 
ATOM     11  C   UNL     1       1.890   6.163  -5.312  1.00  0.00     0.047 A 
ATOM     12  C   UNL     1       1.731   8.014  -3.285  1.00  0.00     0.017 A 
ATOM     13  C   UNL     1       1.105   7.321  -5.488  1.00  0.00     0.055 A 
ATOM     14  Cl  UNL     1       0.077   7.209  -6.867  1.00  0.00    -0.083 Cl
BRANCH   9  15
ATOM     15  N   UNL     1       3.041   4.593  -3.878  1.00  0.00    -0.339 N 
ATOM     16  H   UNL     1       3.905   4.355  -4.286  1.00  0.00     0.168 HD
BRANCH  15  17
ATOM     17  C   UNL     1       2.374   3.627  -3.093  1.00  0.00     0.153 A 
ATOM     18  C   UNL     1       1.071   1.744  -1.588  1.00  0.00     0.150 A 
ATOM     19  C   UNL     1       2.242   1.383  -2.234  1.00  0.00     0.040 A 
ATOM     20  N   UNL     1       0.565   2.987  -1.687  1.00  0.00    -0.143 NA
ATOM     21  C   UNL     1       2.907   2.347  -2.992  1.00  0.00     0.051 A 
ATOM     22  N   UNL     1       1.233   3.930  -2.435  1.00  0.00    -0.132 NA
BRANCH  18  23
ATOM     23  C   UNL     1       0.314   0.789  -0.736  1.00  0.00     0.269 C 
ATOM     24  N   UNL     1       1.049  -0.096   0.013  1.00  0.00    -0.364 N 
ATOM     25  H   UNL     1       0.593  -0.748   0.593  1.00  0.00     0.160 HD
ATOM     26  H   UNL     1       2.032  -0.079  -0.031  1.00  0.00     0.160 HD
ATOM     27  O   UNL     1      -0.911   0.783  -0.675  1.00  0.00    -0.268 OA
ENDBRANCH  18  23
ENDBRANCH  15  17
ENDBRANCH   9  15
ENDBRANCH   5   8
ENDBRANCH   3   4
ENDBRANCH   2   3
ENDBRANCH   1   2
BRANCH   1  28
ATOM     28  C   UNL     1      -1.592  11.994  -9.031  1.00  0.00     0.002 C 
BRANCH  28  29
ATOM     29  C   UNL     1      -1.367  11.129 -10.275  1.00  0.00     0.021 C 
BRANCH  29  30
ATOM     30  C   UNL     1      -2.643  10.501 -10.829  1.00  0.00     0.116 C 
BRANCH  30  31
ATOM     31  N   UNL     1      -3.597  11.523 -11.237  1.00  0.00    -0.352 N 
ATOM     32  C   UNL     1      -4.057  11.828 -12.492  1.00  0.00     0.251 C 
ATOM     33  H   UNL     1      -3.964  12.073 -10.508  1.00  0.00     0.163 HD
ATOM     34  O   UNL     1      -4.623  12.894 -12.707  1.00  0.00    -0.269 OA
BRANCH  32  35
ATOM     35  C   UNL     1      -3.862  10.859 -13.588  1.00  0.00     0.039 A 
ATOM     36  C   UNL     1      -3.412  11.314 -14.829  1.00  0.00     0.014 A 
ATOM     37  C   UNL     1      -4.125   9.502 -13.382  1.00  0.00     0.014 A 
ATOM     38  C   UNL     1      -3.156  10.394 -15.846  1.00  0.00     0.010 A 
ATOM     39  C   UNL     1      -3.804   8.581 -14.371  1.00  0.00     0.010 A 
ATOM     40  C   UNL     1      -3.310   9.018 -15.609  1.00  0.00    -0.014 A 
BRANCH  40  41
ATOM     41  C   UNL     1      -2.929   8.010 -16.627  1.00  0.00     0.031 A 
ATOM     42  C   UNL     1      -3.970   7.105 -17.220  1.00  0.00     0.074 A 
ATOM     43  C   UNL     1      -1.629   7.852 -16.944  1.00  0.00     0.049 A 
ATOM     44  N   UNL     1      -3.817   6.089 -18.030  1.00  0.00    -0.248 NA
ATOM     45  C   UNL     1      -5.367   7.362 -16.833  1.00  0.00     0.031 C 
ATOM     46  C   UNL     1      -0.525   8.648 -16.404  1.00  0.00     0.029 A 
ATOM     47  N   UNL     1      -1.015   6.955 -17.780  1.00  0.00    -0.354 N 
ATOM     48  C   UNL     1      -5.091   5.579 -18.240  1.00  0.00     0.074 A 
ATOM     49  C   UNL     1      -6.001   6.366 -17.436  1.00  0.00     0.031 C 
ATOM     50  C   UNL     1       0.629   8.212 -16.932  1.00  0.00     0.029 A 
ATOM     51  C   UNL     1       0.354   7.076 -17.805  1.00  0.00     0.049 A 
ATOM     52  H   UNL     1      -1.507   6.288 -18.311  1.00  0.00     0.167 HD
ATOM     53  C   UNL     1      -5.468   4.558 -19.046  1.00  0.00     0.037 A 
ATOM     54  C   UNL     1       1.284   6.338 -18.440  1.00  0.00     0.037 A 
ATOM     55  C   UNL     1      -4.557   3.788 -19.851  1.00  0.00     0.049 A 
ATOM     56  C   UNL     1       0.842   5.178 -19.288  1.00  0.00     0.074 A 
ATOM     57  C   UNL     1      -4.846   2.776 -20.749  1.00  0.00     0.029 A 
ATOM     58  N   UNL     1      -3.178   3.936 -19.844  1.00  0.00    -0.354 N 
ATOM     59  N   UNL     1      -0.372   4.752 -19.538  1.00  0.00    -0.248 NA
ATOM     60  C   UNL     1       1.900   4.391 -19.938  1.00  0.00     0.031 C 
ATOM     61  C   UNL     1      -3.638   2.271 -21.241  1.00  0.00     0.029 A 
ATOM     62  C   UNL     1      -2.599   3.005 -20.692  1.00  0.00     0.049 A 
ATOM     63  H   UNL     1      -2.683   4.603 -19.316  1.00  0.00     0.167 HD
ATOM     64  C   UNL     1      -0.227   3.661 -20.385  1.00  0.00     0.074 A 
ATOM     65  C   UNL     1       1.193   3.504 -20.624  1.00  0.00     0.031 C 
ATOM     66  C   UNL     1      -1.183   2.858 -20.913  1.00  0.00     0.037 A 
BRANCH  53  67
ATOM     67  C   UNL     1      -6.928   4.211 -19.092  1.00  0.00     0.057 A 
ATOM     68  C   UNL     1      -7.872   5.057 -19.689  1.00  0.00     0.134 A 
ATOM     69  C   UNL     1      -7.390   2.996 -18.570  1.00  0.00     0.134 A 
ATOM     70  F   UNL     1      -7.498   6.240 -20.199  1.00  0.00    -0.206 F 
ATOM     71  C   UNL     1      -9.225   4.719 -19.743  1.00  0.00     0.040 A 
ATOM     72  C   UNL     1      -8.736   2.634 -18.644  1.00  0.00     0.040 A 
ATOM     73  F   UNL     1      -6.540   2.135 -17.991  1.00  0.00    -0.206 F 
ATOM     74  C   UNL     1      -9.659   3.500 -19.226  1.00  0.00     0.006 A 
ENDBRANCH  53  67
BRANCH  54  75
ATOM     75  C   UNL     1       2.724   6.667 -18.291  1.00  0.00     0.057 A 
ATOM     76  C   UNL     1       3.466   7.164 -19.368  1.00  0.00     0.134 A 
ATOM     77  C   UNL     1       3.395   6.487 -17.075  1.00  0.00     0.134 A 
ATOM     78  F   UNL     1       2.884   7.339 -20.564  1.00  0.00    -0.206 F 
ATOM     79  C   UNL     1       4.826   7.453 -19.249  1.00  0.00     0.040 A 
ATOM     80  C   UNL     1       4.748   6.798 -16.933  1.00  0.00     0.040 A 
ATOM     81  F   UNL     1       2.741   6.020 -16.001  1.00  0.00    -0.206 F 
ATOM     82  C   UNL     1       5.470   7.275 -18.026  1.00  0.00     0.006 A 
ENDBRANCH  54  75
BRANCH  66  83
ATOM     83  C   UNL     1      -0.727   1.743 -21.808  1.00  0.00     0.057 A 
ATOM     84  C   UNL     1      -0.084   0.608 -21.298  1.00  0.00     0.134 A 
ATOM     85  C   UNL     1      -0.984   1.778 -23.184  1.00  0.00     0.134 A 
ATOM     86  F   UNL     1       0.205   0.520 -19.991  1.00  0.00    -0.206 F 
ATOM     87  C   UNL     1       0.301  -0.446 -22.128  1.00  0.00     0.040 A 
ATOM     88  C   UNL     1      -0.630   0.718 -24.020  1.00  0.00     0.040 A 
ATOM     89  F   UNL     1      -1.603   2.832 -23.736  1.00  0.00    -0.206 F 
ATOM     90  C   UNL     1       0.018  -0.397 -23.492  1.00  0.00     0.006 A 
ENDBRANCH  66  83
ENDBRANCH  40  41
ENDBRANCH  32  35
ENDBRANCH  30  31
ENDBRANCH  29  30
ENDBRANCH  28  29
ENDBRANCH   1  28
TORSDOF 16
