REMARK SMILES Cc1cc2c(c(C)c1Cl)C=C(C(=O)NCCCCCCNC(=O)c1ccc(-c3c4nc(c(-c5c(F)cccc5F)c5ccc([nH]5)c(-c5c(F)cccc5F)c5nc(c(-c6c(F)cccc6F)c6ccc3[nH]6)C=C5)C=C4)cc1)[C@@H](C(F)(F)F)O2
REMARK SMILES IDX 18 1 17 2 16 3 15 4 14 5 12 6 13 7 11 9 1 10 2 11 3 12 8 13
REMARK SMILES IDX 4 14 6 15 9 16 5 17 83 18 7 19 10 20 78 21 79 22 80 23 81 24
REMARK SMILES IDX 82 25 19 26 20 27 21 28 22 29 23 31 24 32 25 33 77 34 26 35
REMARK SMILES IDX 76 36 27 37 28 38 29 39 70 40 30 41 75 42 69 43 71 44 31 45
REMARK SMILES IDX 74 46 68 47 67 48 32 50 58 51 41 52 57 53 42 54 45 55 56 56
REMARK SMILES IDX 72 57 43 58 44 59 55 61 73 62 46 63 33 64 34 65 39 66 35 67
REMARK SMILES IDX 36 68 38 69 40 70 37 71 59 72 60 73 65 74 61 75 62 76 64 77
REMARK SMILES IDX 66 78 63 79 47 80 48 81 53 82 49 83 50 84 52 85 54 86 51 87
REMARK H PARENT 14 8 21 30 71 49 45 60
REMARK Flexibility Score: inf
ROOT
ATOM      1  C   UNL     1       1.593 -11.977  -0.850  1.00  0.00     0.002 C 
ENDROOT
BRANCH   1   2
ATOM      2  C   UNL     1       0.259 -11.308  -0.490  1.00  0.00     0.002 C 
BRANCH   2   3
ATOM      3  C   UNL     1       0.371  -9.859  -0.012  1.00  0.00     0.021 C 
BRANCH   3   4
ATOM      4  C   UNL     1       1.092  -8.947  -0.998  1.00  0.00     0.116 C 
BRANCH   4   5
ATOM      5  N   UNL     1       0.195  -8.454  -2.027  1.00  0.00    -0.352 N 
ATOM      6  C   UNL     1      -0.235  -7.252  -2.474  1.00  0.00     0.251 C 
ATOM      7  O   UNL     1      -1.018  -7.295  -3.428  1.00  0.00    -0.270 OA
ATOM      8  H   UNL     1      -0.209  -9.193  -2.537  1.00  0.00     0.163 HD
BRANCH   6   9
ATOM      9  C   UNL     1       0.166  -5.928  -1.906  1.00  0.00     0.067 C 
ATOM     10  C   UNL     1       0.960   0.276  -0.133  1.00  0.00     0.046 C 
ATOM     11  C   UNL     1       0.534  -1.002  -0.802  1.00  0.00    -0.028 A 
ATOM     12  C   UNL     1       1.052  -2.187  -0.273  1.00  0.00     0.052 A 
ATOM     13  C   UNL     1      -0.369  -1.082  -1.881  1.00  0.00     0.047 A 
ATOM     14  C   UNL     1       0.709  -3.418  -0.817  1.00  0.00     0.128 A 
ATOM     15  C   UNL     1      -0.729  -2.335  -2.445  1.00  0.00    -0.021 A 
ATOM     16  Cl  UNL     1      -1.057   0.386  -2.505  1.00  0.00    -0.084 Cl
ATOM     17  C   UNL     1      -0.176  -3.516  -1.892  1.00  0.00     0.022 A 
ATOM     18  O   UNL     1       1.265  -4.492  -0.190  1.00  0.00    -0.475 OA
ATOM     19  C   UNL     1      -1.683  -2.441  -3.612  1.00  0.00     0.047 C 
ATOM     20  C   UNL     1      -0.516  -4.863  -2.365  1.00  0.00     0.026 C 
ATOM     21  C   UNL     1       1.273  -5.744  -0.914  1.00  0.00     0.314 C 
BRANCH  21  22
ATOM     22  C   UNL     1       2.670  -5.963  -1.522  1.00  0.00     0.429 C 
ATOM     23  F   UNL     1       3.586  -6.162  -0.541  1.00  0.00    -0.167 F 
ATOM     24  F   UNL     1       2.730  -7.053  -2.323  1.00  0.00    -0.167 F 
ATOM     25  F   UNL     1       3.087  -4.909  -2.259  1.00  0.00    -0.167 F 
ENDBRANCH  21  22
ENDBRANCH   6   9
ENDBRANCH   4   5
ENDBRANCH   3   4
ENDBRANCH   2   3
ENDBRANCH   1   2
BRANCH   1  26
ATOM     26  C   UNL     1       2.692 -11.847   0.207  1.00  0.00     0.021 C 
BRANCH  26  27
ATOM     27  C   UNL     1       2.310 -12.393   1.577  1.00  0.00     0.116 C 
BRANCH  27  28
ATOM     28  N   UNL     1       1.994 -13.810   1.524  1.00  0.00    -0.352 N 
ATOM     29  C   UNL     1       2.591 -14.853   2.182  1.00  0.00     0.251 C 
ATOM     30  H   UNL     1       1.247 -14.055   0.932  1.00  0.00     0.163 HD
ATOM     31  O   UNL     1       2.353 -16.013   1.857  1.00  0.00    -0.269 OA
BRANCH  29  32
ATOM     32  C   UNL     1       3.535 -14.571   3.280  1.00  0.00     0.039 A 
ATOM     33  C   UNL     1       4.752 -15.252   3.317  1.00  0.00     0.014 A 
ATOM     34  C   UNL     1       3.213 -13.635   4.268  1.00  0.00     0.014 A 
ATOM     35  C   UNL     1       5.671 -14.959   4.325  1.00  0.00     0.010 A 
ATOM     36  C   UNL     1       4.160 -13.289   5.225  1.00  0.00     0.010 A 
ATOM     37  C   UNL     1       5.392 -13.957   5.270  1.00  0.00    -0.014 A 
BRANCH  37  38
ATOM     38  C   UNL     1       6.370 -13.621   6.332  1.00  0.00     0.031 A 
ATOM     39  C   UNL     1       6.036 -13.897   7.771  1.00  0.00     0.074 A 
ATOM     40  C   UNL     1       7.544 -13.049   6.002  1.00  0.00     0.049 A 
ATOM     41  N   UNL     1       6.746 -13.656   8.844  1.00  0.00    -0.248 NA
ATOM     42  C   UNL     1       4.724 -14.508   8.046  1.00  0.00     0.031 C 
ATOM     43  C   UNL     1       7.966 -12.709   4.642  1.00  0.00     0.029 A 
ATOM     44  N   UNL     1       8.601 -12.659   6.785  1.00  0.00    -0.354 N 
ATOM     45  C   UNL     1       5.973 -14.090   9.912  1.00  0.00     0.074 A 
ATOM     46  C   UNL     1       4.712 -14.544   9.370  1.00  0.00     0.031 C 
ATOM     47  C   UNL     1       9.207 -12.199   4.683  1.00  0.00     0.029 A 
ATOM     48  C   UNL     1       9.654 -12.140   6.071  1.00  0.00     0.049 A 
ATOM     49  H   UNL     1       8.605 -12.744   7.766  1.00  0.00     0.167 HD
ATOM     50  C   UNL     1       6.299 -14.140  11.224  1.00  0.00     0.037 A 
ATOM     51  C   UNL     1      10.845 -11.672   6.492  1.00  0.00     0.037 A 
ATOM     52  C   UNL     1       7.562 -13.706  11.757  1.00  0.00     0.049 A 
ATOM     53  C   UNL     1      11.161 -11.693   7.962  1.00  0.00     0.074 A 
ATOM     54  C   UNL     1       7.999 -13.742  13.069  1.00  0.00     0.029 A 
ATOM     55  N   UNL     1       8.592 -13.162  11.005  1.00  0.00    -0.354 N 
ATOM     56  N   UNL     1      10.439 -12.151   8.956  1.00  0.00    -0.248 NA
ATOM     57  C   UNL     1      12.458 -11.133   8.370  1.00  0.00     0.031 C 
ATOM     58  C   UNL     1       9.277 -13.179  13.118  1.00  0.00     0.029 A 
ATOM     59  C   UNL     1       9.655 -12.838  11.829  1.00  0.00     0.049 A 
ATOM     60  H   UNL     1       8.570 -13.026  10.030  1.00  0.00     0.167 HD
ATOM     61  C   UNL     1      11.202 -11.960  10.101  1.00  0.00     0.074 A 
ATOM     62  C   UNL     1      12.450 -11.360   9.677  1.00  0.00     0.031 C 
ATOM     63  C   UNL     1      10.895 -12.252  11.388  1.00  0.00     0.037 A 
BRANCH  50  64
ATOM     64  C   UNL     1       5.288 -14.709  12.175  1.00  0.00     0.057 A 
ATOM     65  C   UNL     1       4.995 -16.079  12.197  1.00  0.00     0.134 A 
ATOM     66  C   UNL     1       4.657 -13.898  13.126  1.00  0.00     0.134 A 
ATOM     67  F   UNL     1       5.557 -16.908  11.304  1.00  0.00    -0.206 F 
ATOM     68  C   UNL     1       4.103 -16.620  13.123  1.00  0.00     0.040 A 
ATOM     69  C   UNL     1       3.783 -14.431  14.074  1.00  0.00     0.040 A 
ATOM     70  F   UNL     1       4.896 -12.578  13.163  1.00  0.00    -0.206 F 
ATOM     71  C   UNL     1       3.503 -15.797  14.073  1.00  0.00     0.006 A 
ENDBRANCH  50  64
BRANCH  51  72
ATOM     72  C   UNL     1      11.841 -11.176   5.507  1.00  0.00     0.057 A 
ATOM     73  C   UNL     1      13.031 -11.875   5.275  1.00  0.00     0.134 A 
ATOM     74  C   UNL     1      11.633  -9.998   4.779  1.00  0.00     0.134 A 
ATOM     75  F   UNL     1      13.296 -13.000   5.955  1.00  0.00    -0.206 F 
ATOM     76  C   UNL     1      13.987 -11.413   4.369  1.00  0.00     0.040 A 
ATOM     77  C   UNL     1      12.569  -9.539   3.850  1.00  0.00     0.040 A 
ATOM     78  F   UNL     1      10.511  -9.285   4.949  1.00  0.00    -0.206 F 
ATOM     79  C   UNL     1      13.753 -10.244   3.648  1.00  0.00     0.006 A 
ENDBRANCH  51  72
BRANCH  63  80
ATOM     80  C   UNL     1      11.926 -11.950  12.436  1.00  0.00     0.057 A 
ATOM     81  C   UNL     1      12.202 -10.638  12.838  1.00  0.00     0.134 A 
ATOM     82  C   UNL     1      12.583 -12.988  13.110  1.00  0.00     0.134 A 
ATOM     83  F   UNL     1      11.613  -9.601  12.225  1.00  0.00    -0.206 F 
ATOM     84  C   UNL     1      13.104 -10.367  13.868  1.00  0.00     0.040 A 
ATOM     85  C   UNL     1      13.466 -12.730  14.160  1.00  0.00     0.040 A 
ATOM     86  F   UNL     1      12.353 -14.268  12.782  1.00  0.00    -0.206 F 
ATOM     87  C   UNL     1      13.730 -11.416  14.540  1.00  0.00     0.006 A 
ENDBRANCH  63  80
ENDBRANCH  37  38
ENDBRANCH  29  32
ENDBRANCH  27  28
ENDBRANCH  26  27
ENDBRANCH   1  26
TORSDOF 14
