REMARK SMILES O=C(COc1cc(-c2ccncc2)nc(Nc2ccccc2Br)n1)NCCCCCCNC(=O)c1ccc(-c2c3nc(c(-c4c(F)cccc4F)c4ccc([nH]4)c(-c4c(F)cccc4F)c4nc(c(-c5c(F)cccc5F)c5ccc2[nH]5)C=C4)C=C3)cc1
REMARK SMILES IDX 27 1 26 2 25 3 1 4 2 5 3 7 4 8 5 9 6 10 24 11 7 12 15 13
REMARK SMILES IDX 14 14 8 15 9 16 13 17 10 18 12 19 11 20 16 21 17 23 18 24
REMARK SMILES IDX 22 25 19 26 21 27 23 28 20 29 28 30 29 31 30 32 31 33 32 34
REMARK SMILES IDX 33 35 34 37 35 38 36 39 88 40 37 41 87 42 38 43 39 44 40 45
REMARK SMILES IDX 81 46 41 47 86 48 80 49 82 50 42 51 85 52 79 53 78 54 43 56
REMARK SMILES IDX 69 57 52 58 68 59 53 60 56 61 67 62 83 63 54 64 55 65 66 67
REMARK SMILES IDX 84 68 57 69 44 70 45 71 50 72 46 73 47 74 49 75 51 76 48 77
REMARK SMILES IDX 70 78 71 79 76 80 72 81 73 82 75 83 77 84 74 85 58 86 59 87
REMARK SMILES IDX 64 88 60 89 61 90 63 91 65 92 62 93
REMARK H PARENT 25 6 16 22 32 36 82 55 56 66
REMARK Flexibility Score: inf
ROOT
ATOM      1  C   UNL     1       2.707  -2.940   1.697  1.00  0.00     0.021 C 
ENDROOT
BRANCH   1   2
ATOM      2  C   UNL     1       2.108  -1.539   1.700  1.00  0.00     0.116 C 
BRANCH   2   3
ATOM      3  N   UNL     1       2.751  -0.666   0.743  1.00  0.00    -0.353 N 
ATOM      4  O   UNL     1       0.993  -0.522  -0.733  1.00  0.00    -0.271 OA
ATOM      5  C   UNL     1       2.107  -0.162  -0.369  1.00  0.00     0.258 C 
ATOM      6  H   UNL     1       3.692  -0.420   0.891  1.00  0.00     0.163 HD
BRANCH   5   7
ATOM      7  C   UNL     1       2.897   0.933  -1.091  1.00  0.00     0.331 C 
BRANCH   7   8
ATOM      8  O   UNL     1       3.800   1.631  -0.234  1.00  0.00    -0.467 OA
BRANCH   8   9
ATOM      9  C   UNL     1       3.212   2.684   0.421  1.00  0.00     0.219 A 
ATOM     10  C   UNL     1       2.211   2.500   1.335  1.00  0.00     0.097 A 
ATOM     11  N   UNL     1       3.792   3.865   0.211  1.00  0.00    -0.177 NA
ATOM     12  C   UNL     1       1.814   3.613   2.040  1.00  0.00     0.080 A 
ATOM     13  C   UNL     1       3.332   4.914   0.912  1.00  0.00     0.231 A 
ATOM     14  N   UNL     1       2.363   4.827   1.839  1.00  0.00    -0.212 NA
BRANCH  12  15
ATOM     15  C   UNL     1       0.770   3.499   3.064  1.00  0.00     0.004 A 
ATOM     16  C   UNL     1       0.872   2.549   4.092  1.00  0.00     0.030 A 
ATOM     17  C   UNL     1      -0.391   4.274   3.005  1.00  0.00     0.030 A 
ATOM     18  C   UNL     1      -0.180   2.399   4.979  1.00  0.00     0.111 A 
ATOM     19  C   UNL     1      -1.393   4.046   3.935  1.00  0.00     0.111 A 
ATOM     20  N   UNL     1      -1.315   3.123   4.917  1.00  0.00    -0.265 NA
ENDBRANCH  12  15
BRANCH  13  21
ATOM     21  N   UNL     1       3.919   6.164   0.740  1.00  0.00    -0.323 N 
ATOM     22  H   UNL     1       3.631   6.866   1.368  1.00  0.00     0.170 HD
BRANCH  21  23
ATOM     23  C   UNL     1       4.869   6.548  -0.216  1.00  0.00     0.055 A 
ATOM     24  C   UNL     1       6.115   7.014   0.235  1.00  0.00     0.027 A 
ATOM     25  C   UNL     1       4.674   6.426  -1.605  1.00  0.00     0.041 A 
ATOM     26  C   UNL     1       7.141   7.322  -0.663  1.00  0.00     0.002 A 
ATOM     27  C   UNL     1       5.701   6.741  -2.504  1.00  0.00     0.018 A 
ATOM     28  Br  UNL     1       2.991   5.953  -2.362  1.00  0.00    -0.049 Br
ATOM     29  C   UNL     1       6.936   7.180  -2.032  1.00  0.00     0.001 A 
ENDBRANCH  21  23
ENDBRANCH  13  21
ENDBRANCH   8   9
ENDBRANCH   7   8
ENDBRANCH   5   7
ENDBRANCH   2   3
ENDBRANCH   1   2
BRANCH   1  30
ATOM     30  C   UNL     1       4.207  -2.993   2.015  1.00  0.00     0.002 C 
BRANCH  30  31
ATOM     31  C   UNL     1       4.625  -2.384   3.357  1.00  0.00     0.002 C 
BRANCH  31  32
ATOM     32  C   UNL     1       3.931  -2.963   4.591  1.00  0.00     0.021 C 
BRANCH  32  33
ATOM     33  C   UNL     1       4.059  -4.474   4.760  1.00  0.00     0.116 C 
BRANCH  33  34
ATOM     34  N   UNL     1       5.436  -4.906   4.936  1.00  0.00    -0.352 N 
ATOM     35  C   UNL     1       5.960  -5.786   5.847  1.00  0.00     0.251 C 
ATOM     36  H   UNL     1       6.085  -4.509   4.312  1.00  0.00     0.163 HD
ATOM     37  O   UNL     1       7.183  -5.921   5.935  1.00  0.00    -0.269 OA
BRANCH  35  38
ATOM     38  C   UNL     1       5.074  -6.560   6.743  1.00  0.00     0.039 A 
ATOM     39  C   UNL     1       5.432  -6.699   8.088  1.00  0.00     0.014 A 
ATOM     40  C   UNL     1       3.910  -7.170   6.265  1.00  0.00     0.014 A 
ATOM     41  C   UNL     1       4.602  -7.407   8.960  1.00  0.00     0.010 A 
ATOM     42  C   UNL     1       3.048  -7.816   7.150  1.00  0.00     0.010 A 
ATOM     43  C   UNL     1       3.390  -7.952   8.504  1.00  0.00    -0.014 A 
BRANCH  43  44
ATOM     44  C   UNL     1       2.489  -8.694   9.422  1.00  0.00     0.031 A 
ATOM     45  C   UNL     1       2.233 -10.161   9.204  1.00  0.00     0.074 A 
ATOM     46  C   UNL     1       1.867  -8.044  10.426  1.00  0.00     0.049 A 
ATOM     47  N   UNL     1       1.430 -10.968   9.852  1.00  0.00    -0.248 NA
ATOM     48  C   UNL     1       2.957 -10.801   8.094  1.00  0.00     0.031 C 
ATOM     49  C   UNL     1       1.996  -6.616  10.720  1.00  0.00     0.029 A 
ATOM     50  N   UNL     1       0.992  -8.502  11.379  1.00  0.00    -0.354 N 
ATOM     51  C   UNL     1       1.551 -12.203   9.228  1.00  0.00     0.074 A 
ATOM     52  C   UNL     1       2.455 -12.027   8.112  1.00  0.00     0.031 C 
ATOM     53  C   UNL     1       1.239  -6.318  11.790  1.00  0.00     0.029 A 
ATOM     54  C   UNL     1       0.550  -7.524  12.238  1.00  0.00     0.049 A 
ATOM     55  H   UNL     1       0.707  -9.442  11.443  1.00  0.00     0.167 HD
ATOM     56  C   UNL     1       0.985 -13.386   9.569  1.00  0.00     0.037 A 
ATOM     57  C   UNL     1      -0.318  -7.592  13.265  1.00  0.00     0.037 A 
ATOM     58  C   UNL     1       0.099 -13.568  10.688  1.00  0.00     0.049 A 
ATOM     59  C   UNL     1      -0.931  -8.918  13.624  1.00  0.00     0.074 A 
ATOM     60  C   UNL     1      -0.518 -14.729  11.121  1.00  0.00     0.029 A 
ATOM     61  N   UNL     1      -0.288 -12.561  11.558  1.00  0.00    -0.354 N 
ATOM     62  N   UNL     1      -0.775 -10.085  13.048  1.00  0.00    -0.248 NA
ATOM     63  C   UNL     1      -1.829  -8.939  14.787  1.00  0.00     0.031 C 
ATOM     64  C   UNL     1      -1.298 -14.419  12.241  1.00  0.00     0.029 A 
ATOM     65  C   UNL     1      -1.132 -13.074  12.528  1.00  0.00     0.049 A 
ATOM     66  H   UNL     1      -0.005 -11.620  11.496  1.00  0.00     0.167 HD
ATOM     67  C   UNL     1      -1.522 -10.983  13.800  1.00  0.00     0.074 A 
ATOM     68  C   UNL     1      -2.121 -10.229  14.880  1.00  0.00     0.031 C 
ATOM     69  C   UNL     1      -1.698 -12.314  13.612  1.00  0.00     0.037 A 
BRANCH  56  70
ATOM     70  C   UNL     1       1.328 -14.582   8.729  1.00  0.00     0.057 A 
ATOM     71  C   UNL     1       2.603 -15.164   8.772  1.00  0.00     0.134 A 
ATOM     72  C   UNL     1       0.372 -15.181   7.901  1.00  0.00     0.134 A 
ATOM     73  F   UNL     1       3.568 -14.630   9.535  1.00  0.00    -0.206 F 
ATOM     74  C   UNL     1       2.920 -16.285   8.004  1.00  0.00     0.040 A 
ATOM     75  C   UNL     1       0.670 -16.319   7.149  1.00  0.00     0.040 A 
ATOM     76  F   UNL     1      -0.869 -14.679   7.817  1.00  0.00    -0.206 F 
ATOM     77  C   UNL     1       1.949 -16.871   7.195  1.00  0.00     0.006 A 
ENDBRANCH  56  70
BRANCH  57  78
ATOM     78  C   UNL     1      -0.648  -6.374  14.049  1.00  0.00     0.057 A 
ATOM     79  C   UNL     1      -0.230  -6.231  15.377  1.00  0.00     0.134 A 
ATOM     80  C   UNL     1      -1.421  -5.343  13.502  1.00  0.00     0.134 A 
ATOM     81  F   UNL     1       0.497  -7.194  15.963  1.00  0.00    -0.206 F 
ATOM     82  C   UNL     1      -0.595  -5.124  16.145  1.00  0.00     0.040 A 
ATOM     83  C   UNL     1      -1.770  -4.217  14.250  1.00  0.00     0.040 A 
ATOM     84  F   UNL     1      -1.845  -5.414  12.232  1.00  0.00    -0.206 F 
ATOM     85  C   UNL     1      -1.367  -4.111  15.579  1.00  0.00     0.006 A 
ENDBRANCH  57  78
BRANCH  69  86
ATOM     86  C   UNL     1      -2.519 -13.048  14.632  1.00  0.00     0.057 A 
ATOM     87  C   UNL     1      -3.909 -12.897  14.716  1.00  0.00     0.134 A 
ATOM     88  C   UNL     1      -1.909 -13.937  15.525  1.00  0.00     0.134 A 
ATOM     89  F   UNL     1      -4.552 -12.052  13.897  1.00  0.00    -0.206 F 
ATOM     90  C   UNL     1      -4.659 -13.583  15.673  1.00  0.00     0.040 A 
ATOM     91  C   UNL     1      -2.651 -14.648  16.469  1.00  0.00     0.040 A 
ATOM     92  F   UNL     1      -0.582 -14.134  15.491  1.00  0.00    -0.206 F 
ATOM     93  C   UNL     1      -4.030 -14.466  16.549  1.00  0.00     0.006 A 
ENDBRANCH  69  86
ENDBRANCH  43  44
ENDBRANCH  35  38
ENDBRANCH  33  34
ENDBRANCH  32  33
ENDBRANCH  31  32
ENDBRANCH  30  31
ENDBRANCH   1  30
TORSDOF 18
