REMARK SMILES Nc1c(Cl)ccc2c1C=C(C(=O)NCCCCCCNC(=O)c1ccc(-c3c4nc(c(-c5c(F)cccc5F)c5ccc([nH]5)c(-c5c(F)cccc5F)c5nc(c(-c6c(F)cccc6F)c6ccc3[nH]6)C=C5)C=C4)cc1)[C@@H](C(F)(F)F)O2
REMARK SMILES IDX 17 1 16 2 15 3 14 4 13 5 11 6 12 7 10 9 2 10 3 11 8 12 4 13
REMARK SMILES IDX 5 14 7 15 9 16 6 17 82 18 77 19 1 20 78 23 79 24 80 25 81 26
REMARK SMILES IDX 18 27 19 28 20 29 21 30 22 32 23 33 24 34 76 35 25 36 75 37
REMARK SMILES IDX 26 38 27 39 28 40 69 41 29 42 74 43 68 44 70 45 30 46 73 47
REMARK SMILES IDX 67 48 66 49 31 51 57 52 40 53 56 54 41 55 44 56 55 57 71 58
REMARK SMILES IDX 42 59 43 60 54 62 72 63 45 64 32 65 33 66 38 67 34 68 35 69
REMARK SMILES IDX 37 70 39 71 36 72 58 73 59 74 64 75 60 76 61 77 63 78 65 79
REMARK SMILES IDX 62 80 46 81 47 82 52 83 48 84 49 85 51 86 53 87 50 88
REMARK H PARENT 13 8 1 21 1 22 20 31 70 50 44 61
REMARK Flexibility Score: inf
ROOT
ATOM      1  C   UNL     1      -6.050   5.327   4.874  1.00  0.00     0.002 C 
ENDROOT
BRANCH   1   2
ATOM      2  C   UNL     1      -6.216   3.905   4.320  1.00  0.00     0.002 C 
BRANCH   2   3
ATOM      3  C   UNL     1      -5.704   3.708   2.892  1.00  0.00     0.021 C 
BRANCH   3   4
ATOM      4  C   UNL     1      -4.246   4.115   2.708  1.00  0.00     0.116 C 
BRANCH   4   5
ATOM      5  N   UNL     1      -3.340   3.061   3.124  1.00  0.00    -0.352 N 
ATOM      6  C   UNL     1      -2.354   2.325   2.563  1.00  0.00     0.251 C 
ATOM      7  O   UNL     1      -1.812   1.512   3.320  1.00  0.00    -0.270 OA
ATOM      8  H   UNL     1      -3.481   2.817   4.067  1.00  0.00     0.163 HD
BRANCH   6   9
ATOM      9  C   UNL     1      -1.899   2.432   1.144  1.00  0.00     0.067 C 
ATOM     10  C   UNL     1       0.558   0.686  -1.064  1.00  0.00     0.061 A 
ATOM     11  C   UNL     1       0.966   0.783  -2.415  1.00  0.00     0.064 A 
ATOM     12  C   UNL     1      -0.492   1.523  -0.625  1.00  0.00     0.042 A 
ATOM     13  Cl  UNL     1       2.263  -0.196  -3.018  1.00  0.00    -0.082 Cl
ATOM     14  C   UNL     1       0.337   1.647  -3.312  1.00  0.00     0.026 A 
ATOM     15  C   UNL     1      -1.096   2.403  -1.535  1.00  0.00     0.130 A 
ATOM     16  C   UNL     1      -1.024   1.492   0.742  1.00  0.00     0.027 C 
ATOM     17  C   UNL     1      -0.700   2.456  -2.869  1.00  0.00     0.049 A 
ATOM     18  O   UNL     1      -2.123   3.237  -1.207  1.00  0.00    -0.475 OA
ATOM     19  C   UNL     1      -2.327   3.514   0.201  1.00  0.00     0.314 C 
BRANCH  10  20
ATOM     20  N   UNL     1       1.257  -0.147  -0.186  1.00  0.00    -0.397 N 
ATOM     21  H   UNL     1       1.984  -0.719  -0.524  1.00  0.00     0.156 HD
ATOM     22  H   UNL     1       1.022  -0.163   0.770  1.00  0.00     0.156 HD
ENDBRANCH  10  20
BRANCH  19  23
ATOM     23  C   UNL     1      -1.715   4.884   0.545  1.00  0.00     0.429 C 
ATOM     24  F   UNL     1      -2.418   5.879  -0.052  1.00  0.00    -0.167 F 
ATOM     25  F   UNL     1      -1.738   5.150   1.872  1.00  0.00    -0.167 F 
ATOM     26  F   UNL     1      -0.430   4.996   0.143  1.00  0.00    -0.167 F 
ENDBRANCH  19  23
ENDBRANCH   6   9
ENDBRANCH   4   5
ENDBRANCH   3   4
ENDBRANCH   2   3
ENDBRANCH   1   2
BRANCH   1  27
ATOM     27  C   UNL     1      -6.573   6.443   3.965  1.00  0.00     0.021 C 
BRANCH  27  28
ATOM     28  C   UNL     1      -8.052   6.321   3.620  1.00  0.00     0.116 C 
BRANCH  28  29
ATOM     29  N   UNL     1      -8.882   6.391   4.811  1.00  0.00    -0.352 N 
ATOM     30  C   UNL     1      -9.915   7.249   5.080  1.00  0.00     0.251 C 
ATOM     31  H   UNL     1      -8.676   5.736   5.516  1.00  0.00     0.163 HD
ATOM     32  O   UNL     1     -10.378   7.344   6.212  1.00  0.00    -0.269 OA
BRANCH  30  33
ATOM     33  C   UNL     1     -10.465   8.063   3.982  1.00  0.00     0.039 A 
ATOM     34  C   UNL     1     -10.622   9.439   4.164  1.00  0.00     0.014 A 
ATOM     35  C   UNL     1     -10.818   7.454   2.774  1.00  0.00     0.014 A 
ATOM     36  C   UNL     1     -11.102  10.217   3.111  1.00  0.00     0.010 A 
ATOM     37  C   UNL     1     -11.245   8.237   1.710  1.00  0.00     0.010 A 
ATOM     38  C   UNL     1     -11.402   9.622   1.876  1.00  0.00    -0.014 A 
BRANCH  38  39
ATOM     39  C   UNL     1     -11.945  10.414   0.751  1.00  0.00     0.031 A 
ATOM     40  C   UNL     1     -13.371  10.206   0.331  1.00  0.00     0.074 A 
ATOM     41  C   UNL     1     -11.146  11.257   0.073  1.00  0.00     0.049 A 
ATOM     42  N   UNL     1     -14.017  10.712  -0.687  1.00  0.00    -0.248 NA
ATOM     43  C   UNL     1     -14.170   9.286   1.157  1.00  0.00     0.031 C 
ATOM     44  C   UNL     1      -9.742  11.528   0.384  1.00  0.00     0.029 A 
ATOM     45  N   UNL     1     -11.399  12.027  -1.032  1.00  0.00    -0.354 N 
ATOM     46  C   UNL     1     -15.296  10.173  -0.624  1.00  0.00     0.074 A 
ATOM     47  C   UNL     1     -15.316   9.256   0.495  1.00  0.00     0.031 C 
ATOM     48  C   UNL     1      -9.259  12.408  -0.509  1.00  0.00     0.029 A 
ATOM     49  C   UNL     1     -10.305  12.728  -1.476  1.00  0.00     0.049 A 
ATOM     50  H   UNL     1     -12.282  12.073  -1.467  1.00  0.00     0.167 HD
ATOM     51  C   UNL     1     -16.362  10.437  -1.414  1.00  0.00     0.037 A 
ATOM     52  C   UNL     1     -10.164  13.522  -2.554  1.00  0.00     0.037 A 
ATOM     53  C   UNL     1     -16.331  11.345  -2.529  1.00  0.00     0.049 A 
ATOM     54  C   UNL     1     -11.343  13.731  -3.468  1.00  0.00     0.074 A 
ATOM     55  C   UNL     1     -17.364  11.715  -3.371  1.00  0.00     0.029 A 
ATOM     56  N   UNL     1     -15.198  12.017  -2.965  1.00  0.00    -0.354 N 
ATOM     57  N   UNL     1     -12.566  13.269  -3.363  1.00  0.00    -0.248 NA
ATOM     58  C   UNL     1     -11.118  14.568  -4.654  1.00  0.00     0.031 C 
ATOM     59  C   UNL     1     -16.843  12.566  -4.352  1.00  0.00     0.029 A 
ATOM     60  C   UNL     1     -15.498  12.768  -4.089  1.00  0.00     0.049 A 
ATOM     61  H   UNL     1     -14.313  11.967  -2.538  1.00  0.00     0.167 HD
ATOM     62  C   UNL     1     -13.260  13.775  -4.454  1.00  0.00     0.074 A 
ATOM     63  C   UNL     1     -12.327  14.599  -5.196  1.00  0.00     0.031 C 
ATOM     64  C   UNL     1     -14.551  13.576  -4.816  1.00  0.00     0.037 A 
BRANCH  51  65
ATOM     65  C   UNL     1     -17.643   9.720  -1.100  1.00  0.00     0.057 A 
ATOM     66  C   UNL     1     -18.152   8.748  -1.970  1.00  0.00     0.134 A 
ATOM     67  C   UNL     1     -18.380   9.998   0.060  1.00  0.00     0.134 A 
ATOM     68  F   UNL     1     -17.501   8.435  -3.100  1.00  0.00    -0.206 F 
ATOM     69  C   UNL     1     -19.344   8.075  -1.695  1.00  0.00     0.040 A 
ATOM     70  C   UNL     1     -19.557   9.310   0.361  1.00  0.00     0.040 A 
ATOM     71  F   UNL     1     -17.941  10.908   0.942  1.00  0.00    -0.206 F 
ATOM     72  C   UNL     1     -20.045   8.349  -0.522  1.00  0.00     0.006 A 
ENDBRANCH  51  65
BRANCH  52  73
ATOM     73  C   UNL     1      -8.862  14.174  -2.844  1.00  0.00     0.057 A 
ATOM     74  C   UNL     1      -7.743  13.435  -3.246  1.00  0.00     0.134 A 
ATOM     75  C   UNL     1      -8.721  15.565  -2.765  1.00  0.00     0.134 A 
ATOM     76  F   UNL     1      -7.810  12.099  -3.338  1.00  0.00    -0.206 F 
ATOM     77  C   UNL     1      -6.531  14.055  -3.559  1.00  0.00     0.040 A 
ATOM     78  C   UNL     1      -7.524  16.200  -3.101  1.00  0.00     0.040 A 
ATOM     79  F   UNL     1      -9.763  16.329  -2.406  1.00  0.00    -0.206 F 
ATOM     80  C   UNL     1      -6.423  15.442  -3.497  1.00  0.00     0.006 A 
ENDBRANCH  52  73
BRANCH  64  81
ATOM     81  C   UNL     1     -15.029  14.270  -6.058  1.00  0.00     0.057 A 
ATOM     82  C   UNL     1     -15.942  15.329  -5.981  1.00  0.00     0.134 A 
ATOM     83  C   UNL     1     -14.613  13.866  -7.334  1.00  0.00     0.134 A 
ATOM     84  F   UNL     1     -16.388  15.760  -4.792  1.00  0.00    -0.206 F 
ATOM     85  C   UNL     1     -16.430  15.957  -7.128  1.00  0.00     0.040 A 
ATOM     86  C   UNL     1     -15.071  14.505  -8.486  1.00  0.00     0.040 A 
ATOM     87  F   UNL     1     -13.728  12.868  -7.476  1.00  0.00    -0.206 F 
ATOM     88  C   UNL     1     -15.989  15.549  -8.385  1.00  0.00     0.006 A 
ENDBRANCH  64  81
ENDBRANCH  38  39
ENDBRANCH  30  33
ENDBRANCH  28  29
ENDBRANCH  27  28
ENDBRANCH   1  27
TORSDOF 15
