REMARK SMILES O=C(NCCCCCCNC(=O)[C@@]1(Cc2ccccc2Cl)CCC[NH2+]1)c1ccc(-c2c3nc(c(-c4c(F)cccc4F)c4ccc([nH]4)c(-c4c(F)cccc4F)c4nc(c(-c5c(F)cccc5F)c5ccc2[nH]5)C=C4)C=C3)cc1
REMARK SMILES IDX 6 1 5 2 4 3 3 4 1 5 2 6 26 8 27 9 79 10 28 11 78 12 29 13
REMARK SMILES IDX 30 14 31 15 72 16 32 17 77 18 71 19 73 20 33 21 76 22 70 23
REMARK SMILES IDX 69 24 34 26 60 27 43 28 59 29 44 30 47 31 58 32 74 33 45 34
REMARK SMILES IDX 46 35 57 37 75 38 48 39 35 40 36 41 41 42 37 43 38 44 40 45
REMARK SMILES IDX 42 46 39 47 61 48 62 49 67 50 63 51 64 52 66 53 68 54 65 55
REMARK SMILES IDX 49 56 50 57 55 58 51 59 52 60 54 61 56 62 53 63 7 64 8 65
REMARK SMILES IDX 9 66 10 67 11 68 12 70 13 71 22 72 25 73 23 74 24 75 14 78
REMARK SMILES IDX 15 79 16 80 20 81 17 82 19 83 21 84 18 85
REMARK H PARENT 3 7 73 25 47 36 10 69 25 76 25 77
REMARK Flexibility Score: inf
ROOT
ATOM      1  C   UNL     1      14.300   4.321  -9.458  1.00  0.00     0.002 C 
ENDROOT
BRANCH   1   2
ATOM      2  C   UNL     1      14.911   5.189  -8.357  1.00  0.00     0.021 C 
BRANCH   2   3
ATOM      3  C   UNL     1      16.123   4.567  -7.678  1.00  0.00     0.116 C 
BRANCH   3   4
ATOM      4  N   UNL     1      17.256   4.456  -8.584  1.00  0.00    -0.352 N 
ATOM      5  O   UNL     1      19.296   4.978  -9.401  1.00  0.00    -0.269 OA
ATOM      6  C   UNL     1      18.519   4.984  -8.457  1.00  0.00     0.251 C 
ATOM      7  H   UNL     1      17.096   3.930  -9.400  1.00  0.00     0.163 HD
BRANCH   6   8
ATOM      8  C   UNL     1      18.927   5.571  -7.163  1.00  0.00     0.039 A 
ATOM      9  C   UNL     1      18.639   4.905  -5.970  1.00  0.00     0.014 A 
ATOM     10  C   UNL     1      19.610   6.791  -7.143  1.00  0.00     0.014 A 
ATOM     11  C   UNL     1      18.911   5.520  -4.757  1.00  0.00     0.010 A 
ATOM     12  C   UNL     1      19.968   7.365  -5.919  1.00  0.00     0.010 A 
ATOM     13  C   UNL     1      19.601   6.743  -4.716  1.00  0.00    -0.014 A 
BRANCH  13  14
ATOM     14  C   UNL     1      19.996   7.288  -3.394  1.00  0.00     0.031 A 
ATOM     15  C   UNL     1      19.432   8.578  -2.873  1.00  0.00     0.074 A 
ATOM     16  C   UNL     1      20.836   6.557  -2.635  1.00  0.00     0.049 A 
ATOM     17  N   UNL     1      19.625   9.146  -1.709  1.00  0.00    -0.248 NA
ATOM     18  C   UNL     1      18.545   9.334  -3.769  1.00  0.00     0.031 C 
ATOM     19  C   UNL     1      21.465   5.300  -3.053  1.00  0.00     0.029 A 
ATOM     20  N   UNL     1      21.281   6.739  -1.353  1.00  0.00    -0.354 N 
ATOM     21  C   UNL     1      18.892  10.326  -1.733  1.00  0.00     0.074 A 
ATOM     22  C   UNL     1      18.274  10.409  -3.040  1.00  0.00     0.031 C 
ATOM     23  C   UNL     1      22.163   4.795  -2.026  1.00  0.00     0.029 A 
ATOM     24  C   UNL     1      22.083   5.719  -0.902  1.00  0.00     0.049 A 
ATOM     25  H   UNL     1      21.048   7.525  -0.807  1.00  0.00     0.167 HD
ATOM     26  C   UNL     1      18.741  11.246  -0.750  1.00  0.00     0.037 A 
ATOM     27  C   UNL     1      22.696   5.548   0.282  1.00  0.00     0.037 A 
ATOM     28  C   UNL     1      19.358  11.154   0.550  1.00  0.00     0.049 A 
ATOM     29  C   UNL     1      22.510   6.584   1.349  1.00  0.00     0.074 A 
ATOM     30  C   UNL     1      19.267  12.034   1.614  1.00  0.00     0.029 A 
ATOM     31  N   UNL     1      20.181  10.116   0.962  1.00  0.00    -0.354 N 
ATOM     32  N   UNL     1      21.798   7.684   1.316  1.00  0.00    -0.248 NA
ATOM     33  C   UNL     1      23.213   6.357   2.618  1.00  0.00     0.031 C 
ATOM     34  C   UNL     1      20.060  11.546   2.659  1.00  0.00     0.029 A 
ATOM     35  C   UNL     1      20.612  10.339   2.261  1.00  0.00     0.049 A 
ATOM     36  H   UNL     1      20.424   9.335   0.413  1.00  0.00     0.167 HD
ATOM     37  C   UNL     1      21.963   8.279   2.557  1.00  0.00     0.074 A 
ATOM     38  C   UNL     1      22.814   7.399   3.333  1.00  0.00     0.031 C 
ATOM     39  C   UNL     1      21.465   9.455   3.012  1.00  0.00     0.037 A 
BRANCH  26  40
ATOM     40  C   UNL     1      17.879  12.440  -1.041  1.00  0.00     0.057 A 
ATOM     41  C   UNL     1      16.484  12.340  -1.114  1.00  0.00     0.134 A 
ATOM     42  C   UNL     1      18.443  13.713  -1.194  1.00  0.00     0.134 A 
ATOM     43  F   UNL     1      15.880  11.149  -0.988  1.00  0.00    -0.206 F 
ATOM     44  C   UNL     1      15.682  13.460  -1.343  1.00  0.00     0.040 A 
ATOM     45  C   UNL     1      17.651  14.844  -1.401  1.00  0.00     0.040 A 
ATOM     46  F   UNL     1      19.773  13.881  -1.128  1.00  0.00    -0.206 F 
ATOM     47  C   UNL     1      16.265  14.718  -1.480  1.00  0.00     0.006 A 
ENDBRANCH  26  40
BRANCH  27  48
ATOM     48  C   UNL     1      23.547   4.353   0.507  1.00  0.00     0.057 A 
ATOM     49  C   UNL     1      23.169   3.347   1.402  1.00  0.00     0.134 A 
ATOM     50  C   UNL     1      24.756   4.187  -0.180  1.00  0.00     0.134 A 
ATOM     51  F   UNL     1      22.029   3.456   2.099  1.00  0.00    -0.206 F 
ATOM     52  C   UNL     1      23.971   2.226   1.619  1.00  0.00     0.040 A 
ATOM     53  C   UNL     1      25.553   3.058   0.005  1.00  0.00     0.040 A 
ATOM     54  F   UNL     1      25.168   5.112  -1.060  1.00  0.00    -0.206 F 
ATOM     55  C   UNL     1      25.165   2.076   0.914  1.00  0.00     0.006 A 
ENDBRANCH  27  48
BRANCH  39  56
ATOM     56  C   UNL     1      21.826   9.838   4.415  1.00  0.00     0.057 A 
ATOM     57  C   UNL     1      23.118  10.264   4.752  1.00  0.00     0.134 A 
ATOM     58  C   UNL     1      20.873   9.781   5.440  1.00  0.00     0.134 A 
ATOM     59  F   UNL     1      24.079  10.323   3.818  1.00  0.00    -0.206 F 
ATOM     60  C   UNL     1      23.457  10.589   6.066  1.00  0.00     0.040 A 
ATOM     61  C   UNL     1      21.195  10.129   6.752  1.00  0.00     0.040 A 
ATOM     62  F   UNL     1      19.617   9.388   5.181  1.00  0.00    -0.206 F 
ATOM     63  C   UNL     1      22.492  10.526   7.069  1.00  0.00     0.006 A 
ENDBRANCH  39  56
ENDBRANCH  13  14
ENDBRANCH   6   8
ENDBRANCH   3   4
ENDBRANCH   2   3
ENDBRANCH   1   2
BRANCH   1  64
ATOM     64  C   UNL     1      13.834   2.931  -9.006  1.00  0.00     0.002 C 
BRANCH  64  65
ATOM     65  C   UNL     1      12.934   2.919  -7.763  1.00  0.00     0.021 C 
BRANCH  65  66
ATOM     66  C   UNL     1      11.628   3.687  -7.956  1.00  0.00     0.116 C 
BRANCH  66  67
ATOM     67  N   UNL     1      10.636   2.858  -8.613  1.00  0.00    -0.351 N 
ATOM     68  C   UNL     1       9.574   2.143  -8.160  1.00  0.00     0.281 C 
ATOM     69  H   UNL     1      10.757   2.803  -9.589  1.00  0.00     0.163 HD
ATOM     70  O   UNL     1       8.998   1.463  -9.024  1.00  0.00    -0.268 OA
BRANCH  68  71
ATOM     71  C   UNL     1       9.048   2.114  -6.685  1.00  0.00     0.179 C 
ATOM     72  C   UNL     1       9.282   0.695  -6.132  1.00  0.00     0.085 C 
ATOM     73  N   UNL     1       9.815   2.998  -5.781  1.00  0.00    -0.333 N 
ATOM     74  C   UNL     1      10.569   0.817  -5.339  1.00  0.00     0.068 C 
ATOM     75  C   UNL     1      10.457   2.201  -4.744  1.00  0.00     0.261 C 
ATOM     76  H   UNL     1       9.183   3.672  -5.349  1.00  0.00     0.347 HD
ATOM     77  H   UNL     1      10.528   3.494  -6.317  1.00  0.00     0.347 HD
BRANCH  71  78
ATOM     78  C   UNL     1       7.536   2.490  -6.800  1.00  0.00     0.116 C 
BRANCH  78  79
ATOM     79  C   UNL     1       6.753   2.602  -5.505  1.00  0.00    -0.023 A 
ATOM     80  C   UNL     1       6.060   1.471  -5.037  1.00  0.00     0.005 A 
ATOM     81  C   UNL     1       6.692   3.779  -4.740  1.00  0.00     0.044 A 
ATOM     82  C   UNL     1       5.378   1.497  -3.820  1.00  0.00     0.000 A 
ATOM     83  C   UNL     1       6.011   3.801  -3.520  1.00  0.00     0.021 A 
ATOM     84  Cl  UNL     1       7.447   5.247  -5.252  1.00  0.00    -0.084 Cl
ATOM     85  C   UNL     1       5.363   2.659  -3.055  1.00  0.00     0.002 A 
ENDBRANCH  78  79
ENDBRANCH  71  78
ENDBRANCH  68  71
ENDBRANCH  66  67
ENDBRANCH  65  66
ENDBRANCH  64  65
ENDBRANCH   1  64
TORSDOF 15
