REMARK SMILES CCOC(=O)[C@@]1(C)C/C(=N/c2cccc(C(=O)NCCCCCCNC(=O)c3ccc(-c4c5nc(c(-c6c(F)cccc6F)c6ccc([nH]6)c(-c6c(F)cccc6F)c6nc(c(-c7c(F)cccc7F)c7ccc4[nH]7)C=C6)C=C5)cc3)c2)C(=O)N1c1ccccc1
REMARK SMILES IDX 20 1 19 2 18 3 16 4 17 5 15 7 11 8 12 9 82 10 13 11 14 12
REMARK SMILES IDX 10 13 6 14 7 15 8 16 85 17 9 18 83 19 84 20 4 21 5 22 3 23
REMARK SMILES IDX 2 24 1 25 86 26 87 27 91 28 88 29 90 30 89 31 21 32 22 33
REMARK SMILES IDX 23 34 24 35 25 36 26 37 27 39 28 40 29 41 81 42 30 43 80 44
REMARK SMILES IDX 31 45 32 46 33 47 74 48 34 49 79 50 73 51 75 52 35 53 78 54
REMARK SMILES IDX 72 55 71 56 36 58 62 59 45 60 61 61 46 62 49 63 60 64 76 65
REMARK SMILES IDX 47 66 48 67 59 69 77 70 50 71 37 72 38 73 43 74 39 75 40 76
REMARK SMILES IDX 42 77 44 78 41 79 63 80 64 81 69 82 65 83 66 84 68 85 70 86
REMARK SMILES IDX 67 87 51 88 52 89 57 90 53 91 54 92 56 93 58 94 55 95
REMARK H PARENT 18 6 25 38 75 57 49 68
REMARK Flexibility Score: inf
ROOT
ATOM      1  C   UNL     1       2.796  -4.648  -9.000  1.00  0.00     0.021 C 
ENDROOT
BRANCH   1   2
ATOM      2  C   UNL     1       3.096  -5.307  -7.659  1.00  0.00     0.116 C 
BRANCH   2   3
ATOM      3  N   UNL     1       2.883  -6.739  -7.623  1.00  0.00    -0.352 N 
ATOM      4  C   UNL     1       3.429  -7.694  -6.792  1.00  0.00     0.251 C 
ATOM      5  O   UNL     1       3.134  -8.873  -6.985  1.00  0.00    -0.269 OA
ATOM      6  H   UNL     1       2.251  -7.083  -8.295  1.00  0.00     0.163 HD
BRANCH   4   7
ATOM      7  C   UNL     1       4.390  -7.354  -5.704  1.00  0.00     0.041 A 
ATOM      8  C   UNL     1       5.284  -5.842  -4.005  1.00  0.00     0.064 A 
ATOM      9  C   UNL     1       6.291  -6.766  -3.728  1.00  0.00     0.028 A 
ATOM     10  C   UNL     1       4.328  -6.162  -4.979  1.00  0.00     0.042 A 
ATOM     11  C   UNL     1       6.332  -7.991  -4.398  1.00  0.00     0.003 A 
ATOM     12  C   UNL     1       5.388  -8.282  -5.386  1.00  0.00     0.014 A 
BRANCH   8  13
ATOM     13  N   UNL     1       5.363  -4.549  -3.463  1.00  0.00    -0.248 NA
ATOM     14  C   UNL     1       2.863  -2.233  -3.197  1.00  0.00     0.148 C 
ATOM     15  C   UNL     1       2.906  -2.071  -4.734  1.00  0.00     0.048 C 
ATOM     16  C   UNL     1       4.298  -2.512  -2.677  1.00  0.00     0.103 C 
ATOM     17  N   UNL     1       2.102  -3.450  -2.817  1.00  0.00    -0.290 N 
ATOM     18  C   UNL     1       4.339  -3.980  -2.909  1.00  0.00     0.109 C 
ATOM     19  C   UNL     1       2.968  -4.529  -2.625  1.00  0.00     0.273 C 
ATOM     20  O   UNL     1       2.778  -5.684  -2.319  1.00  0.00    -0.267 OA
BRANCH  14  21
ATOM     21  C   UNL     1       2.473  -0.886  -2.556  1.00  0.00     0.332 C 
ATOM     22  O   UNL     1       2.888   0.190  -2.974  1.00  0.00    -0.249 OA
BRANCH  21  23
ATOM     23  O   UNL     1       1.684  -1.034  -1.463  1.00  0.00    -0.464 OA
BRANCH  23  24
ATOM     24  C   UNL     1       1.145   0.166  -0.886  1.00  0.00     0.229 C 
ATOM     25  C   UNL     1       1.356   0.120   0.613  1.00  0.00     0.049 C 
ENDBRANCH  23  24
ENDBRANCH  21  23
ENDBRANCH  14  21
BRANCH  17  26
ATOM     26  C   UNL     1       0.677  -3.554  -2.771  1.00  0.00     0.045 A 
ATOM     27  C   UNL     1       0.055  -4.653  -2.159  1.00  0.00     0.026 A 
ATOM     28  C   UNL     1      -0.160  -2.573  -3.324  1.00  0.00     0.026 A 
ATOM     29  C   UNL     1      -1.339  -4.770  -2.100  1.00  0.00     0.002 A 
ATOM     30  C   UNL     1      -1.555  -2.691  -3.275  1.00  0.00     0.002 A 
ATOM     31  C   UNL     1      -2.145  -3.789  -2.662  1.00  0.00     0.000 A 
ENDBRANCH  17  26
ENDBRANCH   8  13
ENDBRANCH   4   7
ENDBRANCH   2   3
ENDBRANCH   1   2
BRANCH   1  32
ATOM     32  C   UNL     1       1.362  -4.752  -9.523  1.00  0.00     0.002 C 
BRANCH  32  33
ATOM     33  C   UNL     1       0.216  -4.452  -8.554  1.00  0.00     0.002 C 
BRANCH  33  34
ATOM     34  C   UNL     1       0.251  -3.136  -7.772  1.00  0.00     0.021 C 
BRANCH  34  35
ATOM     35  C   UNL     1       0.544  -1.855  -8.548  1.00  0.00     0.116 C 
BRANCH  35  36
ATOM     36  N   UNL     1      -0.354  -1.625  -9.660  1.00  0.00    -0.352 N 
ATOM     37  C   UNL     1      -0.895  -0.462 -10.148  1.00  0.00     0.251 C 
ATOM     38  H   UNL     1      -0.621  -2.438 -10.147  1.00  0.00     0.163 HD
ATOM     39  O   UNL     1      -1.671  -0.527 -11.100  1.00  0.00    -0.269 OA
BRANCH  37  40
ATOM     40  C   UNL     1      -0.607   0.866  -9.544  1.00  0.00     0.039 A 
ATOM     41  C   UNL     1      -1.654   1.796  -9.500  1.00  0.00     0.014 A 
ATOM     42  C   UNL     1       0.660   1.245  -9.089  1.00  0.00     0.014 A 
ATOM     43  C   UNL     1      -1.450   3.073  -8.969  1.00  0.00     0.010 A 
ATOM     44  C   UNL     1       0.856   2.510  -8.520  1.00  0.00     0.010 A 
ATOM     45  C   UNL     1      -0.197   3.435  -8.458  1.00  0.00    -0.014 A 
BRANCH  45  46
ATOM     46  C   UNL     1       0.015   4.784  -7.876  1.00  0.00     0.031 A 
ATOM     47  C   UNL     1       0.802   5.823  -8.622  1.00  0.00     0.074 A 
ATOM     48  C   UNL     1      -0.491   5.077  -6.664  1.00  0.00     0.049 A 
ATOM     49  N   UNL     1       1.116   7.041  -8.255  1.00  0.00    -0.248 NA
ATOM     50  C   UNL     1       1.314   5.442  -9.947  1.00  0.00     0.031 C 
ATOM     51  C   UNL     1      -1.253   4.157  -5.818  1.00  0.00     0.029 A 
ATOM     52  N   UNL     1      -0.441   6.239  -5.935  1.00  0.00    -0.354 N 
ATOM     53  C   UNL     1       1.889   7.559  -9.285  1.00  0.00     0.074 A 
ATOM     54  C   UNL     1       1.993   6.527 -10.296  1.00  0.00     0.031 C 
ATOM     55  C   UNL     1      -1.615   4.797  -4.693  1.00  0.00     0.029 A 
ATOM     56  C   UNL     1      -1.103   6.164  -4.735  1.00  0.00     0.049 A 
ATOM     57  H   UNL     1       0.025   7.049  -6.244  1.00  0.00     0.167 HD
ATOM     58  C   UNL     1       2.462   8.782  -9.382  1.00  0.00     0.037 A 
ATOM     59  C   UNL     1      -1.284   7.094  -3.780  1.00  0.00     0.037 A 
ATOM     60  C   UNL     1       2.332   9.834  -8.410  1.00  0.00     0.049 A 
ATOM     61  C   UNL     1      -0.717   8.471  -3.954  1.00  0.00     0.074 A 
ATOM     62  C   UNL     1       2.870  11.110  -8.440  1.00  0.00     0.029 A 
ATOM     63  N   UNL     1       1.597   9.737  -7.242  1.00  0.00    -0.354 N 
ATOM     64  N   UNL     1       0.010   8.944  -4.934  1.00  0.00    -0.248 NA
ATOM     65  C   UNL     1      -1.003   9.445  -2.889  1.00  0.00     0.031 C 
ATOM     66  C   UNL     1       2.454  11.789  -7.288  1.00  0.00     0.029 A 
ATOM     67  C   UNL     1       1.655  10.934  -6.547  1.00  0.00     0.049 A 
ATOM     68  H   UNL     1       1.104   8.937  -6.948  1.00  0.00     0.167 HD
ATOM     69  C   UNL     1       0.266  10.268  -4.610  1.00  0.00     0.074 A 
ATOM     70  C   UNL     1      -0.390  10.530  -3.345  1.00  0.00     0.031 C 
ATOM     71  C   UNL     1       0.986  11.184  -5.300  1.00  0.00     0.037 A 
BRANCH  58  72
ATOM     72  C   UNL     1       3.299   9.043 -10.592  1.00  0.00     0.057 A 
ATOM     73  C   UNL     1       2.729   9.483 -11.791  1.00  0.00     0.134 A 
ATOM     74  C   UNL     1       4.688   8.874 -10.549  1.00  0.00     0.134 A 
ATOM     75  F   UNL     1       1.403   9.649 -11.893  1.00  0.00    -0.206 F 
ATOM     76  C   UNL     1       3.516   9.741 -12.915  1.00  0.00     0.040 A 
ATOM     77  C   UNL     1       5.485   9.135 -11.663  1.00  0.00     0.040 A 
ATOM     78  F   UNL     1       5.287   8.449  -9.426  1.00  0.00    -0.206 F 
ATOM     79  C   UNL     1       4.899   9.569 -12.851  1.00  0.00     0.006 A 
ENDBRANCH  58  72
BRANCH  59  80
ATOM     80  C   UNL     1      -2.069   6.758  -2.573  1.00  0.00     0.057 A 
ATOM     81  C   UNL     1      -3.429   7.076  -2.492  1.00  0.00     0.134 A 
ATOM     82  C   UNL     1      -1.480   6.118  -1.479  1.00  0.00     0.134 A 
ATOM     83  F   UNL     1      -4.037   7.704  -3.509  1.00  0.00    -0.206 F 
ATOM     84  C   UNL     1      -4.178   6.771  -1.356  1.00  0.00     0.040 A 
ATOM     85  C   UNL     1      -2.219   5.803  -0.339  1.00  0.00     0.040 A 
ATOM     86  F   UNL     1      -0.179   5.793  -1.506  1.00  0.00    -0.206 F 
ATOM     87  C   UNL     1      -3.573   6.131  -0.276  1.00  0.00     0.006 A 
ENDBRANCH  59  80
BRANCH  71  88
ATOM     88  C   UNL     1       1.087  12.552  -4.708  1.00  0.00     0.057 A 
ATOM     89  C   UNL     1       2.077  12.865  -3.769  1.00  0.00     0.134 A 
ATOM     90  C   UNL     1       0.207  13.568  -5.094  1.00  0.00     0.134 A 
ATOM     91  F   UNL     1       2.941  11.926  -3.354  1.00  0.00    -0.206 F 
ATOM     92  C   UNL     1       2.185  14.147  -3.229  1.00  0.00     0.040 A 
ATOM     93  C   UNL     1       0.307  14.855  -4.564  1.00  0.00     0.040 A 
ATOM     94  F   UNL     1      -0.765  13.323  -5.985  1.00  0.00    -0.206 F 
ATOM     95  C   UNL     1       1.299  15.147  -3.629  1.00  0.00     0.006 A 
ENDBRANCH  71  88
ENDBRANCH  45  46
ENDBRANCH  37  40
ENDBRANCH  35  36
ENDBRANCH  34  35
ENDBRANCH  33  34
ENDBRANCH  32  33
ENDBRANCH   1  32
TORSDOF 18
