REMARK SMILES Cc1c(CC(=O)NCCCCCCNC(=O)c2ccc(-c3c4nc(c(-c5c(F)cccc5F)c5ccc([nH]5)c(-c5c(F)cccc5F)c5nc(c(-c6c(F)cccc6F)c6ccc3[nH]6)C=C5)C=C4)cc2)cc(-c2ccc(S(C)(=O)=O)cc2)n1-c1ccccc1
REMARK SMILES IDX 10 1 9 2 8 3 7 4 5 5 6 6 4 8 3 9 1 10 2 11 83 12 71 13 72 14
REMARK SMILES IDX 84 15 85 16 89 17 86 18 88 19 87 20 73 21 74 22 82 23 75 24
REMARK SMILES IDX 81 25 76 26 77 27 78 28 79 29 80 30 11 31 12 32 13 33 14 34
REMARK SMILES IDX 15 35 16 37 17 38 18 39 70 40 19 41 69 42 20 43 21 44 22 45
REMARK SMILES IDX 63 46 23 47 68 48 62 49 64 50 24 51 67 52 61 53 60 54 25 56
REMARK SMILES IDX 51 57 34 58 50 59 35 60 38 61 49 62 65 63 36 64 37 65 48 67
REMARK SMILES IDX 66 68 39 69 26 70 27 71 32 72 28 73 29 74 31 75 33 76 30 77
REMARK SMILES IDX 52 78 53 79 58 80 54 81 55 82 57 83 59 84 56 85 40 86 41 87
REMARK SMILES IDX 46 88 42 89 43 90 45 91 47 92 44 93
REMARK H PARENT 7 7 14 36 64 55 38 66
REMARK Flexibility Score: inf
ROOT
ATOM      1  C   UNL     1       5.080  -1.139  -3.188  1.00  0.00     0.002 C 
ENDROOT
BRANCH   1   2
ATOM      2  C   UNL     1       3.615  -1.590  -3.134  1.00  0.00     0.021 C 
BRANCH   2   3
ATOM      3  C   UNL     1       3.395  -2.950  -2.471  1.00  0.00     0.116 C 
BRANCH   3   4
ATOM      4  N   UNL     1       3.511  -2.866  -1.028  1.00  0.00    -0.356 N 
ATOM      5  C   UNL     1       2.524  -2.859  -0.082  1.00  0.00     0.224 C 
ATOM      6  O   UNL     1       2.848  -2.720   1.100  1.00  0.00    -0.275 OA
ATOM      7  H   UNL     1       4.430  -2.807  -0.680  1.00  0.00     0.163 HD
BRANCH   5   8
ATOM      8  C   UNL     1       1.074  -3.071  -0.482  1.00  0.00     0.137 C 
BRANCH   8   9
ATOM      9  C   UNL     1       0.523  -1.963  -1.321  1.00  0.00    -0.017 A 
ATOM     10  C   UNL     1       0.905   0.085   0.211  1.00  0.00     0.065 C 
ATOM     11  C   UNL     1       0.488  -0.600  -1.048  1.00  0.00     0.024 A 
ATOM     12  N   UNL     1      -0.073   0.056  -2.141  1.00  0.00    -0.314 N 
ATOM     13  C   UNL     1      -0.087  -2.144  -2.578  1.00  0.00     0.033 A 
ATOM     14  C   UNL     1      -0.408  -0.905  -3.089  1.00  0.00     0.053 A 
BRANCH  12  15
ATOM     15  C   UNL     1      -0.277   1.458  -2.276  1.00  0.00     0.046 A 
ATOM     16  C   UNL     1      -1.522   1.944  -2.699  1.00  0.00     0.026 A 
ATOM     17  C   UNL     1       0.776   2.345  -2.030  1.00  0.00     0.026 A 
ATOM     18  C   UNL     1      -1.713   3.316  -2.865  1.00  0.00     0.002 A 
ATOM     19  C   UNL     1       0.582   3.716  -2.214  1.00  0.00     0.002 A 
ATOM     20  C   UNL     1      -0.661   4.200  -2.626  1.00  0.00     0.000 A 
ENDBRANCH  12  15
BRANCH  14  21
ATOM     21  C   UNL     1      -0.936  -0.652  -4.420  1.00  0.00    -0.001 A 
ATOM     22  C   UNL     1      -0.273   0.197  -5.314  1.00  0.00     0.011 A 
ATOM     23  C   UNL     1      -2.109  -1.315  -4.804  1.00  0.00     0.011 A 
ATOM     24  C   UNL     1      -0.816   0.418  -6.571  1.00  0.00     0.021 A 
ATOM     25  C   UNL     1      -2.651  -1.105  -6.058  1.00  0.00     0.021 A 
ATOM     26  C   UNL     1      -2.008  -0.227  -6.918  1.00  0.00     0.067 A 
BRANCH  26  27
ATOM     27  S   UNL     1      -2.781   0.142  -8.454  1.00  0.00     0.175 S 
ATOM     28  C   UNL     1      -3.064   1.890  -8.251  1.00  0.00     0.163 C 
ATOM     29  O   UNL     1      -1.773  -0.143  -9.458  1.00  0.00    -0.224 OA
ATOM     30  O   UNL     1      -4.068  -0.512  -8.489  1.00  0.00    -0.224 OA
ENDBRANCH  26  27
ENDBRANCH  14  21
ENDBRANCH   8   9
ENDBRANCH   5   8
ENDBRANCH   3   4
ENDBRANCH   2   3
ENDBRANCH   1   2
BRANCH   1  31
ATOM     31  C   UNL     1       6.005  -1.979  -4.078  1.00  0.00     0.002 C 
BRANCH  31  32
ATOM     32  C   UNL     1       5.493  -2.323  -5.491  1.00  0.00     0.021 C 
BRANCH  32  33
ATOM     33  C   UNL     1       4.797  -1.210  -6.307  1.00  0.00     0.116 C 
BRANCH  33  34
ATOM     34  N   UNL     1       5.637  -0.534  -7.271  1.00  0.00    -0.352 N 
ATOM     35  C   UNL     1       5.253   0.225  -8.365  1.00  0.00     0.251 C 
ATOM     36  H   UNL     1       6.607  -0.625  -7.132  1.00  0.00     0.163 HD
ATOM     37  O   UNL     1       6.140   0.723  -9.058  1.00  0.00    -0.269 OA
BRANCH  35  38
ATOM     38  C   UNL     1       3.809   0.371  -8.803  1.00  0.00     0.039 A 
ATOM     39  C   UNL     1       3.366  -0.462  -9.810  1.00  0.00     0.014 A 
ATOM     40  C   UNL     1       2.939   1.429  -8.464  1.00  0.00     0.014 A 
ATOM     41  C   UNL     1       2.078  -0.273 -10.396  1.00  0.00     0.010 A 
ATOM     42  C   UNL     1       1.657   1.678  -9.155  1.00  0.00     0.010 A 
ATOM     43  C   UNL     1       1.171   0.841 -10.176  1.00  0.00    -0.014 A 
BRANCH  43  44
ATOM     44  C   UNL     1       0.020   1.085 -11.367  1.00  0.00     0.031 A 
ATOM     45  C   UNL     1       0.814   0.751 -12.574  1.00  0.00     0.074 A 
ATOM     46  C   UNL     1      -1.220   1.653 -11.730  1.00  0.00     0.049 A 
ATOM     47  N   UNL     1       1.918   1.429 -12.735  1.00  0.00    -0.248 NA
ATOM     48  C   UNL     1       0.743  -0.490 -13.338  1.00  0.00     0.031 C 
ATOM     49  C   UNL     1      -2.058   2.578 -10.960  1.00  0.00     0.029 A 
ATOM     50  N   UNL     1      -2.076   1.538 -12.890  1.00  0.00    -0.354 N 
ATOM     51  C   UNL     1       2.533   0.919 -13.840  1.00  0.00     0.074 A 
ATOM     52  C   UNL     1       1.902  -0.389 -14.008  1.00  0.00     0.031 C 
ATOM     53  C   UNL     1      -3.319   2.721 -11.474  1.00  0.00     0.029 A 
ATOM     54  C   UNL     1      -3.447   2.021 -12.747  1.00  0.00     0.049 A 
ATOM     55  H   UNL     1      -1.750   1.153 -13.736  1.00  0.00     0.167 HD
ATOM     56  C   UNL     1       2.814   1.880 -14.768  1.00  0.00     0.037 A 
ATOM     57  C   UNL     1      -4.547   2.040 -13.621  1.00  0.00     0.037 A 
ATOM     58  C   UNL     1       1.803   1.922 -15.788  1.00  0.00     0.049 A 
ATOM     59  C   UNL     1      -3.916   2.311 -14.910  1.00  0.00     0.074 A 
ATOM     60  C   UNL     1       1.121   0.926 -16.461  1.00  0.00     0.029 A 
ATOM     61  N   UNL     1       1.022   3.054 -15.856  1.00  0.00    -0.354 N 
ATOM     62  N   UNL     1      -3.482   3.497 -15.210  1.00  0.00    -0.248 NA
ATOM     63  C   UNL     1      -3.824   1.307 -15.957  1.00  0.00     0.031 C 
ATOM     64  C   UNL     1      -0.227   1.331 -16.401  1.00  0.00     0.029 A 
ATOM     65  C   UNL     1      -0.273   2.695 -16.147  1.00  0.00     0.049 A 
ATOM     66  H   UNL     1       1.341   3.975 -15.717  1.00  0.00     0.167 HD
ATOM     67  C   UNL     1      -2.586   3.231 -16.190  1.00  0.00     0.074 A 
ATOM     68  C   UNL     1      -3.034   1.985 -16.792  1.00  0.00     0.031 C 
ATOM     69  C   UNL     1      -1.324   3.659 -15.951  1.00  0.00     0.037 A 
BRANCH  56  70
ATOM     70  C   UNL     1       3.465   3.100 -14.149  1.00  0.00     0.057 A 
ATOM     71  C   UNL     1       4.840   3.280 -14.295  1.00  0.00     0.134 A 
ATOM     72  C   UNL     1       2.804   3.975 -13.257  1.00  0.00     0.134 A 
ATOM     73  F   UNL     1       5.532   2.523 -15.159  1.00  0.00    -0.206 F 
ATOM     74  C   UNL     1       5.537   4.234 -13.544  1.00  0.00     0.040 A 
ATOM     75  C   UNL     1       3.497   4.881 -12.453  1.00  0.00     0.040 A 
ATOM     76  F   UNL     1       1.467   3.952 -13.126  1.00  0.00    -0.206 F 
ATOM     77  C   UNL     1       4.873   5.007 -12.591  1.00  0.00     0.006 A 
ENDBRANCH  56  70
BRANCH  57  78
ATOM     78  C   UNL     1      -6.096   2.245 -13.817  1.00  0.00     0.057 A 
ATOM     79  C   UNL     1      -6.640   2.886 -14.989  1.00  0.00     0.134 A 
ATOM     80  C   UNL     1      -7.051   1.453 -13.163  1.00  0.00     0.134 A 
ATOM     81  F   UNL     1      -5.914   3.731 -15.734  1.00  0.00    -0.206 F 
ATOM     82  C   UNL     1      -7.929   2.656 -15.520  1.00  0.00     0.040 A 
ATOM     83  C   UNL     1      -8.370   1.243 -13.672  1.00  0.00     0.040 A 
ATOM     84  F   UNL     1      -6.722   0.783 -12.053  1.00  0.00    -0.206 F 
ATOM     85  C   UNL     1      -8.799   1.807 -14.872  1.00  0.00     0.006 A 
ENDBRANCH  57  78
BRANCH  69  86
ATOM     86  C   UNL     1      -1.156   5.056 -15.381  1.00  0.00     0.057 A 
ATOM     87  C   UNL     1      -1.788   5.612 -14.246  1.00  0.00     0.134 A 
ATOM     88  C   UNL     1      -0.339   5.937 -16.101  1.00  0.00     0.134 A 
ATOM     89  F   UNL     1      -2.530   4.883 -13.403  1.00  0.00    -0.206 F 
ATOM     90  C   UNL     1      -1.668   6.968 -13.909  1.00  0.00     0.040 A 
ATOM     91  C   UNL     1      -0.174   7.280 -15.748  1.00  0.00     0.040 A 
ATOM     92  F   UNL     1       0.333   5.501 -17.178  1.00  0.00    -0.206 F 
ATOM     93  C   UNL     1      -0.859   7.808 -14.662  1.00  0.00     0.006 A 
ENDBRANCH  69  86
ENDBRANCH  43  44
ENDBRANCH  35  38
ENDBRANCH  33  34
ENDBRANCH  32  33
ENDBRANCH  31  32
ENDBRANCH   1  31
TORSDOF 17
