REMARK SMILES CCn1c(N2CCC(C(=O)NCCCCCCNC(=O)c3ccc(-c4c5nc(c(-c6c(F)cccc6F)c6ccc([nH]6)c(-c6c(F)cccc6F)c6nc(c(-c7c(F)cccc7F)c7ccc4[nH]7)C=C6)C=C5)cc3)CC2)nc2cc(C)ccc21
REMARK SMILES IDX 14 1 13 2 12 3 11 4 9 5 10 6 8 8 5 9 6 10 76 11 7 12 75 13
REMARK SMILES IDX 4 14 3 15 84 16 77 17 78 18 83 19 79 20 82 21 80 22 81 23
REMARK SMILES IDX 2 24 1 25 15 26 16 27 17 28 18 29 19 30 20 32 21 33 22 34
REMARK SMILES IDX 74 35 23 36 73 37 24 38 25 39 26 40 67 41 27 42 72 43 66 44
REMARK SMILES IDX 68 45 28 46 71 47 65 48 64 49 29 51 55 52 38 53 54 54 39 55
REMARK SMILES IDX 42 56 53 57 69 58 40 59 41 60 52 62 70 63 43 64 30 65 31 66
REMARK SMILES IDX 36 67 32 68 33 69 35 70 37 71 34 72 56 73 57 74 62 75 58 76
REMARK SMILES IDX 59 77 61 78 63 79 60 80 44 81 45 82 50 83 46 84 47 85 49 86
REMARK SMILES IDX 51 87 48 88
REMARK H PARENT 11 7 18 31 68 50 42 61
REMARK Flexibility Score: inf
ROOT
ATOM      1  C   UNL     1      -2.760   8.984   2.132  1.00  0.00     0.002 C 
ENDROOT
BRANCH   1   2
ATOM      2  C   UNL     1      -2.059   7.724   1.615  1.00  0.00     0.021 C 
BRANCH   2   3
ATOM      3  C   UNL     1      -2.772   6.426   1.982  1.00  0.00     0.116 C 
BRANCH   3   4
ATOM      4  N   UNL     1      -3.991   6.262   1.207  1.00  0.00    -0.356 N 
ATOM      5  C   UNL     1      -4.335   5.325   0.282  1.00  0.00     0.223 C 
ATOM      6  O   UNL     1      -5.430   5.437  -0.275  1.00  0.00    -0.275 OA
ATOM      7  H   UNL     1      -4.682   6.941   1.380  1.00  0.00     0.163 HD
BRANCH   5   8
ATOM      8  C   UNL     1      -3.426   4.149  -0.039  1.00  0.00     0.082 C 
ATOM      9  N   UNL     1      -0.986   2.772   0.515  1.00  0.00    -0.342 N 
ATOM     10  C   UNL     1      -1.067   3.490  -0.747  1.00  0.00     0.120 C 
ATOM     11  C   UNL     1      -2.212   2.178   1.020  1.00  0.00     0.120 C 
ATOM     12  C   UNL     1      -2.108   4.597  -0.687  1.00  0.00     0.035 C 
ATOM     13  C   UNL     1      -3.288   3.237   1.187  1.00  0.00     0.035 C 
BRANCH   9  14
ATOM     14  C   UNL     1       0.134   2.862   1.273  1.00  0.00     0.206 A 
ATOM     15  N   UNL     1       0.821   1.739   1.691  1.00  0.00    -0.310 N 
ATOM     16  C   UNL     1       1.953   2.148   2.361  1.00  0.00     0.070 A 
ATOM     17  N   UNL     1       0.787   3.955   1.606  1.00  0.00    -0.213 NA
ATOM     18  C   UNL     1       1.901   3.535   2.298  1.00  0.00     0.091 A 
ATOM     19  C   UNL     1       3.005   1.455   2.973  1.00  0.00     0.029 A 
ATOM     20  C   UNL     1       2.935   4.284   2.890  1.00  0.00     0.034 A 
ATOM     21  C   UNL     1       4.024   2.216   3.553  1.00  0.00     0.006 A 
ATOM     22  C   UNL     1       4.002   3.616   3.522  1.00  0.00    -0.049 A 
ATOM     23  C   UNL     1       5.109   4.405   4.159  1.00  0.00     0.044 C 
BRANCH  15  24
ATOM     24  C   UNL     1       0.517   0.361   1.358  1.00  0.00     0.122 C 
ATOM     25  C   UNL     1       1.020  -0.024  -0.023  1.00  0.00     0.028 C 
ENDBRANCH  15  24
ENDBRANCH   9  14
ENDBRANCH   5   8
ENDBRANCH   3   4
ENDBRANCH   2   3
ENDBRANCH   1   2
BRANCH   1  26
ATOM     26  C   UNL     1      -2.881   9.075   3.656  1.00  0.00     0.002 C 
BRANCH  26  27
ATOM     27  C   UNL     1      -1.566   8.923   4.429  1.00  0.00     0.021 C 
BRANCH  27  28
ATOM     28  C   UNL     1      -0.453   9.875   3.985  1.00  0.00     0.116 C 
BRANCH  28  29
ATOM     29  N   UNL     1      -0.835  11.272   4.037  1.00  0.00    -0.352 N 
ATOM     30  C   UNL     1      -0.884  12.224   5.015  1.00  0.00     0.251 C 
ATOM     31  H   UNL     1      -1.129  11.615   3.162  1.00  0.00     0.163 HD
ATOM     32  O   UNL     1      -1.218  13.357   4.653  1.00  0.00    -0.269 OA
BRANCH  30  33
ATOM     33  C   UNL     1      -0.607  11.992   6.460  1.00  0.00     0.039 A 
ATOM     34  C   UNL     1      -0.203  10.784   7.025  1.00  0.00     0.014 A 
ATOM     35  C   UNL     1      -0.807  13.092   7.317  1.00  0.00     0.014 A 
ATOM     36  C   UNL     1      -0.074  10.657   8.404  1.00  0.00     0.010 A 
ATOM     37  C   UNL     1      -0.654  12.979   8.698  1.00  0.00     0.010 A 
ATOM     38  C   UNL     1      -0.319  11.746   9.246  1.00  0.00    -0.014 A 
BRANCH  38  39
ATOM     39  C   UNL     1      -0.120  11.532  10.678  1.00  0.00     0.031 A 
ATOM     40  C   UNL     1       1.248  11.101  11.068  1.00  0.00     0.074 A 
ATOM     41  C   UNL     1      -1.050  11.747  11.631  1.00  0.00     0.049 A 
ATOM     42  N   UNL     1       1.609   9.969  11.578  1.00  0.00    -0.248 NA
ATOM     43  C   UNL     1       2.365  12.014  10.782  1.00  0.00     0.031 C 
ATOM     44  C   UNL     1      -2.321  12.459  11.483  1.00  0.00     0.029 A 
ATOM     45  N   UNL     1      -1.014  11.437  12.966  1.00  0.00    -0.354 N 
ATOM     46  C   UNL     1       2.966  10.097  11.869  1.00  0.00     0.074 A 
ATOM     47  C   UNL     1       3.405  11.314  11.238  1.00  0.00     0.031 C 
ATOM     48  C   UNL     1      -2.833  12.710  12.708  1.00  0.00     0.029 A 
ATOM     49  C   UNL     1      -2.017  12.039  13.708  1.00  0.00     0.049 A 
ATOM     50  H   UNL     1      -0.338  10.840  13.361  1.00  0.00     0.167 HD
ATOM     51  C   UNL     1       3.549   9.323  12.825  1.00  0.00     0.037 A 
ATOM     52  C   UNL     1      -2.182  12.020  15.051  1.00  0.00     0.037 A 
ATOM     53  C   UNL     1       2.731   8.190  13.166  1.00  0.00     0.049 A 
ATOM     54  C   UNL     1      -1.487  10.845  15.618  1.00  0.00     0.074 A 
ATOM     55  C   UNL     1       2.505   6.911  12.710  1.00  0.00     0.029 A 
ATOM     56  N   UNL     1       1.750   8.478  14.069  1.00  0.00    -0.354 N 
ATOM     57  N   UNL     1      -1.867   9.613  15.427  1.00  0.00    -0.248 NA
ATOM     58  C   UNL     1      -0.169  11.004  16.226  1.00  0.00     0.031 C 
ATOM     59  C   UNL     1       1.278   6.478  13.303  1.00  0.00     0.029 A 
ATOM     60  C   UNL     1       0.791   7.504  14.106  1.00  0.00     0.049 A 
ATOM     61  H   UNL     1       1.734   9.289  14.626  1.00  0.00     0.167 HD
ATOM     62  C   UNL     1      -0.699   8.885  15.489  1.00  0.00     0.074 A 
ATOM     63  C   UNL     1       0.264   9.742  16.165  1.00  0.00     0.031 C 
ATOM     64  C   UNL     1      -0.499   7.811  14.675  1.00  0.00     0.037 A 
BRANCH  51  65
ATOM     65  C   UNL     1       4.581   9.820  13.819  1.00  0.00     0.057 A 
ATOM     66  C   UNL     1       4.767  11.176  14.155  1.00  0.00     0.134 A 
ATOM     67  C   UNL     1       5.147   8.901  14.727  1.00  0.00     0.134 A 
ATOM     68  F   UNL     1       4.237  12.173  13.437  1.00  0.00    -0.206 F 
ATOM     69  C   UNL     1       5.425  11.586  15.321  1.00  0.00     0.040 A 
ATOM     70  C   UNL     1       5.764   9.301  15.920  1.00  0.00     0.040 A 
ATOM     71  F   UNL     1       5.043   7.579  14.524  1.00  0.00    -0.206 F 
ATOM     72  C   UNL     1       5.893  10.648  16.226  1.00  0.00     0.006 A 
ENDBRANCH  51  65
BRANCH  52  73
ATOM     73  C   UNL     1      -2.800  13.049  15.909  1.00  0.00     0.057 A 
ATOM     74  C   UNL     1      -2.640  14.415  15.619  1.00  0.00     0.134 A 
ATOM     75  C   UNL     1      -3.341  12.738  17.162  1.00  0.00     0.134 A 
ATOM     76  F   UNL     1      -2.061  14.813  14.476  1.00  0.00    -0.206 F 
ATOM     77  C   UNL     1      -2.988  15.416  16.528  1.00  0.00     0.040 A 
ATOM     78  C   UNL     1      -3.688  13.731  18.085  1.00  0.00     0.040 A 
ATOM     79  F   UNL     1      -3.493  11.461  17.541  1.00  0.00    -0.206 F 
ATOM     80  C   UNL     1      -3.503  15.075  17.773  1.00  0.00     0.006 A 
ENDBRANCH  52  73
BRANCH  64  81
ATOM     81  C   UNL     1      -1.705   7.078  14.192  1.00  0.00     0.057 A 
ATOM     82  C   UNL     1      -1.897   5.758  14.614  1.00  0.00     0.134 A 
ATOM     83  C   UNL     1      -2.654   7.617  13.315  1.00  0.00     0.134 A 
ATOM     84  F   UNL     1      -1.002   5.168  15.423  1.00  0.00    -0.206 F 
ATOM     85  C   UNL     1      -2.998   5.008  14.202  1.00  0.00     0.040 A 
ATOM     86  C   UNL     1      -3.778   6.887  12.920  1.00  0.00     0.040 A 
ATOM     87  F   UNL     1      -2.505   8.847  12.803  1.00  0.00    -0.206 F 
ATOM     88  C   UNL     1      -3.952   5.578  13.363  1.00  0.00     0.006 A 
ENDBRANCH  64  81
ENDBRANCH  38  39
ENDBRANCH  30  33
ENDBRANCH  28  29
ENDBRANCH  27  28
ENDBRANCH  26  27
ENDBRANCH   1  26
TORSDOF 15
