REMARK SMILES O=C(NCCCCCCNC(=O)[C@H]1CCCCN1C(=O)c1cn2ccccc2n1)c1ccc(-c2c3nc(c(-c4c(F)cccc4F)c4ccc([nH]4)c(-c4c(F)cccc4F)c4nc(c(-c5c(F)cccc5F)c5ccc2[nH]5)C=C4)C=C3)cc1
REMARK SMILES IDX 6 1 5 2 4 3 3 4 1 5 2 6 30 8 31 9 83 10 32 11 82 12 33 13
REMARK SMILES IDX 34 14 35 15 76 16 36 17 81 18 75 19 77 20 37 21 80 22 74 23
REMARK SMILES IDX 73 24 38 26 64 27 47 28 63 29 48 30 51 31 62 32 78 33 49 34
REMARK SMILES IDX 50 35 61 37 79 38 52 39 39 40 40 41 45 42 41 43 42 44 44 45
REMARK SMILES IDX 46 46 43 47 65 48 66 49 71 50 67 51 68 52 70 53 72 54 69 55
REMARK SMILES IDX 53 56 54 57 59 58 55 59 56 60 58 61 60 62 57 63 7 64 8 65
REMARK SMILES IDX 9 66 10 67 11 68 12 70 13 71 14 72 18 73 15 74 17 75 16 76
REMARK SMILES IDX 19 77 20 78 21 79 22 80 29 81 23 82 28 83 24 84 27 85 25 86
REMARK SMILES IDX 26 87
REMARK H PARENT 3 7 77 25 51 36 10 69
REMARK Flexibility Score: inf
ROOT
ATOM      1  C   UNL     1      10.251 -11.120  -2.275  1.00  0.00     0.002 C 
ENDROOT
BRANCH   1   2
ATOM      2  C   UNL     1      10.204 -12.474  -1.569  1.00  0.00     0.021 C 
BRANCH   2   3
ATOM      3  C   UNL     1       9.163 -13.451  -2.097  1.00  0.00     0.116 C 
BRANCH   3   4
ATOM      4  N   UNL     1       9.390 -13.839  -3.480  1.00  0.00    -0.352 N 
ATOM      5  O   UNL     1       9.725 -15.259  -5.201  1.00  0.00    -0.269 OA
ATOM      6  C   UNL     1       9.403 -15.097  -4.032  1.00  0.00     0.251 C 
ATOM      7  H   UNL     1       9.557 -13.099  -4.106  1.00  0.00     0.163 HD
BRANCH   6   8
ATOM      8  C   UNL     1       9.054 -16.266  -3.192  1.00  0.00     0.039 A 
ATOM      9  C   UNL     1       7.934 -16.239  -2.359  1.00  0.00     0.014 A 
ATOM     10  C   UNL     1       9.868 -17.402  -3.241  1.00  0.00     0.014 A 
ATOM     11  C   UNL     1       7.705 -17.289  -1.477  1.00  0.00     0.010 A 
ATOM     12  C   UNL     1       9.585 -18.492  -2.414  1.00  0.00     0.010 A 
ATOM     13  C   UNL     1       8.517 -18.434  -1.506  1.00  0.00    -0.014 A 
BRANCH  13  14
ATOM     14  C   UNL     1       8.183 -19.585  -0.631  1.00  0.00     0.031 A 
ATOM     15  C   UNL     1       9.107 -20.028   0.467  1.00  0.00     0.074 A 
ATOM     16  C   UNL     1       7.013 -20.223  -0.830  1.00  0.00     0.049 A 
ATOM     17  N   UNL     1       8.958 -21.009   1.322  1.00  0.00    -0.248 NA
ATOM     18  C   UNL     1      10.364 -19.281   0.625  1.00  0.00     0.031 C 
ATOM     19  C   UNL     1       6.041 -19.890  -1.875  1.00  0.00     0.029 A 
ATOM     20  N   UNL     1       6.434 -21.269  -0.160  1.00  0.00    -0.354 N 
ATOM     21  C   UNL     1      10.104 -21.009   2.107  1.00  0.00     0.074 A 
ATOM     22  C   UNL     1      10.952 -19.946   1.611  1.00  0.00     0.031 C 
ATOM     23  C   UNL     1       4.971 -20.687  -1.750  1.00  0.00     0.029 A 
ATOM     24  C   UNL     1       5.206 -21.625  -0.660  1.00  0.00     0.049 A 
ATOM     25  H   UNL     1       6.858 -21.721   0.605  1.00  0.00     0.167 HD
ATOM     26  C   UNL     1      10.413 -21.819   3.149  1.00  0.00     0.037 A 
ATOM     27  C   UNL     1       4.367 -22.611  -0.295  1.00  0.00     0.037 A 
ATOM     28  C   UNL     1       9.559 -22.869   3.643  1.00  0.00     0.049 A 
ATOM     29  C   UNL     1       4.749 -23.510   0.843  1.00  0.00     0.074 A 
ATOM     30  C   UNL     1       9.767 -23.718   4.717  1.00  0.00     0.029 A 
ATOM     31  N   UNL     1       8.335 -23.219   3.092  1.00  0.00    -0.354 N 
ATOM     32  N   UNL     1       5.819 -23.474   1.599  1.00  0.00    -0.248 NA
ATOM     33  C   UNL     1       3.810 -24.588   1.177  1.00  0.00     0.031 C 
ATOM     34  C   UNL     1       8.692 -24.610   4.787  1.00  0.00     0.029 A 
ATOM     35  C   UNL     1       7.789 -24.287   3.788  1.00  0.00     0.049 A 
ATOM     36  H   UNL     1       7.915 -22.774   2.320  1.00  0.00     0.167 HD
ATOM     37  C   UNL     1       5.677 -24.513   2.507  1.00  0.00     0.074 A 
ATOM     38  C   UNL     1       4.406 -25.147   2.220  1.00  0.00     0.031 C 
ATOM     39  C   UNL     1       6.525 -24.909   3.487  1.00  0.00     0.037 A 
BRANCH  26  40
ATOM     40  C   UNL     1      11.742 -21.615   3.819  1.00  0.00     0.057 A 
ATOM     41  C   UNL     1      11.998 -20.507   4.637  1.00  0.00     0.134 A 
ATOM     42  C   UNL     1      12.762 -22.567   3.685  1.00  0.00     0.134 A 
ATOM     43  F   UNL     1      11.069 -19.553   4.800  1.00  0.00    -0.206 F 
ATOM     44  C   UNL     1      13.226 -20.343   5.281  1.00  0.00     0.040 A 
ATOM     45  C   UNL     1      13.985 -22.426   4.343  1.00  0.00     0.040 A 
ATOM     46  F   UNL     1      12.581 -23.656   2.924  1.00  0.00    -0.206 F 
ATOM     47  C   UNL     1      14.222 -21.308   5.141  1.00  0.00     0.006 A 
ENDBRANCH  26  40
BRANCH  27  48
ATOM     48  C   UNL     1       3.089 -22.798  -1.025  1.00  0.00     0.057 A 
ATOM     49  C   UNL     1       1.861 -22.517  -0.419  1.00  0.00     0.134 A 
ATOM     50  C   UNL     1       3.068 -23.245  -2.353  1.00  0.00     0.134 A 
ATOM     51  F   UNL     1       1.817 -22.100   0.856  1.00  0.00    -0.206 F 
ATOM     52  C   UNL     1       0.655 -22.684  -1.101  1.00  0.00     0.040 A 
ATOM     53  C   UNL     1       1.872 -23.391  -3.055  1.00  0.00     0.040 A 
ATOM     54  F   UNL     1       4.214 -23.522  -2.992  1.00  0.00    -0.206 F 
ATOM     55  C   UNL     1       0.660 -23.116  -2.426  1.00  0.00     0.006 A 
ENDBRANCH  27  48
BRANCH  39  56
ATOM     56  C   UNL     1       6.089 -26.069   4.333  1.00  0.00     0.057 A 
ATOM     57  C   UNL     1       6.080 -27.379   3.839  1.00  0.00     0.134 A 
ATOM     58  C   UNL     1       5.693 -25.874   5.662  1.00  0.00     0.134 A 
ATOM     59  F   UNL     1       6.432 -27.630   2.569  1.00  0.00    -0.206 F 
ATOM     60  C   UNL     1       5.668 -28.453   4.630  1.00  0.00     0.040 A 
ATOM     61  C   UNL     1       5.304 -26.942   6.470  1.00  0.00     0.040 A 
ATOM     62  F   UNL     1       5.685 -24.644   6.197  1.00  0.00    -0.206 F 
ATOM     63  C   UNL     1       5.285 -28.235   5.952  1.00  0.00     0.006 A 
ENDBRANCH  39  56
ENDBRANCH  13  14
ENDBRANCH   6   8
ENDBRANCH   3   4
ENDBRANCH   2   3
ENDBRANCH   1   2
BRANCH   1  64
ATOM     64  C   UNL     1       8.913 -10.388  -2.403  1.00  0.00     0.002 C 
BRANCH  64  65
ATOM     65  C   UNL     1       8.126 -10.177  -1.104  1.00  0.00     0.021 C 
BRANCH  65  66
ATOM     66  C   UNL     1       8.873  -9.460   0.017  1.00  0.00     0.116 C 
BRANCH  66  67
ATOM     67  N   UNL     1       9.322  -8.141  -0.369  1.00  0.00    -0.354 N 
ATOM     68  C   UNL     1       9.482  -7.015   0.383  1.00  0.00     0.242 C 
ATOM     69  H   UNL     1       9.547  -8.041  -1.322  1.00  0.00     0.163 HD
ATOM     70  O   UNL     1       9.857  -6.007  -0.225  1.00  0.00    -0.273 OA
BRANCH  68  71
ATOM     71  C   UNL     1       9.172  -7.014   1.907  1.00  0.00     0.174 C 
ATOM     72  C   UNL     1       9.945  -8.051   2.732  1.00  0.00     0.035 C 
ATOM     73  N   UNL     1       9.440  -5.679   2.486  1.00  0.00    -0.325 N 
ATOM     74  C   UNL     1      11.438  -7.745   2.763  1.00  0.00     0.004 C 
ATOM     75  C   UNL     1      10.852  -5.287   2.587  1.00  0.00     0.121 C 
ATOM     76  C   UNL     1      11.683  -6.343   3.310  1.00  0.00     0.022 C 
BRANCH  73  77
ATOM     77  C   UNL     1       8.351  -4.889   2.868  1.00  0.00     0.274 C 
ATOM     78  O   UNL     1       7.195  -5.308   2.817  1.00  0.00    -0.267 OA
BRANCH  77  79
ATOM     79  C   UNL     1       8.633  -3.542   3.370  1.00  0.00     0.147 A 
ATOM     80  C   UNL     1       9.205  -2.494   2.670  1.00  0.00     0.127 A 
ATOM     81  N   UNL     1       8.333  -3.143   4.663  1.00  0.00    -0.223 NA
ATOM     82  N   UNL     1       9.293  -1.455   3.557  1.00  0.00    -0.306 N 
ATOM     83  C   UNL     1       8.735  -1.895   4.752  1.00  0.00     0.137 A 
ATOM     84  C   UNL     1       9.832  -0.183   3.382  1.00  0.00     0.093 A 
ATOM     85  C   UNL     1       8.704  -0.969   5.834  1.00  0.00     0.048 A 
ATOM     86  C   UNL     1       9.815   0.683   4.410  1.00  0.00     0.018 A 
ATOM     87  C   UNL     1       9.222   0.265   5.673  1.00  0.00     0.005 A 
ENDBRANCH  77  79
ENDBRANCH  73  77
ENDBRANCH  68  71
ENDBRANCH  66  67
ENDBRANCH  65  66
ENDBRANCH  64  65
ENDBRANCH   1  64
TORSDOF 15
