REMARK SMILES O=C(NCCCCCCNC(=O)[C@@]1([NH2+]C2CC2)CCC[C@@H]([NH+]2CCS(=O)(=O)CC2)C1)c1ccc(-c2c3nc(c(-c4c(F)cccc4F)c4ccc([nH]4)c(-c4c(F)cccc4F)c4nc(c(-c5c(F)cccc5F)c5ccc2[nH]5)C=C4)C=C3)cc1
REMARK SMILES IDX 6 1 5 2 4 3 3 4 1 5 2 6 31 8 32 9 84 10 33 11 83 12 34 13
REMARK SMILES IDX 35 14 36 15 77 16 37 17 82 18 76 19 78 20 38 21 81 22 75 23
REMARK SMILES IDX 74 24 39 26 65 27 48 28 64 29 49 30 52 31 63 32 79 33 50 34
REMARK SMILES IDX 51 35 62 37 80 38 53 39 40 40 41 41 46 42 42 43 43 44 45 45
REMARK SMILES IDX 47 46 44 47 66 48 67 49 72 50 68 51 69 52 71 53 73 54 70 55
REMARK SMILES IDX 54 56 55 57 60 58 56 59 57 60 59 61 61 62 58 63 7 64 8 65
REMARK SMILES IDX 9 66 10 67 11 68 12 70 13 71 18 72 30 73 19 74 21 75 20 76
REMARK SMILES IDX 14 77 15 80 16 81 17 82 22 83 23 84 29 85 24 87 28 88 25 89
REMARK SMILES IDX 26 90 27 91
REMARK H PARENT 3 7 78 25 52 36 10 69 14 78 14 79 22 86
REMARK Flexibility Score: inf
ROOT
ATOM      1  C   UNL     1       3.587  -2.336   2.832  1.00  0.00     0.002 C 
ENDROOT
BRANCH   1   2
ATOM      2  C   UNL     1       4.208  -1.083   2.214  1.00  0.00     0.021 C 
BRANCH   2   3
ATOM      3  C   UNL     1       4.153  -1.022   0.690  1.00  0.00     0.116 C 
BRANCH   3   4
ATOM      4  N   UNL     1       2.789  -1.019   0.193  1.00  0.00    -0.352 N 
ATOM      5  O   UNL     1       0.865  -0.066  -0.508  1.00  0.00    -0.269 OA
ATOM      6  C   UNL     1       2.079   0.015  -0.360  1.00  0.00     0.251 C 
ATOM      7  H   UNL     1       2.309  -1.875   0.263  1.00  0.00     0.163 HD
BRANCH   6   8
ATOM      8  C   UNL     1       2.796   1.237  -0.770  1.00  0.00     0.039 A 
ATOM      9  C   UNL     1       3.955   1.145  -1.546  1.00  0.00     0.014 A 
ATOM     10  C   UNL     1       2.297   2.481  -0.382  1.00  0.00     0.014 A 
ATOM     11  C   UNL     1       4.681   2.292  -1.839  1.00  0.00     0.010 A 
ATOM     12  C   UNL     1       2.983   3.639  -0.749  1.00  0.00     0.010 A 
ATOM     13  C   UNL     1       4.188   3.552  -1.465  1.00  0.00    -0.014 A 
BRANCH  13  14
ATOM     14  C   UNL     1       4.901   4.779  -1.891  1.00  0.00     0.031 A 
ATOM     15  C   UNL     1       5.504   5.711  -0.882  1.00  0.00     0.074 A 
ATOM     16  C   UNL     1       4.976   5.057  -3.207  1.00  0.00     0.049 A 
ATOM     17  N   UNL     1       6.095   6.863  -1.073  1.00  0.00    -0.248 NA
ATOM     18  C   UNL     1       5.425   5.301   0.528  1.00  0.00     0.031 C 
ATOM     19  C   UNL     1       4.423   4.222  -4.276  1.00  0.00     0.029 A 
ATOM     20  N   UNL     1       5.537   6.117  -3.869  1.00  0.00    -0.354 N 
ATOM     21  C   UNL     1       6.437   7.328   0.189  1.00  0.00     0.074 A 
ATOM     22  C   UNL     1       5.965   6.344   1.142  1.00  0.00     0.031 C 
ATOM     23  C   UNL     1       4.690   4.791  -5.460  1.00  0.00     0.029 A 
ATOM     24  C   UNL     1       5.368   6.060  -5.230  1.00  0.00     0.049 A 
ATOM     25  H   UNL     1       6.015   6.847  -3.413  1.00  0.00     0.167 HD
ATOM     26  C   UNL     1       7.089   8.470   0.519  1.00  0.00     0.037 A 
ATOM     27  C   UNL     1       5.692   6.948  -6.188  1.00  0.00     0.037 A 
ATOM     28  C   UNL     1       7.550   9.440  -0.442  1.00  0.00     0.049 A 
ATOM     29  C   UNL     1       6.369   8.227  -5.793  1.00  0.00     0.074 A 
ATOM     30  C   UNL     1       8.246  10.615  -0.216  1.00  0.00     0.029 A 
ATOM     31  N   UNL     1       7.349   9.354  -1.813  1.00  0.00    -0.354 N 
ATOM     32  N   UNL     1       6.717   8.642  -4.599  1.00  0.00    -0.248 NA
ATOM     33  C   UNL     1       6.698   9.161  -6.877  1.00  0.00     0.031 C 
ATOM     34  C   UNL     1       8.415  11.266  -1.442  1.00  0.00     0.029 A 
ATOM     35  C   UNL     1       7.884  10.467  -2.442  1.00  0.00     0.049 A 
ATOM     36  H   UNL     1       6.893   8.612  -2.272  1.00  0.00     0.167 HD
ATOM     37  C   UNL     1       7.332   9.871  -4.788  1.00  0.00     0.074 A 
ATOM     38  C   UNL     1       7.316  10.130  -6.215  1.00  0.00     0.031 C 
ATOM     39  C   UNL     1       7.866  10.707  -3.864  1.00  0.00     0.037 A 
BRANCH  26  40
ATOM     40  C   UNL     1       7.308   8.745   1.980  1.00  0.00     0.057 A 
ATOM     41  C   UNL     1       8.191   7.985   2.758  1.00  0.00     0.134 A 
ATOM     42  C   UNL     1       6.640   9.802   2.613  1.00  0.00     0.134 A 
ATOM     43  F   UNL     1       8.856   6.951   2.220  1.00  0.00    -0.206 F 
ATOM     44  C   UNL     1       8.375   8.242   4.119  1.00  0.00     0.040 A 
ATOM     45  C   UNL     1       6.838  10.088   3.965  1.00  0.00     0.040 A 
ATOM     46  F   UNL     1       5.787  10.578   1.928  1.00  0.00    -0.206 F 
ATOM     47  C   UNL     1       7.701   9.301   4.725  1.00  0.00     0.006 A 
ENDBRANCH  26  40
BRANCH  27  48
ATOM     48  C   UNL     1       5.366   6.648  -7.603  1.00  0.00     0.057 A 
ATOM     49  C   UNL     1       6.372   6.362  -8.532  1.00  0.00     0.134 A 
ATOM     50  C   UNL     1       4.040   6.606  -8.053  1.00  0.00     0.134 A 
ATOM     51  F   UNL     1       7.661   6.399  -8.163  1.00  0.00    -0.206 F 
ATOM     52  C   UNL     1       6.073   6.056  -9.860  1.00  0.00     0.040 A 
ATOM     53  C   UNL     1       3.725   6.274  -9.371  1.00  0.00     0.040 A 
ATOM     54  F   UNL     1       3.030   6.858  -7.208  1.00  0.00    -0.206 F 
ATOM     55  C   UNL     1       4.745   6.003 -10.281  1.00  0.00     0.006 A 
ENDBRANCH  27  48
BRANCH  39  56
ATOM     56  C   UNL     1       8.523  11.958  -4.370  1.00  0.00     0.057 A 
ATOM     57  C   UNL     1       7.787  13.031  -4.887  1.00  0.00     0.134 A 
ATOM     58  C   UNL     1       9.915  12.104  -4.297  1.00  0.00     0.134 A 
ATOM     59  F   UNL     1       6.452  12.948  -4.999  1.00  0.00    -0.206 F 
ATOM     60  C   UNL     1       8.412  14.197  -5.331  1.00  0.00     0.040 A 
ATOM     61  C   UNL     1      10.549  13.276  -4.711  1.00  0.00     0.040 A 
ATOM     62  F   UNL     1      10.679  11.116  -3.807  1.00  0.00    -0.206 F 
ATOM     63  C   UNL     1       9.797  14.325  -5.235  1.00  0.00     0.006 A 
ENDBRANCH  39  56
ENDBRANCH  13  14
ENDBRANCH   6   8
ENDBRANCH   3   4
ENDBRANCH   2   3
ENDBRANCH   1   2
BRANCH   1  64
ATOM     64  C   UNL     1       4.073  -3.659   2.247  1.00  0.00     0.002 C 
BRANCH  64  65
ATOM     65  C   UNL     1       5.586  -3.799   2.087  1.00  0.00     0.021 C 
BRANCH  65  66
ATOM     66  C   UNL     1       6.408  -3.873   3.380  1.00  0.00     0.116 C 
BRANCH  66  67
ATOM     67  N   UNL     1       6.592  -5.255   3.767  1.00  0.00    -0.351 N 
ATOM     68  C   UNL     1       7.625  -6.125   3.606  1.00  0.00     0.281 C 
ATOM     69  H   UNL     1       5.819  -5.641   4.238  1.00  0.00     0.163 HD
ATOM     70  O   UNL     1       7.254  -7.307   3.514  1.00  0.00    -0.268 OA
BRANCH  68  71
ATOM     71  C   UNL     1       9.165  -5.763   3.646  1.00  0.00     0.181 C 
ATOM     72  C   UNL     1       9.554  -4.509   4.448  1.00  0.00     0.079 C 
ATOM     73  C   UNL     1       9.720  -6.988   4.474  1.00  0.00     0.144 C 
ATOM     74  C   UNL     1      11.050  -4.425   4.775  1.00  0.00     0.013 C 
ATOM     75  C   UNL     1      11.207  -6.967   4.860  1.00  0.00     0.190 C 
ATOM     76  C   UNL     1      11.546  -5.640   5.560  1.00  0.00     0.065 C 
BRANCH  71  77
ATOM     77  N   UNL     1       9.868  -5.934   2.346  1.00  0.00    -0.331 N 
ATOM     78  H   UNL     1       9.709  -6.911   2.099  1.00  0.00     0.347 HD
ATOM     79  H   UNL     1      10.764  -5.526   2.613  1.00  0.00     0.347 HD
BRANCH  77  80
ATOM     80  C   UNL     1       9.679  -5.213   1.100  1.00  0.00     0.183 C 
ATOM     81  C   UNL     1       8.347  -4.864   0.552  1.00  0.00     0.071 C 
ATOM     82  C   UNL     1       9.291  -3.778   0.995  1.00  0.00     0.071 C 
ENDBRANCH  77  80
ENDBRANCH  71  77
BRANCH  75  83
ATOM     83  N   UNL     1      11.682  -8.179   5.563  1.00  0.00    -0.331 N 
ATOM     84  C   UNL     1      11.378  -9.469   4.924  1.00  0.00     0.278 C 
ATOM     85  C   UNL     1      11.636  -8.248   7.019  1.00  0.00     0.278 C 
ATOM     86  H   UNL     1      12.672  -7.993   5.404  1.00  0.00     0.348 HD
ATOM     87  C   UNL     1      10.036 -10.112   5.257  1.00  0.00     0.198 C 
ATOM     88  C   UNL     1      10.275  -8.582   7.588  1.00  0.00     0.198 C 
ATOM     89  S   UNL     1       9.737 -10.167   7.002  1.00  0.00     0.161 S 
ATOM     90  O   UNL     1       8.297 -10.236   7.206  1.00  0.00    -0.228 OA
ATOM     91  O   UNL     1      10.601 -11.177   7.575  1.00  0.00    -0.228 OA
ENDBRANCH  75  83
ENDBRANCH  68  71
ENDBRANCH  66  67
ENDBRANCH  65  66
ENDBRANCH  64  65
ENDBRANCH   1  64
TORSDOF 16
