REMARK SMILES Cc1nn(C(C)C)c(C)c1S(=O)(=O)Nc1cccc(C(=O)NCCCCCCNC(=O)c2ccc(-c3c4nc(c(-c5c(F)cccc5F)c5ccc([nH]5)c(-c5c(F)cccc5F)c5nc(c(-c6c(F)cccc6F)c6ccc3[nH]6)C=C5)C=C4)cc2)c1C
REMARK SMILES IDX 24 1 23 2 22 3 20 4 21 5 19 7 15 8 16 9 86 10 17 11 87 12
REMARK SMILES IDX 18 13 14 14 11 16 12 17 13 18 10 19 1 20 2 21 3 22 4 23 8 24
REMARK SMILES IDX 9 25 5 26 6 27 7 28 25 29 26 30 27 31 28 32 29 33 30 34
REMARK SMILES IDX 31 36 32 37 33 38 85 39 34 40 84 41 35 42 36 43 37 44 78 45
REMARK SMILES IDX 38 46 83 47 77 48 79 49 39 50 82 51 76 52 75 53 40 55 66 56
REMARK SMILES IDX 49 57 65 58 50 59 53 60 64 61 80 62 51 63 52 64 63 66 81 67
REMARK SMILES IDX 54 68 41 69 42 70 47 71 43 72 44 73 46 74 48 75 45 76 67 77
REMARK SMILES IDX 68 78 73 79 69 80 70 81 72 82 74 83 71 84 55 85 56 86 61 87
REMARK SMILES IDX 57 88 58 89 60 90 62 91 59 92
REMARK H PARENT 22 6 14 15 29 35 79 54 53 65
REMARK Flexibility Score: inf
ROOT
ATOM      1  C   UNL     1      -0.043  -5.995   0.230  1.00  0.00     0.021 C 
ENDROOT
BRANCH   1   2
ATOM      2  C   UNL     1      -0.582  -4.567   0.356  1.00  0.00     0.116 C 
BRANCH   2   3
ATOM      3  N   UNL     1      -0.445  -4.060   1.704  1.00  0.00    -0.352 N 
ATOM      4  C   UNL     1       0.167  -2.976   2.277  1.00  0.00     0.251 C 
ATOM      5  O   UNL     1      -0.250  -2.724   3.408  1.00  0.00    -0.269 OA
ATOM      6  H   UNL     1      -0.899  -4.629   2.367  1.00  0.00     0.163 HD
BRANCH   4   7
ATOM      7  C   UNL     1       1.208  -2.101   1.620  1.00  0.00     0.044 A 
ATOM      8  C   UNL     1       2.219   0.118   1.361  1.00  0.00     0.053 A 
ATOM      9  C   UNL     1       2.882  -0.301   0.212  1.00  0.00     0.027 A 
ATOM     10  C   UNL     1       1.514  -0.819   2.159  1.00  0.00    -0.014 A 
ATOM     11  C   UNL     1       2.741  -1.617  -0.220  1.00  0.00     0.003 A 
ATOM     12  C   UNL     1       1.099  -0.407   3.554  1.00  0.00     0.047 C 
ATOM     13  C   UNL     1       1.891  -2.497   0.461  1.00  0.00     0.014 A 
BRANCH   8  14
ATOM     14  N   UNL     1       2.166   1.485   1.737  1.00  0.00    -0.279 N 
ATOM     15  H   UNL     1       2.123   1.665   2.704  1.00  0.00     0.180 HD
BRANCH  14  16
ATOM     16  S   UNL     1       2.169   2.818   0.751  1.00  0.00     0.265 S 
ATOM     17  O   UNL     1       3.366   2.816  -0.062  1.00  0.00    -0.201 OA
ATOM     18  O   UNL     1       1.904   3.909   1.670  1.00  0.00    -0.201 OA
BRANCH  16  19
ATOM     19  C   UNL     1       0.891   2.963  -0.407  1.00  0.00     0.131 A 
ATOM     20  C   UNL     1      -0.133   0.534  -0.769  1.00  0.00     0.070 C 
ATOM     21  C   UNL     1       0.044   1.984  -0.986  1.00  0.00     0.080 A 
ATOM     22  N   UNL     1      -0.727   2.515  -1.942  1.00  0.00    -0.176 NA
ATOM     23  N   UNL     1      -0.390   3.809  -1.987  1.00  0.00    -0.266 N 
ATOM     24  C   UNL     1       0.544   4.154  -1.046  1.00  0.00     0.056 A 
ATOM     25  C   UNL     1       1.034   5.547  -0.875  1.00  0.00     0.068 C 
BRANCH  23  26
ATOM     26  C   UNL     1      -0.984   4.642  -3.032  1.00  0.00     0.101 C 
ATOM     27  C   UNL     1      -0.437   4.252  -4.406  1.00  0.00     0.033 C 
ATOM     28  C   UNL     1      -2.511   4.571  -3.003  1.00  0.00     0.033 C 
ENDBRANCH  23  26
ENDBRANCH  16  19
ENDBRANCH  14  16
ENDBRANCH   8  14
ENDBRANCH   4   7
ENDBRANCH   2   3
ENDBRANCH   1   2
BRANCH   1  29
ATOM     29  C   UNL     1      -0.912  -7.099   0.861  1.00  0.00     0.002 C 
BRANCH  29  30
ATOM     30  C   UNL     1      -2.405  -7.121   0.491  1.00  0.00     0.002 C 
BRANCH  30  31
ATOM     31  C   UNL     1      -2.745  -6.921  -0.987  1.00  0.00     0.021 C 
BRANCH  31  32
ATOM     32  C   UNL     1      -2.365  -8.087  -1.889  1.00  0.00     0.116 C 
BRANCH  32  33
ATOM     33  N   UNL     1      -3.476  -8.983  -2.189  1.00  0.00    -0.352 N 
ATOM     34  C   UNL     1      -3.474 -10.129  -2.977  1.00  0.00     0.251 C 
ATOM     35  H   UNL     1      -4.339  -8.746  -1.780  1.00  0.00     0.163 HD
ATOM     36  O   UNL     1      -4.459 -10.816  -3.095  1.00  0.00    -0.269 OA
BRANCH  34  37
ATOM     37  C   UNL     1      -2.179 -10.550  -3.566  1.00  0.00     0.039 A 
ATOM     38  C   UNL     1      -1.683 -11.804  -3.199  1.00  0.00     0.014 A 
ATOM     39  C   UNL     1      -1.373  -9.625  -4.226  1.00  0.00     0.014 A 
ATOM     40  C   UNL     1      -0.312 -12.027  -3.257  1.00  0.00     0.010 A 
ATOM     41  C   UNL     1      -0.004  -9.812  -4.204  1.00  0.00     0.010 A 
ATOM     42  C   UNL     1       0.526 -10.980  -3.644  1.00  0.00    -0.014 A 
BRANCH  42  43
ATOM     43  C   UNL     1       1.953 -10.975  -3.340  1.00  0.00     0.031 A 
ATOM     44  C   UNL     1       2.950 -11.249  -4.391  1.00  0.00     0.074 A 
ATOM     45  C   UNL     1       2.357 -10.697  -2.080  1.00  0.00     0.049 A 
ATOM     46  N   UNL     1       4.127 -11.733  -4.170  1.00  0.00    -0.248 NA
ATOM     47  C   UNL     1       2.669 -11.038  -5.803  1.00  0.00     0.031 C 
ATOM     48  C   UNL     1       3.716 -10.431  -1.620  1.00  0.00     0.029 A 
ATOM     49  N   UNL     1       1.608 -10.831  -0.902  1.00  0.00    -0.354 N 
ATOM     50  C   UNL     1       4.842 -11.653  -5.343  1.00  0.00     0.074 A 
ATOM     51  C   UNL     1       3.869 -11.274  -6.343  1.00  0.00     0.031 C 
ATOM     52  C   UNL     1       3.786 -10.696  -0.306  1.00  0.00     0.029 A 
ATOM     53  C   UNL     1       2.512 -11.276   0.085  1.00  0.00     0.049 A 
ATOM     54  H   UNL     1       0.647 -10.651  -0.787  1.00  0.00     0.167 HD
ATOM     55  C   UNL     1       6.202 -11.784  -5.311  1.00  0.00     0.037 A 
ATOM     56  C   UNL     1       2.358 -12.481   0.705  1.00  0.00     0.037 A 
ATOM     57  C   UNL     1       6.672 -12.107  -3.965  1.00  0.00     0.049 A 
ATOM     58  C   UNL     1       3.539 -13.410   0.544  1.00  0.00     0.074 A 
ATOM     59  C   UNL     1       7.180 -11.323  -2.941  1.00  0.00     0.029 A 
ATOM     60  N   UNL     1       6.369 -13.341  -3.401  1.00  0.00    -0.354 N 
ATOM     61  N   UNL     1       4.444 -13.281  -0.385  1.00  0.00    -0.248 NA
ATOM     62  C   UNL     1       3.765 -14.581   1.388  1.00  0.00     0.031 C 
ATOM     63  C   UNL     1       7.130 -12.074  -1.743  1.00  0.00     0.029 A 
ATOM     64  C   UNL     1       6.608 -13.321  -2.040  1.00  0.00     0.049 A 
ATOM     65  H   UNL     1       6.032 -14.119  -3.901  1.00  0.00     0.167 HD
ATOM     66  C   UNL     1       5.323 -14.330  -0.311  1.00  0.00     0.074 A 
ATOM     67  C   UNL     1       4.874 -15.100   0.833  1.00  0.00     0.031 C 
ATOM     68  C   UNL     1       6.336 -14.486  -1.213  1.00  0.00     0.037 A 
BRANCH  55  69
ATOM     69  C   UNL     1       7.112 -11.297  -6.420  1.00  0.00     0.057 A 
ATOM     70  C   UNL     1       8.394 -10.783  -6.133  1.00  0.00     0.134 A 
ATOM     71  C   UNL     1       6.763 -11.237  -7.779  1.00  0.00     0.134 A 
ATOM     72  F   UNL     1       8.941 -10.884  -4.915  1.00  0.00    -0.206 F 
ATOM     73  C   UNL     1       9.190 -10.133  -7.087  1.00  0.00     0.040 A 
ATOM     74  C   UNL     1       7.522 -10.542  -8.734  1.00  0.00     0.040 A 
ATOM     75  F   UNL     1       5.702 -11.898  -8.257  1.00  0.00    -0.206 F 
ATOM     76  C   UNL     1       8.733  -9.967  -8.384  1.00  0.00     0.006 A 
ENDBRANCH  55  69
BRANCH  56  77
ATOM     77  C   UNL     1       0.945 -12.930   0.804  1.00  0.00     0.057 A 
ATOM     78  C   UNL     1       0.038 -12.161   1.554  1.00  0.00     0.134 A 
ATOM     79  C   UNL     1       0.406 -13.874  -0.073  1.00  0.00     0.134 A 
ATOM     80  F   UNL     1       0.490 -11.233   2.414  1.00  0.00    -0.206 F 
ATOM     81  C   UNL     1      -1.343 -12.251   1.363  1.00  0.00     0.040 A 
ATOM     82  C   UNL     1      -0.977 -13.983  -0.264  1.00  0.00     0.040 A 
ATOM     83  F   UNL     1       1.205 -14.630  -0.840  1.00  0.00    -0.206 F 
ATOM     84  C   UNL     1      -1.852 -13.146   0.428  1.00  0.00     0.006 A 
ENDBRANCH  56  77
BRANCH  68  85
ATOM     85  C   UNL     1       7.214 -15.703  -1.347  1.00  0.00     0.057 A 
ATOM     86  C   UNL     1       6.793 -17.011  -1.068  1.00  0.00     0.134 A 
ATOM     87  C   UNL     1       8.502 -15.595  -1.918  1.00  0.00     0.134 A 
ATOM     88  F   UNL     1       5.555 -17.269  -0.626  1.00  0.00    -0.206 F 
ATOM     89  C   UNL     1       7.613 -18.126  -1.286  1.00  0.00     0.040 A 
ATOM     90  C   UNL     1       9.308 -16.704  -2.188  1.00  0.00     0.040 A 
ATOM     91  F   UNL     1       9.022 -14.406  -2.260  1.00  0.00    -0.206 F 
ATOM     92  C   UNL     1       8.870 -17.977  -1.858  1.00  0.00     0.006 A 
ENDBRANCH  68  85
ENDBRANCH  42  43
ENDBRANCH  34  37
ENDBRANCH  32  33
ENDBRANCH  31  32
ENDBRANCH  30  31
ENDBRANCH  29  30
ENDBRANCH   1  29
TORSDOF 17
