REMARK SMILES CNC(=O)c1cccc(-c2cnc(O)c(C(=O)NCCCCCCNC(=O)c3ccc(-c4c5nc(c(-c6c(F)cccc6F)c6ccc([nH]6)c(-c6c(F)cccc6F)c6nc(c(-c7c(F)cccc7F)c7ccc4[nH]7)C=C6)C=C5)cc3)c2)c1
REMARK SMILES IDX 21 1 20 2 19 3 18 4 16 5 17 6 15 8 10 9 11 10 82 11 12 12
REMARK SMILES IDX 13 13 9 14 5 15 6 16 83 17 7 18 8 19 3 20 1 21 2 22 4 24
REMARK SMILES IDX 14 25 22 27 23 28 24 29 25 30 26 31 27 33 28 34 29 35 81 36
REMARK SMILES IDX 30 37 80 38 31 39 32 40 33 41 74 42 34 43 79 44 73 45 75 46
REMARK SMILES IDX 35 47 78 48 72 49 71 50 36 52 62 53 45 54 61 55 46 56 49 57
REMARK SMILES IDX 60 58 76 59 47 60 48 61 59 63 77 64 50 65 37 66 38 67 43 68
REMARK SMILES IDX 39 69 40 70 42 71 44 72 41 73 63 74 64 75 69 76 65 77 66 78
REMARK SMILES IDX 68 79 70 80 67 81 51 82 52 83 57 84 53 85 54 86 56 87 58 88
REMARK SMILES IDX 55 89
REMARK H PARENT 18 7 2 23 14 26 25 32 75 51 49 62
REMARK Flexibility Score: inf
ROOT
ATOM      1  C   UNL     1      -7.376  -1.081  -0.384  1.00  0.00     0.002 C 
ENDROOT
BRANCH   1   2
ATOM      2  C   UNL     1      -6.045  -0.779  -1.087  1.00  0.00     0.021 C 
BRANCH   2   3
ATOM      3  C   UNL     1      -4.987  -1.859  -0.851  1.00  0.00     0.116 C 
BRANCH   3   4
ATOM      4  N   UNL     1      -5.229  -2.991  -1.729  1.00  0.00    -0.352 N 
ATOM      5  C   UNL     1      -4.655  -3.416  -2.898  1.00  0.00     0.256 C 
ATOM      6  O   UNL     1      -5.101  -4.447  -3.409  1.00  0.00    -0.269 OA
ATOM      7  H   UNL     1      -5.957  -3.575  -1.419  1.00  0.00     0.163 HD
BRANCH   5   8
ATOM      8  C   UNL     1      -3.490  -2.770  -3.549  1.00  0.00     0.102 A 
ATOM      9  C   UNL     1      -1.911  -0.949  -3.868  1.00  0.00     0.001 A 
ATOM     10  C   UNL     1      -1.169  -1.810  -4.668  1.00  0.00     0.124 A 
ATOM     11  C   UNL     1      -3.127  -1.436  -3.369  1.00  0.00     0.029 A 
ATOM     12  N   UNL     1      -1.534  -3.078  -4.953  1.00  0.00    -0.221 NA
ATOM     13  C   UNL     1      -2.671  -3.536  -4.384  1.00  0.00     0.223 A 
BRANCH   9  14
ATOM     14  C   UNL     1      -1.409   0.362  -3.454  1.00  0.00    -0.016 A 
ATOM     15  C   UNL     1      -0.566   1.805  -1.676  1.00  0.00     0.040 A 
ATOM     16  C   UNL     1      -0.483   2.869  -2.577  1.00  0.00     0.014 A 
ATOM     17  C   UNL     1      -1.049   0.567  -2.108  1.00  0.00     0.022 A 
ATOM     18  C   UNL     1      -0.835   2.678  -3.914  1.00  0.00     0.001 A 
ATOM     19  C   UNL     1      -1.286   1.429  -4.352  1.00  0.00     0.009 A 
BRANCH  15  20
ATOM     20  C   UNL     1      -0.231   2.046  -0.255  1.00  0.00     0.251 C 
ATOM     21  C   UNL     1       1.300   0.020  -0.018  1.00  0.00     0.143 C 
ATOM     22  N   UNL     1       0.544   1.160   0.449  1.00  0.00    -0.355 N 
ATOM     23  H   UNL     1       0.592   1.325   1.418  1.00  0.00     0.163 HD
ATOM     24  O   UNL     1      -0.658   3.056   0.298  1.00  0.00    -0.269 OA
ENDBRANCH  15  20
ENDBRANCH   9  14
BRANCH  13  25
ATOM     25  O   UNL     1      -2.932  -4.842  -4.694  1.00  0.00    -0.493 OA
ATOM     26  H   UNL     1      -2.353  -5.315  -5.258  1.00  0.00     0.295 HD
ENDBRANCH  13  25
ENDBRANCH   5   8
ENDBRANCH   3   4
ENDBRANCH   2   3
ENDBRANCH   1   2
BRANCH   1  27
ATOM     27  C   UNL     1      -7.299  -1.122   1.148  1.00  0.00     0.002 C 
BRANCH  27  28
ATOM     28  C   UNL     1      -6.720   0.136   1.800  1.00  0.00     0.021 C 
BRANCH  28  29
ATOM     29  C   UNL     1      -7.521   1.405   1.532  1.00  0.00     0.116 C 
BRANCH  29  30
ATOM     30  N   UNL     1      -8.845   1.340   2.132  1.00  0.00    -0.352 N 
ATOM     31  C   UNL     1      -9.440   2.204   3.016  1.00  0.00     0.251 C 
ATOM     32  H   UNL     1      -9.392   0.566   1.865  1.00  0.00     0.163 HD
ATOM     33  O   UNL     1     -10.470   1.881   3.598  1.00  0.00    -0.269 OA
BRANCH  31  34
ATOM     34  C   UNL     1      -8.830   3.526   3.274  1.00  0.00     0.039 A 
ATOM     35  C   UNL     1      -8.750   3.990   4.590  1.00  0.00     0.014 A 
ATOM     36  C   UNL     1      -8.364   4.314   2.219  1.00  0.00     0.014 A 
ATOM     37  C   UNL     1      -8.158   5.227   4.851  1.00  0.00     0.010 A 
ATOM     38  C   UNL     1      -7.713   5.515   2.486  1.00  0.00     0.010 A 
ATOM     39  C   UNL     1      -7.613   5.988   3.803  1.00  0.00    -0.014 A 
BRANCH  39  40
ATOM     40  C   UNL     1      -6.956   7.293   4.062  1.00  0.00     0.031 A 
ATOM     41  C   UNL     1      -7.557   8.558   3.516  1.00  0.00     0.074 A 
ATOM     42  C   UNL     1      -5.791   7.332   4.737  1.00  0.00     0.049 A 
ATOM     43  N   UNL     1      -7.097   9.782   3.566  1.00  0.00    -0.248 NA
ATOM     44  C   UNL     1      -8.834   8.426   2.796  1.00  0.00     0.031 C 
ATOM     45  C   UNL     1      -5.088   6.170   5.283  1.00  0.00     0.029 A 
ATOM     46  N   UNL     1      -4.988   8.394   5.070  1.00  0.00    -0.354 N 
ATOM     47  C   UNL     1      -8.018  10.560   2.876  1.00  0.00     0.074 A 
ATOM     48  C   UNL     1      -9.036   9.665   2.371  1.00  0.00     0.031 C 
ATOM     49  C   UNL     1      -3.970   6.584   5.901  1.00  0.00     0.029 A 
ATOM     50  C   UNL     1      -3.857   8.033   5.762  1.00  0.00     0.049 A 
ATOM     51  H   UNL     1      -5.201   9.326   4.835  1.00  0.00     0.167 HD
ATOM     52  C   UNL     1      -8.029  11.903   2.701  1.00  0.00     0.037 A 
ATOM     53  C   UNL     1      -2.842   8.786   6.224  1.00  0.00     0.037 A 
ATOM     54  C   UNL     1      -7.028  12.795   3.224  1.00  0.00     0.049 A 
ATOM     55  C   UNL     1      -2.871  10.273   6.003  1.00  0.00     0.074 A 
ATOM     56  C   UNL     1      -6.972  14.175   3.137  1.00  0.00     0.029 A 
ATOM     57  N   UNL     1      -5.908  12.392   3.934  1.00  0.00    -0.354 N 
ATOM     58  N   UNL     1      -3.777  11.002   5.397  1.00  0.00    -0.248 NA
ATOM     59  C   UNL     1      -1.738  11.043   6.535  1.00  0.00     0.031 C 
ATOM     60  C   UNL     1      -5.798  14.604   3.764  1.00  0.00     0.029 A 
ATOM     61  C   UNL     1      -5.147  13.496   4.281  1.00  0.00     0.049 A 
ATOM     62  H   UNL     1      -5.686  11.459   4.159  1.00  0.00     0.167 HD
ATOM     63  C   UNL     1      -3.341  12.316   5.504  1.00  0.00     0.074 A 
ATOM     64  C   UNL     1      -2.096  12.285   6.244  1.00  0.00     0.031 C 
ATOM     65  C   UNL     1      -3.919  13.448   5.033  1.00  0.00     0.037 A 
BRANCH  52  66
ATOM     66  C   UNL     1      -9.168  12.489   1.918  1.00  0.00     0.057 A 
ATOM     67  C   UNL     1     -10.470  12.535   2.435  1.00  0.00     0.134 A 
ATOM     68  C   UNL     1      -8.957  13.047   0.651  1.00  0.00     0.134 A 
ATOM     69  F   UNL     1     -10.742  12.007   3.638  1.00  0.00    -0.206 F 
ATOM     70  C   UNL     1     -11.525  13.091   1.710  1.00  0.00     0.040 A 
ATOM     71  C   UNL     1      -9.998  13.630  -0.073  1.00  0.00     0.040 A 
ATOM     72  F   UNL     1      -7.734  13.042   0.099  1.00  0.00    -0.206 F 
ATOM     73  C   UNL     1     -11.288  13.648   0.455  1.00  0.00     0.006 A 
ENDBRANCH  52  66
BRANCH  53  74
ATOM     74  C   UNL     1      -1.720   8.155   6.964  1.00  0.00     0.057 A 
ATOM     75  C   UNL     1      -1.547   8.377   8.336  1.00  0.00     0.134 A 
ATOM     76  C   UNL     1      -0.783   7.339   6.320  1.00  0.00     0.134 A 
ATOM     77  F   UNL     1      -2.401   9.166   9.005  1.00  0.00    -0.206 F 
ATOM     78  C   UNL     1      -0.470   7.830   9.035  1.00  0.00     0.040 A 
ATOM     79  C   UNL     1       0.284   6.764   7.013  1.00  0.00     0.040 A 
ATOM     80  F   UNL     1      -0.896   7.082   5.009  1.00  0.00    -0.206 F 
ATOM     81  C   UNL     1       0.448   7.017   8.373  1.00  0.00     0.006 A 
ENDBRANCH  53  74
BRANCH  65  82
ATOM     82  C   UNL     1      -3.239  14.747   5.346  1.00  0.00     0.057 A 
ATOM     83  C   UNL     1      -2.048  15.130   4.716  1.00  0.00     0.134 A 
ATOM     84  C   UNL     1      -3.805  15.643   6.262  1.00  0.00     0.134 A 
ATOM     85  F   UNL     1      -1.448  14.312   3.839  1.00  0.00    -0.206 F 
ATOM     86  C   UNL     1      -1.431  16.349   5.005  1.00  0.00     0.040 A 
ATOM     87  C   UNL     1      -3.212  16.875   6.539  1.00  0.00     0.040 A 
ATOM     88  F   UNL     1      -4.949  15.340   6.893  1.00  0.00    -0.206 F 
ATOM     89  C   UNL     1      -2.018  17.228   5.914  1.00  0.00     0.006 A 
ENDBRANCH  65  82
ENDBRANCH  39  40
ENDBRANCH  31  34
ENDBRANCH  29  30
ENDBRANCH  28  29
ENDBRANCH  27  28
ENDBRANCH   1  27
TORSDOF 16
