REMARK SMILES Cc1ccc(Cl)c(Nc2ccccc2C(=O)N[C@@H](C)C(=O)NCCCCCCNC(=O)c2ccc(-c3c4nc(c(-c5c(F)cccc5F)c5ccc([nH]5)c(-c5c(F)cccc5F)c5nc(c(-c6c(F)cccc6F)c6ccc3[nH]6)C=C5)C=C4)cc2)c1Cl
REMARK SMILES IDX 24 1 23 2 22 3 20 4 21 5 18 7 19 8 17 9 15 10 16 11 14 13
REMARK SMILES IDX 9 14 10 15 11 16 13 17 12 18 8 19 7 21 1 22 2 23 3 24 86 25
REMARK SMILES IDX 4 26 87 27 5 28 6 29 25 30 26 31 27 32 28 33 29 34 30 35
REMARK SMILES IDX 31 37 32 38 33 39 85 40 34 41 84 42 35 43 36 44 37 45 78 46
REMARK SMILES IDX 38 47 83 48 77 49 79 50 39 51 82 52 76 53 75 54 40 56 66 57
REMARK SMILES IDX 49 58 65 59 50 60 53 61 64 62 80 63 51 64 52 65 63 67 81 68
REMARK SMILES IDX 54 69 41 70 42 71 47 72 43 73 44 74 46 75 48 76 45 77 67 78
REMARK SMILES IDX 68 79 73 80 69 81 70 82 72 83 74 84 71 85 55 86 56 87 61 88
REMARK SMILES IDX 57 89 58 90 60 91 62 92 59 93
REMARK H PARENT 22 6 17 12 8 20 29 36 79 55 53 66
REMARK Flexibility Score: inf
ROOT
ATOM      1  C   UNL     1      -0.382   2.566   3.380  1.00  0.00     0.021 C 
ENDROOT
BRANCH   1   2
ATOM      2  C   UNL     1      -1.576   1.626   3.164  1.00  0.00     0.116 C 
BRANCH   2   3
ATOM      3  N   UNL     1      -1.607   1.051   1.837  1.00  0.00    -0.354 N 
ATOM      4  C   UNL     1      -0.668   0.093   1.587  1.00  0.00     0.242 C 
ATOM      5  O   UNL     1       0.462   0.476   1.289  1.00  0.00    -0.273 OA
ATOM      6  H   UNL     1      -2.263   1.332   1.159  1.00  0.00     0.163 HD
BRANCH   4   7
ATOM      7  C   UNL     1      -1.051  -1.395   1.746  1.00  0.00     0.168 C 
ATOM      8  C   UNL     1      -2.360  -1.665   2.472  1.00  0.00     0.041 C 
BRANCH   7   9
ATOM      9  N   UNL     1       0.096  -1.963   2.431  1.00  0.00    -0.340 N 
ATOM     10  C   UNL     1       1.300  -2.315   1.859  1.00  0.00     0.254 C 
ATOM     11  O   UNL     1       2.307  -2.059   2.527  1.00  0.00    -0.269 OA
ATOM     12  H   UNL     1       0.005  -2.111   3.400  1.00  0.00     0.164 HD
BRANCH  10  13
ATOM     13  C   UNL     1       1.427  -3.226   0.675  1.00  0.00     0.063 A 
ATOM     14  C   UNL     1       0.791  -3.213  -0.586  1.00  0.00     0.051 A 
ATOM     15  C   UNL     1       1.011  -4.315  -1.450  1.00  0.00     0.027 A 
ATOM     16  C   UNL     1       1.889  -5.351  -1.136  1.00  0.00     0.002 A 
ATOM     17  C   UNL     1       2.336  -4.279   0.956  1.00  0.00     0.016 A 
ATOM     18  C   UNL     1       2.577  -5.319   0.062  1.00  0.00     0.001 A 
BRANCH  14  19
ATOM     19  N   UNL     1       0.026  -2.184  -1.173  1.00  0.00    -0.352 N 
ATOM     20  H   UNL     1      -0.863  -2.488  -1.466  1.00  0.00     0.167 HD
BRANCH  19  21
ATOM     21  C   UNL     1       0.252  -0.806  -1.435  1.00  0.00     0.077 A 
ATOM     22  C   UNL     1       2.817   1.993  -0.912  1.00  0.00     0.046 C 
ATOM     23  C   UNL     1       1.557   1.273  -1.315  1.00  0.00    -0.030 A 
ATOM     24  C   UNL     1       0.401   2.027  -1.568  1.00  0.00     0.006 A 
ATOM     25  C   UNL     1       1.492  -0.143  -1.317  1.00  0.00     0.069 A 
ATOM     26  C   UNL     1      -0.813   1.391  -1.796  1.00  0.00     0.023 A 
ATOM     27  Cl  UNL     1       2.986  -1.026  -1.235  1.00  0.00    -0.082 Cl
ATOM     28  C   UNL     1      -0.885  -0.001  -1.711  1.00  0.00     0.066 A 
ATOM     29  Cl  UNL     1      -2.459  -0.719  -1.881  1.00  0.00    -0.082 Cl
ENDBRANCH  19  21
ENDBRANCH  14  19
ENDBRANCH  10  13
ENDBRANCH   7   9
ENDBRANCH   4   7
ENDBRANCH   2   3
ENDBRANCH   1   2
BRANCH   1  30
ATOM     30  C   UNL     1      -0.326   3.784   2.449  1.00  0.00     0.002 C 
BRANCH  30  31
ATOM     31  C   UNL     1      -1.608   4.619   2.381  1.00  0.00     0.002 C 
BRANCH  31  32
ATOM     32  C   UNL     1      -2.244   4.946   3.730  1.00  0.00     0.021 C 
BRANCH  32  33
ATOM     33  C   UNL     1      -1.302   5.588   4.733  1.00  0.00     0.116 C 
BRANCH  33  34
ATOM     34  N   UNL     1      -0.992   6.960   4.390  1.00  0.00    -0.352 N 
ATOM     35  C   UNL     1      -1.095   8.071   5.192  1.00  0.00     0.251 C 
ATOM     36  H   UNL     1      -0.669   7.115   3.473  1.00  0.00     0.163 HD
ATOM     37  O   UNL     1      -0.986   9.193   4.722  1.00  0.00    -0.269 OA
BRANCH  35  38
ATOM     38  C   UNL     1      -1.374   7.886   6.634  1.00  0.00     0.039 A 
ATOM     39  C   UNL     1      -2.377   8.653   7.227  1.00  0.00     0.014 A 
ATOM     40  C   UNL     1      -0.671   6.937   7.384  1.00  0.00     0.014 A 
ATOM     41  C   UNL     1      -2.701   8.441   8.567  1.00  0.00     0.010 A 
ATOM     42  C   UNL     1      -1.058   6.665   8.692  1.00  0.00     0.010 A 
ATOM     43  C   UNL     1      -2.062   7.429   9.304  1.00  0.00    -0.014 A 
BRANCH  43  44
ATOM     44  C   UNL     1      -2.415   7.187  10.726  1.00  0.00     0.031 A 
ATOM     45  C   UNL     1      -1.386   7.397  11.804  1.00  0.00     0.074 A 
ATOM     46  C   UNL     1      -3.649   6.751  11.045  1.00  0.00     0.049 A 
ATOM     47  N   UNL     1      -1.498   7.233  13.098  1.00  0.00    -0.248 NA
ATOM     48  C   UNL     1      -0.046   7.823  11.369  1.00  0.00     0.031 C 
ATOM     49  C   UNL     1      -4.718   6.461  10.088  1.00  0.00     0.029 A 
ATOM     50  N   UNL     1      -4.213   6.476  12.266  1.00  0.00    -0.354 N 
ATOM     51  C   UNL     1      -0.247   7.527  13.625  1.00  0.00     0.074 A 
ATOM     52  C   UNL     1       0.627   7.813  12.510  1.00  0.00     0.031 C 
ATOM     53  C   UNL     1      -5.818   6.083  10.760  1.00  0.00     0.029 A 
ATOM     54  C   UNL     1      -5.522   6.066  12.189  1.00  0.00     0.049 A 
ATOM     55  H   UNL     1      -3.725   6.564  13.117  1.00  0.00     0.167 HD
ATOM     56  C   UNL     1       0.134   7.581  14.924  1.00  0.00     0.037 A 
ATOM     57  C   UNL     1      -6.385   5.716  13.161  1.00  0.00     0.037 A 
ATOM     58  C   UNL     1      -0.744   7.314  16.032  1.00  0.00     0.049 A 
ATOM     59  C   UNL     1      -5.934   5.773  14.595  1.00  0.00     0.074 A 
ATOM     60  C   UNL     1      -0.471   7.397  17.386  1.00  0.00     0.029 A 
ATOM     61  N   UNL     1      -2.064   6.906  15.913  1.00  0.00    -0.354 N 
ATOM     62  N   UNL     1      -4.770   6.127  15.084  1.00  0.00    -0.248 NA
ATOM     63  C   UNL     1      -6.922   5.391  15.614  1.00  0.00     0.031 C 
ATOM     64  C   UNL     1      -1.609   6.985  18.086  1.00  0.00     0.029 A 
ATOM     65  C   UNL     1      -2.611   6.706  17.170  1.00  0.00     0.049 A 
ATOM     66  H   UNL     1      -2.541   6.777  15.062  1.00  0.00     0.167 HD
ATOM     67  C   UNL     1      -4.894   6.040  16.465  1.00  0.00     0.074 A 
ATOM     68  C   UNL     1      -6.252   5.616  16.735  1.00  0.00     0.031 C 
ATOM     69  C   UNL     1      -3.967   6.288  17.423  1.00  0.00     0.037 A 
BRANCH  56  70
ATOM     70  C   UNL     1       1.563   7.945  15.212  1.00  0.00     0.057 A 
ATOM     71  C   UNL     1       2.066   9.231  14.967  1.00  0.00     0.134 A 
ATOM     72  C   UNL     1       2.441   7.006  15.768  1.00  0.00     0.134 A 
ATOM     73  F   UNL     1       1.282  10.175  14.423  1.00  0.00    -0.206 F 
ATOM     74  C   UNL     1       3.395   9.560  15.236  1.00  0.00     0.040 A 
ATOM     75  C   UNL     1       3.764   7.333  16.071  1.00  0.00     0.040 A 
ATOM     76  F   UNL     1       2.027   5.759  16.035  1.00  0.00    -0.206 F 
ATOM     77  C   UNL     1       4.247   8.611  15.797  1.00  0.00     0.006 A 
ENDBRANCH  56  70
BRANCH  57  78
ATOM     78  C   UNL     1      -7.769   5.301  12.816  1.00  0.00     0.057 A 
ATOM     79  C   UNL     1      -8.870   6.096  13.157  1.00  0.00     0.134 A 
ATOM     80  C   UNL     1      -8.027   4.098  12.148  1.00  0.00     0.134 A 
ATOM     81  F   UNL     1      -8.691   7.252  13.812  1.00  0.00    -0.206 F 
ATOM     82  C   UNL     1     -10.177   5.699  12.869  1.00  0.00     0.040 A 
ATOM     83  C   UNL     1      -9.327   3.702  11.829  1.00  0.00     0.040 A 
ATOM     84  F   UNL     1      -7.016   3.295  11.784  1.00  0.00    -0.206 F 
ATOM     85  C   UNL     1     -10.408   4.499  12.199  1.00  0.00     0.006 A 
ENDBRANCH  57  78
BRANCH  69  86
ATOM     86  C   UNL     1      -4.402   6.147  18.854  1.00  0.00     0.057 A 
ATOM     87  C   UNL     1      -4.672   4.899  19.429  1.00  0.00     0.134 A 
ATOM     88  C   UNL     1      -4.517   7.275  19.676  1.00  0.00     0.134 A 
ATOM     89  F   UNL     1      -4.592   3.779  18.694  1.00  0.00    -0.206 F 
ATOM     90  C   UNL     1      -5.069   4.780  20.762  1.00  0.00     0.040 A 
ATOM     91  C   UNL     1      -4.882   7.167  21.018  1.00  0.00     0.040 A 
ATOM     92  F   UNL     1      -4.262   8.501  19.192  1.00  0.00    -0.206 F 
ATOM     93  C   UNL     1      -5.167   5.917  21.562  1.00  0.00     0.006 A 
ENDBRANCH  69  86
ENDBRANCH  43  44
ENDBRANCH  35  38
ENDBRANCH  33  34
ENDBRANCH  32  33
ENDBRANCH  31  32
ENDBRANCH  30  31
ENDBRANCH   1  30
TORSDOF 17
