REMARK SMILES Cc1cccc(C(=O)Nc2cc(C(=O)NCCCCCCNC(=O)c3ccc(-c4c5nc(c(-c6c(F)cccc6F)c6ccc([nH]6)c(-c6c(F)cccc6F)c6nc(c(-c7c(F)cccc7F)c7ccc4[nH]7)C=C6)C=C5)cc3)ccc2N2CC[NH+](CC(=O)NC(C)(C)C)CC2)c1
REMARK SMILES IDX 17 1 16 2 15 3 13 4 14 5 12 7 10 8 11 9 81 10 80 11 79 12
REMARK SMILES IDX 9 13 7 14 8 15 6 17 1 18 2 19 3 20 96 21 4 22 5 23 82 24
REMARK SMILES IDX 83 25 95 26 84 27 94 28 85 29 86 31 87 32 88 33 89 34 90 36
REMARK SMILES IDX 91 37 92 38 93 39 18 40 19 41 20 42 21 43 22 44 23 45 24 47
REMARK SMILES IDX 25 48 26 49 78 50 27 51 77 52 28 53 29 54 30 55 71 56 31 57
REMARK SMILES IDX 76 58 70 59 72 60 32 61 75 62 69 63 68 64 33 66 59 67 42 68
REMARK SMILES IDX 58 69 43 70 46 71 57 72 73 73 44 74 45 75 56 77 74 78 47 79
REMARK SMILES IDX 34 80 35 81 40 82 36 83 37 84 39 85 41 86 38 87 60 88 61 89
REMARK SMILES IDX 66 90 62 91 63 92 65 93 67 94 64 95 48 96 49 97 54 98 50 99
REMARK SMILES IDX 51 100 53 101 55 102 52 103
REMARK H PARENT 15 6 9 16 85 30 89 35 22 46 72 65 46 76
REMARK Flexibility Score: inf
ROOT
ATOM      1  C   UNL     1       1.034   0.982  -4.255  1.00  0.00     0.021 C 
ENDROOT
BRANCH   1   2
ATOM      2  C   UNL     1       1.762   0.612  -2.961  1.00  0.00     0.116 C 
BRANCH   2   3
ATOM      3  N   UNL     1       3.070   1.232  -2.864  1.00  0.00    -0.352 N 
ATOM      4  C   UNL     1       3.527   2.381  -2.263  1.00  0.00     0.251 C 
ATOM      5  O   UNL     1       4.744   2.572  -2.278  1.00  0.00    -0.269 OA
ATOM      6  H   UNL     1       3.777   0.725  -3.325  1.00  0.00     0.163 HD
BRANCH   4   7
ATOM      7  C   UNL     1       2.656   3.369  -1.558  1.00  0.00     0.042 A 
ATOM      8  C   UNL     1       0.516   4.199  -0.808  1.00  0.00     0.065 A 
ATOM      9  C   UNL     1       1.273   3.394  -1.657  1.00  0.00     0.042 A 
ATOM     10  C   UNL     1       1.107   5.196   0.007  1.00  0.00     0.061 A 
ATOM     11  C   UNL     1       2.503   5.242   0.020  1.00  0.00     0.029 A 
ATOM     12  C   UNL     1       3.265   4.313  -0.715  1.00  0.00     0.016 A 
BRANCH   8  13
ATOM     13  N   UNL     1      -0.873   3.996  -0.745  1.00  0.00    -0.320 N 
ATOM     14  C   UNL     1      -1.584   2.848  -0.431  1.00  0.00     0.255 C 
ATOM     15  O   UNL     1      -2.811   2.944  -0.330  1.00  0.00    -0.269 OA
ATOM     16  H   UNL     1      -1.423   4.786  -0.954  1.00  0.00     0.170 HD
BRANCH  14  17
ATOM     17  C   UNL     1      -0.965   1.512  -0.131  1.00  0.00     0.040 A 
ATOM     18  C   UNL     1       2.318  -0.191   0.830  1.00  0.00     0.044 C 
ATOM     19  C   UNL     1       0.864   0.017   0.507  1.00  0.00    -0.050 A 
ATOM     20  C   UNL     1       0.060  -1.090   0.217  1.00  0.00     0.003 A 
ATOM     21  C   UNL     1       0.319   1.311   0.400  1.00  0.00     0.017 A 
ATOM     22  C   UNL     1      -1.258  -0.909  -0.189  1.00  0.00     0.001 A 
ATOM     23  C   UNL     1      -1.760   0.382  -0.376  1.00  0.00     0.014 A 
ENDBRANCH  14  17
ENDBRANCH   8  13
BRANCH  10  24
ATOM     24  N   UNL     1       0.327   6.013   0.817  1.00  0.00    -0.359 N 
ATOM     25  C   UNL     1       0.745   7.352   1.276  1.00  0.00     0.178 C 
ATOM     26  C   UNL     1      -0.514   5.340   1.807  1.00  0.00     0.178 C 
ATOM     27  C   UNL     1      -0.488   8.183   1.777  1.00  0.00     0.284 C 
ATOM     28  C   UNL     1      -1.805   6.157   1.978  1.00  0.00     0.284 C 
ATOM     29  N   UNL     1      -1.573   7.497   2.519  1.00  0.00    -0.324 N 
ATOM     30  H   UNL     1      -2.404   8.063   2.349  1.00  0.00     0.348 HD
BRANCH  29  31
ATOM     31  C   UNL     1      -1.501   7.540   3.992  1.00  0.00     0.363 C 
BRANCH  31  32
ATOM     32  C   UNL     1      -0.374   6.736   4.627  1.00  0.00     0.275 C 
ATOM     33  O   UNL     1       0.778   7.192   4.630  1.00  0.00    -0.268 OA
ATOM     34  N   UNL     1      -0.531   5.517   5.212  1.00  0.00    -0.347 N 
ATOM     35  H   UNL     1       0.295   5.256   5.681  1.00  0.00     0.164 HD
BRANCH  34  36
ATOM     36  C   UNL     1      -1.564   4.454   5.365  1.00  0.00     0.032 C 
ATOM     37  C   UNL     1      -1.458   3.403   4.243  1.00  0.00     0.034 C 
ATOM     38  C   UNL     1      -1.232   3.714   6.680  1.00  0.00     0.034 C 
ATOM     39  C   UNL     1      -3.006   4.957   5.471  1.00  0.00     0.034 C 
ENDBRANCH  34  36
ENDBRANCH  31  32
ENDBRANCH  29  31
ENDBRANCH  10  24
ENDBRANCH   4   7
ENDBRANCH   2   3
ENDBRANCH   1   2
BRANCH   1  40
ATOM     40  C   UNL     1       1.265  -0.001  -5.408  1.00  0.00     0.002 C 
BRANCH  40  41
ATOM     41  C   UNL     1       0.951  -1.477  -5.109  1.00  0.00     0.002 C 
BRANCH  41  42
ATOM     42  C   UNL     1      -0.397  -1.746  -4.433  1.00  0.00     0.021 C 
BRANCH  42  43
ATOM     43  C   UNL     1      -1.582  -1.634  -5.382  1.00  0.00     0.116 C 
BRANCH  43  44
ATOM     44  N   UNL     1      -1.905  -2.890  -6.049  1.00  0.00    -0.352 N 
ATOM     45  C   UNL     1      -2.810  -3.152  -7.067  1.00  0.00     0.251 C 
ATOM     46  H   UNL     1      -1.403  -3.674  -5.727  1.00  0.00     0.163 HD
ATOM     47  O   UNL     1      -2.955  -4.283  -7.484  1.00  0.00    -0.269 OA
BRANCH  45  48
ATOM     48  C   UNL     1      -3.478  -2.012  -7.744  1.00  0.00     0.039 A 
ATOM     49  C   UNL     1      -3.426  -1.983  -9.142  1.00  0.00     0.014 A 
ATOM     50  C   UNL     1      -3.900  -0.895  -7.030  1.00  0.00     0.014 A 
ATOM     51  C   UNL     1      -3.512  -0.760  -9.797  1.00  0.00     0.010 A 
ATOM     52  C   UNL     1      -3.894   0.330  -7.664  1.00  0.00     0.010 A 
ATOM     53  C   UNL     1      -3.611   0.401  -9.033  1.00  0.00    -0.014 A 
BRANCH  53  54
ATOM     54  C   UNL     1      -3.281   1.721  -9.554  1.00  0.00     0.031 A 
ATOM     55  C   UNL     1      -4.340   2.701  -9.846  1.00  0.00     0.074 A 
ATOM     56  C   UNL     1      -1.981   2.069  -9.685  1.00  0.00     0.049 A 
ATOM     57  N   UNL     1      -4.187   3.734 -10.601  1.00  0.00    -0.248 NA
ATOM     58  C   UNL     1      -5.694   2.559  -9.329  1.00  0.00     0.031 C 
ATOM     59  C   UNL     1      -1.431   3.401  -9.915  1.00  0.00     0.029 A 
ATOM     60  N   UNL     1      -0.891   1.207  -9.869  1.00  0.00    -0.354 N 
ATOM     61  C   UNL     1      -5.305   4.524 -10.470  1.00  0.00     0.074 A 
ATOM     62  C   UNL     1      -6.236   3.718  -9.712  1.00  0.00     0.031 C 
ATOM     63  C   UNL     1      -0.226   3.274 -10.492  1.00  0.00     0.029 A 
ATOM     64  C   UNL     1      -0.040   1.864 -10.787  1.00  0.00     0.049 A 
ATOM     65  H   UNL     1      -0.748   0.329  -9.448  1.00  0.00     0.167 HD
ATOM     66  C   UNL     1      -5.264   5.811 -10.922  1.00  0.00     0.037 A 
ATOM     67  C   UNL     1       0.183   1.342 -12.028  1.00  0.00     0.037 A 
ATOM     68  C   UNL     1      -4.015   6.091 -11.633  1.00  0.00     0.049 A 
ATOM     69  C   UNL     1      -0.246   2.230 -13.180  1.00  0.00     0.074 A 
ATOM     70  C   UNL     1      -2.822   6.712 -11.301  1.00  0.00     0.029 A 
ATOM     71  N   UNL     1      -3.779   5.435 -12.827  1.00  0.00    -0.354 N 
ATOM     72  N   UNL     1      -0.884   3.360 -13.048  1.00  0.00    -0.248 NA
ATOM     73  C   UNL     1      -0.079   1.849 -14.584  1.00  0.00     0.031 C 
ATOM     74  C   UNL     1      -1.864   6.407 -12.312  1.00  0.00     0.029 A 
ATOM     75  C   UNL     1      -2.478   5.606 -13.256  1.00  0.00     0.049 A 
ATOM     76  H   UNL     1      -4.456   4.910 -13.311  1.00  0.00     0.167 HD
ATOM     77  C   UNL     1      -1.269   3.809 -14.284  1.00  0.00     0.074 A 
ATOM     78  C   UNL     1      -0.736   2.835 -15.216  1.00  0.00     0.031 C 
ATOM     79  C   UNL     1      -2.046   4.917 -14.459  1.00  0.00     0.037 A 
BRANCH  66  80
ATOM     80  C   UNL     1      -6.254   6.880 -10.519  1.00  0.00     0.057 A 
ATOM     81  C   UNL     1      -5.867   8.234 -10.465  1.00  0.00     0.134 A 
ATOM     82  C   UNL     1      -7.581   6.648 -10.119  1.00  0.00     0.134 A 
ATOM     83  F   UNL     1      -4.679   8.648 -10.924  1.00  0.00    -0.206 F 
ATOM     84  C   UNL     1      -6.683   9.242  -9.933  1.00  0.00     0.040 A 
ATOM     85  C   UNL     1      -8.387   7.633  -9.529  1.00  0.00     0.040 A 
ATOM     86  F   UNL     1      -8.187   5.475 -10.339  1.00  0.00    -0.206 F 
ATOM     87  C   UNL     1      -7.932   8.936  -9.420  1.00  0.00     0.006 A 
ENDBRANCH  66  80
BRANCH  67  88
ATOM     88  C   UNL     1       0.136  -0.146 -12.051  1.00  0.00     0.057 A 
ATOM     89  C   UNL     1       1.042  -0.870 -11.254  1.00  0.00     0.134 A 
ATOM     90  C   UNL     1      -0.968  -0.842 -12.550  1.00  0.00     0.134 A 
ATOM     91  F   UNL     1       2.124  -0.264 -10.739  1.00  0.00    -0.206 F 
ATOM     92  C   UNL     1       0.798  -2.192 -10.875  1.00  0.00     0.040 A 
ATOM     93  C   UNL     1      -1.211  -2.173 -12.195  1.00  0.00     0.040 A 
ATOM     94  F   UNL     1      -1.890  -0.219 -13.298  1.00  0.00    -0.206 F 
ATOM     95  C   UNL     1      -0.349  -2.838 -11.324  1.00  0.00     0.006 A 
ENDBRANCH  67  88
BRANCH  79  96
ATOM     96  C   UNL     1      -2.478   5.415 -15.807  1.00  0.00     0.057 A 
ATOM     97  C   UNL     1      -1.586   5.557 -16.878  1.00  0.00     0.134 A 
ATOM     98  C   UNL     1      -3.788   5.879 -16.037  1.00  0.00     0.134 A 
ATOM     99  F   UNL     1      -0.298   5.201 -16.756  1.00  0.00    -0.206 F 
ATOM    100  C   UNL     1      -1.981   6.090 -18.112  1.00  0.00     0.040 A 
ATOM    101  C   UNL     1      -4.182   6.458 -17.246  1.00  0.00     0.040 A 
ATOM    102  F   UNL     1      -4.747   5.768 -15.106  1.00  0.00    -0.206 F 
ATOM    103  C   UNL     1      -3.279   6.554 -18.294  1.00  0.00     0.006 A 
ENDBRANCH  79  96
ENDBRANCH  53  54
ENDBRANCH  45  48
ENDBRANCH  43  44
ENDBRANCH  42  43
ENDBRANCH  41  42
ENDBRANCH  40  41
ENDBRANCH   1  40
TORSDOF 19
