REMARK SMILES COc1c(C(=O)NCCCCCCNC(=O)c2ccc(-c3c4nc(c(-c5c(F)cccc5F)c5ccc([nH]5)c(-c5c(F)cccc5F)c5nc(c(-c6c(F)cccc6F)c6ccc3[nH]6)C=C5)C=C4)cc2)ccc(F)c1F
REMARK SMILES IDX 11 1 10 2 9 3 8 4 7 5 5 6 6 7 4 9 3 10 75 11 71 12 73 13
REMARK SMILES IDX 76 14 72 15 74 16 2 17 1 18 12 19 13 20 14 21 15 22 16 24
REMARK SMILES IDX 17 25 18 26 70 27 19 28 69 29 20 30 21 31 22 32 63 33 23 34
REMARK SMILES IDX 68 35 62 36 64 37 24 38 67 39 61 40 60 41 25 43 51 44 34 45
REMARK SMILES IDX 50 46 35 47 38 48 49 49 65 50 36 51 37 52 48 54 66 55 39 56
REMARK SMILES IDX 26 57 27 58 32 59 28 60 29 61 31 62 33 63 30 64 52 65 53 66
REMARK SMILES IDX 58 67 54 68 55 69 57 70 59 71 56 72 40 73 41 74 46 75 42 76
REMARK SMILES IDX 43 77 45 78 47 79 44 80
REMARK H PARENT 7 8 14 23 64 42 38 53
REMARK Flexibility Score: inf
ROOT
ATOM      1  C   UNL     1       8.000  -1.429  -2.382  1.00  0.00     0.002 C 
ENDROOT
BRANCH   1   2
ATOM      2  C   UNL     1       6.702  -0.865  -2.975  1.00  0.00     0.002 C 
BRANCH   2   3
ATOM      3  C   UNL     1       5.585  -1.897  -3.210  1.00  0.00     0.021 C 
BRANCH   3   4
ATOM      4  C   UNL     1       5.223  -2.701  -1.961  1.00  0.00     0.116 C 
BRANCH   4   5
ATOM      5  N   UNL     1       4.487  -1.885  -1.022  1.00  0.00    -0.352 N 
ATOM      6  C   UNL     1       3.185  -1.741  -0.629  1.00  0.00     0.255 C 
ATOM      7  O   UNL     1       3.041  -0.924   0.282  1.00  0.00    -0.269 OA
ATOM      8  H   UNL     1       5.081  -1.270  -0.535  1.00  0.00     0.163 HD
BRANCH   6   9
ATOM      9  C   UNL     1       2.003  -2.495  -1.178  1.00  0.00     0.085 A 
ATOM     10  C   UNL     1       0.735  -2.344  -0.571  1.00  0.00     0.170 A 
ATOM     11  C   UNL     1      -0.339  -3.171  -0.931  1.00  0.00     0.201 A 
ATOM     12  C   UNL     1       2.081  -3.386  -2.262  1.00  0.00     0.021 A 
ATOM     13  C   UNL     1      -0.196  -4.111  -1.936  1.00  0.00     0.162 A 
ATOM     14  F   UNL     1      -1.525  -3.042  -0.315  1.00  0.00    -0.200 F 
ATOM     15  C   UNL     1       1.002  -4.207  -2.624  1.00  0.00     0.043 A 
ATOM     16  F   UNL     1      -1.216  -4.910  -2.275  1.00  0.00    -0.204 F 
BRANCH  10  17
ATOM     17  O   UNL     1       0.471  -1.423   0.414  1.00  0.00    -0.493 OA
ATOM     18  C   UNL     1       0.220  -0.135  -0.157  1.00  0.00     0.278 C 
ENDBRANCH  10  17
ENDBRANCH   6   9
ENDBRANCH   4   5
ENDBRANCH   3   4
ENDBRANCH   2   3
ENDBRANCH   1   2
BRANCH   1  19
ATOM     19  C   UNL     1       8.570  -2.647  -3.114  1.00  0.00     0.021 C 
BRANCH  19  20
ATOM     20  C   UNL     1       8.939  -2.384  -4.570  1.00  0.00     0.116 C 
BRANCH  20  21
ATOM     21  N   UNL     1      10.039  -1.441  -4.683  1.00  0.00    -0.352 N 
ATOM     22  C   UNL     1      11.279  -1.618  -5.245  1.00  0.00     0.251 C 
ATOM     23  H   UNL     1       9.872  -0.548  -4.303  1.00  0.00     0.163 HD
ATOM     24  O   UNL     1      12.173  -0.803  -5.048  1.00  0.00    -0.269 OA
BRANCH  22  25
ATOM     25  C   UNL     1      11.537  -2.810  -6.080  1.00  0.00     0.039 A 
ATOM     26  C   UNL     1      12.706  -3.545  -5.872  1.00  0.00     0.014 A 
ATOM     27  C   UNL     1      10.623  -3.198  -7.064  1.00  0.00     0.014 A 
ATOM     28  C   UNL     1      12.927  -4.712  -6.606  1.00  0.00     0.010 A 
ATOM     29  C   UNL     1      10.813  -4.394  -7.749  1.00  0.00     0.010 A 
ATOM     30  C   UNL     1      11.963  -5.166  -7.522  1.00  0.00    -0.014 A 
BRANCH  30  31
ATOM     31  C   UNL     1      12.122  -6.458  -8.234  1.00  0.00     0.031 A 
ATOM     32  C   UNL     1      12.263  -6.486  -9.730  1.00  0.00     0.074 A 
ATOM     33  C   UNL     1      12.054  -7.610  -7.537  1.00  0.00     0.049 A 
ATOM     34  N   UNL     1      12.305  -7.515 -10.536  1.00  0.00    -0.248 NA
ATOM     35  C   UNL     1      12.344  -5.184 -10.412  1.00  0.00     0.031 C 
ATOM     36  C   UNL     1      11.884  -7.713  -6.086  1.00  0.00     0.029 A 
ATOM     37  N   UNL     1      12.103  -8.915  -7.958  1.00  0.00    -0.354 N 
ATOM     38  C   UNL     1      12.399  -6.988 -11.818  1.00  0.00     0.074 A 
ATOM     39  C   UNL     1      12.369  -5.548 -11.686  1.00  0.00     0.031 C 
ATOM     40  C   UNL     1      11.859  -9.010  -5.737  1.00  0.00     0.029 A 
ATOM     41  C   UNL     1      11.964  -9.828  -6.941  1.00  0.00     0.049 A 
ATOM     42  H   UNL     1      12.225  -9.173  -8.901  1.00  0.00     0.167 HD
ATOM     43  C   UNL     1      12.515  -7.648 -12.995  1.00  0.00     0.037 A 
ATOM     44  C   UNL     1      11.909 -11.173  -6.977  1.00  0.00     0.037 A 
ATOM     45  C   UNL     1      12.572  -9.081 -13.117  1.00  0.00     0.049 A 
ATOM     46  C   UNL     1      12.013 -11.876  -8.302  1.00  0.00     0.074 A 
ATOM     47  C   UNL     1      12.764  -9.840 -14.259  1.00  0.00     0.029 A 
ATOM     48  N   UNL     1      12.432  -9.971 -12.064  1.00  0.00    -0.354 N 
ATOM     49  N   UNL     1      12.173 -11.365  -9.499  1.00  0.00    -0.248 NA
ATOM     50  C   UNL     1      11.926 -13.343  -8.282  1.00  0.00     0.031 C 
ATOM     51  C   UNL     1      12.686 -11.190 -13.905  1.00  0.00     0.029 A 
ATOM     52  C   UNL     1      12.499 -11.273 -12.534  1.00  0.00     0.049 A 
ATOM     53  H   UNL     1      12.304  -9.717 -11.122  1.00  0.00     0.167 HD
ATOM     54  C   UNL     1      12.236 -12.447 -10.368  1.00  0.00     0.074 A 
ATOM     55  C   UNL     1      12.113 -13.641  -9.559  1.00  0.00     0.031 C 
ATOM     56  C   UNL     1      12.382 -12.451 -11.715  1.00  0.00     0.037 A 
BRANCH  43  57
ATOM     57  C   UNL     1      12.588  -6.831 -14.251  1.00  0.00     0.057 A 
ATOM     58  C   UNL     1      13.722  -6.078 -14.581  1.00  0.00     0.134 A 
ATOM     59  C   UNL     1      11.535  -6.850 -15.175  1.00  0.00     0.134 A 
ATOM     60  F   UNL     1      14.761  -6.008 -13.735  1.00  0.00    -0.206 F 
ATOM     61  C   UNL     1      13.800  -5.361 -15.776  1.00  0.00     0.040 A 
ATOM     62  C   UNL     1      11.612  -6.158 -16.385  1.00  0.00     0.040 A 
ATOM     63  F   UNL     1      10.421  -7.555 -14.924  1.00  0.00    -0.206 F 
ATOM     64  C   UNL     1      12.746  -5.408 -16.687  1.00  0.00     0.006 A 
ENDBRANCH  43  57
BRANCH  44  65
ATOM     65  C   UNL     1      11.749 -11.952  -5.722  1.00  0.00     0.057 A 
ATOM     66  C   UNL     1      12.783 -12.766  -5.244  1.00  0.00     0.134 A 
ATOM     67  C   UNL     1      10.555 -11.932  -4.992  1.00  0.00     0.134 A 
ATOM     68  F   UNL     1      13.944 -12.843  -5.911  1.00  0.00    -0.206 F 
ATOM     69  C   UNL     1      12.627 -13.552  -4.101  1.00  0.00     0.040 A 
ATOM     70  C   UNL     1      10.395 -12.692  -3.832  1.00  0.00     0.040 A 
ATOM     71  F   UNL     1       9.528 -11.168  -5.393  1.00  0.00    -0.206 F 
ATOM     72  C   UNL     1      11.430 -13.513  -3.390  1.00  0.00     0.006 A 
ENDBRANCH  44  65
BRANCH  56  73
ATOM     73  C   UNL     1      12.449 -13.789 -12.393  1.00  0.00     0.057 A 
ATOM     74  C   UNL     1      11.322 -14.609 -12.524  1.00  0.00     0.134 A 
ATOM     75  C   UNL     1      13.650 -14.245 -12.952  1.00  0.00     0.134 A 
ATOM     76  F   UNL     1      10.145 -14.237 -11.998  1.00  0.00    -0.206 F 
ATOM     77  C   UNL     1      11.392 -15.847 -13.164  1.00  0.00     0.040 A 
ATOM     78  C   UNL     1      13.726 -15.468 -13.620  1.00  0.00     0.040 A 
ATOM     79  F   UNL     1      14.765 -13.504 -12.870  1.00  0.00    -0.206 F 
ATOM     80  C   UNL     1      12.596 -16.276 -13.721  1.00  0.00     0.006 A 
ENDBRANCH  56  73
ENDBRANCH  30  31
ENDBRANCH  22  25
ENDBRANCH  20  21
ENDBRANCH  19  20
ENDBRANCH   1  19
TORSDOF 14
