REMARK SMILES C[C@H](NC(=O)OCc1ccccc1)C(=O)NCC(=O)N1CCC[C@H]1C(=O)NCCCCCCNC(=O)c1ccc(-c2c3nc(c(-c4c(F)cccc4F)c4ccc([nH]4)c(-c4c(F)cccc4F)c4nc(c(-c5c(F)cccc5F)c5ccc2[nH]5)C=C4)C=C3)cc1
REMARK SMILES IDX 25 1 26 2 27 3 24 5 20 6 21 7 22 8 23 9 18 10 19 11 17 12
REMARK SMILES IDX 16 13 14 14 15 15 2 17 1 18 3 19 4 20 5 22 6 23 7 24 8 25
REMARK SMILES IDX 9 26 13 27 10 28 12 29 11 30 28 31 29 32 30 33 31 34 32 35
REMARK SMILES IDX 33 36 34 37 35 38 36 40 37 41 38 42 90 43 39 44 89 45 40 46
REMARK SMILES IDX 41 47 42 48 83 49 43 50 88 51 82 52 84 53 44 54 87 55 81 56
REMARK SMILES IDX 80 57 45 59 71 60 54 61 70 62 55 63 58 64 69 65 85 66 56 67
REMARK SMILES IDX 57 68 68 70 86 71 59 72 46 73 47 74 52 75 48 76 49 77 51 78
REMARK SMILES IDX 53 79 50 80 72 81 73 82 78 83 74 84 75 85 77 86 79 87 76 88
REMARK SMILES IDX 60 89 61 90 66 91 62 92 63 93 65 94 67 95 64 96
REMARK H PARENT 27 4 16 16 3 21 34 39 84 58 58 69
REMARK Flexibility Score: inf
ROOT
ATOM      1  C   UNL     1      -1.480  -2.645   3.844  1.00  0.00     0.242 C 
ATOM      2  O   UNL     1      -2.081  -2.126   4.788  1.00  0.00    -0.273 OA
ATOM      3  N   UNL     1      -1.703  -3.975   3.613  1.00  0.00    -0.354 N 
ATOM      4  H   UNL     1      -2.126  -4.473   4.350  1.00  0.00     0.163 HD
ENDROOT
BRANCH   1   5
ATOM      5  C   UNL     1      -0.518  -1.855   2.920  1.00  0.00     0.174 C 
ATOM      6  N   UNL     1      -1.149  -1.228   1.752  1.00  0.00    -0.329 N 
ATOM      7  C   UNL     1      -1.425   0.163   2.013  1.00  0.00     0.120 C 
ATOM      8  C   UNL     1      -0.272   0.593   2.892  1.00  0.00     0.024 C 
ATOM      9  C   UNL     1       0.074  -0.656   3.702  1.00  0.00     0.037 C 
BRANCH   6  10
ATOM     10  C   UNL     1      -1.787  -1.912   0.746  1.00  0.00     0.242 C 
ATOM     11  O   UNL     1      -2.806  -2.573   0.931  1.00  0.00    -0.273 OA
BRANCH  10  12
ATOM     12  C   UNL     1      -1.192  -1.754  -0.659  1.00  0.00     0.216 C 
BRANCH  12  13
ATOM     13  N   UNL     1      -1.544  -0.473  -1.243  1.00  0.00    -0.345 N 
ATOM     14  C   UNL     1      -0.765   0.563  -1.661  1.00  0.00     0.242 C 
ATOM     15  O   UNL     1      -1.344   1.580  -2.054  1.00  0.00    -0.273 OA
ATOM     16  H   UNL     1      -2.511  -0.329  -1.358  1.00  0.00     0.164 HD
BRANCH  14  17
ATOM     17  C   UNL     1       0.774   0.452  -1.763  1.00  0.00     0.171 C 
ATOM     18  C   UNL     1       1.138  -0.341  -3.010  1.00  0.00     0.042 C 
BRANCH  17  19
ATOM     19  N   UNL     1       1.331   0.050  -0.473  1.00  0.00    -0.310 N 
ATOM     20  C   UNL     1       2.111  -0.984  -0.074  1.00  0.00     0.408 C 
ATOM     21  H   UNL     1       1.089   0.660   0.261  1.00  0.00     0.167 HD
ATOM     22  O   UNL     1       2.278  -1.199   1.124  1.00  0.00    -0.225 OA
BRANCH  20  23
ATOM     23  O   UNL     1       2.618  -1.727  -1.079  1.00  0.00    -0.445 OA
BRANCH  23  24
ATOM     24  C   UNL     1       3.506  -2.783  -0.677  1.00  0.00     0.270 C 
BRANCH  24  25
ATOM     25  C   UNL     1       4.798  -2.250  -0.106  1.00  0.00    -0.011 A 
ATOM     26  C   UNL     1       5.234  -2.668   1.160  1.00  0.00     0.007 A 
ATOM     27  C   UNL     1       5.553  -1.301  -0.807  1.00  0.00     0.007 A 
ATOM     28  C   UNL     1       6.389  -2.125   1.724  1.00  0.00     0.000 A 
ATOM     29  C   UNL     1       6.707  -0.758  -0.240  1.00  0.00     0.000 A 
ATOM     30  C   UNL     1       7.121  -1.167   1.027  1.00  0.00     0.000 A 
ENDBRANCH  24  25
ENDBRANCH  23  24
ENDBRANCH  20  23
ENDBRANCH  17  19
ENDBRANCH  14  17
ENDBRANCH  12  13
ENDBRANCH  10  12
ENDBRANCH   6  10
ENDBRANCH   1   5
BRANCH   3  31
ATOM     31  C   UNL     1      -1.399  -4.745   2.426  1.00  0.00     0.116 C 
BRANCH  31  32
ATOM     32  C   UNL     1      -1.036  -6.193   2.729  1.00  0.00     0.021 C 
BRANCH  32  33
ATOM     33  C   UNL     1      -2.150  -7.012   3.391  1.00  0.00     0.002 C 
BRANCH  33  34
ATOM     34  C   UNL     1      -3.504  -7.006   2.673  1.00  0.00     0.002 C 
BRANCH  34  35
ATOM     35  C   UNL     1      -3.478  -7.421   1.200  1.00  0.00     0.021 C 
BRANCH  35  36
ATOM     36  C   UNL     1      -2.816  -8.765   0.916  1.00  0.00     0.116 C 
BRANCH  36  37
ATOM     37  N   UNL     1      -3.458  -9.864   1.620  1.00  0.00    -0.352 N 
ATOM     38  C   UNL     1      -3.950 -11.048   1.133  1.00  0.00     0.251 C 
ATOM     39  H   UNL     1      -3.553  -9.739   2.592  1.00  0.00     0.163 HD
ATOM     40  O   UNL     1      -4.607 -11.789   1.857  1.00  0.00    -0.269 OA
BRANCH  38  41
ATOM     41  C   UNL     1      -3.716 -11.419  -0.278  1.00  0.00     0.039 A 
ATOM     42  C   UNL     1      -4.790 -11.894  -1.034  1.00  0.00     0.014 A 
ATOM     43  C   UNL     1      -2.450 -11.291  -0.856  1.00  0.00     0.014 A 
ATOM     44  C   UNL     1      -4.614 -12.161  -2.393  1.00  0.00     0.010 A 
ATOM     45  C   UNL     1      -2.292 -11.491  -2.225  1.00  0.00     0.010 A 
ATOM     46  C   UNL     1      -3.377 -11.914  -3.009  1.00  0.00    -0.014 A 
BRANCH  46  47
ATOM     47  C   UNL     1      -3.215 -12.035  -4.480  1.00  0.00     0.031 A 
ATOM     48  C   UNL     1      -2.273 -13.046  -5.067  1.00  0.00     0.074 A 
ATOM     49  C   UNL     1      -3.859 -11.166  -5.283  1.00  0.00     0.049 A 
ATOM     50  N   UNL     1      -1.940 -13.235  -6.318  1.00  0.00    -0.248 NA
ATOM     51  C   UNL     1      -1.599 -13.948  -4.121  1.00  0.00     0.031 C 
ATOM     52  C   UNL     1      -4.764 -10.108  -4.829  1.00  0.00     0.029 A 
ATOM     53  N   UNL     1      -3.837 -11.021  -6.648  1.00  0.00    -0.354 N 
ATOM     54  C   UNL     1      -1.010 -14.266  -6.311  1.00  0.00     0.074 A 
ATOM     55  C   UNL     1      -0.797 -14.630  -4.926  1.00  0.00     0.031 C 
ATOM     56  C   UNL     1      -5.219  -9.432  -5.894  1.00  0.00     0.029 A 
ATOM     57  C   UNL     1      -4.604  -9.975  -7.101  1.00  0.00     0.049 A 
ATOM     58  H   UNL     1      -3.322 -11.610  -7.245  1.00  0.00     0.167 HD
ATOM     59  C   UNL     1      -0.402 -14.862  -7.364  1.00  0.00     0.037 A 
ATOM     60  C   UNL     1      -4.775  -9.489  -8.345  1.00  0.00     0.037 A 
ATOM     61  C   UNL     1      -0.626 -14.498  -8.741  1.00  0.00     0.049 A 
ATOM     62  C   UNL     1      -4.066 -10.148  -9.494  1.00  0.00     0.074 A 
ATOM     63  C   UNL     1      -0.118 -15.093  -9.882  1.00  0.00     0.029 A 
ATOM     64  N   UNL     1      -1.410 -13.433  -9.161  1.00  0.00    -0.354 N 
ATOM     65  N   UNL     1      -3.255 -11.178  -9.482  1.00  0.00    -0.248 NA
ATOM     66  C   UNL     1      -4.295  -9.578 -10.829  1.00  0.00     0.031 C 
ATOM     67  C   UNL     1      -0.538 -14.347 -10.988  1.00  0.00     0.029 A 
ATOM     68  C   UNL     1      -1.359 -13.324 -10.542  1.00  0.00     0.049 A 
ATOM     69  H   UNL     1      -1.925 -12.842  -8.566  1.00  0.00     0.167 HD
ATOM     70  C   UNL     1      -2.885 -11.387 -10.804  1.00  0.00     0.074 A 
ATOM     71  C   UNL     1      -3.582 -10.393 -11.594  1.00  0.00     0.031 C 
ATOM     72  C   UNL     1      -2.042 -12.317 -11.316  1.00  0.00     0.037 A 
BRANCH  59  73
ATOM     73  C   UNL     1       0.581 -15.959  -7.069  1.00  0.00     0.057 A 
ATOM     74  C   UNL     1       0.181 -17.199  -6.554  1.00  0.00     0.134 A 
ATOM     75  C   UNL     1       1.946 -15.783  -7.333  1.00  0.00     0.134 A 
ATOM     76  F   UNL     1      -1.109 -17.433  -6.270  1.00  0.00    -0.206 F 
ATOM     77  C   UNL     1       1.104 -18.211  -6.282  1.00  0.00     0.040 A 
ATOM     78  C   UNL     1       2.875 -16.797  -7.094  1.00  0.00     0.040 A 
ATOM     79  F   UNL     1       2.400 -14.624  -7.834  1.00  0.00    -0.206 F 
ATOM     80  C   UNL     1       2.455 -18.013  -6.559  1.00  0.00     0.006 A 
ENDBRANCH  59  73
BRANCH  60  81
ATOM     81  C   UNL     1      -5.651  -8.310  -8.560  1.00  0.00     0.057 A 
ATOM     82  C   UNL     1      -6.878  -8.430  -9.223  1.00  0.00     0.134 A 
ATOM     83  C   UNL     1      -5.291  -7.039  -8.094  1.00  0.00     0.134 A 
ATOM     84  F   UNL     1      -7.269  -9.617  -9.709  1.00  0.00    -0.206 F 
ATOM     85  C   UNL     1      -7.710  -7.327  -9.425  1.00  0.00     0.040 A 
ATOM     86  C   UNL     1      -6.125  -5.934  -8.265  1.00  0.00     0.040 A 
ATOM     87  F   UNL     1      -4.131  -6.859  -7.444  1.00  0.00    -0.206 F 
ATOM     88  C   UNL     1      -7.337  -6.075  -8.938  1.00  0.00     0.006 A 
ENDBRANCH  60  81
BRANCH  72  89
ATOM     89  C   UNL     1      -1.825 -12.303 -12.802  1.00  0.00     0.057 A 
ATOM     90  C   UNL     1      -1.093 -11.286 -13.430  1.00  0.00     0.134 A 
ATOM     91  C   UNL     1      -2.317 -13.336 -13.610  1.00  0.00     0.134 A 
ATOM     92  F   UNL     1      -0.606 -10.259 -12.717  1.00  0.00    -0.206 F 
ATOM     93  C   UNL     1      -0.878 -11.286 -14.809  1.00  0.00     0.040 A 
ATOM     94  C   UNL     1      -2.083 -13.363 -14.986  1.00  0.00     0.040 A 
ATOM     95  F   UNL     1      -3.020 -14.345 -13.073  1.00  0.00    -0.206 F 
ATOM     96  C   UNL     1      -1.366 -12.332 -15.590  1.00  0.00     0.006 A 
ENDBRANCH  72  89
ENDBRANCH  46  47
ENDBRANCH  38  41
ENDBRANCH  36  37
ENDBRANCH  35  36
ENDBRANCH  34  35
ENDBRANCH  33  34
ENDBRANCH  32  33
ENDBRANCH  31  32
ENDBRANCH   3  31
TORSDOF 21
