REMARK SMILES CCOc1ccc(C(=O)N2CCC(C(=O)NCCCCCCNC(=O)c3ccc(-c4c5nc(c(-c6c(F)cccc6F)c6ccc([nH]6)c(-c6c(F)cccc6F)c6nc(c(-c7c(F)cccc7F)c7ccc4[nH]7)C=C6)C=C5)cc3)(c3ccccc3)CC2)cc1OC
REMARK SMILES IDX 19 1 18 2 17 3 16 4 14 5 15 6 13 8 8 9 9 10 10 11 11 12
REMARK SMILES IDX 87 13 12 14 86 15 7 16 4 17 5 18 89 19 6 20 88 21 3 22 2 23
REMARK SMILES IDX 1 24 90 25 91 26 80 27 81 28 85 29 82 30 84 31 83 32 20 33
REMARK SMILES IDX 21 34 22 35 23 36 24 37 25 39 26 40 27 41 79 42 28 43 78 44
REMARK SMILES IDX 29 45 30 46 31 47 72 48 32 49 77 50 71 51 73 52 33 53 76 54
REMARK SMILES IDX 70 55 69 56 34 58 60 59 43 60 59 61 44 62 47 63 58 64 74 65
REMARK SMILES IDX 45 66 46 67 57 69 75 70 48 71 35 72 36 73 41 74 37 75 38 76
REMARK SMILES IDX 40 77 42 78 39 79 61 80 62 81 67 82 63 83 64 84 66 85 68 86
REMARK SMILES IDX 65 87 49 88 50 89 55 90 51 91 52 92 54 93 56 94 53 95
REMARK H PARENT 16 7 23 38 73 57 47 68
REMARK Flexibility Score: inf
ROOT
ATOM      1  C   UNL     1      12.358  -2.913  -5.620  1.00  0.00     0.002 C 
ENDROOT
BRANCH   1   2
ATOM      2  C   UNL     1      11.219  -2.080  -5.022  1.00  0.00     0.021 C 
BRANCH   2   3
ATOM      3  C   UNL     1      10.316  -2.862  -4.071  1.00  0.00     0.116 C 
BRANCH   3   4
ATOM      4  N   UNL     1      11.069  -3.306  -2.909  1.00  0.00    -0.355 N 
ATOM      5  C   UNL     1      10.989  -3.001  -1.580  1.00  0.00     0.230 C 
ATOM      6  O   UNL     1      11.960  -3.398  -0.933  1.00  0.00    -0.274 OA
ATOM      7  H   UNL     1      11.777  -3.957  -3.123  1.00  0.00     0.163 HD
BRANCH   5   8
ATOM      8  C   UNL     1       9.766  -2.216  -0.984  1.00  0.00     0.077 C 
ATOM      9  C   UNL     1       6.489  -0.379  -3.204  1.00  0.00     0.253 C 
ATOM     10  O   UNL     1       6.837   0.304  -4.168  1.00  0.00    -0.269 OA
ATOM     11  N   UNL     1       7.445  -0.981  -2.362  1.00  0.00    -0.339 N 
ATOM     12  C   UNL     1       8.523  -0.108  -1.932  1.00  0.00     0.121 C 
ATOM     13  C   UNL     1       7.248  -2.229  -1.628  1.00  0.00     0.121 C 
ATOM     14  C   UNL     1       9.841  -0.790  -1.599  1.00  0.00     0.043 C 
ATOM     15  C   UNL     1       8.511  -3.038  -1.405  1.00  0.00     0.043 C 
BRANCH   9  16
ATOM     16  C   UNL     1       5.026  -0.422  -2.868  1.00  0.00     0.043 A 
ATOM     17  C   UNL     1       2.289  -0.305  -2.145  1.00  0.00     0.161 A 
ATOM     18  C   UNL     1       2.721   0.151  -3.402  1.00  0.00     0.051 A 
ATOM     19  C   UNL     1       3.217  -0.850  -1.265  1.00  0.00     0.161 A 
ATOM     20  C   UNL     1       4.078   0.078  -3.768  1.00  0.00     0.018 A 
ATOM     21  C   UNL     1       4.568  -0.819  -1.615  1.00  0.00     0.064 A 
BRANCH  17  22
ATOM     22  O   UNL     1       0.960  -0.277  -1.837  1.00  0.00    -0.490 OA
BRANCH  22  23
ATOM     23  C   UNL     1       0.451   1.047  -1.627  1.00  0.00     0.226 C 
ATOM     24  C   UNL     1      -0.162   1.121  -0.236  1.00  0.00     0.049 C 
ENDBRANCH  22  23
ENDBRANCH  17  22
BRANCH  19  25
ATOM     25  O   UNL     1       3.058  -1.453  -0.052  1.00  0.00    -0.493 OA
ATOM     26  C   UNL     1       1.784  -1.542   0.545  1.00  0.00     0.278 C 
ENDBRANCH  19  25
ENDBRANCH   9  16
BRANCH   8  27
ATOM     27  C   UNL     1       9.732  -2.072   0.583  1.00  0.00    -0.032 A 
ATOM     28  C   UNL     1      10.654  -2.678   1.454  1.00  0.00     0.005 A 
ATOM     29  C   UNL     1       8.718  -1.314   1.212  1.00  0.00     0.005 A 
ATOM     30  C   UNL     1      10.575  -2.534   2.847  1.00  0.00     0.000 A 
ATOM     31  C   UNL     1       8.620  -1.184   2.603  1.00  0.00     0.000 A 
ATOM     32  C   UNL     1       9.554  -1.794   3.424  1.00  0.00     0.000 A 
ENDBRANCH   8  27
ENDBRANCH   5   8
ENDBRANCH   3   4
ENDBRANCH   2   3
ENDBRANCH   1   2
BRANCH   1  33
ATOM     33  C   UNL     1      11.910  -4.181  -6.353  1.00  0.00     0.002 C 
BRANCH  33  34
ATOM     34  C   UNL     1      10.858  -3.953  -7.439  1.00  0.00     0.021 C 
BRANCH  34  35
ATOM     35  C   UNL     1      11.265  -2.940  -8.502  1.00  0.00     0.116 C 
BRANCH  35  36
ATOM     36  N   UNL     1      12.434  -3.374  -9.248  1.00  0.00    -0.352 N 
ATOM     37  C   UNL     1      12.592  -3.518 -10.604  1.00  0.00     0.251 C 
ATOM     38  H   UNL     1      13.224  -3.597  -8.704  1.00  0.00     0.163 HD
ATOM     39  O   UNL     1      13.575  -4.087 -11.059  1.00  0.00    -0.269 OA
BRANCH  37  40
ATOM     40  C   UNL     1      11.548  -2.998 -11.513  1.00  0.00     0.039 A 
ATOM     41  C   UNL     1      11.100  -3.810 -12.557  1.00  0.00     0.014 A 
ATOM     42  C   UNL     1      11.006  -1.724 -11.325  1.00  0.00     0.014 A 
ATOM     43  C   UNL     1      10.059  -3.367 -13.375  1.00  0.00     0.010 A 
ATOM     44  C   UNL     1       9.919  -1.316 -12.092  1.00  0.00     0.010 A 
ATOM     45  C   UNL     1       9.434  -2.134 -13.124  1.00  0.00    -0.014 A 
BRANCH  45  46
ATOM     46  C   UNL     1       8.261  -1.694 -13.920  1.00  0.00     0.031 A 
ATOM     47  C   UNL     1       8.338  -0.451 -14.763  1.00  0.00     0.074 A 
ATOM     48  C   UNL     1       7.103  -2.377 -13.827  1.00  0.00     0.049 A 
ATOM     49  N   UNL     1       7.401   0.125 -15.472  1.00  0.00    -0.248 NA
ATOM     50  C   UNL     1       9.632   0.251 -14.796  1.00  0.00     0.031 C 
ATOM     51  C   UNL     1       6.886  -3.567 -13.001  1.00  0.00     0.029 A 
ATOM     52  N   UNL     1       5.884  -2.160 -14.420  1.00  0.00    -0.354 N 
ATOM     53  C   UNL     1       7.984   1.261 -16.018  1.00  0.00     0.074 A 
ATOM     54  C   UNL     1       9.342   1.319 -15.524  1.00  0.00     0.031 C 
ATOM     55  C   UNL     1       5.619  -3.983 -13.152  1.00  0.00     0.029 A 
ATOM     56  C   UNL     1       4.921  -3.067 -14.048  1.00  0.00     0.049 A 
ATOM     57  H   UNL     1       5.715  -1.424 -15.052  1.00  0.00     0.167 HD
ATOM     58  C   UNL     1       7.440   2.164 -16.869  1.00  0.00     0.037 A 
ATOM     59  C   UNL     1       3.617  -3.142 -14.376  1.00  0.00     0.037 A 
ATOM     60  C   UNL     1       6.095   2.087 -17.377  1.00  0.00     0.049 A 
ATOM     61  C   UNL     1       3.038  -2.122 -15.317  1.00  0.00     0.074 A 
ATOM     62  C   UNL     1       5.479   2.909 -18.305  1.00  0.00     0.029 A 
ATOM     63  N   UNL     1       5.156   1.143 -16.991  1.00  0.00    -0.354 N 
ATOM     64  N   UNL     1       3.627  -1.104 -15.897  1.00  0.00    -0.248 NA
ATOM     65  C   UNL     1       1.614  -2.262 -15.655  1.00  0.00     0.031 C 
ATOM     66  C   UNL     1       4.149   2.500 -18.434  1.00  0.00     0.029 A 
ATOM     67  C   UNL     1       3.954   1.384 -17.636  1.00  0.00     0.049 A 
ATOM     68  H   UNL     1       5.319   0.410 -16.355  1.00  0.00     0.167 HD
ATOM     69  C   UNL     1       2.655  -0.500 -16.685  1.00  0.00     0.074 A 
ATOM     70  C   UNL     1       1.445  -1.278 -16.525  1.00  0.00     0.031 C 
ATOM     71  C   UNL     1       2.757   0.600 -17.471  1.00  0.00     0.037 A 
BRANCH  58  72
ATOM     72  C   UNL     1       8.295   3.319 -17.305  1.00  0.00     0.057 A 
ATOM     73  C   UNL     1       9.386   3.152 -18.168  1.00  0.00     0.134 A 
ATOM     74  C   UNL     1       7.983   4.625 -16.904  1.00  0.00     0.134 A 
ATOM     75  F   UNL     1       9.744   1.928 -18.583  1.00  0.00    -0.206 F 
ATOM     76  C   UNL     1      10.148   4.239 -18.600  1.00  0.00     0.040 A 
ATOM     77  C   UNL     1       8.720   5.722 -17.352  1.00  0.00     0.040 A 
ATOM     78  F   UNL     1       6.947   4.857 -16.084  1.00  0.00    -0.206 F 
ATOM     79  C   UNL     1       9.809   5.530 -18.199  1.00  0.00     0.006 A 
ENDBRANCH  58  72
BRANCH  59  80
ATOM     80  C   UNL     1       2.765  -4.220 -13.809  1.00  0.00     0.057 A 
ATOM     81  C   UNL     1       2.239  -5.233 -14.619  1.00  0.00     0.134 A 
ATOM     82  C   UNL     1       2.437  -4.250 -12.448  1.00  0.00     0.134 A 
ATOM     83  F   UNL     1       2.501  -5.250 -15.935  1.00  0.00    -0.206 F 
ATOM     84  C   UNL     1       1.397  -6.220 -14.104  1.00  0.00     0.040 A 
ATOM     85  C   UNL     1       1.622  -5.248 -11.913  1.00  0.00     0.040 A 
ATOM     86  F   UNL     1       2.915  -3.313 -11.615  1.00  0.00    -0.206 F 
ATOM     87  C   UNL     1       1.090  -6.231 -12.744  1.00  0.00     0.006 A 
ENDBRANCH  59  80
BRANCH  71  88
ATOM     88  C   UNL     1       1.537   1.010 -18.244  1.00  0.00     0.057 A 
ATOM     89  C   UNL     1       0.413   1.564 -17.617  1.00  0.00     0.134 A 
ATOM     90  C   UNL     1       1.504   0.891 -19.639  1.00  0.00     0.134 A 
ATOM     91  F   UNL     1       0.374   1.695 -16.282  1.00  0.00    -0.206 F 
ATOM     92  C   UNL     1      -0.707   1.963 -18.348  1.00  0.00     0.040 A 
ATOM     93  C   UNL     1       0.403   1.315 -20.384  1.00  0.00     0.040 A 
ATOM     94  F   UNL     1       2.551   0.378 -20.304  1.00  0.00    -0.206 F 
ATOM     95  C   UNL     1      -0.710   1.846 -19.736  1.00  0.00     0.006 A 
ENDBRANCH  71  88
ENDBRANCH  45  46
ENDBRANCH  37  40
ENDBRANCH  35  36
ENDBRANCH  34  35
ENDBRANCH  33  34
ENDBRANCH   1  33
TORSDOF 18
