REMARK SMILES CC[C@@H](C)[C@@H](NC(=O)CCn1ccc2ccc(Br)cc21)C(=O)NCCCCCCNC(=O)c1ccc(-c2c3nc(c(-c4c(F)cccc4F)c4ccc([nH]4)c(-c4c(F)cccc4F)c4nc(c(-c5c(F)cccc5F)c5ccc2[nH]5)C=C4)C=C3)cc1
REMARK SMILES IDX 25 1 24 2 23 3 21 4 22 5 5 7 3 8 4 9 2 10 1 11 6 12 7 13
REMARK SMILES IDX 8 15 9 16 10 17 11 18 12 19 20 20 13 21 14 22 19 23 15 24
REMARK SMILES IDX 17 25 16 26 18 27 26 28 27 29 28 30 29 31 30 32 31 33 32 35
REMARK SMILES IDX 33 36 34 37 86 38 35 39 85 40 36 41 37 42 38 43 79 44 39 45
REMARK SMILES IDX 84 46 78 47 80 48 40 49 83 50 77 51 76 52 41 54 67 55 50 56
REMARK SMILES IDX 66 57 51 58 54 59 65 60 81 61 52 62 53 63 64 65 82 66 55 67
REMARK SMILES IDX 42 68 43 69 48 70 44 71 45 72 47 73 49 74 46 75 68 76 69 77
REMARK SMILES IDX 74 78 70 79 71 80 73 81 75 82 72 83 56 84 57 85 62 86 58 87
REMARK SMILES IDX 59 88 61 89 63 90 60 91
REMARK H PARENT 23 6 6 14 30 34 80 53 54 64
REMARK Flexibility Score: inf
ROOT
ATOM      1  C   UNL     1       4.288   5.256   2.109  1.00  0.00     0.021 C 
ENDROOT
BRANCH   1   2
ATOM      2  C   UNL     1       3.447   5.228   3.434  1.00  0.00     0.116 C 
BRANCH   2   3
ATOM      3  N   UNL     1       1.849   5.135   3.466  1.00  0.00    -0.354 N 
ATOM      4  C   UNL     1       0.603   4.552   3.311  1.00  0.00     0.242 C 
ATOM      5  O   UNL     1      -0.259   5.408   3.640  1.00  0.00    -0.273 OA
ATOM      6  H   UNL     1       1.607   6.032   3.791  1.00  0.00     0.163 HD
BRANCH   4   7
ATOM      7  C   UNL     1      -0.087   3.046   2.966  1.00  0.00     0.174 C 
BRANCH   7   8
ATOM      8  C   UNL     1      -0.178   2.066   1.697  1.00  0.00     0.018 C 
ATOM      9  C   UNL     1      -1.290   2.422   0.685  1.00  0.00     0.010 C 
BRANCH   8  10
ATOM     10  C   UNL     1      -0.244   0.513   1.959  1.00  0.00     0.002 C 
ATOM     11  C   UNL     1       0.298  -0.328   0.792  1.00  0.00     0.004 C 
ENDBRANCH   8  10
ENDBRANCH   7   8
BRANCH   7  12
ATOM     12  N   UNL     1       0.043   2.242   4.158  1.00  0.00    -0.344 N 
ATOM     13  C   UNL     1       1.212   1.716   4.556  1.00  0.00     0.222 C 
ATOM     14  H   UNL     1      -0.760   2.073   4.702  1.00  0.00     0.164 HD
ATOM     15  O   UNL     1       1.215   0.798   5.400  1.00  0.00    -0.275 OA
BRANCH  13  16
ATOM     16  C   UNL     1       2.475   2.363   4.068  1.00  0.00     0.122 C 
BRANCH  16  17
ATOM     17  C   UNL     1       2.961   2.288   2.577  1.00  0.00     0.132 C 
BRANCH  17  18
ATOM     18  N   UNL     1       2.723   2.838   1.208  1.00  0.00    -0.347 N 
ATOM     19  C   UNL     1       3.280   2.009   0.214  1.00  0.00     0.087 A 
ATOM     20  C   UNL     1       2.047   3.873   0.480  1.00  0.00     0.049 A 
ATOM     21  C   UNL     1       2.681   2.251  -0.989  1.00  0.00     0.028 A 
ATOM     22  C   UNL     1       1.884   3.400  -0.847  1.00  0.00    -0.000 A 
ATOM     23  C   UNL     1       1.508   5.182   0.684  1.00  0.00     0.042 A 
ATOM     24  C   UNL     1       1.055   4.089  -1.776  1.00  0.00     0.011 A 
ATOM     25  C   UNL     1       0.724   5.869  -0.252  1.00  0.00     0.020 A 
ATOM     26  C   UNL     1       0.447   5.303  -1.465  1.00  0.00     0.016 A 
ATOM     27  Br  UNL     1       0.080   7.607   0.156  1.00  0.00    -0.051 Br
ENDBRANCH  17  18
ENDBRANCH  16  17
ENDBRANCH  13  16
ENDBRANCH   7  12
ENDBRANCH   4   7
ENDBRANCH   2   3
ENDBRANCH   1   2
BRANCH   1  28
ATOM     28  C   UNL     1       5.657   5.961   2.046  1.00  0.00     0.002 C 
BRANCH  28  29
ATOM     29  C   UNL     1       6.777   5.466   2.953  1.00  0.00     0.002 C 
BRANCH  29  30
ATOM     30  C   UNL     1       7.311   4.047   2.720  1.00  0.00     0.021 C 
BRANCH  30  31
ATOM     31  C   UNL     1       7.929   3.732   1.353  1.00  0.00     0.116 C 
BRANCH  31  32
ATOM     32  N   UNL     1       8.835   4.725   0.801  1.00  0.00    -0.352 N 
ATOM     33  C   UNL     1      10.106   5.145   1.059  1.00  0.00     0.251 C 
ATOM     34  H   UNL     1       8.428   5.219   0.053  1.00  0.00     0.163 HD
ATOM     35  O   UNL     1      10.567   6.004   0.288  1.00  0.00    -0.269 OA
BRANCH  33  36
ATOM     36  C   UNL     1      10.952   4.702   2.194  1.00  0.00     0.039 A 
ATOM     37  C   UNL     1      10.752   3.538   2.934  1.00  0.00     0.014 A 
ATOM     38  C   UNL     1      12.055   5.520   2.513  1.00  0.00     0.014 A 
ATOM     39  C   UNL     1      11.578   3.248   4.020  1.00  0.00     0.010 A 
ATOM     40  C   UNL     1      12.905   5.213   3.573  1.00  0.00     0.010 A 
ATOM     41  C   UNL     1      12.646   4.091   4.353  1.00  0.00    -0.014 A 
BRANCH  41  42
ATOM     42  C   UNL     1      13.534   3.673   5.441  1.00  0.00     0.031 A 
ATOM     43  C   UNL     1      14.163   2.329   5.269  1.00  0.00     0.074 A 
ATOM     44  C   UNL     1      13.896   4.445   6.486  1.00  0.00     0.049 A 
ATOM     45  N   UNL     1      14.029   1.280   6.015  1.00  0.00    -0.248 NA
ATOM     46  C   UNL     1      14.980   2.109   4.066  1.00  0.00     0.031 C 
ATOM     47  C   UNL     1      13.639   5.871   6.691  1.00  0.00     0.029 A 
ATOM     48  N   UNL     1      14.666   4.111   7.566  1.00  0.00    -0.354 N 
ATOM     49  C   UNL     1      14.880   0.313   5.479  1.00  0.00     0.074 A 
ATOM     50  C   UNL     1      15.340   0.833   4.218  1.00  0.00     0.031 C 
ATOM     51  C   UNL     1      14.407   6.321   7.709  1.00  0.00     0.029 A 
ATOM     52  C   UNL     1      15.103   5.196   8.311  1.00  0.00     0.049 A 
ATOM     53  H   UNL     1      14.890   3.180   7.795  1.00  0.00     0.167 HD
ATOM     54  C   UNL     1      15.300  -0.757   6.209  1.00  0.00     0.037 A 
ATOM     55  C   UNL     1      16.006   5.184   9.322  1.00  0.00     0.037 A 
ATOM     56  C   UNL     1      14.443  -0.998   7.341  1.00  0.00     0.049 A 
ATOM     57  C   UNL     1      16.103   3.799   9.837  1.00  0.00     0.074 A 
ATOM     58  C   UNL     1      13.103  -1.283   7.519  1.00  0.00     0.029 A 
ATOM     59  N   UNL     1      14.912  -0.664   8.586  1.00  0.00    -0.354 N 
ATOM     60  N   UNL     1      15.171   3.204  10.525  1.00  0.00    -0.248 NA
ATOM     61  C   UNL     1      17.109   2.921   9.262  1.00  0.00     0.031 C 
ATOM     62  C   UNL     1      12.744  -0.633   8.737  1.00  0.00     0.029 A 
ATOM     63  C   UNL     1      13.894  -0.022   9.237  1.00  0.00     0.049 A 
ATOM     64  H   UNL     1      15.810  -0.851   8.944  1.00  0.00     0.167 HD
ATOM     65  C   UNL     1      15.218   1.883  10.110  1.00  0.00     0.074 A 
ATOM     66  C   UNL     1      16.502   1.744   9.432  1.00  0.00     0.031 C 
ATOM     67  C   UNL     1      14.095   1.107  10.111  1.00  0.00     0.037 A 
BRANCH  54  68
ATOM     68  C   UNL     1      16.693  -1.346   6.131  1.00  0.00     0.057 A 
ATOM     69  C   UNL     1      17.814  -0.656   5.628  1.00  0.00     0.134 A 
ATOM     70  C   UNL     1      16.994  -2.497   6.888  1.00  0.00     0.134 A 
ATOM     71  F   UNL     1      17.706   0.477   4.926  1.00  0.00    -0.206 F 
ATOM     72  C   UNL     1      19.129  -1.041   5.909  1.00  0.00     0.040 A 
ATOM     73  C   UNL     1      18.305  -2.860   7.217  1.00  0.00     0.040 A 
ATOM     74  F   UNL     1      16.016  -3.249   7.417  1.00  0.00    -0.206 F 
ATOM     75  C   UNL     1      19.379  -2.120   6.741  1.00  0.00     0.006 A 
ENDBRANCH  54  68
BRANCH  55  76
ATOM     76  C   UNL     1      16.954   6.240   9.738  1.00  0.00     0.057 A 
ATOM     77  C   UNL     1      17.489   7.147   8.806  1.00  0.00     0.134 A 
ATOM     78  C   UNL     1      17.565   6.223  10.999  1.00  0.00     0.134 A 
ATOM     79  F   UNL     1      17.034   7.192   7.545  1.00  0.00    -0.206 F 
ATOM     80  C   UNL     1      18.571   7.979   9.105  1.00  0.00     0.040 A 
ATOM     81  C   UNL     1      18.657   7.044  11.310  1.00  0.00     0.040 A 
ATOM     82  F   UNL     1      17.157   5.363  11.944  1.00  0.00    -0.206 F 
ATOM     83  C   UNL     1      19.170   7.920  10.357  1.00  0.00     0.006 A 
ENDBRANCH  55  76
BRANCH  67  84
ATOM     84  C   UNL     1      12.896   1.616  10.857  1.00  0.00     0.057 A 
ATOM     85  C   UNL     1      12.346   0.822  11.869  1.00  0.00     0.134 A 
ATOM     86  C   UNL     1      12.210   2.795  10.528  1.00  0.00     0.134 A 
ATOM     87  F   UNL     1      12.915  -0.349  12.195  1.00  0.00    -0.206 F 
ATOM     88  C   UNL     1      11.180   1.192  12.542  1.00  0.00     0.040 A 
ATOM     89  C   UNL     1      11.063   3.194  11.219  1.00  0.00     0.040 A 
ATOM     90  F   UNL     1      12.601   3.563   9.503  1.00  0.00    -0.206 F 
ATOM     91  C   UNL     1      10.542   2.389  12.228  1.00  0.00     0.006 A 
ENDBRANCH  67  84
ENDBRANCH  41  42
ENDBRANCH  33  36
ENDBRANCH  31  32
ENDBRANCH  30  31
ENDBRANCH  29  30
ENDBRANCH  28  29
ENDBRANCH   1  28
TORSDOF 19
