REMARK SMILES CCc1ccc(NC(=O)c2c(C(=O)NCCCCCCNC(=O)c3ccc(-c4c5nc(c(-c6c(F)cccc6F)c6ccc([nH]6)c(-c6c(F)cccc6F)c6nc(c(-c7c(F)cccc7F)c7ccc4[nH]7)C=C6)C=C5)cc3)cnn2C)cc1
REMARK SMILES IDX 17 1 16 2 15 3 14 4 12 5 13 6 11 8 10 9 80 10 78 11 79 12
REMARK SMILES IDX 81 13 8 14 7 15 9 17 6 18 3 19 4 20 83 21 5 22 82 23 2 24
REMARK SMILES IDX 1 25 18 26 19 27 20 28 21 29 22 30 23 32 24 33 25 34 77 35
REMARK SMILES IDX 26 36 76 37 27 38 28 39 29 40 70 41 30 42 75 43 69 44 71 45
REMARK SMILES IDX 31 46 74 47 68 48 67 49 32 51 58 52 41 53 57 54 42 55 45 56
REMARK SMILES IDX 56 57 72 58 43 59 44 60 55 62 73 63 46 64 33 65 34 66 39 67
REMARK SMILES IDX 35 68 36 69 38 70 40 71 37 72 59 73 60 74 65 75 61 76 62 77
REMARK SMILES IDX 64 78 66 79 63 80 47 81 48 82 53 83 49 84 50 85 52 86 54 87
REMARK SMILES IDX 51 88
REMARK H PARENT 14 7 7 16 21 31 71 50 45 61
REMARK Flexibility Score: inf
ROOT
ATOM      1  C   UNL     1       6.207   6.483  -6.610  1.00  0.00     0.002 C 
ENDROOT
BRANCH   1   2
ATOM      2  C   UNL     1       5.460   5.597  -5.616  1.00  0.00     0.021 C 
BRANCH   2   3
ATOM      3  C   UNL     1       4.762   4.370  -6.181  1.00  0.00     0.116 C 
BRANCH   3   4
ATOM      4  N   UNL     1       5.621   3.339  -6.691  1.00  0.00    -0.352 N 
ATOM      5  C   UNL     1       5.435   1.981  -6.767  1.00  0.00     0.255 C 
ATOM      6  O   UNL     1       6.383   1.340  -7.229  1.00  0.00    -0.269 OA
ATOM      7  H   UNL     1       6.484   3.657  -7.043  1.00  0.00     0.163 HD
BRANCH   5   8
ATOM      8  C   UNL     1       4.246   1.272  -6.292  1.00  0.00     0.090 A 
ATOM      9  C   UNL     1       2.921   1.620  -6.011  1.00  0.00     0.138 A 
ATOM     10  N   UNL     1       2.289   0.445  -5.658  1.00  0.00    -0.262 N 
ATOM     11  C   UNL     1       4.276  -0.125  -6.013  1.00  0.00     0.149 A 
ATOM     12  N   UNL     1       3.111  -0.614  -5.597  1.00  0.00    -0.180 NA
ATOM     13  C   UNL     1       0.901   0.241  -5.300  1.00  0.00     0.174 C 
BRANCH   9  14
ATOM     14  C   UNL     1       2.223   2.869  -6.112  1.00  0.00     0.274 C 
ATOM     15  N   UNL     1       1.767   3.518  -4.978  1.00  0.00    -0.321 N 
ATOM     16  H   UNL     1       1.352   4.391  -5.160  1.00  0.00     0.170 HD
ATOM     17  O   UNL     1       1.990   3.401  -7.198  1.00  0.00    -0.267 OA
BRANCH  15  18
ATOM     18  C   UNL     1       1.781   3.170  -3.611  1.00  0.00     0.041 A 
ATOM     19  C   UNL     1       1.164   2.135  -1.070  1.00  0.00    -0.048 A 
ATOM     20  C   UNL     1       2.243   1.633  -1.799  1.00  0.00     0.006 A 
ATOM     21  C   UNL     1       0.545   3.303  -1.532  1.00  0.00     0.006 A 
ATOM     22  C   UNL     1       2.564   2.165  -3.050  1.00  0.00     0.026 A 
ATOM     23  C   UNL     1       0.855   3.820  -2.793  1.00  0.00     0.026 A 
BRANCH  19  24
ATOM     24  C   UNL     1       0.632   1.464   0.174  1.00  0.00     0.032 C 
ATOM     25  C   UNL     1       0.907  -0.035   0.272  1.00  0.00     0.009 C 
ENDBRANCH  19  24
ENDBRANCH  15  18
ENDBRANCH   9  14
ENDBRANCH   5   8
ENDBRANCH   3   4
ENDBRANCH   2   3
ENDBRANCH   1   2
BRANCH   1  26
ATOM     26  C   UNL     1       5.425   6.956  -7.838  1.00  0.00     0.002 C 
BRANCH  26  27
ATOM     27  C   UNL     1       4.068   7.615  -7.580  1.00  0.00     0.021 C 
BRANCH  27  28
ATOM     28  C   UNL     1       4.058   8.755  -6.567  1.00  0.00     0.116 C 
BRANCH  28  29
ATOM     29  N   UNL     1       4.963   9.835  -6.917  1.00  0.00    -0.352 N 
ATOM     30  C   UNL     1       4.727  11.184  -7.018  1.00  0.00     0.251 C 
ATOM     31  H   UNL     1       5.887   9.557  -7.112  1.00  0.00     0.163 HD
ATOM     32  O   UNL     1       5.592  11.925  -7.467  1.00  0.00    -0.269 OA
BRANCH  30  33
ATOM     33  C   UNL     1       3.421  11.745  -6.608  1.00  0.00     0.039 A 
ATOM     34  C   UNL     1       2.817  12.700  -7.430  1.00  0.00     0.014 A 
ATOM     35  C   UNL     1       2.801  11.352  -5.419  1.00  0.00     0.014 A 
ATOM     36  C   UNL     1       1.565  13.216  -7.090  1.00  0.00     0.010 A 
ATOM     37  C   UNL     1       1.519  11.809  -5.121  1.00  0.00     0.010 A 
ATOM     38  C   UNL     1       0.889  12.748  -5.951  1.00  0.00    -0.014 A 
BRANCH  38  39
ATOM     39  C   UNL     1      -0.479  13.226  -5.624  1.00  0.00     0.031 A 
ATOM     40  C   UNL     1      -0.740  13.987  -4.355  1.00  0.00     0.074 A 
ATOM     41  C   UNL     1      -1.502  12.916  -6.443  1.00  0.00     0.049 A 
ATOM     42  N   UNL     1      -1.872  14.444  -3.882  1.00  0.00    -0.248 NA
ATOM     43  C   UNL     1       0.420  14.244  -3.489  1.00  0.00     0.031 C 
ATOM     44  C   UNL     1      -1.390  12.134  -7.676  1.00  0.00     0.029 A 
ATOM     45  N   UNL     1      -2.840  13.210  -6.357  1.00  0.00    -0.354 N 
ATOM     46  C   UNL     1      -1.563  15.028  -2.660  1.00  0.00     0.074 A 
ATOM     47  C   UNL     1      -0.149  14.814  -2.438  1.00  0.00     0.031 C 
ATOM     48  C   UNL     1      -2.602  12.031  -8.242  1.00  0.00     0.029 A 
ATOM     49  C   UNL     1      -3.583  12.702  -7.394  1.00  0.00     0.049 A 
ATOM     50  H   UNL     1      -3.230  13.736  -5.622  1.00  0.00     0.167 HD
ATOM     51  C   UNL     1      -2.378  15.699  -1.810  1.00  0.00     0.037 A 
ATOM     52  C   UNL     1      -4.906  12.761  -7.634  1.00  0.00     0.037 A 
ATOM     53  C   UNL     1      -3.783  15.918  -2.042  1.00  0.00     0.049 A 
ATOM     54  C   UNL     1      -5.794  13.504  -6.677  1.00  0.00     0.074 A 
ATOM     55  C   UNL     1      -4.680  16.644  -1.280  1.00  0.00     0.029 A 
ATOM     56  N   UNL     1      -4.498  15.398  -3.112  1.00  0.00    -0.354 N 
ATOM     57  N   UNL     1      -5.476  14.124  -5.566  1.00  0.00    -0.248 NA
ATOM     58  C   UNL     1      -7.223  13.565  -7.011  1.00  0.00     0.031 C 
ATOM     59  C   UNL     1      -5.949  16.512  -1.853  1.00  0.00     0.029 A 
ATOM     60  C   UNL     1      -5.833  15.757  -3.009  1.00  0.00     0.049 A 
ATOM     61  H   UNL     1      -4.114  14.854  -3.837  1.00  0.00     0.167 HD
ATOM     62  C   UNL     1      -6.658  14.666  -5.079  1.00  0.00     0.074 A 
ATOM     63  C   UNL     1      -7.697  14.315  -6.026  1.00  0.00     0.031 C 
ATOM     64  C   UNL     1      -6.862  15.392  -3.952  1.00  0.00     0.037 A 
BRANCH  51  65
ATOM     65  C   UNL     1      -1.765  16.227  -0.542  1.00  0.00     0.057 A 
ATOM     66  C   UNL     1      -0.812  17.256  -0.546  1.00  0.00     0.134 A 
ATOM     67  C   UNL     1      -2.135  15.701   0.702  1.00  0.00     0.134 A 
ATOM     68  F   UNL     1      -0.404  17.800  -1.703  1.00  0.00    -0.206 F 
ATOM     69  C   UNL     1      -0.218  17.709   0.633  1.00  0.00     0.040 A 
ATOM     70  C   UNL     1      -1.574  16.169   1.892  1.00  0.00     0.040 A 
ATOM     71  F   UNL     1      -3.049  14.721   0.785  1.00  0.00    -0.206 F 
ATOM     72  C   UNL     1      -0.603  17.168   1.858  1.00  0.00     0.006 A 
ENDBRANCH  51  65
BRANCH  52  73
ATOM     73  C   UNL     1      -5.458  12.108  -8.848  1.00  0.00     0.057 A 
ATOM     74  C   UNL     1      -5.932  12.865  -9.925  1.00  0.00     0.134 A 
ATOM     75  C   UNL     1      -5.495  10.714  -8.973  1.00  0.00     0.134 A 
ATOM     76  F   UNL     1      -5.939  14.204  -9.857  1.00  0.00    -0.206 F 
ATOM     77  C   UNL     1      -6.428  12.260 -11.081  1.00  0.00     0.040 A 
ATOM     78  C   UNL     1      -5.964  10.096 -10.133  1.00  0.00     0.040 A 
ATOM     79  F   UNL     1      -5.046   9.933  -7.979  1.00  0.00    -0.206 F 
ATOM     80  C   UNL     1      -6.437  10.871 -11.190  1.00  0.00     0.006 A 
ENDBRANCH  52  73
BRANCH  64  81
ATOM     81  C   UNL     1      -8.261  15.875  -3.689  1.00  0.00     0.057 A 
ATOM     82  C   UNL     1      -9.291  15.001  -3.320  1.00  0.00     0.134 A 
ATOM     83  C   UNL     1      -8.570  17.239  -3.769  1.00  0.00     0.134 A 
ATOM     84  F   UNL     1      -9.067  13.680  -3.237  1.00  0.00    -0.206 F 
ATOM     85  C   UNL     1     -10.585  15.462  -3.067  1.00  0.00     0.040 A 
ATOM     86  C   UNL     1      -9.851  17.716  -3.488  1.00  0.00     0.040 A 
ATOM     87  F   UNL     1      -7.629  18.133  -4.107  1.00  0.00    -0.206 F 
ATOM     88  C   UNL     1     -10.865  16.825  -3.143  1.00  0.00     0.006 A 
ENDBRANCH  64  81
ENDBRANCH  38  39
ENDBRANCH  30  33
ENDBRANCH  28  29
ENDBRANCH  27  28
ENDBRANCH  26  27
ENDBRANCH   1  26
TORSDOF 16
