REMARK SMILES Cc1cc(C(=O)N2[C@@H](C(=O)NCCCCCCNC(=O)c3ccc(-c4c5nc(c(-c6c(F)cccc6F)c6ccc([nH]6)c(-c6c(F)cccc6F)c6nc(c(-c7c(F)cccc7F)c7ccc4[nH]7)C=C6)C=C5)cc3)C[C@H]3CCCC[C@H]32)c(C)s1
REMARK SMILES IDX 14 1 13 2 12 3 11 4 9 5 10 6 8 8 7 9 81 10 75 11 76 12 80 13
REMARK SMILES IDX 77 14 79 15 78 16 5 17 6 18 4 19 1 20 2 21 3 22 84 23 82 24
REMARK SMILES IDX 83 25 15 26 16 27 17 28 18 29 19 30 20 32 21 33 22 34 74 35
REMARK SMILES IDX 23 36 73 37 24 38 25 39 26 40 67 41 27 42 72 43 66 44 68 45
REMARK SMILES IDX 28 46 71 47 65 48 64 49 29 51 55 52 38 53 54 54 39 55 42 56
REMARK SMILES IDX 53 57 69 58 40 59 41 60 52 62 70 63 43 64 30 65 31 66 36 67
REMARK SMILES IDX 32 68 33 69 35 70 37 71 34 72 56 73 57 74 62 75 58 76 59 77
REMARK SMILES IDX 61 78 63 79 60 80 44 81 45 82 50 83 46 84 47 85 49 86 51 87
REMARK SMILES IDX 48 88
REMARK H PARENT 11 7 18 31 68 50 42 61
REMARK Flexibility Score: inf
ROOT
ATOM      1  C   UNL     1       4.963  -4.706  -3.167  1.00  0.00     0.002 C 
ENDROOT
BRANCH   1   2
ATOM      2  C   UNL     1       4.046  -4.979  -1.974  1.00  0.00     0.021 C 
BRANCH   2   3
ATOM      3  C   UNL     1       2.938  -3.950  -1.761  1.00  0.00     0.116 C 
BRANCH   3   4
ATOM      4  N   UNL     1       1.784  -4.196  -2.600  1.00  0.00    -0.354 N 
ATOM      5  C   UNL     1       0.452  -4.249  -2.339  1.00  0.00     0.242 C 
ATOM      6  O   UNL     1      -0.284  -4.363  -3.329  1.00  0.00    -0.273 OA
ATOM      7  H   UNL     1       2.009  -4.354  -3.545  1.00  0.00     0.163 HD
BRANCH   5   8
ATOM      8  C   UNL     1      -0.188  -4.302  -0.926  1.00  0.00     0.175 C 
ATOM      9  N   UNL     1       0.605  -4.050   0.286  1.00  0.00    -0.323 N 
ATOM     10  C   UNL     1       0.714  -5.254   1.107  1.00  0.00     0.089 C 
ATOM     11  C   UNL     1      -0.755  -5.725  -0.710  1.00  0.00     0.041 C 
ATOM     12  C   UNL     1      -0.606  -5.961   0.798  1.00  0.00     0.014 C 
ATOM     13  C   UNL     1       1.941  -6.106   0.752  1.00  0.00     0.025 C 
ATOM     14  C   UNL     1      -0.659  -7.418   1.242  1.00  0.00     0.006 C 
ATOM     15  C   UNL     1       1.858  -7.511   1.333  1.00  0.00     0.002 C 
ATOM     16  C   UNL     1       0.587  -8.218   0.876  1.00  0.00     0.000 C 
BRANCH   9  17
ATOM     17  C   UNL     1       1.037  -2.829   0.790  1.00  0.00     0.255 C 
ATOM     18  O   UNL     1       1.926  -2.774   1.638  1.00  0.00    -0.269 OA
BRANCH  17  19
ATOM     19  C   UNL     1       0.378  -1.609   0.317  1.00  0.00     0.053 A 
ATOM     20  C   UNL     1      -2.769   0.465  -0.184  1.00  0.00     0.056 C 
ATOM     21  C   UNL     1      -1.402  -0.120  -0.087  1.00  0.00     0.003 A 
ATOM     22  C   UNL     1      -1.045  -1.392   0.302  1.00  0.00     0.029 A 
ATOM     23  S   UNL     1      -0.031   0.829  -0.431  1.00  0.00    -0.145 S 
ATOM     24  C   UNL     1       1.047  -0.440  -0.018  1.00  0.00     0.014 A 
ATOM     25  C   UNL     1       2.515  -0.157  -0.031  1.00  0.00     0.057 C 
ENDBRANCH  17  19
ENDBRANCH   9  17
ENDBRANCH   5   8
ENDBRANCH   3   4
ENDBRANCH   2   3
ENDBRANCH   1   2
BRANCH   1  26
ATOM     26  C   UNL     1       5.631  -3.327  -3.188  1.00  0.00     0.002 C 
BRANCH  26  27
ATOM     27  C   UNL     1       6.330  -2.898  -1.893  1.00  0.00     0.021 C 
BRANCH  27  28
ATOM     28  C   UNL     1       7.386  -3.863  -1.361  1.00  0.00     0.116 C 
BRANCH  28  29
ATOM     29  N   UNL     1       8.415  -4.154  -2.341  1.00  0.00    -0.352 N 
ATOM     30  C   UNL     1       9.779  -4.074  -2.247  1.00  0.00     0.251 C 
ATOM     31  H   UNL     1       8.079  -4.457  -3.215  1.00  0.00     0.163 HD
ATOM     32  O   UNL     1      10.463  -4.208  -3.260  1.00  0.00    -0.269 OA
BRANCH  30  33
ATOM     33  C   UNL     1      10.442  -3.817  -0.949  1.00  0.00     0.039 A 
ATOM     34  C   UNL     1      11.555  -2.970  -0.934  1.00  0.00     0.014 A 
ATOM     35  C   UNL     1      10.026  -4.440   0.231  1.00  0.00     0.014 A 
ATOM     36  C   UNL     1      12.228  -2.725   0.263  1.00  0.00     0.010 A 
ATOM     37  C   UNL     1      10.657  -4.142   1.439  1.00  0.00     0.010 A 
ATOM     38  C   UNL     1      11.774  -3.293   1.464  1.00  0.00    -0.014 A 
BRANCH  38  39
ATOM     39  C   UNL     1      12.473  -3.001   2.740  1.00  0.00     0.031 A 
ATOM     40  C   UNL     1      13.210  -4.084   3.479  1.00  0.00     0.074 A 
ATOM     41  C   UNL     1      12.426  -1.754   3.247  1.00  0.00     0.049 A 
ATOM     42  N   UNL     1      13.914  -4.000   4.580  1.00  0.00    -0.248 NA
ATOM     43  C   UNL     1      13.127  -5.443   2.922  1.00  0.00     0.031 C 
ATOM     44  C   UNL     1      11.687  -0.633   2.662  1.00  0.00     0.029 A 
ATOM     45  N   UNL     1      13.012  -1.219   4.366  1.00  0.00    -0.354 N 
ATOM     46  C   UNL     1      14.346  -5.292   4.853  1.00  0.00     0.074 A 
ATOM     47  C   UNL     1      13.784  -6.149   3.831  1.00  0.00     0.031 C 
ATOM     48  C   UNL     1      11.888   0.463   3.411  1.00  0.00     0.029 A 
ATOM     49  C   UNL     1      12.752   0.118   4.536  1.00  0.00     0.049 A 
ATOM     50  H   UNL     1      13.567  -1.744   4.987  1.00  0.00     0.167 HD
ATOM     51  C   UNL     1      15.156  -5.721   5.851  1.00  0.00     0.037 A 
ATOM     52  C   UNL     1      13.171   0.974   5.486  1.00  0.00     0.037 A 
ATOM     53  C   UNL     1      15.734  -4.863   6.852  1.00  0.00     0.049 A 
ATOM     54  C   UNL     1      14.105   0.484   6.556  1.00  0.00     0.074 A 
ATOM     55  C   UNL     1      16.624  -5.189   7.861  1.00  0.00     0.029 A 
ATOM     56  N   UNL     1      15.474  -3.506   6.973  1.00  0.00    -0.354 N 
ATOM     57  N   UNL     1      14.581  -0.722   6.748  1.00  0.00    -0.248 NA
ATOM     58  C   UNL     1      14.576   1.479   7.528  1.00  0.00     0.031 C 
ATOM     59  C   UNL     1      16.871  -4.037   8.616  1.00  0.00     0.029 A 
ATOM     60  C   UNL     1      16.171  -2.983   8.050  1.00  0.00     0.049 A 
ATOM     61  H   UNL     1      14.881  -2.989   6.380  1.00  0.00     0.167 HD
ATOM     62  C   UNL     1      15.423  -0.628   7.848  1.00  0.00     0.074 A 
ATOM     63  C   UNL     1      15.409   0.759   8.267  1.00  0.00     0.031 C 
ATOM     64  C   UNL     1      16.143  -1.602   8.457  1.00  0.00     0.037 A 
BRANCH  51  65
ATOM     65  C   UNL     1      15.466  -7.190   5.905  1.00  0.00     0.057 A 
ATOM     66  C   UNL     1      16.288  -7.809   4.952  1.00  0.00     0.134 A 
ATOM     67  C   UNL     1      14.961  -7.991   6.937  1.00  0.00     0.134 A 
ATOM     68  F   UNL     1      16.796  -7.102   3.931  1.00  0.00    -0.206 F 
ATOM     69  C   UNL     1      16.571  -9.175   5.007  1.00  0.00     0.040 A 
ATOM     70  C   UNL     1      15.259  -9.352   7.018  1.00  0.00     0.040 A 
ATOM     71  F   UNL     1      14.174  -7.463   7.886  1.00  0.00    -0.206 F 
ATOM     72  C   UNL     1      16.060  -9.950   6.046  1.00  0.00     0.006 A 
ENDBRANCH  51  65
BRANCH  52  73
ATOM     73  C   UNL     1      12.743   2.394   5.439  1.00  0.00     0.057 A 
ATOM     74  C   UNL     1      13.640   3.409   5.090  1.00  0.00     0.134 A 
ATOM     75  C   UNL     1      11.426   2.767   5.731  1.00  0.00     0.134 A 
ATOM     76  F   UNL     1      14.919   3.114   4.815  1.00  0.00    -0.206 F 
ATOM     77  C   UNL     1      13.249   4.748   5.048  1.00  0.00     0.040 A 
ATOM     78  C   UNL     1      11.014   4.099   5.671  1.00  0.00     0.040 A 
ATOM     79  F   UNL     1      10.517   1.839   6.062  1.00  0.00    -0.206 F 
ATOM     80  C   UNL     1      11.930   5.095   5.334  1.00  0.00     0.006 A 
ENDBRANCH  52  73
BRANCH  64  81
ATOM     81  C   UNL     1      16.989  -1.191   9.627  1.00  0.00     0.057 A 
ATOM     82  C   UNL     1      16.427  -0.839  10.860  1.00  0.00     0.134 A 
ATOM     83  C   UNL     1      18.386  -1.158   9.519  1.00  0.00     0.134 A 
ATOM     84  F   UNL     1      15.095  -0.838  11.024  1.00  0.00    -0.206 F 
ATOM     85  C   UNL     1      17.221  -0.438  11.936  1.00  0.00     0.040 A 
ATOM     86  C   UNL     1      19.191  -0.785  10.595  1.00  0.00     0.040 A 
ATOM     87  F   UNL     1      18.989  -1.491   8.368  1.00  0.00    -0.206 F 
ATOM     88  C   UNL     1      18.608  -0.415  11.806  1.00  0.00     0.006 A 
ENDBRANCH  64  81
ENDBRANCH  38  39
ENDBRANCH  30  33
ENDBRANCH  28  29
ENDBRANCH  27  28
ENDBRANCH  26  27
ENDBRANCH   1  26
TORSDOF 15
