REMARK SMILES O=C(COc1ccccc1[C@@H]1C2=C(CCCC2=O)Nc2nc(SCc3ccccn3)nn21)NCCCCCCNC(=O)c1ccc(-c2c3nc(c(-c4c(F)cccc4F)c4ccc([nH]4)c(-c4c(F)cccc4F)c4nc(c(-c5c(F)cccc5F)c5ccc2[nH]5)C=C4)C=C3)cc1
REMARK SMILES IDX 34 1 33 2 1 3 2 4 3 6 4 7 5 8 6 9 10 10 7 11 9 12 8 13 11 14
REMARK SMILES IDX 12 15 32 16 13 17 17 18 20 19 31 20 14 21 19 22 16 23 18 24
REMARK SMILES IDX 21 25 22 26 15 27 23 29 24 30 25 31 26 32 30 33 27 34 29 35
REMARK SMILES IDX 28 36 35 37 36 38 37 39 38 40 39 41 40 42 41 43 42 45 43 46
REMARK SMILES IDX 44 47 96 48 45 49 95 50 46 51 47 52 48 53 89 54 49 55 94 56
REMARK SMILES IDX 88 57 90 58 50 59 93 60 87 61 86 62 51 64 77 65 60 66 76 67
REMARK SMILES IDX 61 68 64 69 75 70 91 71 62 72 63 73 74 75 92 76 65 77 52 78
REMARK SMILES IDX 53 79 58 80 54 81 55 82 57 83 59 84 56 85 78 86 79 87 84 88
REMARK SMILES IDX 80 89 81 90 83 91 85 92 82 93 66 94 67 95 72 96 68 97 69 98
REMARK SMILES IDX 71 99 73 100 70 101
REMARK H PARENT 33 5 19 28 40 44 90 63 64 74
REMARK Flexibility Score: inf
ROOT
ATOM      1  C   UNL     1       1.584   2.817   1.859  1.00  0.00     0.116 C 
ENDROOT
BRANCH   1   2
ATOM      2  N   UNL     1       2.356   1.965   0.967  1.00  0.00    -0.353 N 
ATOM      3  O   UNL     1       0.621   1.370   0.004  1.00  0.00    -0.271 OA
ATOM      4  C   UNL     1       1.838   1.012   0.028  1.00  0.00     0.257 C 
ATOM      5  H   UNL     1       3.335   2.052   1.012  1.00  0.00     0.163 HD
BRANCH   4   6
ATOM      6  C   UNL     1       2.802  -0.582  -1.140  1.00  0.00     0.329 C 
BRANCH   6   7
ATOM      7  O   UNL     1       3.694  -0.698  -2.356  1.00  0.00    -0.483 OA
BRANCH   7   8
ATOM      8  C   UNL     1       3.126  -0.304  -3.530  1.00  0.00     0.125 A 
ATOM      9  C   UNL     1       3.705  -0.631  -4.745  1.00  0.00     0.047 A 
ATOM     10  C   UNL     1       2.090   0.600  -3.457  1.00  0.00     0.024 A 
ATOM     11  C   UNL     1       3.236  -0.007  -5.901  1.00  0.00     0.004 A 
ATOM     12  C   UNL     1       1.618   1.236  -4.599  1.00  0.00     0.010 A 
ATOM     13  C   UNL     1       2.201   0.932  -5.827  1.00  0.00     0.001 A 
BRANCH  10  14
ATOM     14  C   UNL     1       1.768   1.002  -2.066  1.00  0.00     0.181 C 
ATOM     15  C   UNL     1       3.493   1.372  -1.182  1.00  0.00     0.044 C 
ATOM     16  N   UNL     1       0.750  -0.302  -1.200  1.00  0.00    -0.218 N 
ATOM     17  C   UNL     1       3.987   0.583   0.104  1.00  0.00     0.027 C 
ATOM     18  C   UNL     1       4.269   2.510  -1.687  1.00  0.00     0.163 C 
ATOM     19  C   UNL     1       1.314  -0.969   0.333  1.00  0.00     0.227 A 
ATOM     20  N   UNL     1      -0.282  -1.083  -1.559  1.00  0.00    -0.141 NA
ATOM     21  C   UNL     1       5.339   0.856   0.696  1.00  0.00     0.055 C 
ATOM     22  N   UNL     1       2.842  -0.514   0.955  1.00  0.00    -0.328 N 
ATOM     23  C   UNL     1       5.617   2.793  -1.059  1.00  0.00     0.081 C 
ATOM     24  O   UNL     1       3.748   3.280  -2.488  1.00  0.00    -0.294 OA
ATOM     25  N   UNL     1       0.318  -1.730   0.684  1.00  0.00    -0.185 NA
ATOM     26  C   UNL     1      -0.502  -1.835  -0.456  1.00  0.00     0.210 A 
ATOM     27  C   UNL     1       6.251   1.657  -0.247  1.00  0.00     0.014 C 
ATOM     28  H   UNL     1       3.111  -0.874   1.831  1.00  0.00     0.169 HD
BRANCH  26  29
ATOM     29  S   UNL     1      -1.736  -3.086  -0.515  1.00  0.00    -0.078 SA
BRANCH  29  30
ATOM     30  C   UNL     1      -1.384  -4.070   0.978  1.00  0.00     0.134 C 
BRANCH  30  31
ATOM     31  C   UNL     1      -0.130  -4.924   0.926  1.00  0.00     0.051 A 
ATOM     32  C   UNL     1       1.118  -4.404   1.266  1.00  0.00     0.025 A 
ATOM     33  N   UNL     1      -0.263  -6.224   0.564  1.00  0.00    -0.260 NA
ATOM     34  C   UNL     1       2.268  -5.162   1.097  1.00  0.00     0.003 A 
ATOM     35  C   UNL     1       0.865  -6.972   0.491  1.00  0.00     0.111 A 
ATOM     36  C   UNL     1       2.141  -6.482   0.709  1.00  0.00     0.020 A 
ENDBRANCH  30  31
ENDBRANCH  29  30
ENDBRANCH  26  29
ENDBRANCH  10  14
ENDBRANCH   7   8
ENDBRANCH   6   7
ENDBRANCH   4   6
ENDBRANCH   1   2
BRANCH   1  37
ATOM     37  C   UNL     1       2.222   2.835   3.246  1.00  0.00     0.021 C 
BRANCH  37  38
ATOM     38  C   UNL     1       3.745   3.023   3.310  1.00  0.00     0.002 C 
BRANCH  38  39
ATOM     39  C   UNL     1       4.410   4.023   2.348  1.00  0.00     0.002 C 
BRANCH  39  40
ATOM     40  C   UNL     1       3.891   5.457   2.372  1.00  0.00     0.021 C 
BRANCH  40  41
ATOM     41  C   UNL     1       4.095   6.126   3.711  1.00  0.00     0.116 C 
BRANCH  41  42
ATOM     42  N   UNL     1       5.514   6.306   4.025  1.00  0.00    -0.352 N 
ATOM     43  C   UNL     1       6.050   6.787   5.206  1.00  0.00     0.251 C 
ATOM     44  H   UNL     1       6.155   6.057   3.320  1.00  0.00     0.163 HD
ATOM     45  O   UNL     1       7.145   7.332   5.240  1.00  0.00    -0.269 OA
BRANCH  43  46
ATOM     46  C   UNL     1       5.286   6.544   6.441  1.00  0.00     0.039 A 
ATOM     47  C   UNL     1       5.099   7.493   7.445  1.00  0.00     0.014 A 
ATOM     48  C   UNL     1       4.653   5.312   6.506  1.00  0.00     0.014 A 
ATOM     49  C   UNL     1       4.282   7.151   8.527  1.00  0.00     0.010 A 
ATOM     50  C   UNL     1       3.584   5.186   7.338  1.00  0.00     0.010 A 
ATOM     51  C   UNL     1       3.538   5.957   8.476  1.00  0.00    -0.014 A 
BRANCH  51  52
ATOM     52  C   UNL     1       2.473   5.607   9.410  1.00  0.00     0.031 A 
ATOM     53  C   UNL     1       1.461   6.689   9.434  1.00  0.00     0.074 A 
ATOM     54  C   UNL     1       2.341   4.388  10.003  1.00  0.00     0.049 A 
ATOM     55  N   UNL     1       1.400   7.632  10.312  1.00  0.00    -0.248 NA
ATOM     56  C   UNL     1       0.646   6.960   8.233  1.00  0.00     0.031 C 
ATOM     57  C   UNL     1       3.177   3.188   9.848  1.00  0.00     0.029 A 
ATOM     58  N   UNL     1       1.377   3.943  10.878  1.00  0.00    -0.354 N 
ATOM     59  C   UNL     1       0.301   8.396   9.950  1.00  0.00     0.074 A 
ATOM     60  C   UNL     1       0.082   8.129   8.557  1.00  0.00     0.031 C 
ATOM     61  C   UNL     1       2.570   2.111  10.409  1.00  0.00     0.029 A 
ATOM     62  C   UNL     1       1.371   2.546  11.098  1.00  0.00     0.049 A 
ATOM     63  H   UNL     1       0.740   4.550  11.319  1.00  0.00     0.167 HD
ATOM     64  C   UNL     1      -0.535   8.843  10.927  1.00  0.00     0.037 A 
ATOM     65  C   UNL     1       0.460   1.833  11.830  1.00  0.00     0.037 A 
ATOM     66  C   UNL     1       0.115   8.725  12.217  1.00  0.00     0.049 A 
ATOM     67  C   UNL     1      -0.195   2.797  12.751  1.00  0.00     0.074 A 
ATOM     68  C   UNL     1       1.277   9.216  12.780  1.00  0.00     0.029 A 
ATOM     69  N   UNL     1      -0.230   7.618  12.952  1.00  0.00    -0.354 N 
ATOM     70  N   UNL     1       0.443   3.388  13.723  1.00  0.00    -0.248 NA
ATOM     71  C   UNL     1      -1.353   3.501  12.225  1.00  0.00     0.031 C 
ATOM     72  C   UNL     1       1.807   8.133  13.545  1.00  0.00     0.029 A 
ATOM     73  C   UNL     1       0.888   7.085  13.530  1.00  0.00     0.049 A 
ATOM     74  H   UNL     1      -1.143   7.263  13.048  1.00  0.00     0.167 HD
ATOM     75  C   UNL     1       0.097   4.722  13.585  1.00  0.00     0.074 A 
ATOM     76  C   UNL     1      -1.042   4.726  12.659  1.00  0.00     0.031 C 
ATOM     77  C   UNL     1       0.967   5.708  13.956  1.00  0.00     0.037 A 
BRANCH  64  78
ATOM     78  C   UNL     1      -2.047   8.861  10.812  1.00  0.00     0.057 A 
ATOM     79  C   UNL     1      -2.788   9.351  11.905  1.00  0.00     0.134 A 
ATOM     80  C   UNL     1      -2.803   8.146   9.859  1.00  0.00     0.134 A 
ATOM     81  F   UNL     1      -2.188  10.041  12.887  1.00  0.00    -0.206 F 
ATOM     82  C   UNL     1      -4.146   9.065  12.085  1.00  0.00     0.040 A 
ATOM     83  C   UNL     1      -4.170   7.894  10.007  1.00  0.00     0.040 A 
ATOM     84  F   UNL     1      -2.263   7.564   8.785  1.00  0.00    -0.206 F 
ATOM     85  C   UNL     1      -4.840   8.324  11.138  1.00  0.00     0.006 A 
ENDBRANCH  64  78
BRANCH  65  86
ATOM     86  C   UNL     1      -0.160   0.495  11.587  1.00  0.00     0.057 A 
ATOM     87  C   UNL     1      -0.995  -0.130  12.539  1.00  0.00     0.134 A 
ATOM     88  C   UNL     1      -0.223  -0.044  10.293  1.00  0.00     0.134 A 
ATOM     89  F   UNL     1      -1.052   0.326  13.800  1.00  0.00    -0.206 F 
ATOM     90  C   UNL     1      -1.859  -1.191  12.213  1.00  0.00     0.040 A 
ATOM     91  C   UNL     1      -1.084  -1.099   9.953  1.00  0.00     0.040 A 
ATOM     92  F   UNL     1       0.479   0.501   9.290  1.00  0.00    -0.206 F 
ATOM     93  C   UNL     1      -1.918  -1.667  10.908  1.00  0.00     0.006 A 
ENDBRANCH  65  86
BRANCH  77  94
ATOM     94  C   UNL     1       2.181   5.314  14.755  1.00  0.00     0.057 A 
ATOM     95  C   UNL     1       3.244   4.527  14.281  1.00  0.00     0.134 A 
ATOM     96  C   UNL     1       2.338   5.889  16.019  1.00  0.00     0.134 A 
ATOM     97  F   UNL     1       3.229   4.010  13.046  1.00  0.00    -0.206 F 
ATOM     98  C   UNL     1       4.390   4.295  15.053  1.00  0.00     0.040 A 
ATOM     99  C   UNL     1       3.487   5.692  16.785  1.00  0.00     0.040 A 
ATOM    100  F   UNL     1       1.388   6.699  16.511  1.00  0.00    -0.206 F 
ATOM    101  C   UNL     1       4.513   4.883  16.309  1.00  0.00     0.006 A 
ENDBRANCH  77  94
ENDBRANCH  51  52
ENDBRANCH  43  46
ENDBRANCH  41  42
ENDBRANCH  40  41
ENDBRANCH  39  40
ENDBRANCH  38  39
ENDBRANCH  37  38
ENDBRANCH   1  37
TORSDOF 19
