REMARK SMILES CCCCSc1ccccc1C(=O)NCCCCCCNC(=O)c1ccc(-c2c3nc(c(-c4c(F)cccc4F)c4ccc([nH]4)c(-c4c(F)cccc4F)c4nc(c(-c5c(F)cccc5F)c5ccc2[nH]5)C=C4)C=C3)cc1
REMARK SMILES IDX 16 1 15 2 14 3 12 4 13 5 11 7 6 8 7 9 8 10 10 11 9 12 5 13
REMARK SMILES IDX 4 14 3 15 2 16 1 17 17 18 18 19 19 20 20 21 21 22 22 23
REMARK SMILES IDX 23 25 24 26 25 27 77 28 26 29 76 30 27 31 28 32 29 33 70 34
REMARK SMILES IDX 30 35 75 36 69 37 71 38 31 39 74 40 68 41 67 42 32 44 58 45
REMARK SMILES IDX 41 46 57 47 42 48 45 49 56 50 72 51 43 52 44 53 55 55 73 56
REMARK SMILES IDX 46 57 33 58 34 59 39 60 35 61 36 62 38 63 40 64 37 65 59 66
REMARK SMILES IDX 60 67 65 68 61 69 62 70 64 71 66 72 63 73 47 74 48 75 53 76
REMARK SMILES IDX 49 77 50 78 52 79 54 80 51 81
REMARK H PARENT 14 6 21 24 71 43 45 54
REMARK Flexibility Score: inf
ROOT
ATOM      1  C   UNL     1      -0.713   0.359  -4.687  1.00  0.00     0.021 C 
ENDROOT
BRANCH   1   2
ATOM      2  C   UNL     1      -1.956  -0.262  -4.034  1.00  0.00     0.116 C 
BRANCH   2   3
ATOM      3  N   UNL     1      -1.525  -1.370  -3.210  1.00  0.00    -0.352 N 
ATOM      4  C   UNL     1      -1.268  -1.498  -1.874  1.00  0.00     0.252 C 
ATOM      5  O   UNL     1      -0.614  -2.491  -1.542  1.00  0.00    -0.269 OA
ATOM      6  H   UNL     1      -1.388  -2.204  -3.716  1.00  0.00     0.163 HD
BRANCH   4   7
ATOM      7  C   UNL     1      -1.826  -0.640  -0.788  1.00  0.00     0.053 A 
ATOM      8  C   UNL     1      -1.821   0.758  -0.645  1.00  0.00     0.020 A 
ATOM      9  C   UNL     1      -2.407   1.320   0.515  1.00  0.00     0.016 A 
ATOM     10  C   UNL     1      -2.895   0.531   1.557  1.00  0.00     0.001 A 
ATOM     11  C   UNL     1      -2.329  -1.419   0.285  1.00  0.00     0.015 A 
ATOM     12  C   UNL     1      -2.840  -0.846   1.449  1.00  0.00     0.001 A 
BRANCH   8  13
ATOM     13  S   UNL     1      -1.110   2.006  -1.710  1.00  0.00    -0.125 SA
BRANCH  13  14
ATOM     14  C   UNL     1       0.655   1.554  -1.740  1.00  0.00     0.075 C 
BRANCH  14  15
ATOM     15  C   UNL     1       1.464   2.112  -0.570  1.00  0.00     0.011 C 
BRANCH  15  16
ATOM     16  C   UNL     1       1.287   1.403   0.773  1.00  0.00    -0.003 C 
ATOM     17  C   UNL     1       1.628  -0.078   0.733  1.00  0.00     0.004 C 
ENDBRANCH  15  16
ENDBRANCH  14  15
ENDBRANCH  13  14
ENDBRANCH   8  13
ENDBRANCH   4   7
ENDBRANCH   2   3
ENDBRANCH   1   2
BRANCH   1  18
ATOM     18  C   UNL     1      -0.461  -0.110  -6.121  1.00  0.00     0.002 C 
BRANCH  18  19
ATOM     19  C   UNL     1      -1.405   0.507  -7.157  1.00  0.00     0.002 C 
BRANCH  19  20
ATOM     20  C   UNL     1      -1.459   2.039  -7.161  1.00  0.00     0.021 C 
BRANCH  20  21
ATOM     21  C   UNL     1      -0.102   2.733  -7.271  1.00  0.00     0.116 C 
BRANCH  21  22
ATOM     22  N   UNL     1       0.571   2.411  -8.519  1.00  0.00    -0.352 N 
ATOM     23  C   UNL     1       0.863   3.219  -9.584  1.00  0.00     0.251 C 
ATOM     24  H   UNL     1       0.859   1.474  -8.611  1.00  0.00     0.163 HD
ATOM     25  O   UNL     1       1.218   2.723 -10.657  1.00  0.00    -0.269 OA
BRANCH  23  26
ATOM     26  C   UNL     1       0.749   4.686  -9.462  1.00  0.00     0.039 A 
ATOM     27  C   UNL     1       0.139   5.406 -10.491  1.00  0.00     0.014 A 
ATOM     28  C   UNL     1       1.275   5.354  -8.352  1.00  0.00     0.014 A 
ATOM     29  C   UNL     1       0.009   6.792 -10.384  1.00  0.00     0.010 A 
ATOM     30  C   UNL     1       1.087   6.728  -8.216  1.00  0.00     0.010 A 
ATOM     31  C   UNL     1       0.459   7.461  -9.234  1.00  0.00    -0.014 A 
BRANCH  31  32
ATOM     32  C   UNL     1       0.282   8.927  -9.084  1.00  0.00     0.031 A 
ATOM     33  C   UNL     1       1.478   9.836  -9.038  1.00  0.00     0.074 A 
ATOM     34  C   UNL     1      -0.957   9.434  -8.933  1.00  0.00     0.049 A 
ATOM     35  N   UNL     1       1.525  11.133  -8.868  1.00  0.00    -0.248 NA
ATOM     36  C   UNL     1       2.799   9.200  -9.176  1.00  0.00     0.031 C 
ATOM     37  C   UNL     1      -2.194   8.651  -8.910  1.00  0.00     0.029 A 
ATOM     38  N   UNL     1      -1.379  10.728  -8.763  1.00  0.00    -0.354 N 
ATOM     39  C   UNL     1       2.874  11.466  -8.865  1.00  0.00     0.074 A 
ATOM     40  C   UNL     1       3.614  10.230  -9.001  1.00  0.00     0.031 C 
ATOM     41  C   UNL     1      -3.237   9.483  -8.758  1.00  0.00     0.029 A 
ATOM     42  C   UNL     1      -2.742  10.851  -8.642  1.00  0.00     0.049 A 
ATOM     43  H   UNL     1      -0.764  11.496  -8.731  1.00  0.00     0.167 HD
ATOM     44  C   UNL     1       3.443  12.692  -8.780  1.00  0.00     0.037 A 
ATOM     45  C   UNL     1      -3.506  11.944  -8.456  1.00  0.00     0.037 A 
ATOM     46  C   UNL     1       2.704  13.922  -8.673  1.00  0.00     0.049 A 
ATOM     47  C   UNL     1      -2.851  13.293  -8.371  1.00  0.00     0.074 A 
ATOM     48  C   UNL     1       3.186  15.219  -8.647  1.00  0.00     0.029 A 
ATOM     49  N   UNL     1       1.323  14.007  -8.573  1.00  0.00    -0.354 N 
ATOM     50  N   UNL     1      -1.578  13.600  -8.442  1.00  0.00    -0.248 NA
ATOM     51  C   UNL     1      -3.738  14.450  -8.186  1.00  0.00     0.031 C 
ATOM     52  C   UNL     1       2.100  16.087  -8.492  1.00  0.00     0.029 A 
ATOM     53  C   UNL     1       0.938  15.333  -8.464  1.00  0.00     0.049 A 
ATOM     54  H   UNL     1       0.708  13.238  -8.578  1.00  0.00     0.167 HD
ATOM     55  C   UNL     1      -1.514  14.983  -8.337  1.00  0.00     0.074 A 
ATOM     56  C   UNL     1      -2.876  15.457  -8.210  1.00  0.00     0.031 C 
ATOM     57  C   UNL     1      -0.423  15.788  -8.345  1.00  0.00     0.037 A 
BRANCH  44  58
ATOM     58  C   UNL     1       4.942  12.762  -8.807  1.00  0.00     0.057 A 
ATOM     59  C   UNL     1       5.671  12.502  -9.975  1.00  0.00     0.134 A 
ATOM     60  C   UNL     1       5.663  13.129  -7.664  1.00  0.00     0.134 A 
ATOM     61  F   UNL     1       5.042  12.135 -11.102  1.00  0.00    -0.206 F 
ATOM     62  C   UNL     1       7.065  12.578  -9.998  1.00  0.00     0.040 A 
ATOM     63  C   UNL     1       7.055  13.233  -7.681  1.00  0.00     0.040 A 
ATOM     64  F   UNL     1       5.027  13.398  -6.514  1.00  0.00    -0.206 F 
ATOM     65  C   UNL     1       7.760  12.951  -8.850  1.00  0.00     0.006 A 
ENDBRANCH  44  58
BRANCH  45  66
ATOM     66  C   UNL     1      -4.981  11.809  -8.367  1.00  0.00     0.057 A 
ATOM     67  C   UNL     1      -5.808  12.258  -9.404  1.00  0.00     0.134 A 
ATOM     68  C   UNL     1      -5.598  11.233  -7.252  1.00  0.00     0.134 A 
ATOM     69  F   UNL     1      -5.275  12.835 -10.490  1.00  0.00    -0.206 F 
ATOM     70  C   UNL     1      -7.197  12.154  -9.327  1.00  0.00     0.040 A 
ATOM     71  C   UNL     1      -6.986  11.101  -7.171  1.00  0.00     0.040 A 
ATOM     72  F   UNL     1      -4.860  10.777  -6.229  1.00  0.00    -0.206 F 
ATOM     73  C   UNL     1      -7.790  11.569  -8.210  1.00  0.00     0.006 A 
ENDBRANCH  45  66
BRANCH  57  74
ATOM     74  C   UNL     1      -0.661  17.265  -8.243  1.00  0.00     0.057 A 
ATOM     75  C   UNL     1      -1.046  17.869  -7.040  1.00  0.00     0.134 A 
ATOM     76  C   UNL     1      -0.464  18.097  -9.353  1.00  0.00     0.134 A 
ATOM     77  F   UNL     1      -1.265  17.125  -5.946  1.00  0.00    -0.206 F 
ATOM     78  C   UNL     1      -1.245  19.247  -6.949  1.00  0.00     0.040 A 
ATOM     79  C   UNL     1      -0.635  19.479  -9.268  1.00  0.00     0.040 A 
ATOM     80  F   UNL     1      -0.087  17.581 -10.533  1.00  0.00    -0.206 F 
ATOM     81  C   UNL     1      -1.032  20.057  -8.063  1.00  0.00     0.006 A 
ENDBRANCH  57  74
ENDBRANCH  31  32
ENDBRANCH  23  26
ENDBRANCH  21  22
ENDBRANCH  20  21
ENDBRANCH  19  20
ENDBRANCH  18  19
ENDBRANCH   1  18
TORSDOF 17
