REMARK SMILES Cc1ccccc1OC1(C(=O)NCCCCCCNC(=O)c2ccc(-c3c4nc(c(-c5c(F)cccc5F)c5ccc([nH]5)c(-c5c(F)cccc5F)c5nc(c(-c6c(F)cccc6F)c6ccc3[nH]6)C=C5)C=C4)cc2)CCN(C(=O)[C@H]2CCCCO2)CC1
REMARK SMILES IDX 15 1 14 2 13 3 12 4 10 5 11 6 9 8 76 9 88 10 77 11 87 12
REMARK SMILES IDX 78 13 79 14 80 15 8 16 7 17 1 18 2 19 3 20 4 21 6 22 5 23
REMARK SMILES IDX 81 24 82 25 86 26 83 27 85 28 84 29 16 30 17 31 18 32 19 33
REMARK SMILES IDX 20 34 21 36 22 37 23 38 75 39 24 40 74 41 25 42 26 43 27 44
REMARK SMILES IDX 68 45 28 46 73 47 67 48 69 49 29 50 72 51 66 52 65 53 30 55
REMARK SMILES IDX 56 56 39 57 55 58 40 59 43 60 54 61 70 62 41 63 42 64 53 66
REMARK SMILES IDX 71 67 44 68 31 69 32 70 37 71 33 72 34 73 36 74 38 75 35 76
REMARK SMILES IDX 57 77 58 78 63 79 59 80 60 81 62 82 64 83 61 84 45 85 46 86
REMARK SMILES IDX 51 87 47 88 48 89 50 90 52 91 49 92
REMARK H PARENT 12 7 19 35 69 54 43 65
REMARK Flexibility Score: inf
ROOT
ATOM      1  C   UNL     1       9.884  -4.164  -4.362  1.00  0.00     0.002 C 
ENDROOT
BRANCH   1   2
ATOM      2  C   UNL     1       9.033  -4.273  -3.089  1.00  0.00     0.021 C 
BRANCH   2   3
ATOM      3  C   UNL     1       7.519  -4.315  -3.313  1.00  0.00     0.116 C 
BRANCH   3   4
ATOM      4  N   UNL     1       7.015  -5.651  -3.533  1.00  0.00    -0.353 N 
ATOM      5  C   UNL     1       6.094  -6.411  -2.865  1.00  0.00     0.264 C 
ATOM      6  O   UNL     1       5.792  -7.463  -3.444  1.00  0.00    -0.270 OA
ATOM      7  H   UNL     1       7.409  -6.101  -4.314  1.00  0.00     0.163 HD
BRANCH   5   8
ATOM      8  C   UNL     1       5.462  -5.998  -1.471  1.00  0.00     0.190 C 
ATOM      9  C   UNL     1       6.590  -5.956  -0.444  1.00  0.00     0.080 C 
ATOM     10  C   UNL     1       4.595  -4.755  -1.692  1.00  0.00     0.080 C 
ATOM     11  C   UNL     1       6.993  -4.580   0.059  1.00  0.00     0.124 C 
ATOM     12  C   UNL     1       4.947  -3.486  -0.921  1.00  0.00     0.124 C 
ATOM     13  N   UNL     1       5.916  -3.598   0.162  1.00  0.00    -0.340 N 
ATOM     14  C   UNL     1       6.034  -2.645   1.187  1.00  0.00     0.251 C 
ATOM     15  O   UNL     1       6.998  -2.674   1.958  1.00  0.00    -0.272 OA
BRANCH   8  16
ATOM     16  O   UNL     1       4.622  -7.161  -1.218  1.00  0.00    -0.477 OA
BRANCH  16  17
ATOM     17  C   UNL     1       3.679  -7.462  -0.286  1.00  0.00     0.123 A 
ATOM     18  C   UNL     1       4.069  -5.824   1.688  1.00  0.00     0.048 C 
ATOM     19  C   UNL     1       3.374  -6.928   0.974  1.00  0.00    -0.009 A 
ATOM     20  C   UNL     1       2.344  -7.518   1.751  1.00  0.00     0.007 A 
ATOM     21  C   UNL     1       1.616  -8.611   1.304  1.00  0.00     0.001 A 
ATOM     22  C   UNL     1       2.924  -8.574  -0.713  1.00  0.00     0.047 A 
ATOM     23  C   UNL     1       1.908  -9.143   0.062  1.00  0.00     0.004 A 
ENDBRANCH  16  17
ENDBRANCH   8  16
BRANCH  14  24
ATOM     24  C   UNL     1       4.919  -1.575   1.355  1.00  0.00     0.207 C 
ATOM     25  C   UNL     1       3.735  -2.193   2.114  1.00  0.00     0.042 C 
ATOM     26  O   UNL     1       5.468  -0.466   2.079  1.00  0.00    -0.368 OA
ATOM     27  C   UNL     1       2.723  -1.151   2.573  1.00  0.00     0.006 C 
ATOM     28  C   UNL     1       4.523   0.549   2.391  1.00  0.00     0.161 C 
ATOM     29  C   UNL     1       3.425  -0.005   3.283  1.00  0.00     0.029 C 
ENDBRANCH  14  24
ENDBRANCH   5   8
ENDBRANCH   3   4
ENDBRANCH   2   3
ENDBRANCH   1   2
BRANCH   1  30
ATOM     30  C   UNL     1       9.536  -3.022  -5.335  1.00  0.00     0.002 C 
BRANCH  30  31
ATOM     31  C   UNL     1       9.294  -1.644  -4.714  1.00  0.00     0.021 C 
BRANCH  31  32
ATOM     32  C   UNL     1      10.540  -0.981  -4.144  1.00  0.00     0.116 C 
BRANCH  32  33
ATOM     33  N   UNL     1      11.230  -0.100  -5.080  1.00  0.00    -0.352 N 
ATOM     34  C   UNL     1      12.449   0.547  -4.944  1.00  0.00     0.251 C 
ATOM     35  H   UNL     1      10.762   0.058  -5.931  1.00  0.00     0.163 HD
ATOM     36  O   UNL     1      12.864   1.268  -5.833  1.00  0.00    -0.269 OA
BRANCH  34  37
ATOM     37  C   UNL     1      13.306   0.243  -3.768  1.00  0.00     0.039 A 
ATOM     38  C   UNL     1      14.656  -0.040  -4.003  1.00  0.00     0.014 A 
ATOM     39  C   UNL     1      12.756   0.031  -2.508  1.00  0.00     0.014 A 
ATOM     40  C   UNL     1      15.370  -0.783  -3.065  1.00  0.00     0.010 A 
ATOM     41  C   UNL     1      13.426  -0.785  -1.619  1.00  0.00     0.010 A 
ATOM     42  C   UNL     1      14.704  -1.254  -1.935  1.00  0.00    -0.014 A 
BRANCH  42  43
ATOM     43  C   UNL     1      15.223  -2.317  -1.083  1.00  0.00     0.031 A 
ATOM     44  C   UNL     1      15.816  -2.001   0.230  1.00  0.00     0.074 A 
ATOM     45  C   UNL     1      15.079  -3.602  -1.478  1.00  0.00     0.049 A 
ATOM     46  N   UNL     1      16.589  -2.791   0.893  1.00  0.00    -0.248 NA
ATOM     47  C   UNL     1      15.599  -0.719   0.887  1.00  0.00     0.031 C 
ATOM     48  C   UNL     1      15.300  -4.811  -0.691  1.00  0.00     0.029 A 
ATOM     49  N   UNL     1      14.916  -4.067  -2.790  1.00  0.00    -0.354 N 
ATOM     50  C   UNL     1      16.796  -2.240   2.137  1.00  0.00     0.074 A 
ATOM     51  C   UNL     1      16.177  -0.936   2.073  1.00  0.00     0.031 C 
ATOM     52  C   UNL     1      15.571  -5.824  -1.529  1.00  0.00     0.029 A 
ATOM     53  C   UNL     1      15.668  -5.263  -2.866  1.00  0.00     0.049 A 
ATOM     54  H   UNL     1      14.389  -3.650  -3.509  1.00  0.00     0.167 HD
ATOM     55  C   UNL     1      17.389  -2.991   3.110  1.00  0.00     0.037 A 
ATOM     56  C   UNL     1      16.767  -5.332  -3.673  1.00  0.00     0.037 A 
ATOM     57  C   UNL     1      17.838  -4.279   2.587  1.00  0.00     0.049 A 
ATOM     58  C   UNL     1      18.074  -5.542  -2.937  1.00  0.00     0.074 A 
ATOM     59  C   UNL     1      17.283  -5.548   2.537  1.00  0.00     0.029 A 
ATOM     60  N   UNL     1      18.910  -4.295   1.714  1.00  0.00    -0.354 N 
ATOM     61  N   UNL     1      18.193  -5.574  -1.638  1.00  0.00    -0.248 NA
ATOM     62  C   UNL     1      19.369  -5.643  -3.616  1.00  0.00     0.031 C 
ATOM     63  C   UNL     1      17.998  -6.303   1.561  1.00  0.00     0.029 A 
ATOM     64  C   UNL     1      18.991  -5.496   1.037  1.00  0.00     0.049 A 
ATOM     65  H   UNL     1      19.535  -3.545   1.591  1.00  0.00     0.167 HD
ATOM     66  C   UNL     1      19.517  -5.652  -1.308  1.00  0.00     0.074 A 
ATOM     67  C   UNL     1      20.218  -5.700  -2.576  1.00  0.00     0.031 C 
ATOM     68  C   UNL     1      19.970  -5.636  -0.024  1.00  0.00     0.037 A 
BRANCH  55  69
ATOM     69  C   UNL     1      17.380  -2.642   4.578  1.00  0.00     0.057 A 
ATOM     70  C   UNL     1      17.392  -3.657   5.555  1.00  0.00     0.134 A 
ATOM     71  C   UNL     1      17.319  -1.338   5.099  1.00  0.00     0.134 A 
ATOM     72  F   UNL     1      17.543  -4.947   5.227  1.00  0.00    -0.206 F 
ATOM     73  C   UNL     1      17.243  -3.400   6.925  1.00  0.00     0.040 A 
ATOM     74  C   UNL     1      17.108  -1.068   6.460  1.00  0.00     0.040 A 
ATOM     75  F   UNL     1      17.523  -0.264   4.328  1.00  0.00    -0.206 F 
ATOM     76  C   UNL     1      17.058  -2.103   7.379  1.00  0.00     0.006 A 
ENDBRANCH  55  69
BRANCH  56  77
ATOM     77  C   UNL     1      16.605  -4.542  -4.924  1.00  0.00     0.057 A 
ATOM     78  C   UNL     1      15.559  -4.885  -5.801  1.00  0.00     0.134 A 
ATOM     79  C   UNL     1      17.175  -3.277  -5.077  1.00  0.00     0.134 A 
ATOM     80  F   UNL     1      14.971  -6.089  -5.713  1.00  0.00    -0.206 F 
ATOM     81  C   UNL     1      15.012  -3.961  -6.693  1.00  0.00     0.040 A 
ATOM     82  C   UNL     1      16.651  -2.351  -5.986  1.00  0.00     0.040 A 
ATOM     83  F   UNL     1      18.168  -2.871  -4.272  1.00  0.00    -0.206 F 
ATOM     84  C   UNL     1      15.538  -2.675  -6.761  1.00  0.00     0.006 A 
ENDBRANCH  56  77
BRANCH  68  85
ATOM     85  C   UNL     1      21.418  -5.766   0.304  1.00  0.00     0.057 A 
ATOM     86  C   UNL     1      22.177  -6.851  -0.153  1.00  0.00     0.134 A 
ATOM     87  C   UNL     1      22.058  -4.878   1.184  1.00  0.00     0.134 A 
ATOM     88  F   UNL     1      21.639  -7.765  -0.976  1.00  0.00    -0.206 F 
ATOM     89  C   UNL     1      23.507  -7.036   0.233  1.00  0.00     0.040 A 
ATOM     90  C   UNL     1      23.374  -5.072   1.606  1.00  0.00     0.040 A 
ATOM     91  F   UNL     1      21.429  -3.787   1.649  1.00  0.00    -0.206 F 
ATOM     92  C   UNL     1      24.105  -6.152   1.126  1.00  0.00     0.006 A 
ENDBRANCH  68  85
ENDBRANCH  42  43
ENDBRANCH  34  37
ENDBRANCH  32  33
ENDBRANCH  31  32
ENDBRANCH  30  31
ENDBRANCH   1  30
TORSDOF 16
