REMARK SMILES COc1cc(OC)c(CCC(=O)NCCCCCCNC(=O)c2ccc(-c3c4nc(c(-c5c(F)cccc5F)c5ccc([nH]5)c(-c5c(F)cccc5F)c5nc(c(-c6c(F)cccc6F)c6ccc3[nH]6)C=C5)C=C4)cc2)c(OC)c1
REMARK SMILES IDX 16 1 15 2 14 3 13 4 11 5 12 6 10 8 9 9 8 10 3 11 4 12 80 13
REMARK SMILES IDX 5 14 77 15 2 16 1 17 6 18 7 19 78 20 79 21 17 22 18 23 19 24
REMARK SMILES IDX 20 25 21 26 22 28 23 29 24 30 76 31 25 32 75 33 26 34 27 35
REMARK SMILES IDX 28 36 69 37 29 38 74 39 68 40 70 41 30 42 73 43 67 44 66 45
REMARK SMILES IDX 31 47 57 48 40 49 56 50 41 51 44 52 55 53 71 54 42 55 43 56
REMARK SMILES IDX 54 58 72 59 45 60 32 61 33 62 38 63 34 64 35 65 37 66 39 67
REMARK SMILES IDX 36 68 58 69 59 70 64 71 60 72 61 73 63 74 65 75 62 76 46 77
REMARK SMILES IDX 47 78 52 79 48 80 49 81 51 82 53 83 50 84
REMARK H PARENT 13 7 20 27 70 46 44 57
REMARK Flexibility Score: inf
ROOT
ATOM      1  C   UNL     1      -1.856  -1.584  -4.348  1.00  0.00     0.002 C 
ENDROOT
BRANCH   1   2
ATOM      2  C   UNL     1      -0.489  -0.916  -4.506  1.00  0.00     0.021 C 
BRANCH   2   3
ATOM      3  C   UNL     1       0.432  -1.515  -5.570  1.00  0.00     0.116 C 
BRANCH   3   4
ATOM      4  N   UNL     1       0.267  -0.838  -6.846  1.00  0.00    -0.356 N 
ATOM      5  C   UNL     1       1.052   0.094  -7.461  1.00  0.00     0.220 C 
ATOM      6  O   UNL     1       0.611   0.640  -8.475  1.00  0.00    -0.275 OA
ATOM      7  H   UNL     1      -0.541  -1.092  -7.347  1.00  0.00     0.163 HD
BRANCH   5   8
ATOM      8  C   UNL     1       2.429   0.446  -6.932  1.00  0.00     0.105 C 
BRANCH   8   9
ATOM      9  C   UNL     1       2.482   1.786  -6.179  1.00  0.00     0.053 C 
BRANCH   9  10
ATOM     10  C   UNL     1       2.074   1.682  -4.725  1.00  0.00     0.037 A 
ATOM     11  C   UNL     1       1.220   1.216  -2.072  1.00  0.00     0.126 A 
ATOM     12  C   UNL     1       0.507   2.083  -2.902  1.00  0.00     0.093 A 
ATOM     13  C   UNL     1       2.398   0.638  -2.537  1.00  0.00     0.093 A 
ATOM     14  C   UNL     1       0.932   2.320  -4.216  1.00  0.00     0.129 A 
ATOM     15  C   UNL     1       2.847   0.916  -3.832  1.00  0.00     0.129 A 
BRANCH  11  16
ATOM     16  O   UNL     1       0.637   0.897  -0.877  1.00  0.00    -0.496 OA
ATOM     17  C   UNL     1       1.507   0.831   0.249  1.00  0.00     0.278 C 
ENDBRANCH  11  16
BRANCH  14  18
ATOM     18  O   UNL     1       0.287   3.303  -4.919  1.00  0.00    -0.496 OA
ATOM     19  C   UNL     1      -0.679   2.813  -5.845  1.00  0.00     0.278 C 
ENDBRANCH  14  18
BRANCH  15  20
ATOM     20  O   UNL     1       4.034   0.396  -4.290  1.00  0.00    -0.496 OA
ATOM     21  C   UNL     1       5.131   0.661  -3.413  1.00  0.00     0.278 C 
ENDBRANCH  15  20
ENDBRANCH   9  10
ENDBRANCH   8   9
ENDBRANCH   5   8
ENDBRANCH   3   4
ENDBRANCH   2   3
ENDBRANCH   1   2
BRANCH   1  22
ATOM     22  C   UNL     1      -1.846  -2.944  -3.642  1.00  0.00     0.002 C 
BRANCH  22  23
ATOM     23  C   UNL     1      -1.075  -3.014  -2.317  1.00  0.00     0.021 C 
BRANCH  23  24
ATOM     24  C   UNL     1      -1.475  -1.982  -1.262  1.00  0.00     0.116 C 
BRANCH  24  25
ATOM     25  N   UNL     1      -2.798  -2.233  -0.713  1.00  0.00    -0.352 N 
ATOM     26  C   UNL     1      -3.180  -2.719   0.510  1.00  0.00     0.251 C 
ATOM     27  H   UNL     1      -3.542  -2.019  -1.321  1.00  0.00     0.163 HD
ATOM     28  O   UNL     1      -4.361  -3.025   0.700  1.00  0.00    -0.269 OA
BRANCH  26  29
ATOM     29  C   UNL     1      -2.205  -2.909   1.607  1.00  0.00     0.039 A 
ATOM     30  C   UNL     1      -2.280  -4.077   2.374  1.00  0.00     0.014 A 
ATOM     31  C   UNL     1      -1.262  -1.930   1.934  1.00  0.00     0.014 A 
ATOM     32  C   UNL     1      -1.377  -4.291   3.420  1.00  0.00     0.010 A 
ATOM     33  C   UNL     1      -0.320  -2.171   2.937  1.00  0.00     0.010 A 
ATOM     34  C   UNL     1      -0.367  -3.354   3.691  1.00  0.00    -0.014 A 
BRANCH  34  35
ATOM     35  C   UNL     1       0.644  -3.607   4.753  1.00  0.00     0.031 A 
ATOM     36  C   UNL     1       0.699  -2.748   5.985  1.00  0.00     0.074 A 
ATOM     37  C   UNL     1       1.546  -4.595   4.591  1.00  0.00     0.049 A 
ATOM     38  N   UNL     1       1.525  -2.809   7.001  1.00  0.00    -0.248 NA
ATOM     39  C   UNL     1      -0.290  -1.664   6.080  1.00  0.00     0.031 C 
ATOM     40  C   UNL     1       1.627  -5.485   3.433  1.00  0.00     0.029 A 
ATOM     41  N   UNL     1       2.567  -5.017   5.407  1.00  0.00    -0.354 N 
ATOM     42  C   UNL     1       1.161  -1.771   7.849  1.00  0.00     0.074 A 
ATOM     43  C   UNL     1       0.074  -1.065   7.204  1.00  0.00     0.031 C 
ATOM     44  C   UNL     1       2.617  -6.370   3.628  1.00  0.00     0.029 A 
ATOM     45  C   UNL     1       3.262  -6.090   4.907  1.00  0.00     0.049 A 
ATOM     46  H   UNL     1       2.780  -4.590   6.268  1.00  0.00     0.167 HD
ATOM     47  C   UNL     1       1.669  -1.446   9.063  1.00  0.00     0.037 A 
ATOM     48  C   UNL     1       4.300  -6.776   5.421  1.00  0.00     0.037 A 
ATOM     49  C   UNL     1       2.737  -2.157   9.719  1.00  0.00     0.049 A 
ATOM     50  C   UNL     1       4.864  -6.382   6.756  1.00  0.00     0.074 A 
ATOM     51  C   UNL     1       3.280  -1.935  10.973  1.00  0.00     0.029 A 
ATOM     52  N   UNL     1       3.429  -3.226   9.170  1.00  0.00    -0.354 N 
ATOM     53  N   UNL     1       4.475  -5.432   7.571  1.00  0.00    -0.248 NA
ATOM     54  C   UNL     1       6.015  -7.157   7.242  1.00  0.00     0.031 C 
ATOM     55  C   UNL     1       4.326  -2.845  11.167  1.00  0.00     0.029 A 
ATOM     56  C   UNL     1       4.409  -3.659  10.049  1.00  0.00     0.049 A 
ATOM     57  H   UNL     1       3.250  -3.619   8.285  1.00  0.00     0.167 HD
ATOM     58  C   UNL     1       5.310  -5.514   8.677  1.00  0.00     0.074 A 
ATOM     59  C   UNL     1       6.225  -6.610   8.432  1.00  0.00     0.031 C 
ATOM     60  C   UNL     1       5.314  -4.750   9.797  1.00  0.00     0.037 A 
BRANCH  47  61
ATOM     61  C   UNL     1       1.068  -0.261   9.761  1.00  0.00     0.057 A 
ATOM     62  C   UNL     1      -0.226  -0.299  10.299  1.00  0.00     0.134 A 
ATOM     63  C   UNL     1       1.792   0.929   9.905  1.00  0.00     0.134 A 
ATOM     64  F   UNL     1      -0.976  -1.406  10.186  1.00  0.00    -0.206 F 
ATOM     65  C   UNL     1      -0.791   0.814  10.923  1.00  0.00     0.040 A 
ATOM     66  C   UNL     1       1.247   2.041  10.550  1.00  0.00     0.040 A 
ATOM     67  F   UNL     1       3.038   1.032   9.420  1.00  0.00    -0.206 F 
ATOM     68  C   UNL     1      -0.052   1.988  11.053  1.00  0.00     0.006 A 
ENDBRANCH  47  61
BRANCH  48  69
ATOM     69  C   UNL     1       4.848  -7.943   4.687  1.00  0.00     0.057 A 
ATOM     70  C   UNL     1       4.617  -9.246   5.144  1.00  0.00     0.134 A 
ATOM     71  C   UNL     1       5.604  -7.790   3.520  1.00  0.00     0.134 A 
ATOM     72  F   UNL     1       3.916  -9.452   6.268  1.00  0.00    -0.206 F 
ATOM     73  C   UNL     1       5.125 -10.357   4.470  1.00  0.00     0.040 A 
ATOM     74  C   UNL     1       6.102  -8.893   2.825  1.00  0.00     0.040 A 
ATOM     75  F   UNL     1       5.856  -6.566   3.032  1.00  0.00    -0.206 F 
ATOM     76  C   UNL     1       5.865 -10.181   3.302  1.00  0.00     0.006 A 
ENDBRANCH  48  69
BRANCH  60  77
ATOM     77  C   UNL     1       6.322  -5.093  10.855  1.00  0.00     0.057 A 
ATOM     78  C   UNL     1       7.682  -4.801  10.702  1.00  0.00     0.134 A 
ATOM     79  C   UNL     1       5.920  -5.702  12.051  1.00  0.00     0.134 A 
ATOM     80  F   UNL     1       8.133  -4.233   9.573  1.00  0.00    -0.206 F 
ATOM     81  C   UNL     1       8.612  -5.120  11.694  1.00  0.00     0.040 A 
ATOM     82  C   UNL     1       6.837  -6.005  13.059  1.00  0.00     0.040 A 
ATOM     83  F   UNL     1       4.631  -6.004  12.263  1.00  0.00    -0.206 F 
ATOM     84  C   UNL     1       8.189  -5.719  12.879  1.00  0.00     0.006 A 
ENDBRANCH  60  77
ENDBRANCH  34  35
ENDBRANCH  26  29
ENDBRANCH  24  25
ENDBRANCH  23  24
ENDBRANCH  22  23
ENDBRANCH   1  22
TORSDOF 18
