REMARK SMILES Cc1cccc2c1[C@H]1c3c(C)cccc3[C@H](CC(=O)NCCCCCCNC(=O)c3ccc(-c4c5nc(c(-c6c(F)cccc6F)c6ccc([nH]6)c(-c6c(F)cccc6F)c6nc(c(-c7c(F)cccc7F)c7ccc4[nH]7)C=C6)C=C5)cc3)C[C@H]1CC2
REMARK SMILES IDX 24 1 23 2 22 3 21 4 20 5 18 6 19 7 17 9 16 10 1 11 2 12 3 13
REMARK SMILES IDX 7 14 4 15 6 16 8 17 5 18 87 19 9 20 85 21 86 22 10 23 15 24
REMARK SMILES IDX 84 25 12 26 11 27 14 28 13 29 25 30 26 31 27 32 28 33 29 35
REMARK SMILES IDX 30 36 31 37 83 38 32 39 82 40 33 41 34 42 35 43 76 44 36 45
REMARK SMILES IDX 81 46 75 47 77 48 37 49 80 50 74 51 73 52 38 54 64 55 47 56
REMARK SMILES IDX 63 57 48 58 51 59 62 60 78 61 49 62 50 63 61 65 79 66 52 67
REMARK SMILES IDX 39 68 40 69 45 70 41 71 42 72 44 73 46 74 43 75 65 76 66 77
REMARK SMILES IDX 71 78 67 79 68 80 70 81 72 82 69 83 53 84 54 85 59 86 55 87
REMARK SMILES IDX 56 88 58 89 60 90 57 91
REMARK H PARENT 20 8 27 34 77 53 51 64
REMARK Flexibility Score: inf
ROOT
ATOM      1  C   UNL     1      -4.275  -5.635   7.842  1.00  0.00     0.002 C 
ENDROOT
BRANCH   1   2
ATOM      2  C   UNL     1      -5.024  -5.146   6.596  1.00  0.00     0.002 C 
BRANCH   2   3
ATOM      3  C   UNL     1      -4.169  -4.332   5.619  1.00  0.00     0.021 C 
BRANCH   3   4
ATOM      4  C   UNL     1      -2.961  -5.109   5.100  1.00  0.00     0.116 C 
BRANCH   4   5
ATOM      5  N   UNL     1      -3.354  -6.078   4.091  1.00  0.00    -0.356 N 
ATOM      6  C   UNL     1      -3.390  -6.103   2.740  1.00  0.00     0.220 C 
ATOM      7  O   UNL     1      -3.900  -7.120   2.248  1.00  0.00    -0.275 OA
ATOM      8  H   UNL     1      -3.672  -6.921   4.488  1.00  0.00     0.163 HD
BRANCH   6   9
ATOM      9  C   UNL     1      -2.828  -5.053   1.785  1.00  0.00     0.108 C 
BRANCH   9  10
ATOM     10  C   UNL     1      -2.427  -3.663   2.290  1.00  0.00     0.029 C 
ATOM     11  C   UNL     1       0.843   0.436  -0.286  1.00  0.00     0.044 C 
ATOM     12  C   UNL     1       0.338   1.009   1.014  1.00  0.00    -0.047 A 
ATOM     13  C   UNL     1       0.804   2.284   1.381  1.00  0.00     0.004 A 
ATOM     14  C   UNL     1      -0.596   0.345   1.850  1.00  0.00    -0.034 A 
ATOM     15  C   UNL     1       0.349   2.908   2.537  1.00  0.00     0.001 A 
ATOM     16  C   UNL     1      -1.153   1.048   2.946  1.00  0.00    -0.044 A 
ATOM     17  C   UNL     1      -1.005  -1.106   1.611  1.00  0.00     0.053 C 
ATOM     18  C   UNL     1      -0.647   2.308   3.298  1.00  0.00     0.004 A 
ATOM     19  C   UNL     1      -2.378   0.559   3.683  1.00  0.00     0.036 C 
ATOM     20  C   UNL     1      -0.244  -2.233   2.371  1.00  0.00    -0.034 A 
ATOM     21  C   UNL     1      -2.530  -1.186   1.843  1.00  0.00     0.002 C 
ATOM     22  C   UNL     1      -2.855  -0.841   3.308  1.00  0.00     0.009 C 
ATOM     23  C   UNL     1       1.110  -2.147   2.822  1.00  0.00    -0.047 A 
ATOM     24  C   UNL     1      -0.920  -3.486   2.554  1.00  0.00    -0.040 A 
ATOM     25  C   UNL     1      -3.013  -2.566   1.400  1.00  0.00     0.013 C 
ATOM     26  C   UNL     1       1.738  -3.266   3.411  1.00  0.00     0.004 A 
ATOM     27  C   UNL     1       1.998  -0.935   2.735  1.00  0.00     0.044 C 
ATOM     28  C   UNL     1      -0.224  -4.578   3.124  1.00  0.00     0.004 A 
ATOM     29  C   UNL     1       1.085  -4.471   3.555  1.00  0.00     0.001 A 
ENDBRANCH   9  10
ENDBRANCH   6   9
ENDBRANCH   4   5
ENDBRANCH   3   4
ENDBRANCH   2   3
ENDBRANCH   1   2
BRANCH   1  30
ATOM     30  C   UNL     1      -3.585  -4.531   8.648  1.00  0.00     0.021 C 
BRANCH  30  31
ATOM     31  C   UNL     1      -4.540  -3.471   9.185  1.00  0.00     0.116 C 
BRANCH  31  32
ATOM     32  N   UNL     1      -5.498  -4.043  10.119  1.00  0.00    -0.352 N 
ATOM     33  C   UNL     1      -5.756  -3.675  11.415  1.00  0.00     0.251 C 
ATOM     34  H   UNL     1      -6.033  -4.795   9.774  1.00  0.00     0.163 HD
ATOM     35  O   UNL     1      -6.428  -4.383  12.151  1.00  0.00    -0.269 OA
BRANCH  33  36
ATOM     36  C   UNL     1      -5.198  -2.403  11.910  1.00  0.00     0.039 A 
ATOM     37  C   UNL     1      -4.479  -2.393  13.107  1.00  0.00     0.014 A 
ATOM     38  C   UNL     1      -5.379  -1.230  11.172  1.00  0.00     0.014 A 
ATOM     39  C   UNL     1      -3.894  -1.205  13.543  1.00  0.00     0.010 A 
ATOM     40  C   UNL     1      -4.751  -0.060  11.580  1.00  0.00     0.010 A 
ATOM     41  C   UNL     1      -4.010  -0.039  12.771  1.00  0.00    -0.014 A 
BRANCH  41  42
ATOM     42  C   UNL     1      -3.394   1.236  13.204  1.00  0.00     0.031 A 
ATOM     43  C   UNL     1      -4.276   2.371  13.634  1.00  0.00     0.074 A 
ATOM     44  C   UNL     1      -2.059   1.390  13.143  1.00  0.00     0.049 A 
ATOM     45  N   UNL     1      -3.951   3.597  13.954  1.00  0.00    -0.248 NA
ATOM     46  C   UNL     1      -5.720   2.094  13.689  1.00  0.00     0.031 C 
ATOM     47  C   UNL     1      -1.105   0.364  12.722  1.00  0.00     0.029 A 
ATOM     48  N   UNL     1      -1.277   2.482  13.418  1.00  0.00    -0.354 N 
ATOM     49  C   UNL     1      -5.147   4.235  14.254  1.00  0.00     0.074 A 
ATOM     50  C   UNL     1      -6.209   3.281  14.015  1.00  0.00     0.031 C 
ATOM     51  C   UNL     1       0.136   0.875  12.768  1.00  0.00     0.029 A 
ATOM     52  C   UNL     1       0.060   2.272  13.185  1.00  0.00     0.049 A 
ATOM     53  H   UNL     1      -1.639   3.335  13.751  1.00  0.00     0.167 HD
ATOM     54  C   UNL     1      -5.341   5.495  14.711  1.00  0.00     0.037 A 
ATOM     55  C   UNL     1       1.100   3.122  13.278  1.00  0.00     0.037 A 
ATOM     56  C   UNL     1      -4.282   6.443  14.933  1.00  0.00     0.049 A 
ATOM     57  C   UNL     1       0.848   4.543  13.706  1.00  0.00     0.074 A 
ATOM     58  C   UNL     1      -4.365   7.733  15.425  1.00  0.00     0.029 A 
ATOM     59  N   UNL     1      -2.942   6.204  14.662  1.00  0.00    -0.354 N 
ATOM     60  N   UNL     1      -0.279   5.119  14.049  1.00  0.00    -0.248 NA
ATOM     61  C   UNL     1       2.017   5.433  13.755  1.00  0.00     0.031 C 
ATOM     62  C   UNL     1      -3.083   8.294  15.398  1.00  0.00     0.029 A 
ATOM     63  C   UNL     1      -2.193   7.336  14.939  1.00  0.00     0.049 A 
ATOM     64  H   UNL     1      -2.577   5.355  14.322  1.00  0.00     0.167 HD
ATOM     65  C   UNL     1       0.046   6.431  14.369  1.00  0.00     0.074 A 
ATOM     66  C   UNL     1       1.480   6.556  14.208  1.00  0.00     0.031 C 
ATOM     67  C   UNL     1      -0.768   7.445  14.756  1.00  0.00     0.037 A 
BRANCH  54  68
ATOM     68  C   UNL     1      -6.756   5.910  14.989  1.00  0.00     0.057 A 
ATOM     69  C   UNL     1      -7.394   6.870  14.194  1.00  0.00     0.134 A 
ATOM     70  C   UNL     1      -7.492   5.359  16.049  1.00  0.00     0.134 A 
ATOM     71  F   UNL     1      -6.748   7.442  13.166  1.00  0.00    -0.206 F 
ATOM     72  C   UNL     1      -8.711   7.262  14.438  1.00  0.00     0.040 A 
ATOM     73  C   UNL     1      -8.819   5.721  16.284  1.00  0.00     0.040 A 
ATOM     74  F   UNL     1      -6.946   4.423  16.840  1.00  0.00    -0.206 F 
ATOM     75  C   UNL     1      -9.431   6.679  15.480  1.00  0.00     0.006 A 
ENDBRANCH  54  68
BRANCH  55  76
ATOM     76  C   UNL     1       2.475   2.665  12.951  1.00  0.00     0.057 A 
ATOM     77  C   UNL     1       2.852   2.355  11.639  1.00  0.00     0.134 A 
ATOM     78  C   UNL     1       3.456   2.567  13.944  1.00  0.00     0.134 A 
ATOM     79  F   UNL     1       1.958   2.426  10.642  1.00  0.00    -0.206 F 
ATOM     80  C   UNL     1       4.155   1.964  11.326  1.00  0.00     0.040 A 
ATOM     81  C   UNL     1       4.769   2.203  13.642  1.00  0.00     0.040 A 
ATOM     82  F   UNL     1       3.161   2.872  15.216  1.00  0.00    -0.206 F 
ATOM     83  C   UNL     1       5.120   1.897  12.328  1.00  0.00     0.006 A 
ENDBRANCH  55  76
BRANCH  67  84
ATOM     84  C   UNL     1      -0.118   8.770  15.031  1.00  0.00     0.057 A 
ATOM     85  C   UNL     1      -0.025   9.267  16.337  1.00  0.00     0.134 A 
ATOM     86  C   UNL     1       0.402   9.563  14.000  1.00  0.00     0.134 A 
ATOM     87  F   UNL     1      -0.510   8.563  17.371  1.00  0.00    -0.206 F 
ATOM     88  C   UNL     1       0.559  10.505  16.607  1.00  0.00     0.040 A 
ATOM     89  C   UNL     1       1.016  10.789  14.260  1.00  0.00     0.040 A 
ATOM     90  F   UNL     1       0.360   9.137  12.728  1.00  0.00    -0.206 F 
ATOM     91  C   UNL     1       1.090  11.266  15.567  1.00  0.00     0.006 A 
ENDBRANCH  67  84
ENDBRANCH  41  42
ENDBRANCH  33  36
ENDBRANCH  31  32
ENDBRANCH  30  31
ENDBRANCH   1  30
TORSDOF 14
