REMARK SMILES C[C@@H](C(=O)NCCCCCCNC(=O)c1ccc(-c2c3nc(c(-c4c(F)cccc4F)c4ccc([nH]4)c(-c4c(F)cccc4F)c4nc(c(-c5c(F)cccc5F)c5ccc2[nH]5)C=C4)C=C3)cc1)c1ccc(C[C@H]2CCC[C@H]2O)cc1
REMARK SMILES IDX 7 1 6 2 5 3 3 4 4 5 2 7 1 8 69 9 70 10 81 11 71 12 80 13
REMARK SMILES IDX 72 14 73 15 74 16 75 17 78 18 76 19 77 20 79 21 8 23 9 24
REMARK SMILES IDX 10 25 11 26 12 27 13 28 14 30 15 31 16 32 68 33 17 34 67 35
REMARK SMILES IDX 18 36 19 37 20 38 61 39 21 40 66 41 60 42 62 43 22 44 65 45
REMARK SMILES IDX 59 46 58 47 23 49 49 50 32 51 48 52 33 53 36 54 47 55 63 56
REMARK SMILES IDX 34 57 35 58 46 60 64 61 37 62 24 63 25 64 30 65 26 66 27 67
REMARK SMILES IDX 29 68 31 69 28 70 50 71 51 72 56 73 52 74 53 75 55 76 57 77
REMARK SMILES IDX 54 78 38 79 39 80 44 81 40 82 41 83 43 84 45 85 42 86
REMARK H PARENT 5 6 79 22 12 29 62 48 36 59
REMARK Flexibility Score: inf
ROOT
ATOM      1  C   UNL     1       4.219  -1.084  -0.993  1.00  0.00     0.021 C 
ENDROOT
BRANCH   1   2
ATOM      2  C   UNL     1       3.410  -0.111  -1.855  1.00  0.00     0.116 C 
BRANCH   2   3
ATOM      3  N   UNL     1       2.381  -0.824  -2.580  1.00  0.00    -0.356 N 
ATOM      4  C   UNL     1       1.049  -0.943  -2.317  1.00  0.00     0.227 C 
ATOM      5  O   UNL     1       0.433  -1.799  -2.953  1.00  0.00    -0.274 OA
ATOM      6  H   UNL     1       2.691  -1.296  -3.387  1.00  0.00     0.163 HD
BRANCH   4   7
ATOM      7  C   UNL     1       0.396  -0.000  -1.300  1.00  0.00     0.105 C 
ATOM      8  C   UNL     1       0.751  -0.340   0.153  1.00  0.00     0.023 C 
BRANCH   7   9
ATOM      9  C   UNL     1      -1.119   0.049  -1.444  1.00  0.00    -0.036 A 
ATOM     10  C   UNL     1      -1.749   1.226  -1.861  1.00  0.00     0.005 A 
ATOM     11  C   UNL     1      -1.910  -1.061  -1.113  1.00  0.00     0.005 A 
ATOM     12  C   UNL     1      -3.140   1.319  -1.851  1.00  0.00     0.004 A 
ATOM     13  C   UNL     1      -3.298  -0.959  -1.086  1.00  0.00     0.004 A 
ATOM     14  C   UNL     1      -3.922   0.255  -1.390  1.00  0.00    -0.048 A 
BRANCH  14  15
ATOM     15  C   UNL     1      -5.399   0.430  -1.151  1.00  0.00     0.041 C 
BRANCH  15  16
ATOM     16  C   UNL     1      -5.812   0.945   0.243  1.00  0.00     0.022 C 
ATOM     17  C   UNL     1      -5.247   0.181   1.456  1.00  0.00     0.007 C 
ATOM     18  C   UNL     1      -5.554   2.425   0.570  1.00  0.00     0.117 C 
ATOM     19  C   UNL     1      -5.151   1.200   2.595  1.00  0.00     0.003 C 
ATOM     20  C   UNL     1      -5.800   2.478   2.074  1.00  0.00     0.032 C 
BRANCH  18  21
ATOM     21  O   UNL     1      -4.234   2.874   0.318  1.00  0.00    -0.393 OA
ATOM     22  H   UNL     1      -3.608   2.348   0.840  1.00  0.00     0.210 HD
ENDBRANCH  18  21
ENDBRANCH  15  16
ENDBRANCH  14  15
ENDBRANCH   7   9
ENDBRANCH   4   7
ENDBRANCH   2   3
ENDBRANCH   1   2
BRANCH   1  23
ATOM     23  C   UNL     1       4.949  -2.168  -1.799  1.00  0.00     0.002 C 
BRANCH  23  24
ATOM     24  C   UNL     1       5.870  -1.640  -2.903  1.00  0.00     0.002 C 
BRANCH  24  25
ATOM     25  C   UNL     1       6.920  -0.632  -2.432  1.00  0.00     0.021 C 
BRANCH  25  26
ATOM     26  C   UNL     1       7.858  -1.160  -1.354  1.00  0.00     0.116 C 
BRANCH  26  27
ATOM     27  N   UNL     1       8.675  -2.260  -1.835  1.00  0.00    -0.352 N 
ATOM     28  C   UNL     1      10.028  -2.448  -1.714  1.00  0.00     0.251 C 
ATOM     29  H   UNL     1       8.190  -2.969  -2.316  1.00  0.00     0.163 HD
ATOM     30  O   UNL     1      10.586  -3.339  -2.345  1.00  0.00    -0.269 OA
BRANCH  28  31
ATOM     31  C   UNL     1      10.818  -1.566  -0.828  1.00  0.00     0.039 A 
ATOM     32  C   UNL     1      12.063  -1.111  -1.269  1.00  0.00     0.014 A 
ATOM     33  C   UNL     1      10.352  -1.218   0.444  1.00  0.00     0.014 A 
ATOM     34  C   UNL     1      12.831  -0.288  -0.444  1.00  0.00     0.010 A 
ATOM     35  C   UNL     1      11.084  -0.336   1.234  1.00  0.00     0.010 A 
ATOM     36  C   UNL     1      12.342   0.114   0.810  1.00  0.00    -0.014 A 
BRANCH  36  37
ATOM     37  C   UNL     1      13.164   0.956   1.714  1.00  0.00     0.031 A 
ATOM     38  C   UNL     1      13.649   0.395   3.024  1.00  0.00     0.074 A 
ATOM     39  C   UNL     1      13.442   2.230   1.379  1.00  0.00     0.049 A 
ATOM     40  N   UNL     1      14.352   0.975   3.963  1.00  0.00    -0.248 NA
ATOM     41  C   UNL     1      13.268  -0.993   3.332  1.00  0.00     0.031 C 
ATOM     42  C   UNL     1      12.991   2.903   0.160  1.00  0.00     0.029 A 
ATOM     43  N   UNL     1      14.171   3.187   2.038  1.00  0.00    -0.354 N 
ATOM     44  C   UNL     1      14.477   0.033   4.977  1.00  0.00     0.074 A 
ATOM     45  C   UNL     1      13.732  -1.136   4.564  1.00  0.00     0.031 C 
ATOM     46  C   UNL     1      13.481   4.154   0.143  1.00  0.00     0.029 A 
ATOM     47  C   UNL     1      14.253   4.379   1.361  1.00  0.00     0.049 A 
ATOM     48  H   UNL     1      14.595   3.034   2.913  1.00  0.00     0.167 HD
ATOM     49  C   UNL     1      15.171   0.121   6.136  1.00  0.00     0.037 A 
ATOM     50  C   UNL     1      14.888   5.521   1.686  1.00  0.00     0.037 A 
ATOM     51  C   UNL     1      15.945   1.270   6.526  1.00  0.00     0.049 A 
ATOM     52  C   UNL     1      15.669   5.588   2.969  1.00  0.00     0.074 A 
ATOM     53  C   UNL     1      16.739   1.436   7.648  1.00  0.00     0.029 A 
ATOM     54  N   UNL     1      16.025   2.449   5.800  1.00  0.00    -0.354 N 
ATOM     55  N   UNL     1      15.838   4.665   3.885  1.00  0.00    -0.248 NA
ATOM     56  C   UNL     1      16.361   6.852   3.255  1.00  0.00     0.031 C 
ATOM     57  C   UNL     1      17.268   2.730   7.620  1.00  0.00     0.029 A 
ATOM     58  C   UNL     1      16.843   3.353   6.457  1.00  0.00     0.049 A 
ATOM     59  H   UNL     1      15.569   2.618   4.945  1.00  0.00     0.167 HD
ATOM     60  C   UNL     1      16.684   5.222   4.835  1.00  0.00     0.074 A 
ATOM     61  C   UNL     1      17.000   6.560   4.379  1.00  0.00     0.031 C 
ATOM     62  C   UNL     1      17.160   4.674   5.980  1.00  0.00     0.037 A 
BRANCH  49  63
ATOM     63  C   UNL     1      15.125  -1.060   7.062  1.00  0.00     0.057 A 
ATOM     64  C   UNL     1      15.756  -2.272   6.751  1.00  0.00     0.134 A 
ATOM     65  C   UNL     1      14.457  -0.978   8.291  1.00  0.00     0.134 A 
ATOM     66  F   UNL     1      16.401  -2.422   5.584  1.00  0.00    -0.206 F 
ATOM     67  C   UNL     1      15.698  -3.369   7.612  1.00  0.00     0.040 A 
ATOM     68  C   UNL     1      14.417  -2.059   9.174  1.00  0.00     0.040 A 
ATOM     69  F   UNL     1      13.836   0.154   8.655  1.00  0.00    -0.206 F 
ATOM     70  C   UNL     1      15.032  -3.261   8.831  1.00  0.00     0.006 A 
ENDBRANCH  49  63
BRANCH  50  71
ATOM     71  C   UNL     1      14.853   6.681   0.760  1.00  0.00     0.057 A 
ATOM     72  C   UNL     1      15.997   7.073   0.055  1.00  0.00     0.134 A 
ATOM     73  C   UNL     1      13.687   7.431   0.566  1.00  0.00     0.134 A 
ATOM     74  F   UNL     1      17.148   6.404   0.213  1.00  0.00    -0.206 F 
ATOM     75  C   UNL     1      15.991   8.182  -0.791  1.00  0.00     0.040 A 
ATOM     76  C   UNL     1      13.660   8.529  -0.296  1.00  0.00     0.040 A 
ATOM     77  F   UNL     1      12.555   7.102   1.206  1.00  0.00    -0.206 F 
ATOM     78  C   UNL     1      14.818   8.912  -0.972  1.00  0.00     0.006 A 
ENDBRANCH  50  71
BRANCH  62  79
ATOM     79  C   UNL     1      18.116   5.501   6.790  1.00  0.00     0.057 A 
ATOM     80  C   UNL     1      17.696   6.618   7.522  1.00  0.00     0.134 A 
ATOM     81  C   UNL     1      19.471   5.152   6.859  1.00  0.00     0.134 A 
ATOM     82  F   UNL     1      16.414   7.011   7.488  1.00  0.00    -0.206 F 
ATOM     83  C   UNL     1      18.596   7.375   8.274  1.00  0.00     0.040 A 
ATOM     84  C   UNL     1      20.375   5.885   7.629  1.00  0.00     0.040 A 
ATOM     85  F   UNL     1      19.936   4.087   6.189  1.00  0.00    -0.206 F 
ATOM     86  C   UNL     1      19.939   7.005   8.333  1.00  0.00     0.006 A 
ENDBRANCH  62  79
ENDBRANCH  36  37
ENDBRANCH  28  31
ENDBRANCH  26  27
ENDBRANCH  25  26
ENDBRANCH  24  25
ENDBRANCH  23  24
ENDBRANCH   1  23
TORSDOF 17
