REMARK SMILES Cc1ccc(S(=O)(=O)Nc2cc(C(=O)NCCCCCCNC(=O)c3ccc(-c4c5nc(c(-c6c(F)cccc6F)c6ccc([nH]6)c(-c6c(F)cccc6F)c6nc(c(-c7c(F)cccc7F)c7ccc4[nH]7)C=C6)C=C5)cc3)cnc2N2CCCC2)c(C)c1
REMARK SMILES IDX 18 1 17 2 16 3 15 4 13 5 14 6 12 8 10 9 11 10 81 11 80 12
REMARK SMILES IDX 79 13 9 14 6 16 7 17 8 18 5 19 1 20 2 21 3 22 89 23 4 24
REMARK SMILES IDX 87 25 88 26 82 27 83 28 86 29 84 30 85 31 19 32 20 33 21 34
REMARK SMILES IDX 22 35 23 36 24 38 25 39 26 40 78 41 27 42 77 43 28 44 29 45
REMARK SMILES IDX 30 46 71 47 31 48 76 49 70 50 72 51 32 52 75 53 69 54 68 55
REMARK SMILES IDX 33 57 59 58 42 59 58 60 43 61 46 62 57 63 73 64 44 65 45 66
REMARK SMILES IDX 56 68 74 69 47 70 34 71 35 72 40 73 36 74 37 75 39 76 41 77
REMARK SMILES IDX 38 78 60 79 61 80 66 81 62 82 63 83 65 84 67 85 64 86 48 87
REMARK SMILES IDX 49 88 54 89 50 90 51 91 53 92 55 93 52 94
REMARK H PARENT 15 7 9 15 22 37 72 56 46 67
REMARK Flexibility Score: inf
ROOT
ATOM      1  C   UNL     1       1.236  -1.198   5.182  1.00  0.00     0.002 C 
ENDROOT
BRANCH   1   2
ATOM      2  C   UNL     1       0.457  -1.869   4.045  1.00  0.00     0.021 C 
BRANCH   2   3
ATOM      3  C   UNL     1       1.198  -1.814   2.709  1.00  0.00     0.116 C 
BRANCH   3   4
ATOM      4  N   UNL     1       2.136  -2.918   2.606  1.00  0.00    -0.352 N 
ATOM      5  C   UNL     1       2.101  -4.111   1.932  1.00  0.00     0.252 C 
ATOM      6  O   UNL     1       3.081  -4.849   2.026  1.00  0.00    -0.269 OA
ATOM      7  H   UNL     1       2.962  -2.782   3.123  1.00  0.00     0.163 HD
BRANCH   5   8
ATOM      8  C   UNL     1       0.986  -4.522   1.047  1.00  0.00     0.060 A 
ATOM      9  C   UNL     1      -1.205  -4.376   0.098  1.00  0.00     0.092 A 
ATOM     10  C   UNL     1      -0.324  -4.067   1.129  1.00  0.00     0.046 A 
ATOM     11  C   UNL     1      -0.842  -5.327  -0.884  1.00  0.00     0.153 A 
ATOM     12  N   UNL     1       0.391  -5.864  -0.905  1.00  0.00    -0.236 NA
ATOM     13  C   UNL     1       1.281  -5.424   0.025  1.00  0.00     0.127 A 
BRANCH   9  14
ATOM     14  N   UNL     1      -2.480  -3.756  -0.018  1.00  0.00    -0.276 N 
ATOM     15  H   UNL     1      -3.255  -4.339  -0.184  1.00  0.00     0.180 HD
BRANCH  14  16
ATOM     16  S   UNL     1      -2.762  -2.116   0.105  1.00  0.00     0.262 S 
ATOM     17  O   UNL     1      -2.931  -1.849   1.522  1.00  0.00    -0.201 OA
ATOM     18  O   UNL     1      -3.824  -1.854  -0.842  1.00  0.00    -0.201 OA
BRANCH  16  19
ATOM     19  C   UNL     1      -1.367  -1.108  -0.410  1.00  0.00     0.090 A 
ATOM     20  C   UNL     1       2.350   1.085  -0.363  1.00  0.00     0.044 C 
ATOM     21  C   UNL     1       1.048   0.344  -0.458  1.00  0.00    -0.051 A 
ATOM     22  C   UNL     1       0.982  -0.938  -1.005  1.00  0.00     0.005 A 
ATOM     23  C   UNL     1      -0.136   0.954  -0.038  1.00  0.00     0.008 A 
ATOM     24  C   UNL     1      -0.224  -1.653  -1.003  1.00  0.00     0.023 A 
ATOM     25  C   UNL     1      -1.354   0.250  -0.022  1.00  0.00    -0.030 A 
ATOM     26  C   UNL     1      -2.580   1.024   0.388  1.00  0.00     0.046 C 
ENDBRANCH  16  19
ENDBRANCH  14  16
ENDBRANCH   9  14
BRANCH  11  27
ATOM     27  N   UNL     1      -1.775  -5.767  -1.787  1.00  0.00    -0.355 N 
ATOM     28  C   UNL     1      -2.305  -5.028  -2.915  1.00  0.00     0.118 C 
ATOM     29  C   UNL     1      -2.064  -7.189  -1.887  1.00  0.00     0.118 C 
ATOM     30  C   UNL     1      -3.581  -5.818  -3.193  1.00  0.00     0.023 C 
ATOM     31  C   UNL     1      -3.138  -7.264  -2.982  1.00  0.00     0.023 C 
ENDBRANCH  11  27
ENDBRANCH   5   8
ENDBRANCH   3   4
ENDBRANCH   2   3
ENDBRANCH   1   2
BRANCH   1  32
ATOM     32  C   UNL     1       1.400   0.321   5.032  1.00  0.00     0.002 C 
BRANCH  32  33
ATOM     33  C   UNL     1       0.094   1.106   4.880  1.00  0.00     0.021 C 
BRANCH  33  34
ATOM     34  C   UNL     1      -0.891   0.931   6.033  1.00  0.00     0.116 C 
BRANCH  34  35
ATOM     35  N   UNL     1      -0.346   1.419   7.290  1.00  0.00    -0.352 N 
ATOM     36  C   UNL     1      -0.898   2.281   8.203  1.00  0.00     0.251 C 
ATOM     37  H   UNL     1       0.550   1.082   7.520  1.00  0.00     0.163 HD
ATOM     38  O   UNL     1      -0.216   2.735   9.116  1.00  0.00    -0.269 OA
BRANCH  36  39
ATOM     39  C   UNL     1      -2.316   2.678   8.079  1.00  0.00     0.039 A 
ATOM     40  C   UNL     1      -2.656   4.024   8.241  1.00  0.00     0.014 A 
ATOM     41  C   UNL     1      -3.309   1.724   7.835  1.00  0.00     0.014 A 
ATOM     42  C   UNL     1      -3.987   4.422   8.109  1.00  0.00     0.010 A 
ATOM     43  C   UNL     1      -4.627   2.129   7.650  1.00  0.00     0.010 A 
ATOM     44  C   UNL     1      -4.979   3.480   7.791  1.00  0.00    -0.014 A 
BRANCH  44  45
ATOM     45  C   UNL     1      -6.391   3.889   7.607  1.00  0.00     0.031 A 
ATOM     46  C   UNL     1      -7.440   3.438   8.582  1.00  0.00     0.074 A 
ATOM     47  C   UNL     1      -6.740   4.602   6.521  1.00  0.00     0.049 A 
ATOM     48  N   UNL     1      -8.734   3.632   8.553  1.00  0.00    -0.248 NA
ATOM     49  C   UNL     1      -6.976   2.640   9.727  1.00  0.00     0.031 C 
ATOM     50  C   UNL     1      -5.821   5.050   5.473  1.00  0.00     0.029 A 
ATOM     51  N   UNL     1      -7.965   5.059   6.110  1.00  0.00    -0.354 N 
ATOM     52  C   UNL     1      -9.241   2.963   9.658  1.00  0.00     0.074 A 
ATOM     53  C   UNL     1      -8.120   2.326  10.317  1.00  0.00     0.031 C 
ATOM     54  C   UNL     1      -6.515   5.724   4.543  1.00  0.00     0.029 A 
ATOM     55  C   UNL     1      -7.926   5.734   4.915  1.00  0.00     0.049 A 
ATOM     56  H   UNL     1      -8.794   4.917   6.622  1.00  0.00     0.167 HD
ATOM     57  C   UNL     1     -10.521   2.899  10.095  1.00  0.00     0.037 A 
ATOM     58  C   UNL     1      -8.918   6.293   4.198  1.00  0.00     0.037 A 
ATOM     59  C   UNL     1     -11.629   3.558   9.456  1.00  0.00     0.049 A 
ATOM     60  C   UNL     1     -10.326   6.238   4.717  1.00  0.00     0.074 A 
ATOM     61  C   UNL     1     -12.950   3.621   9.866  1.00  0.00     0.029 A 
ATOM     62  N   UNL     1     -11.544   4.266   8.267  1.00  0.00    -0.354 N 
ATOM     63  N   UNL     1     -10.782   5.666   5.804  1.00  0.00    -0.248 NA
ATOM     64  C   UNL     1     -11.355   6.913   3.914  1.00  0.00     0.031 C 
ATOM     65  C   UNL     1     -13.671   4.343   8.907  1.00  0.00     0.029 A 
ATOM     66  C   UNL     1     -12.792   4.756   7.918  1.00  0.00     0.049 A 
ATOM     67  H   UNL     1     -10.719   4.402   7.748  1.00  0.00     0.167 HD
ATOM     68  C   UNL     1     -12.146   5.923   5.826  1.00  0.00     0.074 A 
ATOM     69  C   UNL     1     -12.441   6.715   4.649  1.00  0.00     0.031 C 
ATOM     70  C   UNL     1     -13.069   5.538   6.740  1.00  0.00     0.037 A 
BRANCH  57  71
ATOM     71  C   UNL     1     -10.783   2.083  11.325  1.00  0.00     0.057 A 
ATOM     72  C   UNL     1     -10.376   2.511  12.596  1.00  0.00     0.134 A 
ATOM     73  C   UNL     1     -11.451   0.855  11.240  1.00  0.00     0.134 A 
ATOM     74  F   UNL     1      -9.719   3.672  12.743  1.00  0.00    -0.206 F 
ATOM     75  C   UNL     1     -10.596   1.734  13.733  1.00  0.00     0.040 A 
ATOM     76  C   UNL     1     -11.698   0.079  12.374  1.00  0.00     0.040 A 
ATOM     77  F   UNL     1     -11.871   0.389  10.055  1.00  0.00    -0.206 F 
ATOM     78  C   UNL     1     -11.262   0.514  13.624  1.00  0.00     0.006 A 
ENDBRANCH  57  71
BRANCH  58  79
ATOM     79  C   UNL     1      -8.599   6.979   2.924  1.00  0.00     0.057 A 
ATOM     80  C   UNL     1      -8.580   8.375   2.845  1.00  0.00     0.134 A 
ATOM     81  C   UNL     1      -8.271   6.258   1.770  1.00  0.00     0.134 A 
ATOM     82  F   UNL     1      -8.900   9.117   3.915  1.00  0.00    -0.206 F 
ATOM     83  C   UNL     1      -8.252   9.034   1.659  1.00  0.00     0.040 A 
ATOM     84  C   UNL     1      -7.924   6.903   0.583  1.00  0.00     0.040 A 
ATOM     85  F   UNL     1      -8.263   4.918   1.789  1.00  0.00    -0.206 F 
ATOM     86  C   UNL     1      -7.915   8.296   0.525  1.00  0.00     0.006 A 
ENDBRANCH  58  79
BRANCH  70  87
ATOM     87  C   UNL     1     -14.482   5.979   6.509  1.00  0.00     0.057 A 
ATOM     88  C   UNL     1     -15.292   5.371   5.541  1.00  0.00     0.134 A 
ATOM     89  C   UNL     1     -15.050   6.996   7.286  1.00  0.00     0.134 A 
ATOM     90  F   UNL     1     -14.801   4.401   4.756  1.00  0.00    -0.206 F 
ATOM     91  C   UNL     1     -16.615   5.771   5.345  1.00  0.00     0.040 A 
ATOM     92  C   UNL     1     -16.377   7.391   7.112  1.00  0.00     0.040 A 
ATOM     93  F   UNL     1     -14.327   7.614   8.232  1.00  0.00    -0.206 F 
ATOM     94  C   UNL     1     -17.162   6.780   6.136  1.00  0.00     0.006 A 
ENDBRANCH  70  87
ENDBRANCH  44  45
ENDBRANCH  36  39
ENDBRANCH  34  35
ENDBRANCH  33  34
ENDBRANCH  32  33
ENDBRANCH   1  32
TORSDOF 17
