REMARK SMILES O=C(NCCCCCCNC(=O)c1ccccc1/N=C/c1coc2ccccc2c1=O)c1ccc(-c2c3nc(c(-c4c(F)cccc4F)c4ccc([nH]4)c(-c4c(F)cccc4F)c4nc(c(-c5c(F)cccc5F)c5ccc2[nH]5)C=C4)C=C3)cc1
REMARK SMILES IDX 6 1 5 2 4 3 3 4 1 5 2 6 32 8 33 9 85 10 34 11 84 12 35 13
REMARK SMILES IDX 36 14 37 15 78 16 38 17 83 18 77 19 79 20 39 21 82 22 76 23
REMARK SMILES IDX 75 24 40 26 66 27 49 28 65 29 50 30 53 31 64 32 80 33 51 34
REMARK SMILES IDX 52 35 63 37 81 38 54 39 41 40 42 41 47 42 43 43 44 44 46 45
REMARK SMILES IDX 48 46 45 47 67 48 68 49 73 50 69 51 70 52 72 53 74 54 71 55
REMARK SMILES IDX 55 56 56 57 61 58 57 59 58 60 60 61 62 62 59 63 7 64 8 65
REMARK SMILES IDX 9 66 10 67 11 68 12 70 13 71 14 72 18 73 15 74 17 75 16 76
REMARK SMILES IDX 19 77 20 78 21 79 22 80 30 81 23 82 29 83 31 84 24 85 28 86
REMARK SMILES IDX 25 87 27 88 26 89
REMARK H PARENT 3 7 79 25 53 36 10 69
REMARK Flexibility Score: inf
ROOT
ATOM      1  C   UNL     1       4.226  -4.038   0.111  1.00  0.00     0.002 C 
ENDROOT
BRANCH   1   2
ATOM      2  C   UNL     1       4.788  -2.708   0.613  1.00  0.00     0.021 C 
BRANCH   2   3
ATOM      3  C   UNL     1       4.498  -1.485  -0.246  1.00  0.00     0.116 C 
BRANCH   3   4
ATOM      4  N   UNL     1       3.082  -1.177  -0.350  1.00  0.00    -0.352 N 
ATOM      5  O   UNL     1       1.194   0.037  -0.240  1.00  0.00    -0.269 OA
ATOM      6  C   UNL     1       2.424   0.021  -0.221  1.00  0.00     0.251 C 
ATOM      7  H   UNL     1       2.503  -1.949  -0.543  1.00  0.00     0.163 HD
BRANCH   6   8
ATOM      8  C   UNL     1       3.162   1.296  -0.035  1.00  0.00     0.039 A 
ATOM      9  C   UNL     1       4.338   1.583  -0.732  1.00  0.00     0.014 A 
ATOM     10  C   UNL     1       2.618   2.261   0.823  1.00  0.00     0.014 A 
ATOM     11  C   UNL     1       5.022   2.775  -0.491  1.00  0.00     0.010 A 
ATOM     12  C   UNL     1       3.270   3.484   1.017  1.00  0.00     0.010 A 
ATOM     13  C   UNL     1       4.492   3.740   0.380  1.00  0.00    -0.014 A 
BRANCH  13  14
ATOM     14  C   UNL     1       5.202   5.031   0.563  1.00  0.00     0.031 A 
ATOM     15  C   UNL     1       5.866   5.377   1.865  1.00  0.00     0.074 A 
ATOM     16  C   UNL     1       5.273   5.889  -0.472  1.00  0.00     0.049 A 
ATOM     17  N   UNL     1       6.569   6.439   2.173  1.00  0.00    -0.248 NA
ATOM     18  C   UNL     1       5.720   4.413   2.966  1.00  0.00     0.031 C 
ATOM     19  C   UNL     1       4.652   5.684  -1.782  1.00  0.00     0.029 A 
ATOM     20  N   UNL     1       5.918   7.093  -0.594  1.00  0.00    -0.354 N 
ATOM     21  C   UNL     1       6.929   6.284   3.504  1.00  0.00     0.074 A 
ATOM     22  C   UNL     1       6.359   5.029   3.951  1.00  0.00     0.031 C 
ATOM     23  C   UNL     1       4.991   6.699  -2.591  1.00  0.00     0.029 A 
ATOM     24  C   UNL     1       5.823   7.641  -1.849  1.00  0.00     0.049 A 
ATOM     25  H   UNL     1       6.402   7.524   0.148  1.00  0.00     0.167 HD
ATOM     26  C   UNL     1       7.670   7.109   4.282  1.00  0.00     0.037 A 
ATOM     27  C   UNL     1       6.352   8.770  -2.351  1.00  0.00     0.037 A 
ATOM     28  C   UNL     1       8.267   8.341   3.839  1.00  0.00     0.049 A 
ATOM     29  C   UNL     1       7.188   9.654  -1.476  1.00  0.00     0.074 A 
ATOM     30  C   UNL     1       9.074   9.214   4.550  1.00  0.00     0.029 A 
ATOM     31  N   UNL     1       8.124   8.873   2.568  1.00  0.00    -0.354 N 
ATOM     32  N   UNL     1       7.538   9.480  -0.226  1.00  0.00    -0.248 NA
ATOM     33  C   UNL     1       7.693  10.895  -2.079  1.00  0.00     0.031 C 
ATOM     34  C   UNL     1       9.405  10.286   3.712  1.00  0.00     0.029 A 
ATOM     35  C   UNL     1       8.817  10.069   2.477  1.00  0.00     0.049 A 
ATOM     36  H   UNL     1       7.607   8.462   1.838  1.00  0.00     0.167 HD
ATOM     37  C   UNL     1       8.300  10.589   0.110  1.00  0.00     0.074 A 
ATOM     38  C   UNL     1       8.378  11.421  -1.073  1.00  0.00     0.031 C 
ATOM     39  C   UNL     1       8.876  10.891   1.297  1.00  0.00     0.037 A 
BRANCH  26  40
ATOM     40  C   UNL     1       7.874   6.704   5.709  1.00  0.00     0.057 A 
ATOM     41  C   UNL     1       8.834   5.752   6.070  1.00  0.00     0.134 A 
ATOM     42  C   UNL     1       7.129   7.300   6.733  1.00  0.00     0.134 A 
ATOM     43  F   UNL     1       9.571   5.140   5.132  1.00  0.00    -0.206 F 
ATOM     44  C   UNL     1       9.040   5.399   7.405  1.00  0.00     0.040 A 
ATOM     45  C   UNL     1       7.334   6.964   8.072  1.00  0.00     0.040 A 
ATOM     46  F   UNL     1       6.196   8.221   6.448  1.00  0.00    -0.206 F 
ATOM     47  C   UNL     1       8.291   6.009   8.410  1.00  0.00     0.006 A 
ENDBRANCH  26  40
BRANCH  27  48
ATOM     48  C   UNL     1       6.120   9.113  -3.772  1.00  0.00     0.057 A 
ATOM     49  C   UNL     1       7.112   8.891  -4.732  1.00  0.00     0.134 A 
ATOM     50  C   UNL     1       4.897   9.635  -4.204  1.00  0.00     0.134 A 
ATOM     51  F   UNL     1       8.307   8.404  -4.368  1.00  0.00    -0.206 F 
ATOM     52  C   UNL     1       6.895   9.178  -6.080  1.00  0.00     0.040 A 
ATOM     53  C   UNL     1       4.662   9.915  -5.550  1.00  0.00     0.040 A 
ATOM     54  F   UNL     1       3.910   9.864  -3.325  1.00  0.00    -0.206 F 
ATOM     55  C   UNL     1       5.664   9.686  -6.492  1.00  0.00     0.006 A 
ENDBRANCH  27  48
BRANCH  39  56
ATOM     56  C   UNL     1       9.632  12.180   1.371  1.00  0.00     0.057 A 
ATOM     57  C   UNL     1       8.970  13.399   1.557  1.00  0.00     0.134 A 
ATOM     58  C   UNL     1      11.028  12.202   1.274  1.00  0.00     0.134 A 
ATOM     59  F   UNL     1       7.632  13.439   1.642  1.00  0.00    -0.206 F 
ATOM     60  C   UNL     1       9.672  14.602   1.632  1.00  0.00     0.040 A 
ATOM     61  C   UNL     1      11.742  13.398   1.359  1.00  0.00     0.040 A 
ATOM     62  F   UNL     1      11.716  11.065   1.094  1.00  0.00    -0.206 F 
ATOM     63  C   UNL     1      11.062  14.603   1.536  1.00  0.00     0.006 A 
ENDBRANCH  39  56
ENDBRANCH  13  14
ENDBRANCH   6   8
ENDBRANCH   3   4
ENDBRANCH   2   3
ENDBRANCH   1   2
BRANCH   1  64
ATOM     64  C   UNL     1       4.698  -4.479  -1.276  1.00  0.00     0.002 C 
BRANCH  64  65
ATOM     65  C   UNL     1       6.215  -4.616  -1.470  1.00  0.00     0.021 C 
BRANCH  65  66
ATOM     66  C   UNL     1       6.957  -5.464  -0.435  1.00  0.00     0.116 C 
BRANCH  66  67
ATOM     67  N   UNL     1       6.391  -6.791  -0.281  1.00  0.00    -0.352 N 
ATOM     68  C   UNL     1       7.021  -7.965   0.034  1.00  0.00     0.253 C 
ATOM     69  H   UNL     1       5.418  -6.856  -0.423  1.00  0.00     0.163 HD
ATOM     70  O   UNL     1       6.370  -8.993   0.195  1.00  0.00    -0.269 OA
BRANCH  68  71
ATOM     71  C   UNL     1       8.485  -8.030   0.155  1.00  0.00     0.065 A 
ATOM     72  C   UNL     1       9.171  -8.794  -0.803  1.00  0.00     0.016 A 
ATOM     73  C   UNL     1       9.184  -7.420   1.200  1.00  0.00     0.076 A 
ATOM     74  C   UNL     1      10.560  -8.927  -0.738  1.00  0.00     0.001 A 
ATOM     75  C   UNL     1      10.578  -7.578   1.254  1.00  0.00     0.029 A 
ATOM     76  C   UNL     1      11.265  -8.324   0.298  1.00  0.00     0.002 A 
BRANCH  73  77
ATOM     77  N   UNL     1       8.667  -6.509   2.115  1.00  0.00    -0.255 NA
ATOM     78  C   UNL     1       7.691  -6.752   2.927  1.00  0.00     0.127 C 
BRANCH  78  79
ATOM     79  C   UNL     1       7.442  -5.684   3.927  1.00  0.00     0.076 A 
ATOM     80  C   UNL     1       8.121  -5.953   5.059  1.00  0.00     0.209 A 
ATOM     81  C   UNL     1       7.563  -4.273   3.475  1.00  0.00     0.201 A 
ATOM     82  O   UNL     1       8.999  -5.052   5.657  1.00  0.00    -0.463 OA
ATOM     83  C   UNL     1       8.922  -3.744   3.640  1.00  0.00     0.065 A 
ATOM     84  O   UNL     1       6.662  -3.661   2.924  1.00  0.00    -0.288 OA
ATOM     85  C   UNL     1       9.625  -4.218   4.749  1.00  0.00     0.137 A 
ATOM     86  C   UNL     1       9.546  -3.006   2.637  1.00  0.00     0.016 A 
ATOM     87  C   UNL     1      10.981  -3.947   4.874  1.00  0.00     0.048 A 
ATOM     88  C   UNL     1      10.915  -2.768   2.744  1.00  0.00     0.001 A 
ATOM     89  C   UNL     1      11.629  -3.237   3.856  1.00  0.00     0.004 A 
ENDBRANCH  78  79
ENDBRANCH  73  77
ENDBRANCH  68  71
ENDBRANCH  66  67
ENDBRANCH  65  66
ENDBRANCH  64  65
ENDBRANCH   1  64
TORSDOF 15
