REMARK SMILES CC1(C)[C@H](O)CC[C@@]2(C)[C@@H]1CC[C@@]1(C)Oc3oc(C(=O)NCCCCCCNC(=O)c4ccc(-c5c6nc(c(-c7c(F)cccc7F)c7ccc([nH]7)c(-c7c(F)cccc7F)c7nc(c(-c8c(F)cccc8F)c8ccc5[nH]8)C=C7)C=C6)cc4)cc(=O)c3C[C@@H]21
REMARK SMILES IDX 25 1 24 2 23 3 22 4 21 5 19 6 20 7 18 9 1 10 2 11 4 12 10 13
REMARK SMILES IDX 3 14 6 15 8 16 11 17 7 18 90 19 9 20 12 21 13 22 89 23 15 24
REMARK SMILES IDX 14 25 88 26 16 27 86 28 17 29 85 30 87 31 5 32 26 34 27 35
REMARK SMILES IDX 28 36 29 37 30 39 31 40 32 41 84 42 33 43 83 44 34 45 35 46
REMARK SMILES IDX 36 47 77 48 37 49 82 50 76 51 78 52 38 53 81 54 75 55 74 56
REMARK SMILES IDX 39 58 65 59 48 60 64 61 49 62 52 63 63 64 79 65 50 66 51 67
REMARK SMILES IDX 62 69 80 70 53 71 40 72 41 73 46 74 42 75 43 76 45 77 47 78
REMARK SMILES IDX 44 79 66 80 67 81 72 82 68 83 69 84 71 85 73 86 70 87 54 88
REMARK SMILES IDX 55 89 60 90 56 91 57 92 59 93 61 94 58 95
REMARK H PARENT 21 8 5 33 28 38 78 57 52 68
REMARK Flexibility Score: inf
ROOT
ATOM      1  C   UNL     1       4.874  11.936   9.377  1.00  0.00     0.002 C 
ENDROOT
BRANCH   1   2
ATOM      2  C   UNL     1       4.408  10.716  10.179  1.00  0.00     0.002 C 
BRANCH   2   3
ATOM      3  C   UNL     1       3.563   9.692   9.412  1.00  0.00     0.021 C 
BRANCH   3   4
ATOM      4  C   UNL     1       4.254   9.029   8.221  1.00  0.00     0.116 C 
BRANCH   4   5
ATOM      5  N   UNL     1       5.358   8.170   8.623  1.00  0.00    -0.349 N 
ATOM      6  C   UNL     1       5.714   6.923   8.185  1.00  0.00     0.287 C 
ATOM      7  O   UNL     1       6.625   6.325   8.752  1.00  0.00    -0.266 OA
ATOM      8  H   UNL     1       5.941   8.545   9.321  1.00  0.00     0.163 HD
BRANCH   6   9
ATOM      9  C   UNL     1       4.981   6.292   7.052  1.00  0.00     0.199 A 
ATOM     10  C   UNL     1       0.816  -0.433   1.285  1.00  0.00     0.014 C 
ATOM     11  C   UNL     1       0.783   1.086   1.592  1.00  0.00    -0.006 C 
ATOM     12  C   UNL     1      -0.664   1.603   1.368  1.00  0.00     0.120 C 
ATOM     13  C   UNL     1       1.189   1.324   3.118  1.00  0.00     0.004 C 
ATOM     14  C   UNL     1       1.758   1.769   0.593  1.00  0.00     0.014 C 
ATOM     15  C   UNL     1      -0.809   3.102   1.627  1.00  0.00     0.033 C 
ATOM     16  C   UNL     1       0.648   2.678   3.737  1.00  0.00    -0.022 C 
ATOM     17  C   UNL     1       2.678   0.950   3.379  1.00  0.00     0.009 C 
ATOM     18  C   UNL     1       0.209   3.663   2.616  1.00  0.00     0.010 C 
ATOM     19  C   UNL     1       1.649   3.357   4.746  1.00  0.00     0.044 C 
ATOM     20  C   UNL     1      -0.663   2.396   4.552  1.00  0.00     0.012 C 
ATOM     21  C   UNL     1       3.436   1.599   4.538  1.00  0.00     0.049 C 
ATOM     22  C   UNL     1       2.566   2.378   5.525  1.00  0.00     0.113 C 
ATOM     23  C   UNL     1       2.536   4.444   4.092  1.00  0.00     0.055 C 
ATOM     24  O   UNL     1       3.414   3.079   6.473  1.00  0.00    -0.458 OA
ATOM     25  C   UNL     1       1.820   1.378   6.423  1.00  0.00     0.057 C 
ATOM     26  C   UNL     1       3.495   5.007   5.083  1.00  0.00     0.081 A 
ATOM     27  C   UNL     1       3.833   4.364   6.209  1.00  0.00     0.292 A 
ATOM     28  C   UNL     1       4.023   6.366   4.846  1.00  0.00     0.192 A 
ATOM     29  O   UNL     1       4.602   4.967   7.198  1.00  0.00    -0.420 OA
ATOM     30  C   UNL     1       4.805   6.982   5.921  1.00  0.00     0.105 A 
ATOM     31  O   UNL     1       3.795   6.989   3.816  1.00  0.00    -0.289 OA
BRANCH  12  32
ATOM     32  O   UNL     1      -1.135   1.351   0.044  1.00  0.00    -0.393 OA
ATOM     33  H   UNL     1      -0.596   1.850  -0.590  1.00  0.00     0.210 HD
ENDBRANCH  12  32
ENDBRANCH   6   9
ENDBRANCH   4   5
ENDBRANCH   3   4
ENDBRANCH   2   3
ENDBRANCH   1   2
BRANCH   1  34
ATOM     34  C   UNL     1       3.772  12.729   8.671  1.00  0.00     0.021 C 
BRANCH  34  35
ATOM     35  C   UNL     1       2.637  13.213   9.570  1.00  0.00     0.116 C 
BRANCH  35  36
ATOM     36  N   UNL     1       3.080  14.187  10.553  1.00  0.00    -0.352 N 
ATOM     37  C   UNL     1       2.635  15.471  10.763  1.00  0.00     0.251 C 
ATOM     38  H   UNL     1       3.801  13.886  11.152  1.00  0.00     0.163 HD
ATOM     39  O   UNL     1       3.214  16.215  11.538  1.00  0.00    -0.269 OA
BRANCH  37  40
ATOM     40  C   UNL     1       1.451  15.957  10.021  1.00  0.00     0.039 A 
ATOM     41  C   UNL     1       1.539  17.164   9.324  1.00  0.00     0.014 A 
ATOM     42  C   UNL     1       0.262  15.221  10.019  1.00  0.00     0.014 A 
ATOM     43  C   UNL     1       0.448  17.610   8.575  1.00  0.00     0.010 A 
ATOM     44  C   UNL     1      -0.808  15.642   9.233  1.00  0.00     0.010 A 
ATOM     45  C   UNL     1      -0.725  16.842   8.509  1.00  0.00    -0.014 A 
BRANCH  45  46
ATOM     46  C   UNL     1      -1.896  17.300   7.724  1.00  0.00     0.031 A 
ATOM     47  C   UNL     1      -3.136  17.756   8.438  1.00  0.00     0.074 A 
ATOM     48  C   UNL     1      -1.863  17.264   6.378  1.00  0.00     0.049 A 
ATOM     49  N   UNL     1      -4.284  18.142   7.943  1.00  0.00    -0.248 NA
ATOM     50  C   UNL     1      -3.082  17.762   9.909  1.00  0.00     0.031 C 
ATOM     51  C   UNL     1      -0.727  16.821   5.569  1.00  0.00     0.029 A 
ATOM     52  N   UNL     1      -2.822  17.594   5.454  1.00  0.00    -0.354 N 
ATOM     53  C   UNL     1      -5.086  18.437   9.037  1.00  0.00     0.074 A 
ATOM     54  C   UNL     1      -4.314  18.133  10.223  1.00  0.00     0.031 C 
ATOM     55  C   UNL     1      -1.052  16.915   4.268  1.00  0.00     0.029 A 
ATOM     56  C   UNL     1      -2.426  17.397   4.154  1.00  0.00     0.049 A 
ATOM     57  H   UNL     1      -3.710  17.940   5.700  1.00  0.00     0.167 HD
ATOM     58  C   UNL     1      -6.343  18.940   9.054  1.00  0.00     0.037 A 
ATOM     59  C   UNL     1      -3.101  17.577   3.003  1.00  0.00     0.037 A 
ATOM     60  C   UNL     1      -7.110  19.245   7.876  1.00  0.00     0.049 A 
ATOM     61  C   UNL     1      -4.517  18.086   3.053  1.00  0.00     0.074 A 
ATOM     62  C   UNL     1      -8.379  19.789   7.788  1.00  0.00     0.029 A 
ATOM     63  N   UNL     1      -6.678  19.024   6.577  1.00  0.00    -0.354 N 
ATOM     64  N   UNL     1      -5.243  18.419   4.093  1.00  0.00    -0.248 NA
ATOM     65  C   UNL     1      -5.206  18.247   1.764  1.00  0.00     0.031 C 
ATOM     66  C   UNL     1      -8.731  19.860   6.435  1.00  0.00     0.029 A 
ATOM     67  C   UNL     1      -7.664  19.401   5.680  1.00  0.00     0.049 A 
ATOM     68  H   UNL     1      -5.800  18.655   6.329  1.00  0.00     0.167 HD
ATOM     69  C   UNL     1      -6.458  18.860   3.583  1.00  0.00     0.074 A 
ATOM     70  C   UNL     1      -6.367  18.763   2.141  1.00  0.00     0.031 C 
ATOM     71  C   UNL     1      -7.552  19.306   4.248  1.00  0.00     0.037 A 
BRANCH  58  72
ATOM     72  C   UNL     1      -6.961  19.191  10.398  1.00  0.00     0.057 A 
ATOM     73  C   UNL     1      -8.013  18.394  10.865  1.00  0.00     0.134 A 
ATOM     74  C   UNL     1      -6.523  20.234  11.225  1.00  0.00     0.134 A 
ATOM     75  F   UNL     1      -8.483  17.381  10.122  1.00  0.00    -0.206 F 
ATOM     76  C   UNL     1      -8.605  18.624  12.108  1.00  0.00     0.040 A 
ATOM     77  C   UNL     1      -7.089  20.457  12.481  1.00  0.00     0.040 A 
ATOM     78  F   UNL     1      -5.508  21.024  10.842  1.00  0.00    -0.206 F 
ATOM     79  C   UNL     1      -8.138  19.654  12.923  1.00  0.00     0.006 A 
ENDBRANCH  58  72
BRANCH  59  80
ATOM     80  C   UNL     1      -2.457  17.289   1.697  1.00  0.00     0.057 A 
ATOM     81  C   UNL     1      -2.192  15.978   1.286  1.00  0.00     0.134 A 
ATOM     82  C   UNL     1      -2.141  18.322   0.806  1.00  0.00     0.134 A 
ATOM     83  F   UNL     1      -2.469  14.944   2.094  1.00  0.00    -0.206 F 
ATOM     84  C   UNL     1      -1.639  15.704   0.033  1.00  0.00     0.040 A 
ATOM     85  C   UNL     1      -1.611  18.061  -0.458  1.00  0.00     0.040 A 
ATOM     86  F   UNL     1      -2.394  19.597   1.136  1.00  0.00    -0.206 F 
ATOM     87  C   UNL     1      -1.358  16.747  -0.847  1.00  0.00     0.006 A 
ENDBRANCH  59  80
BRANCH  71  88
ATOM     88  C   UNL     1      -8.718  19.758   3.418  1.00  0.00     0.057 A 
ATOM     89  C   UNL     1      -9.040  21.118   3.325  1.00  0.00     0.134 A 
ATOM     90  C   UNL     1      -9.533  18.850   2.730  1.00  0.00     0.134 A 
ATOM     91  F   UNL     1      -8.305  22.038   3.966  1.00  0.00    -0.206 F 
ATOM     92  C   UNL     1     -10.132  21.558   2.576  1.00  0.00     0.040 A 
ATOM     93  C   UNL     1     -10.612  19.281   1.957  1.00  0.00     0.040 A 
ATOM     94  F   UNL     1      -9.267  17.535   2.766  1.00  0.00    -0.206 F 
ATOM     95  C   UNL     1     -10.917  20.639   1.883  1.00  0.00     0.006 A 
ENDBRANCH  71  88
ENDBRANCH  45  46
ENDBRANCH  37  40
ENDBRANCH  35  36
ENDBRANCH  34  35
ENDBRANCH   1  34
TORSDOF 14
