REMARK SMILES CC[C@@](C)(C(=O)NCCCCCCNC(=O)c1ccc(-c2c3nc(c(-c4c(F)cccc4F)c4ccc([nH]4)c(-c4c(F)cccc4F)c4nc(c(-c5c(F)cccc5F)c5ccc2[nH]5)C=C4)C=C3)cc1)n1nnnc1Cc1cccs1
REMARK SMILES IDX 10 1 9 2 8 3 7 4 5 5 6 6 3 8 4 9 2 10 1 11 71 12 72 13 75 14
REMARK SMILES IDX 73 15 74 16 76 17 77 18 78 19 81 20 79 21 80 22 11 23 12 24
REMARK SMILES IDX 13 25 14 26 15 27 16 29 17 30 18 31 70 32 19 33 69 34 20 35
REMARK SMILES IDX 21 36 22 37 63 38 23 39 68 40 62 41 64 42 24 43 67 44 61 45
REMARK SMILES IDX 60 46 25 48 51 49 34 50 50 51 35 52 38 53 49 54 65 55 36 56
REMARK SMILES IDX 37 57 48 59 66 60 39 61 26 62 27 63 32 64 28 65 29 66 31 67
REMARK SMILES IDX 33 68 30 69 52 70 53 71 58 72 54 73 55 74 57 75 59 76 56 77
REMARK SMILES IDX 40 78 41 79 46 80 42 81 43 82 45 83 47 84 44 85
REMARK H PARENT 7 7 14 28 64 47 38 58
REMARK Flexibility Score: inf
ROOT
ATOM      1  C   UNL     1      -3.410  -3.681   2.199  1.00  0.00     0.002 C 
ENDROOT
BRANCH   1   2
ATOM      2  C   UNL     1      -2.656  -2.554   1.484  1.00  0.00     0.021 C 
BRANCH   2   3
ATOM      3  C   UNL     1      -1.896  -1.609   2.414  1.00  0.00     0.116 C 
BRANCH   3   4
ATOM      4  N   UNL     1      -0.804  -2.284   3.094  1.00  0.00    -0.354 N 
ATOM      5  C   UNL     1       0.540  -2.068   3.132  1.00  0.00     0.247 C 
ATOM      6  O   UNL     1       1.143  -2.719   3.993  1.00  0.00    -0.272 OA
ATOM      7  H   UNL     1      -1.094  -3.053   3.636  1.00  0.00     0.163 HD
BRANCH   5   8
ATOM      8  C   UNL     1       1.269  -1.040   2.230  1.00  0.00     0.142 C 
ATOM      9  C   UNL     1       0.879   0.337   2.836  1.00  0.00     0.048 C 
BRANCH   8  10
ATOM     10  C   UNL     1       0.902  -1.173   0.723  1.00  0.00     0.037 C 
ATOM     11  C   UNL     1       1.253   0.029  -0.148  1.00  0.00     0.007 C 
ENDBRANCH   8  10
BRANCH   8  12
ATOM     12  N   UNL     1       2.738  -1.234   2.333  1.00  0.00    -0.214 N 
ATOM     13  N   UNL     1       3.543  -0.149   2.410  1.00  0.00    -0.044 NA
ATOM     14  C   UNL     1       3.533  -2.356   2.179  1.00  0.00     0.157 A 
ATOM     15  N   UNL     1       4.781  -0.605   2.358  1.00  0.00    -0.024 NA
ATOM     16  N   UNL     1       4.793  -1.962   2.224  1.00  0.00    -0.113 NA
BRANCH  14  17
ATOM     17  C   UNL     1       3.086  -3.774   2.036  1.00  0.00     0.125 C 
BRANCH  17  18
ATOM     18  C   UNL     1       3.522  -4.404   0.740  1.00  0.00     0.012 A 
ATOM     19  C   UNL     1       4.804  -4.694   0.314  1.00  0.00     0.016 A 
ATOM     20  S   UNL     1       2.353  -4.910  -0.410  1.00  0.00    -0.148 S 
ATOM     21  C   UNL     1       4.824  -5.316  -0.967  1.00  0.00     0.012 A 
ATOM     22  C   UNL     1       3.556  -5.489  -1.475  1.00  0.00     0.065 A 
ENDBRANCH  17  18
ENDBRANCH  14  17
ENDBRANCH   8  12
ENDBRANCH   5   8
ENDBRANCH   3   4
ENDBRANCH   2   3
ENDBRANCH   1   2
BRANCH   1  23
ATOM     23  C   UNL     1      -4.380  -3.228   3.295  1.00  0.00     0.002 C 
BRANCH  23  24
ATOM     24  C   UNL     1      -5.408  -2.179   2.863  1.00  0.00     0.021 C 
BRANCH  24  25
ATOM     25  C   UNL     1      -6.301  -2.599   1.699  1.00  0.00     0.116 C 
BRANCH  25  26
ATOM     26  N   UNL     1      -7.129  -3.747   2.030  1.00  0.00    -0.352 N 
ATOM     27  C   UNL     1      -8.495  -3.874   2.008  1.00  0.00     0.251 C 
ATOM     28  H   UNL     1      -6.638  -4.552   2.312  1.00  0.00     0.163 HD
ATOM     29  O   UNL     1      -9.030  -4.859   2.513  1.00  0.00    -0.269 OA
BRANCH  27  30
ATOM     30  C   UNL     1      -9.328  -2.813   1.403  1.00  0.00     0.039 A 
ATOM     31  C   UNL     1     -10.459  -2.371   2.093  1.00  0.00     0.014 A 
ATOM     32  C   UNL     1      -8.996  -2.253   0.166  1.00  0.00     0.014 A 
ATOM     33  C   UNL     1     -11.210  -1.310   1.582  1.00  0.00     0.010 A 
ATOM     34  C   UNL     1      -9.704  -1.151  -0.308  1.00  0.00     0.010 A 
ATOM     35  C   UNL     1     -10.810  -0.659   0.403  1.00  0.00    -0.014 A 
BRANCH  35  36
ATOM     36  C   UNL     1     -11.504   0.569  -0.064  1.00  0.00     0.031 A 
ATOM     37  C   UNL     1     -12.230   0.589  -1.380  1.00  0.00     0.074 A 
ATOM     38  C   UNL     1     -11.415   1.694   0.676  1.00  0.00     0.049 A 
ATOM     39  N   UNL     1     -12.834   1.589  -1.972  1.00  0.00    -0.248 NA
ATOM     40  C   UNL     1     -12.267  -0.669  -2.142  1.00  0.00     0.031 C 
ATOM     41  C   UNL     1     -10.696   1.816   1.947  1.00  0.00     0.029 A 
ATOM     42  N   UNL     1     -11.921   2.952   0.462  1.00  0.00    -0.354 N 
ATOM     43  C   UNL     1     -13.312   1.085  -3.175  1.00  0.00     0.074 A 
ATOM     44  C   UNL     1     -12.895  -0.298  -3.249  1.00  0.00     0.031 C 
ATOM     45  C   UNL     1     -10.820   3.071   2.405  1.00  0.00     0.029 A 
ATOM     46  C   UNL     1     -11.586   3.856   1.443  1.00  0.00     0.049 A 
ATOM     47  H   UNL     1     -12.471   3.186  -0.320  1.00  0.00     0.167 HD
ATOM     48  C   UNL     1     -14.046   1.717  -4.121  1.00  0.00     0.037 A 
ATOM     49  C   UNL     1     -11.848   5.173   1.547  1.00  0.00     0.037 A 
ATOM     50  C   UNL     1     -14.482   3.087  -4.031  1.00  0.00     0.049 A 
ATOM     51  C   UNL     1     -12.649   5.848   0.467  1.00  0.00     0.074 A 
ATOM     52  C   UNL     1     -15.299   3.787  -4.903  1.00  0.00     0.029 A 
ATOM     53  N   UNL     1     -14.131   3.966  -3.019  1.00  0.00    -0.354 N 
ATOM     54  N   UNL     1     -13.174   5.333  -0.618  1.00  0.00    -0.248 NA
ATOM     55  C   UNL     1     -12.896   7.288   0.627  1.00  0.00     0.031 C 
ATOM     56  C   UNL     1     -15.391   5.106  -4.452  1.00  0.00     0.029 A 
ATOM     57  C   UNL     1     -14.681   5.213  -3.268  1.00  0.00     0.049 A 
ATOM     58  H   UNL     1     -13.574   3.738  -2.240  1.00  0.00     0.167 HD
ATOM     59  C   UNL     1     -13.831   6.377  -1.254  1.00  0.00     0.074 A 
ATOM     60  C   UNL     1     -13.662   7.549  -0.422  1.00  0.00     0.031 C 
ATOM     61  C   UNL     1     -14.509   6.370  -2.428  1.00  0.00     0.037 A 
BRANCH  48  62
ATOM     62  C   UNL     1     -14.437   0.943  -5.347  1.00  0.00     0.057 A 
ATOM     63  C   UNL     1     -15.414  -0.059  -5.308  1.00  0.00     0.134 A 
ATOM     64  C   UNL     1     -13.900   1.275  -6.598  1.00  0.00     0.134 A 
ATOM     65  F   UNL     1     -15.963  -0.429  -4.141  1.00  0.00    -0.206 F 
ATOM     66  C   UNL     1     -15.838  -0.710  -6.469  1.00  0.00     0.040 A 
ATOM     67  C   UNL     1     -14.334   0.649  -7.768  1.00  0.00     0.040 A 
ATOM     68  F   UNL     1     -12.965   2.231  -6.706  1.00  0.00    -0.206 F 
ATOM     69  C   UNL     1     -15.306  -0.346  -7.705  1.00  0.00     0.006 A 
ENDBRANCH  48  62
BRANCH  49  70
ATOM     70  C   UNL     1     -11.336   5.955   2.703  1.00  0.00     0.057 A 
ATOM     71  C   UNL     1     -12.210   6.524   3.638  1.00  0.00     0.134 A 
ATOM     72  C   UNL     1      -9.967   6.196   2.873  1.00  0.00     0.134 A 
ATOM     73  F   UNL     1     -13.534   6.347   3.520  1.00  0.00    -0.206 F 
ATOM     74  C   UNL     1     -11.745   7.334   4.676  1.00  0.00     0.040 A 
ATOM     75  C   UNL     1      -9.486   6.977   3.925  1.00  0.00     0.040 A 
ATOM     76  F   UNL     1      -9.075   5.673   2.018  1.00  0.00    -0.206 F 
ATOM     77  C   UNL     1     -10.378   7.561   4.822  1.00  0.00     0.006 A 
ENDBRANCH  49  70
BRANCH  61  78
ATOM     78  C   UNL     1     -15.137   7.661  -2.867  1.00  0.00     0.057 A 
ATOM     79  C   UNL     1     -14.368   8.743  -3.312  1.00  0.00     0.134 A 
ATOM     80  C   UNL     1     -16.530   7.810  -2.878  1.00  0.00     0.134 A 
ATOM     81  F   UNL     1     -13.028   8.670  -3.313  1.00  0.00    -0.206 F 
ATOM     82  C   UNL     1     -14.959   9.937  -3.726  1.00  0.00     0.040 A 
ATOM     83  C   UNL     1     -17.134   8.988  -3.320  1.00  0.00     0.040 A 
ATOM     84  F   UNL     1     -17.327   6.809  -2.474  1.00  0.00    -0.206 F 
ATOM     85  C   UNL     1     -16.348  10.059  -3.738  1.00  0.00     0.006 A 
ENDBRANCH  61  78
ENDBRANCH  35  36
ENDBRANCH  27  30
ENDBRANCH  25  26
ENDBRANCH  24  25
ENDBRANCH  23  24
ENDBRANCH   1  23
TORSDOF 17
