REMARK SMILES O=C(NCCCCCCNC(=O)c1cc(OCc2ccccc2C(F)(F)F)cs1)c1ccc(-c2c3nc(c(-c4c(F)cccc4F)c4ccc([nH]4)c(-c4c(F)cccc4F)c4nc(c(-c5c(F)cccc5F)c5ccc2[nH]5)C=C4)C=C3)cc1
REMARK SMILES IDX 7 1 6 2 5 3 4 4 3 5 1 6 2 7 30 9 31 10 83 11 32 12 82 13
REMARK SMILES IDX 33 14 34 15 35 16 76 17 36 18 81 19 75 20 77 21 37 22 80 23
REMARK SMILES IDX 74 24 73 25 38 27 64 28 47 29 63 30 48 31 51 32 62 33 78 34
REMARK SMILES IDX 49 35 50 36 61 38 79 39 52 40 39 41 40 42 45 43 41 44 42 45
REMARK SMILES IDX 44 46 46 47 43 48 65 49 66 50 71 51 67 52 68 53 70 54 72 55
REMARK SMILES IDX 69 56 53 57 54 58 59 59 55 60 56 61 58 62 60 63 57 64 8 65
REMARK SMILES IDX 9 66 10 67 11 68 12 70 13 71 14 72 29 73 15 74 28 75 16 76
REMARK SMILES IDX 17 77 18 78 19 79 23 80 20 81 22 82 21 83 24 84 25 85 26 86
REMARK SMILES IDX 27 87
REMARK H PARENT 3 8 77 26 51 37 10 69
REMARK Flexibility Score: inf
ROOT
ATOM      1  C   UNL     1       4.778  -3.119  -3.218  1.00  0.00     0.002 C 
ENDROOT
BRANCH   1   2
ATOM      2  C   UNL     1       4.188  -3.482  -1.852  1.00  0.00     0.002 C 
BRANCH   2   3
ATOM      3  C   UNL     1       4.649  -2.621  -0.677  1.00  0.00     0.021 C 
BRANCH   3   4
ATOM      4  C   UNL     1       4.440  -1.120  -0.840  1.00  0.00     0.116 C 
BRANCH   4   5
ATOM      5  N   UNL     1       3.038  -0.739  -0.884  1.00  0.00    -0.352 N 
ATOM      6  O   UNL     1       1.134   0.280  -0.231  1.00  0.00    -0.269 OA
ATOM      7  C   UNL     1       2.354   0.187  -0.131  1.00  0.00     0.251 C 
ATOM      8  H   UNL     1       2.496  -1.216  -1.553  1.00  0.00     0.163 HD
BRANCH   7   9
ATOM      9  C   UNL     1       3.078   1.050   0.831  1.00  0.00     0.039 A 
ATOM     10  C   UNL     1       4.286   1.659   0.486  1.00  0.00     0.014 A 
ATOM     11  C   UNL     1       2.535   1.252   2.104  1.00  0.00     0.014 A 
ATOM     12  C   UNL     1       5.027   2.325   1.458  1.00  0.00     0.010 A 
ATOM     13  C   UNL     1       3.241   1.996   3.055  1.00  0.00     0.010 A 
ATOM     14  C   UNL     1       4.516   2.499   2.755  1.00  0.00    -0.014 A 
BRANCH  14  15
ATOM     15  C   UNL     1       5.330   3.225   3.767  1.00  0.00     0.031 A 
ATOM     16  C   UNL     1       5.847   2.527   4.997  1.00  0.00     0.074 A 
ATOM     17  C   UNL     1       5.647   4.515   3.547  1.00  0.00     0.049 A 
ATOM     18  N   UNL     1       6.625   2.992   5.943  1.00  0.00    -0.248 NA
ATOM     19  C   UNL     1       5.433   1.130   5.198  1.00  0.00     0.031 C 
ATOM     20  C   UNL     1       5.195   5.310   2.403  1.00  0.00     0.029 A 
ATOM     21  N   UNL     1       6.444   5.378   4.256  1.00  0.00    -0.354 N 
ATOM     22  C   UNL     1       6.773   1.959   6.860  1.00  0.00     0.074 A 
ATOM     23  C   UNL     1       5.986   0.848   6.370  1.00  0.00     0.031 C 
ATOM     24  C   UNL     1       5.764   6.523   2.458  1.00  0.00     0.029 A 
ATOM     25  C   UNL     1       6.580   6.610   3.664  1.00  0.00     0.049 A 
ATOM     26  H   UNL     1       6.875   5.137   5.108  1.00  0.00     0.167 HD
ATOM     27  C   UNL     1       7.503   1.935   8.002  1.00  0.00     0.037 A 
ATOM     28  C   UNL     1       7.282   7.692   4.048  1.00  0.00     0.037 A 
ATOM     29  C   UNL     1       8.307   3.032   8.478  1.00  0.00     0.049 A 
ATOM     30  C   UNL     1       8.087   7.635   5.313  1.00  0.00     0.074 A 
ATOM     31  C   UNL     1       9.118   3.084   9.600  1.00  0.00     0.029 A 
ATOM     32  N   UNL     1       8.402   4.270   7.860  1.00  0.00    -0.354 N 
ATOM     33  N   UNL     1       8.251   6.635   6.144  1.00  0.00    -0.248 NA
ATOM     34  C   UNL     1       8.805   8.859   5.693  1.00  0.00     0.031 C 
ATOM     35  C   UNL     1       9.673   4.366   9.681  1.00  0.00     0.029 A 
ATOM     36  C   UNL     1       9.243   5.098   8.587  1.00  0.00     0.049 A 
ATOM     37  H   UNL     1       7.940   4.523   7.029  1.00  0.00     0.167 HD
ATOM     38  C   UNL     1       9.107   7.101   7.133  1.00  0.00     0.074 A 
ATOM     39  C   UNL     1       9.441   8.467   6.788  1.00  0.00     0.031 C 
ATOM     40  C   UNL     1       9.572   6.454   8.229  1.00  0.00     0.037 A 
BRANCH  27  41
ATOM     41  C   UNL     1       7.458   0.684   8.830  1.00  0.00     0.057 A 
ATOM     42  C   UNL     1       8.107  -0.492   8.434  1.00  0.00     0.134 A 
ATOM     43  C   UNL     1       6.792   0.670  10.063  1.00  0.00     0.134 A 
ATOM     44  F   UNL     1       8.753  -0.550   7.259  1.00  0.00    -0.206 F 
ATOM     45  C   UNL     1       8.079  -1.643   9.225  1.00  0.00     0.040 A 
ATOM     46  C   UNL     1       6.776  -0.468  10.872  1.00  0.00     0.040 A 
ATOM     47  F   UNL     1       6.156   1.765  10.505  1.00  0.00    -0.206 F 
ATOM     48  C   UNL     1       7.418  -1.630  10.451  1.00  0.00     0.006 A 
ENDBRANCH  27  41
BRANCH  28  49
ATOM     49  C   UNL     1       7.268   8.915   3.210  1.00  0.00     0.057 A 
ATOM     50  C   UNL     1       8.403   9.313   2.494  1.00  0.00     0.134 A 
ATOM     51  C   UNL     1       6.121   9.710   3.099  1.00  0.00     0.134 A 
ATOM     52  F   UNL     1       9.536   8.600   2.575  1.00  0.00    -0.206 F 
ATOM     53  C   UNL     1       8.403  10.466   1.708  1.00  0.00     0.040 A 
ATOM     54  C   UNL     1       6.099  10.851   2.296  1.00  0.00     0.040 A 
ATOM     55  F   UNL     1       5.000   9.376   3.755  1.00  0.00    -0.206 F 
ATOM     56  C   UNL     1       7.245  11.235   1.603  1.00  0.00     0.006 A 
ENDBRANCH  28  49
BRANCH  40  57
ATOM     57  C   UNL     1      10.521   7.208   9.111  1.00  0.00     0.057 A 
ATOM     58  C   UNL     1      10.089   8.247   9.945  1.00  0.00     0.134 A 
ATOM     59  C   UNL     1      11.883   6.880   9.137  1.00  0.00     0.134 A 
ATOM     60  F   UNL     1       8.800   8.618   9.955  1.00  0.00    -0.206 F 
ATOM     61  C   UNL     1      10.983   8.951  10.754  1.00  0.00     0.040 A 
ATOM     62  C   UNL     1      12.781   7.561   9.959  1.00  0.00     0.040 A 
ATOM     63  F   UNL     1      12.360   5.890   8.367  1.00  0.00    -0.206 F 
ATOM     64  C   UNL     1      12.333   8.605  10.765  1.00  0.00     0.006 A 
ENDBRANCH  40  57
ENDBRANCH  14  15
ENDBRANCH   7   9
ENDBRANCH   4   5
ENDBRANCH   3   4
ENDBRANCH   2   3
ENDBRANCH   1   2
BRANCH   1  65
ATOM     65  C   UNL     1       6.306  -3.035  -3.286  1.00  0.00     0.021 C 
BRANCH  65  66
ATOM     66  C   UNL     1       7.045  -4.315  -2.900  1.00  0.00     0.116 C 
BRANCH  66  67
ATOM     67  N   UNL     1       6.811  -5.394  -3.848  1.00  0.00    -0.351 N 
ATOM     68  C   UNL     1       7.727  -6.123  -4.575  1.00  0.00     0.261 C 
ATOM     69  H   UNL     1       5.868  -5.636  -3.990  1.00  0.00     0.163 HD
ATOM     70  O   UNL     1       7.299  -6.879  -5.450  1.00  0.00    -0.268 OA
BRANCH  68  71
ATOM     71  C   UNL     1       9.128  -5.963  -4.259  1.00  0.00     0.096 A 
ATOM     72  C   UNL     1       9.738  -6.047  -3.022  1.00  0.00     0.072 A 
ATOM     73  S   UNL     1      10.262  -5.628  -5.491  1.00  0.00    -0.135 S 
ATOM     74  C   UNL     1      11.090  -5.611  -3.056  1.00  0.00     0.131 A 
ATOM     75  C   UNL     1      11.516  -5.393  -4.346  1.00  0.00     0.112 A 
BRANCH  74  76
ATOM     76  O   UNL     1      11.944  -5.381  -2.023  1.00  0.00    -0.488 OA
BRANCH  76  77
ATOM     77  C   UNL     1      11.401  -5.593  -0.711  1.00  0.00     0.266 C 
BRANCH  77  78
ATOM     78  C   UNL     1      10.438  -4.500  -0.261  1.00  0.00     0.001 A 
ATOM     79  C   UNL     1      10.808  -3.162  -0.513  1.00  0.00     0.008 A 
ATOM     80  C   UNL     1       9.219  -4.747   0.417  1.00  0.00     0.062 A 
ATOM     81  C   UNL     1       9.986  -2.095  -0.149  1.00  0.00     0.000 A 
ATOM     82  C   UNL     1       8.399  -3.649   0.765  1.00  0.00     0.013 A 
ATOM     83  C   UNL     1       8.777  -2.338   0.485  1.00  0.00     0.001 A 
BRANCH  80  84
ATOM     84  C   UNL     1       8.672  -6.119   0.756  1.00  0.00     0.416 C 
ATOM     85  F   UNL     1       8.081  -6.157   1.984  1.00  0.00    -0.166 F 
ATOM     86  F   UNL     1       7.706  -6.501  -0.127  1.00  0.00    -0.166 F 
ATOM     87  F   UNL     1       9.585  -7.123   0.768  1.00  0.00    -0.166 F 
ENDBRANCH  80  84
ENDBRANCH  77  78
ENDBRANCH  76  77
ENDBRANCH  74  76
ENDBRANCH  68  71
ENDBRANCH  66  67
ENDBRANCH  65  66
ENDBRANCH   1  65
TORSDOF 17
