REMARK SMILES Cc1c(NC(=O)[C@@H]2CC=CC[C@@H]2C(=O)NCCCCCCNC(=O)c2ccc(-c3c4nc(c(-c5c(F)cccc5F)c5ccc([nH]5)c(-c5c(F)cccc5F)c5nc(c(-c6c(F)cccc6F)c6ccc3[nH]6)C=C5)C=C4)cc2)cccc1C(=O)N1CCOCC1
REMARK SMILES IDX 18 1 17 2 16 3 15 4 13 5 14 6 12 8 7 9 8 10 9 11 11 12 10 13
REMARK SMILES IDX 5 14 4 15 6 17 3 18 1 19 2 20 82 21 79 22 81 23 80 24 83 25
REMARK SMILES IDX 84 26 85 27 86 28 90 29 87 30 89 31 88 32 19 33 20 34 21 35
REMARK SMILES IDX 22 36 23 37 24 39 25 40 26 41 78 42 27 43 77 44 28 45 29 46
REMARK SMILES IDX 30 47 71 48 31 49 76 50 70 51 72 52 32 53 75 54 69 55 68 56
REMARK SMILES IDX 33 58 59 59 42 60 58 61 43 62 46 63 57 64 73 65 44 66 45 67
REMARK SMILES IDX 56 69 74 70 47 71 34 72 35 73 40 74 36 75 37 76 39 77 41 78
REMARK SMILES IDX 38 79 60 80 61 81 66 82 62 83 63 84 65 85 67 86 64 87 48 88
REMARK SMILES IDX 49 89 54 90 50 91 51 92 53 93 55 94 52 95
REMARK H PARENT 15 7 4 16 22 38 72 57 46 68
REMARK Flexibility Score: inf
ROOT
ATOM      1  C   UNL     1      -6.092  -5.048   1.798  1.00  0.00     0.002 C 
ENDROOT
BRANCH   1   2
ATOM      2  C   UNL     1      -4.611  -4.659   1.763  1.00  0.00     0.021 C 
BRANCH   2   3
ATOM      3  C   UNL     1      -3.975  -4.629   0.372  1.00  0.00     0.116 C 
BRANCH   3   4
ATOM      4  N   UNL     1      -4.234  -3.383  -0.319  1.00  0.00    -0.356 N 
ATOM      5  C   UNL     1      -3.501  -2.439  -0.947  1.00  0.00     0.224 C 
ATOM      6  O   UNL     1      -4.199  -1.568  -1.494  1.00  0.00    -0.275 OA
ATOM      7  H   UNL     1      -5.194  -3.169  -0.335  1.00  0.00     0.163 HD
BRANCH   5   8
ATOM      8  C   UNL     1      -1.965  -2.364  -1.124  1.00  0.00     0.095 C 
ATOM      9  C   UNL     1      -0.980  -3.213  -0.286  1.00  0.00     0.095 C 
ATOM     10  C   UNL     1      -1.156  -2.889   1.207  1.00  0.00     0.041 C 
ATOM     11  C   UNL     1      -1.112  -1.405   1.453  1.00  0.00    -0.030 C 
ATOM     12  C   UNL     1      -1.535  -0.879  -0.960  1.00  0.00     0.041 C 
ATOM     13  C   UNL     1      -1.256  -0.501   0.472  1.00  0.00    -0.030 C 
BRANCH   9  14
ATOM     14  C   UNL     1      -0.993  -4.665  -0.747  1.00  0.00     0.228 C 
ATOM     15  N   UNL     1      -0.300  -5.671  -0.163  1.00  0.00    -0.326 N 
ATOM     16  H   UNL     1      -0.622  -6.552  -0.462  1.00  0.00     0.169 HD
ATOM     17  O   UNL     1      -1.697  -5.016  -1.704  1.00  0.00    -0.274 OA
BRANCH  15  18
ATOM     18  C   UNL     1       0.755  -5.790   0.756  1.00  0.00     0.044 A 
ATOM     19  C   UNL     1      -0.160  -8.088   1.260  1.00  0.00     0.047 C 
ATOM     20  C   UNL     1       0.934  -7.057   1.383  1.00  0.00    -0.015 A 
ATOM     21  C   UNL     1       2.088  -7.285   2.167  1.00  0.00     0.045 A 
ATOM     22  C   UNL     1       1.655  -4.756   1.012  1.00  0.00     0.026 A 
ATOM     23  C   UNL     1       2.962  -6.215   2.422  1.00  0.00     0.014 A 
ATOM     24  C   UNL     1       2.736  -4.958   1.868  1.00  0.00     0.003 A 
BRANCH  21  25
ATOM     25  C   UNL     1       2.357  -8.535   2.941  1.00  0.00     0.254 C 
ATOM     26  O   UNL     1       2.730  -8.392   4.107  1.00  0.00    -0.269 OA
ATOM     27  N   UNL     1       2.141  -9.798   2.401  1.00  0.00    -0.334 N 
ATOM     28  C   UNL     1       2.255 -10.199   0.993  1.00  0.00     0.148 C 
ATOM     29  C   UNL     1       2.032 -10.928   3.327  1.00  0.00     0.148 C 
ATOM     30  C   UNL     1       1.193 -11.252   0.615  1.00  0.00     0.181 C 
ATOM     31  C   UNL     1       0.897 -11.851   2.885  1.00  0.00     0.181 C 
ATOM     32  O   UNL     1       1.140 -12.337   1.555  1.00  0.00    -0.378 OA
ENDBRANCH  21  25
ENDBRANCH  15  18
ENDBRANCH   9  14
ENDBRANCH   5   8
ENDBRANCH   3   4
ENDBRANCH   2   3
ENDBRANCH   1   2
BRANCH   1  33
ATOM     33  C   UNL     1      -6.467  -6.375   1.119  1.00  0.00     0.002 C 
BRANCH  33  34
ATOM     34  C   UNL     1      -5.577  -7.578   1.440  1.00  0.00     0.021 C 
BRANCH  34  35
ATOM     35  C   UNL     1      -5.636  -8.025   2.892  1.00  0.00     0.116 C 
BRANCH  35  36
ATOM     36  N   UNL     1      -6.771  -8.877   3.212  1.00  0.00    -0.352 N 
ATOM     37  C   UNL     1      -7.220  -9.364   4.432  1.00  0.00     0.251 C 
ATOM     38  H   UNL     1      -7.310  -9.153   2.436  1.00  0.00     0.163 HD
ATOM     39  O   UNL     1      -8.152 -10.141   4.459  1.00  0.00    -0.269 OA
BRANCH  37  40
ATOM     40  C   UNL     1      -6.663  -8.830   5.707  1.00  0.00     0.039 A 
ATOM     41  C   UNL     1      -7.542  -8.671   6.792  1.00  0.00     0.014 A 
ATOM     42  C   UNL     1      -5.375  -8.324   5.793  1.00  0.00     0.014 A 
ATOM     43  C   UNL     1      -7.215  -7.795   7.828  1.00  0.00     0.010 A 
ATOM     44  C   UNL     1      -5.095  -7.370   6.744  1.00  0.00     0.010 A 
ATOM     45  C   UNL     1      -6.039  -7.062   7.729  1.00  0.00    -0.014 A 
BRANCH  45  46
ATOM     46  C   UNL     1      -5.683  -5.915   8.553  1.00  0.00     0.031 A 
ATOM     47  C   UNL     1      -4.566  -6.026   9.514  1.00  0.00     0.074 A 
ATOM     48  C   UNL     1      -6.191  -4.707   8.229  1.00  0.00     0.049 A 
ATOM     49  N   UNL     1      -4.210  -5.098  10.333  1.00  0.00    -0.248 NA
ATOM     50  C   UNL     1      -3.783  -7.247   9.659  1.00  0.00     0.031 C 
ATOM     51  C   UNL     1      -5.632  -3.396   8.544  1.00  0.00     0.029 A 
ATOM     52  N   UNL     1      -7.459  -4.426   7.702  1.00  0.00    -0.354 N 
ATOM     53  C   UNL     1      -3.024  -5.475  10.922  1.00  0.00     0.074 A 
ATOM     54  C   UNL     1      -2.853  -6.854  10.533  1.00  0.00     0.031 C 
ATOM     55  C   UNL     1      -6.609  -2.480   8.476  1.00  0.00     0.029 A 
ATOM     56  C   UNL     1      -7.855  -3.204   8.301  1.00  0.00     0.049 A 
ATOM     57  H   UNL     1      -7.967  -4.963   7.052  1.00  0.00     0.167 HD
ATOM     58  C   UNL     1      -2.297  -4.528  11.584  1.00  0.00     0.037 A 
ATOM     59  C   UNL     1      -8.905  -3.162   9.175  1.00  0.00     0.037 A 
ATOM     60  C   UNL     1      -3.072  -3.291  11.723  1.00  0.00     0.049 A 
ATOM     61  C   UNL     1      -8.558  -2.703  10.577  1.00  0.00     0.074 A 
ATOM     62  C   UNL     1      -3.109  -2.075  11.061  1.00  0.00     0.029 A 
ATOM     63  N   UNL     1      -4.192  -3.319  12.532  1.00  0.00    -0.354 N 
ATOM     64  N   UNL     1      -7.344  -2.480  10.997  1.00  0.00    -0.248 NA
ATOM     65  C   UNL     1      -9.549  -2.550  11.645  1.00  0.00     0.031 C 
ATOM     66  C   UNL     1      -4.297  -1.393  11.462  1.00  0.00     0.029 A 
ATOM     67  C   UNL     1      -4.965  -2.190  12.374  1.00  0.00     0.049 A 
ATOM     68  H   UNL     1      -4.410  -4.056  13.148  1.00  0.00     0.167 HD
ATOM     69  C   UNL     1      -7.366  -2.249  12.345  1.00  0.00     0.074 A 
ATOM     70  C   UNL     1      -8.770  -2.279  12.706  1.00  0.00     0.031 C 
ATOM     71  C   UNL     1      -6.230  -2.109  13.083  1.00  0.00     0.037 A 
BRANCH  58  72
ATOM     72  C   UNL     1      -0.839  -4.618  11.992  1.00  0.00     0.057 A 
ATOM     73  C   UNL     1      -0.152  -3.456  12.409  1.00  0.00     0.134 A 
ATOM     74  C   UNL     1      -0.023  -5.763  11.944  1.00  0.00     0.134 A 
ATOM     75  F   UNL     1      -0.783  -2.284  12.574  1.00  0.00    -0.206 F 
ATOM     76  C   UNL     1       1.224  -3.426  12.676  1.00  0.00     0.040 A 
ATOM     77  C   UNL     1       1.356  -5.746  12.198  1.00  0.00     0.040 A 
ATOM     78  F   UNL     1      -0.498  -6.979  11.679  1.00  0.00    -0.206 F 
ATOM     79  C   UNL     1       1.991  -4.571  12.553  1.00  0.00     0.006 A 
ENDBRANCH  58  72
BRANCH  59  80
ATOM     80  C   UNL     1      -9.944  -4.176   8.855  1.00  0.00     0.057 A 
ATOM     81  C   UNL     1     -10.645  -4.059   7.642  1.00  0.00     0.134 A 
ATOM     82  C   UNL     1      -9.946  -5.426   9.480  1.00  0.00     0.134 A 
ATOM     83  F   UNL     1     -10.677  -2.884   6.992  1.00  0.00    -0.206 F 
ATOM     84  C   UNL     1     -11.210  -5.169   7.012  1.00  0.00     0.040 A 
ATOM     85  C   UNL     1     -10.522  -6.542   8.865  1.00  0.00     0.040 A 
ATOM     86  F   UNL     1      -9.282  -5.616  10.630  1.00  0.00    -0.206 F 
ATOM     87  C   UNL     1     -11.116  -6.423   7.608  1.00  0.00     0.006 A 
ENDBRANCH  59  80
BRANCH  71  88
ATOM     88  C   UNL     1      -6.236  -1.903  14.563  1.00  0.00     0.057 A 
ATOM     89  C   UNL     1      -6.948  -0.860  15.165  1.00  0.00     0.134 A 
ATOM     90  C   UNL     1      -5.409  -2.664  15.411  1.00  0.00     0.134 A 
ATOM     91  F   UNL     1      -7.752  -0.070  14.439  1.00  0.00    -0.206 F 
ATOM     92  C   UNL     1      -6.838  -0.585  16.533  1.00  0.00     0.040 A 
ATOM     93  C   UNL     1      -5.256  -2.372  16.767  1.00  0.00     0.040 A 
ATOM     94  F   UNL     1      -4.732  -3.729  14.953  1.00  0.00    -0.206 F 
ATOM     95  C   UNL     1      -5.974  -1.328  17.333  1.00  0.00     0.006 A 
ENDBRANCH  71  88
ENDBRANCH  45  46
ENDBRANCH  37  40
ENDBRANCH  35  36
ENDBRANCH  34  35
ENDBRANCH  33  34
ENDBRANCH   1  33
TORSDOF 16
