REMARK SMILES Cc1ccc(C(=O)NC2(CC(=O)NCCCCCCNC(=O)c3ccc(-c4c5nc(c(-c6c(F)cccc6F)c6ccc([nH]6)c(-c6c(F)cccc6F)c6nc(c(-c7c(F)cccc7F)c7ccc4[nH]7)C=C6)C=C5)cc3)CCC2)cc1
REMARK SMILES IDX 16 1 15 2 14 3 13 4 11 5 12 6 10 8 9 9 77 10 79 11 78 12
REMARK SMILES IDX 8 13 6 14 7 15 5 17 1 18 2 19 3 20 81 21 4 22 80 23 17 24
REMARK SMILES IDX 18 25 19 26 20 27 21 28 22 30 23 31 24 32 76 33 25 34 75 35
REMARK SMILES IDX 26 36 27 37 28 38 69 39 29 40 74 41 68 42 70 43 30 44 73 45
REMARK SMILES IDX 67 46 66 47 31 49 57 50 40 51 56 52 41 53 44 54 55 55 71 56
REMARK SMILES IDX 42 57 43 58 54 60 72 61 45 62 32 63 33 64 38 65 34 66 35 67
REMARK SMILES IDX 37 68 39 69 36 70 58 71 59 72 64 73 60 74 61 75 63 76 65 77
REMARK SMILES IDX 62 78 46 79 47 80 52 81 48 82 49 83 51 84 53 85 50 86
REMARK H PARENT 13 7 8 16 20 29 70 48 44 59
REMARK Flexibility Score: inf
ROOT
ATOM      1  C   UNL     1       0.609   0.017   3.484  1.00  0.00     0.002 C 
ENDROOT
BRANCH   1   2
ATOM      2  C   UNL     1      -0.426   1.035   3.054  1.00  0.00     0.021 C 
BRANCH   2   3
ATOM      3  C   UNL     1      -0.134   1.625   1.699  1.00  0.00     0.116 C 
BRANCH   3   4
ATOM      4  N   UNL     1      -0.390   0.592   0.435  1.00  0.00    -0.356 N 
ATOM      5  C   UNL     1      -1.288   0.608  -1.325  1.00  0.00     0.222 C 
ATOM      6  O   UNL     1      -1.135  -0.129  -2.336  1.00  0.00    -0.275 OA
ATOM      7  H   UNL     1       0.025  -0.283   0.609  1.00  0.00     0.163 HD
BRANCH   5   8
ATOM      8  C   UNL     1      -2.668   1.835  -1.772  1.00  0.00     0.128 C 
BRANCH   8   9
ATOM      9  C   UNL     1      -3.741   2.540  -0.671  1.00  0.00     0.049 C 
ATOM     10  C   UNL     1      -4.455   3.870  -1.098  1.00  0.00     0.029 C 
ATOM     11  C   UNL     1      -3.625   3.389   0.799  1.00  0.00     0.029 C 
ATOM     12  C   UNL     1      -3.659   4.662  -0.013  1.00  0.00     0.005 C 
BRANCH   9  13
ATOM     13  N   UNL     1      -4.531   1.416  -0.196  1.00  0.00    -0.346 N 
ATOM     14  C   UNL     1      -3.825   0.540   0.578  1.00  0.00     0.251 C 
ATOM     15  O   UNL     1      -4.332  -0.377   1.202  1.00  0.00    -0.269 OA
ATOM     16  H   UNL     1      -5.484   1.298  -0.411  1.00  0.00     0.164 HD
BRANCH  14  17
ATOM     17  C   UNL     1      -2.341   0.700   0.417  1.00  0.00     0.039 A 
ATOM     18  C   UNL     1       2.420   0.030  -1.154  1.00  0.00     0.044 C 
ATOM     19  C   UNL     1       0.925   0.246  -1.128  1.00  0.00    -0.051 A 
ATOM     20  C   UNL     1      -0.070  -1.187  -0.659  1.00  0.00     0.004 A 
ATOM     21  C   UNL     1       0.316   1.927  -0.934  1.00  0.00     0.004 A 
ATOM     22  C   UNL     1      -1.679  -0.963   0.101  1.00  0.00     0.014 A 
ATOM     23  C   UNL     1      -1.308   2.203  -0.132  1.00  0.00     0.014 A 
ENDBRANCH  14  17
ENDBRANCH   9  13
ENDBRANCH   8   9
ENDBRANCH   5   8
ENDBRANCH   3   4
ENDBRANCH   2   3
ENDBRANCH   1   2
BRANCH   1  24
ATOM     24  C   UNL     1       2.056   0.345   3.080  1.00  0.00     0.002 C 
BRANCH  24  25
ATOM     25  C   UNL     1       2.562   1.771   3.347  1.00  0.00     0.021 C 
BRANCH  25  26
ATOM     26  C   UNL     1       2.455   2.179   4.786  1.00  0.00     0.116 C 
BRANCH  26  27
ATOM     27  N   UNL     1       3.435   1.485   5.584  1.00  0.00    -0.352 N 
ATOM     28  C   UNL     1       3.954   1.801   6.814  1.00  0.00     0.251 C 
ATOM     29  H   UNL     1       3.786   0.656   5.185  1.00  0.00     0.163 HD
ATOM     30  O   UNL     1       4.990   1.247   7.173  1.00  0.00    -0.269 OA
BRANCH  28  31
ATOM     31  C   UNL     1       3.140   2.584   7.792  1.00  0.00     0.039 A 
ATOM     32  C   UNL     1       3.147   1.984   9.059  1.00  0.00     0.014 A 
ATOM     33  C   UNL     1       1.995   3.228   7.346  1.00  0.00     0.014 A 
ATOM     34  C   UNL     1       1.940   1.647   9.640  1.00  0.00     0.010 A 
ATOM     35  C   UNL     1       0.803   2.722   7.776  1.00  0.00     0.010 A 
ATOM     36  C   UNL     1       0.795   1.897   8.900  1.00  0.00    -0.014 A 
BRANCH  36  37
ATOM     37  C   UNL     1      -0.539   1.591   9.339  1.00  0.00     0.031 A 
ATOM     38  C   UNL     1      -1.136   2.670  10.147  1.00  0.00     0.074 A 
ATOM     39  C   UNL     1      -1.134   0.510   8.787  1.00  0.00     0.049 A 
ATOM     40  N   UNL     1      -2.112   2.523  10.954  1.00  0.00    -0.248 NA
ATOM     41  C   UNL     1      -0.604   4.042  10.169  1.00  0.00     0.031 C 
ATOM     42  C   UNL     1      -2.538   0.131   8.752  1.00  0.00     0.029 A 
ATOM     43  N   UNL     1      -0.476  -0.612   8.259  1.00  0.00    -0.354 N 
ATOM     44  C   UNL     1      -2.570   3.787  11.276  1.00  0.00     0.074 A 
ATOM     45  C   UNL     1      -1.513   4.683  10.906  1.00  0.00     0.031 C 
ATOM     46  C   UNL     1      -2.624  -1.203   8.573  1.00  0.00     0.029 A 
ATOM     47  C   UNL     1      -1.268  -1.731   8.601  1.00  0.00     0.049 A 
ATOM     48  H   UNL     1       0.368  -0.618   7.753  1.00  0.00     0.167 HD
ATOM     49  C   UNL     1      -3.877   3.899  11.640  1.00  0.00     0.037 A 
ATOM     50  C   UNL     1      -0.795  -2.624   9.524  1.00  0.00     0.037 A 
ATOM     51  C   UNL     1      -4.458   2.558  11.658  1.00  0.00     0.049 A 
ATOM     52  C   UNL     1      -1.584  -2.517  10.809  1.00  0.00     0.074 A 
ATOM     53  C   UNL     1      -5.132   1.838  10.686  1.00  0.00     0.029 A 
ATOM     54  N   UNL     1      -3.966   1.635  12.572  1.00  0.00    -0.354 N 
ATOM     55  N   UNL     1      -2.146  -1.411  11.228  1.00  0.00    -0.248 NA
ATOM     56  C   UNL     1      -1.908  -3.669  11.646  1.00  0.00     0.031 C 
ATOM     57  C   UNL     1      -4.962   0.458  10.982  1.00  0.00     0.029 A 
ATOM     58  C   UNL     1      -4.190   0.347  12.128  1.00  0.00     0.049 A 
ATOM     59  H   UNL     1      -3.521   1.868  13.418  1.00  0.00     0.167 HD
ATOM     60  C   UNL     1      -2.937  -1.695  12.310  1.00  0.00     0.074 A 
ATOM     61  C   UNL     1      -2.739  -3.114  12.544  1.00  0.00     0.031 C 
ATOM     62  C   UNL     1      -3.742  -0.780  12.926  1.00  0.00     0.037 A 
BRANCH  49  63
ATOM     63  C   UNL     1      -4.717   5.152  11.710  1.00  0.00     0.057 A 
ATOM     64  C   UNL     1      -6.124   5.034  11.749  1.00  0.00     0.134 A 
ATOM     65  C   UNL     1      -4.254   6.479  11.713  1.00  0.00     0.134 A 
ATOM     66  F   UNL     1      -6.730   3.840  11.797  1.00  0.00    -0.206 F 
ATOM     67  C   UNL     1      -6.991   6.132  11.744  1.00  0.00     0.040 A 
ATOM     68  C   UNL     1      -5.113   7.591  11.699  1.00  0.00     0.040 A 
ATOM     69  F   UNL     1      -2.955   6.785  11.759  1.00  0.00    -0.206 F 
ATOM     70  C   UNL     1      -6.487   7.420  11.710  1.00  0.00     0.006 A 
ENDBRANCH  49  63
BRANCH  50  71
ATOM     71  C   UNL     1       0.681  -2.824   9.371  1.00  0.00     0.057 A 
ATOM     72  C   UNL     1       1.109  -3.394   8.153  1.00  0.00     0.134 A 
ATOM     73  C   UNL     1       1.601  -2.011  10.040  1.00  0.00     0.134 A 
ATOM     74  F   UNL     1       0.298  -4.230   7.483  1.00  0.00    -0.206 F 
ATOM     75  C   UNL     1       2.283  -2.982   7.515  1.00  0.00     0.040 A 
ATOM     76  C   UNL     1       2.798  -1.620   9.421  1.00  0.00     0.040 A 
ATOM     77  F   UNL     1       1.293  -1.455  11.220  1.00  0.00    -0.206 F 
ATOM     78  C   UNL     1       3.103  -2.043   8.127  1.00  0.00     0.006 A 
ENDBRANCH  50  71
BRANCH  62  79
ATOM     79  C   UNL     1      -4.257  -0.914  14.336  1.00  0.00     0.057 A 
ATOM     80  C   UNL     1      -3.629  -1.696  15.314  1.00  0.00     0.134 A 
ATOM     81  C   UNL     1      -5.313  -0.099  14.808  1.00  0.00     0.134 A 
ATOM     82  F   UNL     1      -2.521  -2.403  15.050  1.00  0.00    -0.206 F 
ATOM     83  C   UNL     1      -4.078  -1.744  16.637  1.00  0.00     0.040 A 
ATOM     84  C   UNL     1      -5.711  -0.073  16.144  1.00  0.00     0.040 A 
ATOM     85  F   UNL     1      -5.986   0.738  14.005  1.00  0.00    -0.206 F 
ATOM     86  C   UNL     1      -5.114  -0.923  17.059  1.00  0.00     0.006 A 
ENDBRANCH  62  79
ENDBRANCH  36  37
ENDBRANCH  28  31
ENDBRANCH  26  27
ENDBRANCH  25  26
ENDBRANCH  24  25
ENDBRANCH   1  24
TORSDOF 16
