REMARK SMILES CC[C@@](C)([NH2+]CC(=O)N[C@@H](C)c1ccc(F)cc1)C(=O)NCCCCCCNC(=O)c1ccc(-c2c3nc(c(-c4c(F)cccc4F)c4ccc([nH]4)c(-c4c(F)cccc4F)c4nc(c(-c5c(F)cccc5F)c5ccc2[nH]5)C=C4)C=C3)cc1
REMARK SMILES IDX 23 1 22 2 21 3 19 4 20 5 3 7 4 8 2 9 1 10 5 11 6 14 7 15
REMARK SMILES IDX 8 16 9 17 10 19 11 20 12 21 13 22 18 23 14 24 17 25 15 26
REMARK SMILES IDX 16 27 24 28 25 29 26 30 27 31 28 32 29 33 30 35 31 36 32 37
REMARK SMILES IDX 84 38 33 39 83 40 34 41 35 42 36 43 77 44 37 45 82 46 76 47
REMARK SMILES IDX 78 48 38 49 81 50 75 51 74 52 39 54 65 55 48 56 64 57 49 58
REMARK SMILES IDX 52 59 63 60 79 61 50 62 51 63 62 65 80 66 53 67 40 68 41 69
REMARK SMILES IDX 46 70 42 71 43 72 45 73 47 74 44 75 66 76 67 77 72 78 68 79
REMARK SMILES IDX 69 80 71 81 73 82 70 83 54 84 55 85 60 86 56 87 57 88 59 89
REMARK SMILES IDX 61 90 58 91
REMARK H PARENT 21 6 5 12 5 13 9 18 28 34 78 53 52 64
REMARK Flexibility Score: inf
ROOT
ATOM      1  C   UNL     1       3.639   4.194  -4.566  1.00  0.00     0.021 C 
ENDROOT
BRANCH   1   2
ATOM      2  C   UNL     1       2.914   2.959  -4.042  1.00  0.00     0.116 C 
BRANCH   2   3
ATOM      3  N   UNL     1       2.949   2.753  -2.599  1.00  0.00    -0.351 N 
ATOM      4  C   UNL     1       2.153   2.090  -1.688  1.00  0.00     0.281 C 
ATOM      5  O   UNL     1       2.844   1.582  -0.790  1.00  0.00    -0.268 OA
ATOM      6  H   UNL     1       3.723   3.188  -2.175  1.00  0.00     0.163 HD
BRANCH   4   7
ATOM      7  C   UNL     1       0.489   2.029  -1.622  1.00  0.00     0.172 C 
ATOM      8  C   UNL     1      -0.636   0.999  -1.953  1.00  0.00     0.090 C 
BRANCH   7   9
ATOM      9  C   UNL     1       0.267   2.178  -0.056  1.00  0.00     0.075 C 
ATOM     10  C   UNL     1       0.543   0.853   0.731  1.00  0.00     0.011 C 
ENDBRANCH   7   9
BRANCH   7  11
ATOM     11  N   UNL     1       0.126   3.151  -2.488  1.00  0.00    -0.326 N 
ATOM     12  H   UNL     1       0.919   3.792  -2.514  1.00  0.00     0.347 HD
ATOM     13  H   UNL     1      -0.723   3.542  -2.080  1.00  0.00     0.347 HD
BRANCH  11  14
ATOM     14  C   UNL     1      -0.232   2.815  -3.899  1.00  0.00     0.362 C 
BRANCH  14  15
ATOM     15  C   UNL     1       0.147   1.499  -4.729  1.00  0.00     0.275 C 
ATOM     16  O   UNL     1      -0.437   1.443  -5.836  1.00  0.00    -0.268 OA
ATOM     17  N   UNL     1       0.971   0.419  -4.580  1.00  0.00    -0.345 N 
ATOM     18  H   UNL     1       1.013  -0.042  -5.449  1.00  0.00     0.164 HD
BRANCH  17  19
ATOM     19  C   UNL     1       1.837  -0.346  -3.622  1.00  0.00     0.109 C 
ATOM     20  C   UNL     1       1.122  -1.502  -2.884  1.00  0.00     0.036 C 
BRANCH  19  21
ATOM     21  C   UNL     1       3.101  -0.937  -4.267  1.00  0.00    -0.026 A 
ATOM     22  C   UNL     1       4.351  -0.320  -4.067  1.00  0.00     0.009 A 
ATOM     23  C   UNL     1       3.090  -2.191  -4.905  1.00  0.00     0.009 A 
ATOM     24  C   UNL     1       5.536  -0.901  -4.523  1.00  0.00     0.039 A 
ATOM     25  C   UNL     1       4.284  -2.808  -5.296  1.00  0.00     0.039 A 
ATOM     26  C   UNL     1       5.493  -2.150  -5.117  1.00  0.00     0.123 A 
ATOM     27  F   UNL     1       6.633  -2.743  -5.492  1.00  0.00    -0.207 F 
ENDBRANCH  19  21
ENDBRANCH  17  19
ENDBRANCH  14  15
ENDBRANCH  11  14
ENDBRANCH   7  11
ENDBRANCH   4   7
ENDBRANCH   2   3
ENDBRANCH   1   2
BRANCH   1  28
ATOM     28  C   UNL     1       5.057   3.934  -5.089  1.00  0.00     0.002 C 
BRANCH  28  29
ATOM     29  C   UNL     1       5.213   2.847  -6.164  1.00  0.00     0.002 C 
BRANCH  29  30
ATOM     30  C   UNL     1       4.306   2.958  -7.391  1.00  0.00     0.021 C 
BRANCH  30  31
ATOM     31  C   UNL     1       4.404   4.279  -8.143  1.00  0.00     0.116 C 
BRANCH  31  32
ATOM     32  N   UNL     1       5.773   4.599  -8.523  1.00  0.00    -0.352 N 
ATOM     33  C   UNL     1       6.285   4.926  -9.748  1.00  0.00     0.251 C 
ATOM     34  H   UNL     1       6.427   4.578  -7.788  1.00  0.00     0.163 HD
ATOM     35  O   UNL     1       7.507   4.979  -9.916  1.00  0.00    -0.269 OA
BRANCH  33  36
ATOM     36  C   UNL     1       5.378   5.202 -10.876  1.00  0.00     0.039 A 
ATOM     37  C   UNL     1       5.667   4.660 -12.130  1.00  0.00     0.014 A 
ATOM     38  C   UNL     1       4.241   5.995 -10.693  1.00  0.00     0.014 A 
ATOM     39  C   UNL     1       4.781   4.865 -13.188  1.00  0.00     0.010 A 
ATOM     40  C   UNL     1       3.319   6.127 -11.723  1.00  0.00     0.010 A 
ATOM     41  C   UNL     1       3.583   5.570 -12.983  1.00  0.00    -0.014 A 
BRANCH  41  42
ATOM     42  C   UNL     1       2.593   5.738 -14.073  1.00  0.00     0.031 A 
ATOM     43  C   UNL     1       2.257   7.113 -14.579  1.00  0.00     0.074 A 
ATOM     44  C   UNL     1       1.955   4.658 -14.562  1.00  0.00     0.049 A 
ATOM     45  N   UNL     1       1.371   7.468 -15.473  1.00  0.00    -0.248 NA
ATOM     46  C   UNL     1       2.995   8.240 -13.985  1.00  0.00     0.031 C 
ATOM     47  C   UNL     1       2.167   3.279 -14.118  1.00  0.00     0.029 A 
ATOM     48  N   UNL     1       0.993   4.549 -15.534  1.00  0.00    -0.354 N 
ATOM     49  C   UNL     1       1.440   8.853 -15.541  1.00  0.00     0.074 A 
ATOM     50  C   UNL     1       2.408   9.281 -14.557  1.00  0.00     0.031 C 
ATOM     51  C   UNL     1       1.386   2.460 -14.839  1.00  0.00     0.029 A 
ATOM     52  C   UNL     1       0.583   3.257 -15.761  1.00  0.00     0.049 A 
ATOM     53  H   UNL     1       0.632   5.323 -16.024  1.00  0.00     0.167 HD
ATOM     54  C   UNL     1       0.774   9.690 -16.370  1.00  0.00     0.037 A 
ATOM     55  C   UNL     1      -0.341   2.771 -16.611  1.00  0.00     0.037 A 
ATOM     56  C   UNL     1      -0.170   9.253 -17.364  1.00  0.00     0.049 A 
ATOM     57  C   UNL     1      -1.084   3.723 -17.507  1.00  0.00     0.074 A 
ATOM     58  C   UNL     1      -0.856  10.018 -18.290  1.00  0.00     0.029 A 
ATOM     59  N   UNL     1      -0.560   7.936 -17.562  1.00  0.00    -0.354 N 
ATOM     60  N   UNL     1      -0.968   5.026 -17.601  1.00  0.00    -0.248 NA
ATOM     61  C   UNL     1      -2.082   3.141 -18.414  1.00  0.00     0.031 C 
ATOM     62  C   UNL     1      -1.703   9.172 -19.011  1.00  0.00     0.029 A 
ATOM     63  C   UNL     1      -1.499   7.872 -18.577  1.00  0.00     0.049 A 
ATOM     64  H   UNL     1      -0.220   7.164 -17.055  1.00  0.00     0.167 HD
ATOM     65  C   UNL     1      -1.859   5.417 -18.592  1.00  0.00     0.074 A 
ATOM     66  C   UNL     1      -2.498   4.212 -19.078  1.00  0.00     0.031 C 
ATOM     67  C   UNL     1      -2.121   6.663 -19.055  1.00  0.00     0.037 A 
BRANCH  54  68
ATOM     68  C   UNL     1       1.050  11.161 -16.255  1.00  0.00     0.057 A 
ATOM     69  C   UNL     1       0.058  12.043 -15.808  1.00  0.00     0.134 A 
ATOM     70  C   UNL     1       2.272  11.715 -16.657  1.00  0.00     0.134 A 
ATOM     71  F   UNL     1      -1.138  11.580 -15.413  1.00  0.00    -0.206 F 
ATOM     72  C   UNL     1       0.266  13.423 -15.781  1.00  0.00     0.040 A 
ATOM     73  C   UNL     1       2.503  13.090 -16.607  1.00  0.00     0.040 A 
ATOM     74  F   UNL     1       3.270  10.925 -17.084  1.00  0.00    -0.206 F 
ATOM     75  C   UNL     1       1.493  13.950 -16.179  1.00  0.00     0.006 A 
ENDBRANCH  54  68
BRANCH  55  76
ATOM     76  C   UNL     1      -0.585   1.307 -16.672  1.00  0.00     0.057 A 
ATOM     77  C   UNL     1      -1.183   0.618 -15.610  1.00  0.00     0.134 A 
ATOM     78  C   UNL     1      -0.192   0.557 -17.786  1.00  0.00     0.134 A 
ATOM     79  F   UNL     1      -1.575   1.277 -14.509  1.00  0.00    -0.206 F 
ATOM     80  C   UNL     1      -1.361  -0.766 -15.644  1.00  0.00     0.040 A 
ATOM     81  C   UNL     1      -0.389  -0.824 -17.845  1.00  0.00     0.040 A 
ATOM     82  F   UNL     1       0.371   1.162 -18.843  1.00  0.00    -0.206 F 
ATOM     83  C   UNL     1      -0.967  -1.490 -16.767  1.00  0.00     0.006 A 
ENDBRANCH  55  76
BRANCH  67  84
ATOM     84  C   UNL     1      -3.126   6.800 -20.162  1.00  0.00     0.057 A 
ATOM     85  C   UNL     1      -2.722   7.197 -21.444  1.00  0.00     0.134 A 
ATOM     86  C   UNL     1      -4.497   6.636 -19.936  1.00  0.00     0.134 A 
ATOM     87  F   UNL     1      -1.423   7.383 -21.723  1.00  0.00    -0.206 F 
ATOM     88  C   UNL     1      -3.649   7.447 -22.456  1.00  0.00     0.040 A 
ATOM     89  C   UNL     1      -5.433   6.856 -20.949  1.00  0.00     0.040 A 
ATOM     90  F   UNL     1      -4.948   6.249 -18.734  1.00  0.00    -0.206 F 
ATOM     91  C   UNL     1      -5.010   7.275 -22.209  1.00  0.00     0.006 A 
ENDBRANCH  67  84
ENDBRANCH  41  42
ENDBRANCH  33  36
ENDBRANCH  31  32
ENDBRANCH  30  31
ENDBRANCH  29  30
ENDBRANCH  28  29
ENDBRANCH   1  28
TORSDOF 19
