REMARK SMILES O=C(CC[C@]12C[C@H]3C[C@H](C[C@H](C3)C1)C2)NCCCCCCNC(=O)c1ccc(-c2c3nc(c(-c4c(F)cccc4F)c4ccc([nH]4)c(-c4c(F)cccc4F)c4nc(c(-c5c(F)cccc5F)c5ccc2[nH]5)C=C4)C=C3)cc1
REMARK SMILES IDX 18 1 17 2 16 3 15 4 1 5 2 6 3 8 4 9 5 10 6 11 13 12 14 13
REMARK SMILES IDX 7 14 11 15 9 16 8 17 12 18 10 19 19 20 20 21 21 22 22 23
REMARK SMILES IDX 23 24 24 26 25 27 26 28 78 29 27 30 77 31 28 32 29 33 30 34
REMARK SMILES IDX 71 35 31 36 76 37 70 38 72 39 32 40 75 41 69 42 68 43 33 45
REMARK SMILES IDX 59 46 42 47 58 48 43 49 46 50 57 51 73 52 44 53 45 54 56 56
REMARK SMILES IDX 74 57 47 58 34 59 35 60 40 61 36 62 37 63 39 64 41 65 38 66
REMARK SMILES IDX 60 67 61 68 66 69 62 70 63 71 65 72 67 73 64 74 48 75 49 76
REMARK SMILES IDX 54 77 50 78 51 79 53 80 55 81 52 82
REMARK H PARENT 15 7 22 25 72 44 46 55
REMARK Flexibility Score: inf
ROOT
ATOM      1  C   UNL     1       3.623  -0.117   4.010  1.00  0.00     0.002 C 
ENDROOT
BRANCH   1   2
ATOM      2  C   UNL     1       2.147  -0.284   3.630  1.00  0.00     0.021 C 
BRANCH   2   3
ATOM      3  C   UNL     1       1.732   0.344   2.297  1.00  0.00     0.116 C 
BRANCH   3   4
ATOM      4  N   UNL     1       2.412  -0.227   1.151  1.00  0.00    -0.356 N 
ATOM      5  O   UNL     1       1.200   0.967  -0.391  1.00  0.00    -0.275 OA
ATOM      6  C   UNL     1       2.109   0.185  -0.132  1.00  0.00     0.220 C 
ATOM      7  H   UNL     1       3.100  -0.917   1.289  1.00  0.00     0.163 HD
BRANCH   6   8
ATOM      8  C   UNL     1       3.022  -0.376  -1.206  1.00  0.00     0.100 C 
BRANCH   8   9
ATOM      9  C   UNL     1       3.998   0.656  -1.799  1.00  0.00     0.017 C 
BRANCH   9  10
ATOM     10  C   UNL     1       5.163   1.159  -0.900  1.00  0.00    -0.028 C 
ATOM     11  C   UNL     1       4.665   2.184   0.150  1.00  0.00     0.010 C 
ATOM     12  C   UNL     1       6.220   1.903  -1.773  1.00  0.00     0.010 C 
ATOM     13  C   UNL     1       5.896  -0.012  -0.199  1.00  0.00     0.010 C 
ATOM     14  C   UNL     1       5.820   2.675   1.033  1.00  0.00    -0.010 C 
ATOM     15  C   UNL     1       7.387   2.428  -0.909  1.00  0.00    -0.010 C 
ATOM     16  C   UNL     1       7.056   0.504   0.666  1.00  0.00    -0.010 C 
ATOM     17  C   UNL     1       6.487   1.468   1.709  1.00  0.00     0.007 C 
ATOM     18  C   UNL     1       6.846   3.397   0.154  1.00  0.00     0.007 C 
ATOM     19  C   UNL     1       8.072   1.247  -0.205  1.00  0.00     0.007 C 
ENDBRANCH   9  10
ENDBRANCH   8   9
ENDBRANCH   6   8
ENDBRANCH   3   4
ENDBRANCH   2   3
ENDBRANCH   1   2
BRANCH   1  20
ATOM     20  C   UNL     1       4.104   1.326   4.184  1.00  0.00     0.002 C 
BRANCH  20  21
ATOM     21  C   UNL     1       3.555   2.088   5.381  1.00  0.00     0.021 C 
BRANCH  21  22
ATOM     22  C   UNL     1       3.926   1.493   6.732  1.00  0.00     0.116 C 
BRANCH  22  23
ATOM     23  N   UNL     1       5.359   1.426   6.980  1.00  0.00    -0.352 N 
ATOM     24  C   UNL     1       6.042   1.658   8.157  1.00  0.00     0.251 C 
ATOM     25  H   UNL     1       5.915   1.183   6.205  1.00  0.00     0.163 HD
ATOM     26  O   UNL     1       7.265   1.639   8.187  1.00  0.00    -0.269 OA
BRANCH  24  27
ATOM     27  C   UNL     1       5.271   1.976   9.376  1.00  0.00     0.039 A 
ATOM     28  C   UNL     1       5.639   3.084  10.142  1.00  0.00     0.014 A 
ATOM     29  C   UNL     1       4.144   1.225   9.714  1.00  0.00     0.014 A 
ATOM     30  C   UNL     1       4.822   3.491  11.198  1.00  0.00     0.010 A 
ATOM     31  C   UNL     1       3.281   1.688  10.698  1.00  0.00     0.010 A 
ATOM     32  C   UNL     1       3.612   2.823  11.453  1.00  0.00    -0.014 A 
BRANCH  32  33
ATOM     33  C   UNL     1       2.676   3.290  12.505  1.00  0.00     0.031 A 
ATOM     34  C   UNL     1       2.346   2.393  13.666  1.00  0.00     0.074 A 
ATOM     35  C   UNL     1       2.064   4.482  12.375  1.00  0.00     0.049 A 
ATOM     36  N   UNL     1       1.510   2.590  14.653  1.00  0.00    -0.248 NA
ATOM     37  C   UNL     1       3.016   1.083  13.701  1.00  0.00     0.031 C 
ATOM     38  C   UNL     1       2.249   5.416  11.261  1.00  0.00     0.029 A 
ATOM     39  N   UNL     1       1.156   5.113  13.188  1.00  0.00    -0.354 N 
ATOM     40  C   UNL     1       1.534   1.423  15.405  1.00  0.00     0.074 A 
ATOM     41  C   UNL     1       2.419   0.501  14.729  1.00  0.00     0.031 C 
ATOM     42  C   UNL     1       1.513   6.517  11.483  1.00  0.00     0.029 A 
ATOM     43  C   UNL     1       0.779   6.353  12.734  1.00  0.00     0.049 A 
ATOM     44  H   UNL     1       0.808   4.714  14.018  1.00  0.00     0.167 HD
ATOM     45  C   UNL     1       0.898   1.152  16.569  1.00  0.00     0.037 A 
ATOM     46  C   UNL     1      -0.059   7.259  13.272  1.00  0.00     0.037 A 
ATOM     47  C   UNL     1       0.054   2.089  17.261  1.00  0.00     0.049 A 
ATOM     48  C   UNL     1      -0.737   6.945  14.577  1.00  0.00     0.074 A 
ATOM     49  C   UNL     1      -0.564   1.949  18.491  1.00  0.00     0.029 A 
ATOM     50  N   UNL     1      -0.290   3.343  16.779  1.00  0.00    -0.354 N 
ATOM     51  N   UNL     1      -0.638   5.871  15.323  1.00  0.00    -0.248 NA
ATOM     52  C   UNL     1      -1.639   7.972  15.116  1.00  0.00     0.031 C 
ATOM     53  C   UNL     1      -1.315   3.104  18.735  1.00  0.00     0.029 A 
ATOM     54  C   UNL     1      -1.131   3.980  17.676  1.00  0.00     0.049 A 
ATOM     55  H   UNL     1       0.018   3.724  15.925  1.00  0.00     0.167 HD
ATOM     56  C   UNL     1      -1.440   6.105  16.432  1.00  0.00     0.074 A 
ATOM     57  C   UNL     1      -2.008   7.427  16.266  1.00  0.00     0.031 C 
ATOM     58  C   UNL     1      -1.683   5.298  17.495  1.00  0.00     0.037 A 
BRANCH  45  59
ATOM     59  C   UNL     1       1.101  -0.212  17.161  1.00  0.00     0.057 A 
ATOM     60  C   UNL     1       2.332  -0.612  17.697  1.00  0.00     0.134 A 
ATOM     61  C   UNL     1       0.051  -1.139  17.195  1.00  0.00     0.134 A 
ATOM     62  F   UNL     1       3.384   0.221  17.682  1.00  0.00    -0.206 F 
ATOM     63  C   UNL     1       2.523  -1.896  18.211  1.00  0.00     0.040 A 
ATOM     64  C   UNL     1       0.222  -2.416  17.733  1.00  0.00     0.040 A 
ATOM     65  F   UNL     1      -1.156  -0.821  16.703  1.00  0.00    -0.206 F 
ATOM     66  C   UNL     1       1.464  -2.800  18.234  1.00  0.00     0.006 A 
ENDBRANCH  45  59
BRANCH  46  67
ATOM     67  C   UNL     1      -0.261   8.572  12.611  1.00  0.00     0.057 A 
ATOM     68  C   UNL     1       0.273   9.741  13.167  1.00  0.00     0.134 A 
ATOM     69  C   UNL     1      -0.984   8.695  11.419  1.00  0.00     0.134 A 
ATOM     70  F   UNL     1       0.960   9.687  14.317  1.00  0.00    -0.206 F 
ATOM     71  C   UNL     1       0.082  10.988  12.572  1.00  0.00     0.040 A 
ATOM     72  C   UNL     1      -1.165   9.934  10.801  1.00  0.00     0.040 A 
ATOM     73  F   UNL     1      -1.515   7.612  10.833  1.00  0.00    -0.206 F 
ATOM     74  C   UNL     1      -0.635  11.086  11.381  1.00  0.00     0.006 A 
ENDBRANCH  46  67
BRANCH  58  75
ATOM     75  C   UNL     1      -2.575   5.840  18.572  1.00  0.00     0.057 A 
ATOM     76  C   UNL     1      -3.957   5.973  18.389  1.00  0.00     0.134 A 
ATOM     77  C   UNL     1      -2.047   6.206  19.816  1.00  0.00     0.134 A 
ATOM     78  F   UNL     1      -4.522   5.652  17.215  1.00  0.00    -0.206 F 
ATOM     79  C   UNL     1      -4.780   6.475  19.399  1.00  0.00     0.040 A 
ATOM     80  C   UNL     1      -2.862   6.684  20.842  1.00  0.00     0.040 A 
ATOM     81  F   UNL     1      -0.732   6.095  20.058  1.00  0.00    -0.206 F 
ATOM     82  C   UNL     1      -4.233   6.826  20.632  1.00  0.00     0.006 A 
ENDBRANCH  58  75
ENDBRANCH  32  33
ENDBRANCH  24  27
ENDBRANCH  22  23
ENDBRANCH  21  22
ENDBRANCH  20  21
ENDBRANCH   1  20
TORSDOF 15
