REMARK SMILES Cc1cc(CNC(=O)C[C@H](C)CC(=O)NCCCCCCNC(=O)c2ccc(-c3c4nc(c(-c5c(F)cccc5F)c5ccc([nH]5)c(-c5c(F)cccc5F)c5nc(c(-c6c(F)cccc6F)c6ccc3[nH]6)C=C5)C=C4)cc2)cc(C)c1F
REMARK SMILES IDX 17 1 16 2 15 3 13 4 14 5 12 7 10 8 11 9 9 10 7 11 6 12 8 14
REMARK SMILES IDX 5 15 4 16 1 17 2 18 3 19 82 20 80 21 83 22 79 23 81 24 18 25
REMARK SMILES IDX 19 26 20 27 21 28 22 29 23 30 24 32 25 33 26 34 78 35 27 36
REMARK SMILES IDX 77 37 28 38 29 39 30 40 71 41 31 42 76 43 70 44 72 45 32 46
REMARK SMILES IDX 75 47 69 48 68 49 33 51 59 52 42 53 58 54 43 55 46 56 57 57
REMARK SMILES IDX 73 58 44 59 45 60 56 62 74 63 47 64 34 65 35 66 40 67 36 68
REMARK SMILES IDX 37 69 39 70 41 71 38 72 60 73 61 74 66 75 62 76 63 77 65 78
REMARK SMILES IDX 67 79 64 80 48 81 49 82 54 83 50 84 51 85 53 86 55 87 52 88
REMARK H PARENT 15 6 6 13 22 31 72 50 46 61
REMARK Flexibility Score: inf
ROOT
ATOM      1  C   UNL     1       5.558  -5.901   4.093  1.00  0.00     0.021 C 
ENDROOT
BRANCH   1   2
ATOM      2  C   UNL     1       4.338  -5.880   5.019  1.00  0.00     0.116 C 
BRANCH   2   3
ATOM      3  N   UNL     1       4.063  -4.521   5.450  1.00  0.00    -0.356 N 
ATOM      4  C   UNL     1       3.121  -3.635   5.023  1.00  0.00     0.220 C 
ATOM      5  O   UNL     1       3.186  -2.475   5.434  1.00  0.00    -0.275 OA
ATOM      6  H   UNL     1       4.651  -4.187   6.165  1.00  0.00     0.163 HD
BRANCH   4   7
ATOM      7  C   UNL     1       2.011  -4.058   4.071  1.00  0.00     0.103 C 
BRANCH   7   8
ATOM      8  C   UNL     1       2.402  -3.954   2.582  1.00  0.00     0.004 C 
ATOM      9  C   UNL     1       2.776  -5.328   2.013  1.00  0.00     0.009 C 
BRANCH   8  10
ATOM     10  C   UNL     1       1.276  -3.319   1.739  1.00  0.00     0.103 C 
BRANCH  10  11
ATOM     11  C   UNL     1       1.540  -3.404   0.242  1.00  0.00     0.220 C 
ATOM     12  N   UNL     1       2.588  -2.733  -0.311  1.00  0.00    -0.352 N 
ATOM     13  H   UNL     1       2.878  -3.050  -1.197  1.00  0.00     0.163 HD
ATOM     14  O   UNL     1       0.857  -4.136  -0.477  1.00  0.00    -0.275 OA
BRANCH  12  15
ATOM     15  C   UNL     1       3.332  -1.618   0.229  1.00  0.00     0.151 C 
BRANCH  15  16
ATOM     16  C   UNL     1       4.831  -1.785   0.134  1.00  0.00    -0.028 A 
ATOM     17  C   UNL     1       7.580  -4.040   1.527  1.00  0.00     0.047 C 
ATOM     18  C   UNL     1       6.893  -2.937   0.781  1.00  0.00    -0.015 A 
ATOM     19  C   UNL     1       5.493  -2.866   0.739  1.00  0.00     0.012 A 
ATOM     20  C   UNL     1       7.634  -1.912   0.194  1.00  0.00     0.129 A 
ATOM     21  C   UNL     1       7.010  -0.840  -0.446  1.00  0.00    -0.015 A 
ATOM     22  F   UNL     1       8.973  -1.954   0.260  1.00  0.00    -0.206 F 
ATOM     23  C   UNL     1       5.608  -0.784  -0.470  1.00  0.00     0.012 A 
ATOM     24  C   UNL     1       7.815   0.251  -1.084  1.00  0.00     0.047 C 
ENDBRANCH  15  16
ENDBRANCH  12  15
ENDBRANCH  10  11
ENDBRANCH   8  10
ENDBRANCH   7   8
ENDBRANCH   4   7
ENDBRANCH   2   3
ENDBRANCH   1   2
BRANCH   1  25
ATOM     25  C   UNL     1       6.880  -6.205   4.797  1.00  0.00     0.002 C 
BRANCH  25  26
ATOM     26  C   UNL     1       7.047  -7.670   5.220  1.00  0.00     0.002 C 
BRANCH  26  27
ATOM     27  C   UNL     1       6.881  -8.707   4.101  1.00  0.00     0.021 C 
BRANCH  27  28
ATOM     28  C   UNL     1       7.763  -8.477   2.875  1.00  0.00     0.116 C 
BRANCH  28  29
ATOM     29  N   UNL     1       9.174  -8.574   3.207  1.00  0.00    -0.352 N 
ATOM     30  C   UNL     1      10.047  -9.602   2.966  1.00  0.00     0.251 C 
ATOM     31  H   UNL     1       9.556  -7.793   3.669  1.00  0.00     0.163 HD
ATOM     32  O   UNL     1      11.132  -9.646   3.544  1.00  0.00    -0.269 OA
BRANCH  30  33
ATOM     33  C   UNL     1       9.688 -10.662   2.005  1.00  0.00     0.039 A 
ATOM     34  C   UNL     1       9.863 -12.001   2.366  1.00  0.00     0.014 A 
ATOM     35  C   UNL     1       9.235 -10.328   0.724  1.00  0.00     0.014 A 
ATOM     36  C   UNL     1       9.556 -13.011   1.452  1.00  0.00     0.010 A 
ATOM     37  C   UNL     1       8.885 -11.335  -0.170  1.00  0.00     0.010 A 
ATOM     38  C   UNL     1       9.061 -12.684   0.180  1.00  0.00    -0.014 A 
BRANCH  38  39
ATOM     39  C   UNL     1       8.806 -13.729  -0.838  1.00  0.00     0.031 A 
ATOM     40  C   UNL     1       9.730 -13.843  -2.018  1.00  0.00     0.074 A 
ATOM     41  C   UNL     1       7.731 -14.532  -0.736  1.00  0.00     0.049 A 
ATOM     42  N   UNL     1       9.643 -14.618  -3.068  1.00  0.00    -0.248 NA
ATOM     43  C   UNL     1      10.900 -12.950  -2.022  1.00  0.00     0.031 C 
ATOM     44  C   UNL     1       6.762 -14.514   0.360  1.00  0.00     0.029 A 
ATOM     45  N   UNL     1       7.266 -15.509  -1.579  1.00  0.00    -0.354 N 
ATOM     46  C   UNL     1      10.742 -14.304  -3.857  1.00  0.00     0.074 A 
ATOM     47  C   UNL     1      11.453 -13.234  -3.192  1.00  0.00     0.031 C 
ATOM     48  C   UNL     1       5.815 -15.438   0.120  1.00  0.00     0.029 A 
ATOM     49  C   UNL     1       6.093 -16.086  -1.159  1.00  0.00     0.049 A 
ATOM     50  H   UNL     1       7.730 -15.771  -2.407  1.00  0.00     0.167 HD
ATOM     51  C   UNL     1      11.136 -14.870  -5.023  1.00  0.00     0.037 A 
ATOM     52  C   UNL     1       5.324 -17.019  -1.752  1.00  0.00     0.037 A 
ATOM     53  C   UNL     1      10.427 -15.934  -5.683  1.00  0.00     0.049 A 
ATOM     54  C   UNL     1       5.748 -17.586  -3.081  1.00  0.00     0.074 A 
ATOM     55  C   UNL     1      10.755 -16.593  -6.854  1.00  0.00     0.029 A 
ATOM     56  N   UNL     1       9.239 -16.487  -5.229  1.00  0.00    -0.354 N 
ATOM     57  N   UNL     1       6.814 -17.317  -3.795  1.00  0.00    -0.248 NA
ATOM     58  C   UNL     1       4.859 -18.588  -3.688  1.00  0.00     0.031 C 
ATOM     59  C   UNL     1       9.741 -17.516  -7.133  1.00  0.00     0.029 A 
ATOM     60  C   UNL     1       8.809 -17.466  -6.109  1.00  0.00     0.049 A 
ATOM     61  H   UNL     1       8.771 -16.223  -4.404  1.00  0.00     0.167 HD
ATOM     62  C   UNL     1       6.746 -18.143  -4.910  1.00  0.00     0.074 A 
ATOM     63  C   UNL     1       5.534 -18.924  -4.777  1.00  0.00     0.031 C 
ATOM     64  C   UNL     1       7.611 -18.249  -5.948  1.00  0.00     0.037 A 
BRANCH  51  65
ATOM     65  C   UNL     1      12.387 -14.338  -5.657  1.00  0.00     0.057 A 
ATOM     66  C   UNL     1      12.331 -13.600  -6.845  1.00  0.00     0.134 A 
ATOM     67  C   UNL     1      13.652 -14.570  -5.099  1.00  0.00     0.134 A 
ATOM     68  F   UNL     1      11.153 -13.346  -7.435  1.00  0.00    -0.206 F 
ATOM     69  C   UNL     1      13.486 -13.108  -7.454  1.00  0.00     0.040 A 
ATOM     70  C   UNL     1      14.812 -14.060  -5.684  1.00  0.00     0.040 A 
ATOM     71  F   UNL     1      13.774 -15.258  -3.954  1.00  0.00    -0.206 F 
ATOM     72  C   UNL     1      14.731 -13.331  -6.869  1.00  0.00     0.006 A 
ENDBRANCH  51  65
BRANCH  52  73
ATOM     73  C   UNL     1       4.074 -17.488  -1.101  1.00  0.00     0.057 A 
ATOM     74  C   UNL     1       2.949 -16.663  -0.996  1.00  0.00     0.134 A 
ATOM     75  C   UNL     1       3.966 -18.792  -0.604  1.00  0.00     0.134 A 
ATOM     76  F   UNL     1       2.989 -15.401  -1.449  1.00  0.00    -0.206 F 
ATOM     77  C   UNL     1       1.760 -17.117  -0.423  1.00  0.00     0.040 A 
ATOM     78  C   UNL     1       2.775 -19.268  -0.051  1.00  0.00     0.040 A 
ATOM     79  F   UNL     1       5.003 -19.637  -0.694  1.00  0.00    -0.206 F 
ATOM     80  C   UNL     1       1.668 -18.428   0.042  1.00  0.00     0.006 A 
ENDBRANCH  52  73
BRANCH  64  81
ATOM     81  C   UNL     1       7.311 -19.284  -6.993  1.00  0.00     0.057 A 
ATOM     82  C   UNL     1       8.102 -20.436  -7.094  1.00  0.00     0.134 A 
ATOM     83  C   UNL     1       6.282 -19.120  -7.928  1.00  0.00     0.134 A 
ATOM     84  F   UNL     1       9.109 -20.649  -6.233  1.00  0.00    -0.206 F 
ATOM     85  C   UNL     1       7.885 -21.385  -8.093  1.00  0.00     0.040 A 
ATOM     86  C   UNL     1       6.039 -20.075  -8.916  1.00  0.00     0.040 A 
ATOM     87  F   UNL     1       5.481 -18.045  -7.876  1.00  0.00    -0.206 F 
ATOM     88  C   UNL     1       6.848 -21.207  -9.006  1.00  0.00     0.006 A 
ENDBRANCH  64  81
ENDBRANCH  38  39
ENDBRANCH  30  33
ENDBRANCH  28  29
ENDBRANCH  27  28
ENDBRANCH  26  27
ENDBRANCH  25  26
ENDBRANCH   1  25
TORSDOF 18
