REMARK SMILES O=C(NCCCCCCNC(=O)c1cncnc1N1CC[C@H]2[NH2+]CCC[C@]2(CO)C1)c1ccc(-c2c3nc(c(-c4c(F)cccc4F)c4ccc([nH]4)c(-c4c(F)cccc4F)c4nc(c(-c5c(F)cccc5F)c5ccc2[nH]5)C=C4)C=C3)cc1
REMARK SMILES IDX 7 1 6 2 5 3 4 4 3 5 1 6 2 7 31 9 32 10 84 11 33 12 83 13
REMARK SMILES IDX 34 14 35 15 36 16 77 17 37 18 82 19 76 20 78 21 38 22 81 23
REMARK SMILES IDX 75 24 74 25 39 27 65 28 48 29 64 30 49 31 52 32 63 33 79 34
REMARK SMILES IDX 50 35 51 36 62 38 80 39 53 40 40 41 41 42 46 43 42 44 43 45
REMARK SMILES IDX 45 46 47 47 44 48 66 49 67 50 72 51 68 52 69 53 71 54 73 55
REMARK SMILES IDX 70 56 54 57 55 58 60 59 56 60 57 61 59 62 61 63 58 64 8 65
REMARK SMILES IDX 9 66 10 67 11 68 12 70 13 71 14 72 18 73 15 74 17 75 16 76
REMARK SMILES IDX 19 77 20 78 30 79 21 80 27 81 22 82 26 83 23 84 25 85 24 86
REMARK SMILES IDX 28 89 29 90
REMARK H PARENT 3 8 78 26 52 37 10 69 23 87 23 88 29 91
REMARK Flexibility Score: inf
ROOT
ATOM      1  C   UNL     1       4.702   0.666  -4.432  1.00  0.00     0.002 C 
ENDROOT
BRANCH   1   2
ATOM      2  C   UNL     1       4.140  -0.667  -3.930  1.00  0.00     0.002 C 
BRANCH   2   3
ATOM      3  C   UNL     1       4.599  -1.100  -2.538  1.00  0.00     0.021 C 
BRANCH   3   4
ATOM      4  C   UNL     1       4.351  -0.087  -1.429  1.00  0.00     0.116 C 
BRANCH   4   5
ATOM      5  N   UNL     1       2.938   0.146  -1.183  1.00  0.00    -0.352 N 
ATOM      6  O   UNL     1       1.017   0.162  -0.002  1.00  0.00    -0.269 OA
ATOM      7  C   UNL     1       2.237   0.076  -0.002  1.00  0.00     0.251 C 
ATOM      8  H   UNL     1       2.407   0.387  -1.976  1.00  0.00     0.163 HD
BRANCH   7   9
ATOM      9  C   UNL     1       2.964  -0.127   1.272  1.00  0.00     0.039 A 
ATOM     10  C   UNL     1       4.123   0.598   1.558  1.00  0.00     0.014 A 
ATOM     11  C   UNL     1       2.469  -1.050   2.198  1.00  0.00     0.014 A 
ATOM     12  C   UNL     1       4.858   0.304   2.701  1.00  0.00     0.010 A 
ATOM     13  C   UNL     1       3.164  -1.284   3.388  1.00  0.00     0.010 A 
ATOM     14  C   UNL     1       4.379  -0.628   3.637  1.00  0.00    -0.014 A 
BRANCH  14  15
ATOM     15  C   UNL     1       5.134  -0.843   4.897  1.00  0.00     0.031 A 
ATOM     16  C   UNL     1       5.778  -2.166   5.206  1.00  0.00     0.074 A 
ATOM     17  C   UNL     1       5.261   0.188   5.755  1.00  0.00     0.049 A 
ATOM     18  N   UNL     1       6.488  -2.510   6.251  1.00  0.00    -0.248 NA
ATOM     19  C   UNL     1       5.600  -3.243   4.221  1.00  0.00     0.031 C 
ATOM     20  C   UNL     1       4.669   1.515   5.567  1.00  0.00     0.029 A 
ATOM     21  N   UNL     1       5.938   0.291   6.942  1.00  0.00    -0.354 N 
ATOM     22  C   UNL     1       6.835  -3.841   6.056  1.00  0.00     0.074 A 
ATOM     23  C   UNL     1       6.231  -4.253   4.806  1.00  0.00     0.031 C 
ATOM     24  C   UNL     1       5.045   2.311   6.579  1.00  0.00     0.029 A 
ATOM     25  C   UNL     1       5.852   1.537   7.514  1.00  0.00     0.049 A 
ATOM     26  H   UNL     1       6.438  -0.455   7.345  1.00  0.00     0.167 HD
ATOM     27  C   UNL     1       7.595  -4.641   6.842  1.00  0.00     0.037 A 
ATOM     28  C   UNL     1       6.351   2.002   8.673  1.00  0.00     0.037 A 
ATOM     29  C   UNL     1       8.197  -4.225   8.084  1.00  0.00     0.049 A 
ATOM     30  C   UNL     1       7.162   1.084   9.539  1.00  0.00     0.074 A 
ATOM     31  C   UNL     1       8.997  -4.959   8.945  1.00  0.00     0.029 A 
ATOM     32  N   UNL     1       8.063  -2.963   8.645  1.00  0.00    -0.354 N 
ATOM     33  N   UNL     1       7.502  -0.164   9.326  1.00  0.00    -0.248 NA
ATOM     34  C   UNL     1       7.655   1.637  10.807  1.00  0.00     0.031 C 
ATOM     35  C   UNL     1       9.314  -4.153  10.044  1.00  0.00     0.029 A 
ATOM     36  C   UNL     1       8.750  -2.903   9.847  1.00  0.00     0.049 A 
ATOM     37  H   UNL     1       7.554  -2.220   8.248  1.00  0.00     0.167 HD
ATOM     38  C   UNL     1       8.262  -0.541  10.424  1.00  0.00     0.074 A 
ATOM     39  C   UNL     1       8.352   0.618  11.289  1.00  0.00     0.031 C 
ATOM     40  C   UNL     1       8.831  -1.741  10.694  1.00  0.00     0.037 A 
BRANCH  27  41
ATOM     41  C   UNL     1       7.816  -6.056   6.389  1.00  0.00     0.057 A 
ATOM     42  C   UNL     1       8.657  -6.362   5.311  1.00  0.00     0.134 A 
ATOM     43  C   UNL     1       7.224  -7.127   7.070  1.00  0.00     0.134 A 
ATOM     44  F   UNL     1       9.247  -5.383   4.610  1.00  0.00    -0.206 F 
ATOM     45  C   UNL     1       8.886  -7.682   4.916  1.00  0.00     0.040 A 
ATOM     46  C   UNL     1       7.463  -8.452   6.699  1.00  0.00     0.040 A 
ATOM     47  F   UNL     1       6.414  -6.905   8.116  1.00  0.00    -0.206 F 
ATOM     48  C   UNL     1       8.294  -8.732   5.615  1.00  0.00     0.006 A 
ENDBRANCH  27  41
BRANCH  28  49
ATOM     49  C   UNL     1       6.089   3.405   9.081  1.00  0.00     0.057 A 
ATOM     50  C   UNL     1       7.116   4.354   9.116  1.00  0.00     0.134 A 
ATOM     51  C   UNL     1       4.804   3.828   9.444  1.00  0.00     0.134 A 
ATOM     52  F   UNL     1       8.370   4.004   8.795  1.00  0.00    -0.206 F 
ATOM     53  C   UNL     1       6.879   5.671   9.512  1.00  0.00     0.040 A 
ATOM     54  C   UNL     1       4.548   5.148   9.815  1.00  0.00     0.040 A 
ATOM     55  F   UNL     1       3.776   2.967   9.422  1.00  0.00    -0.206 F 
ATOM     56  C   UNL     1       5.589   6.072   9.857  1.00  0.00     0.006 A 
ENDBRANCH  28  49
BRANCH  40  57
ATOM     57  C   UNL     1       9.622  -1.845  11.964  1.00  0.00     0.057 A 
ATOM     58  C   UNL     1       9.001  -1.881  13.219  1.00  0.00     0.134 A 
ATOM     59  C   UNL     1      11.019  -1.924  11.929  1.00  0.00     0.134 A 
ATOM     60  F   UNL     1       7.666  -1.792  13.320  1.00  0.00    -0.206 F 
ATOM     61  C   UNL     1       9.745  -1.965  14.397  1.00  0.00     0.040 A 
ATOM     62  C   UNL     1      11.772  -2.033  13.099  1.00  0.00     0.040 A 
ATOM     63  F   UNL     1      11.674  -1.900  10.759  1.00  0.00    -0.206 F 
ATOM     64  C   UNL     1      11.135  -2.047  14.338  1.00  0.00     0.006 A 
ENDBRANCH  40  57
ENDBRANCH  14  15
ENDBRANCH   7   9
ENDBRANCH   4   5
ENDBRANCH   3   4
ENDBRANCH   2   3
ENDBRANCH   1   2
BRANCH   1  65
ATOM     65  C   UNL     1       6.227   0.812  -4.385  1.00  0.00     0.021 C 
BRANCH  65  66
ATOM     66  C   UNL     1       7.011  -0.295  -5.083  1.00  0.00     0.116 C 
BRANCH  66  67
ATOM     67  N   UNL     1       6.704  -0.383  -6.502  1.00  0.00    -0.352 N 
ATOM     68  C   UNL     1       7.551  -0.289  -7.581  1.00  0.00     0.256 C 
ATOM     69  H   UNL     1       5.756  -0.532  -6.720  1.00  0.00     0.163 HD
ATOM     70  O   UNL     1       7.105  -0.376  -8.720  1.00  0.00    -0.269 OA
BRANCH  68  71
ATOM     71  C   UNL     1       8.989  -0.131  -7.354  1.00  0.00     0.100 A 
ATOM     72  C   UNL     1       9.654  -1.177  -6.736  1.00  0.00     0.130 A 
ATOM     73  C   UNL     1       9.762   0.931  -7.801  1.00  0.00     0.144 A 
ATOM     74  N   UNL     1      10.973  -1.186  -6.475  1.00  0.00    -0.244 NA
ATOM     75  N   UNL     1      11.095   0.938  -7.553  1.00  0.00    -0.219 NA
ATOM     76  C   UNL     1      11.632  -0.105  -6.902  1.00  0.00     0.224 A 
BRANCH  73  77
ATOM     77  N   UNL     1       9.316   2.010  -8.550  1.00  0.00    -0.355 N 
ATOM     78  C   UNL     1       8.046   2.672  -8.281  1.00  0.00     0.124 C 
ATOM     79  C   UNL     1       9.762   1.933  -9.952  1.00  0.00     0.133 C 
ATOM     80  C   UNL     1       8.038   4.075  -8.897  1.00  0.00     0.087 C 
ATOM     81  C   UNL     1       9.771   3.326 -10.616  1.00  0.00     0.063 C 
ATOM     82  C   UNL     1       8.389   3.992 -10.388  1.00  0.00     0.194 C 
ATOM     83  C   UNL     1       9.957   3.155 -12.145  1.00  0.00     0.023 C 
ATOM     84  N   UNL     1       8.325   5.316 -11.031  1.00  0.00    -0.343 N 
ATOM     85  C   UNL     1       9.789   4.484 -12.881  1.00  0.00     0.062 C 
ATOM     86  C   UNL     1       8.495   5.198 -12.485  1.00  0.00     0.260 C 
ATOM     87  H   UNL     1       9.066   5.907 -10.655  1.00  0.00     0.346 HD
ATOM     88  H   UNL     1       7.412   5.729 -10.841  1.00  0.00     0.346 HD
BRANCH  81  89
ATOM     89  C   UNL     1      10.931   4.163 -10.013  1.00  0.00     0.171 C 
BRANCH  89  90
ATOM     90  O   UNL     1      12.200   3.620 -10.382  1.00  0.00    -0.395 OA
ATOM     91  H   UNL     1      12.274   2.715 -10.043  1.00  0.00     0.210 HD
ENDBRANCH  89  90
ENDBRANCH  81  89
ENDBRANCH  73  77
ENDBRANCH  68  71
ENDBRANCH  66  67
ENDBRANCH  65  66
ENDBRANCH   1  65
TORSDOF 16
