REMARK SMILES Cc1ccc(S(=O)(=O)n2cc(C(=O)C(=O)N[C@@H](Cc3cnc[nH]3)C(=O)NCCCCCCNC(=O)c3ccc(-c4c5nc(c(-c6c(F)cccc6F)c6ccc([nH]6)c(-c6c(F)cccc6F)c6nc(c(-c7c(F)cccc7F)c7ccc4[nH]7)C=C6)C=C5)cc3)c3ccccc32)cc1
REMARK SMILES IDX 28 1 27 2 26 3 24 4 25 5 17 7 16 8 14 9 15 10 12 12 13 13
REMARK SMILES IDX 11 14 9 15 10 16 95 17 90 18 94 19 91 20 93 21 92 22 6 23
REMARK SMILES IDX 7 24 8 25 5 26 1 27 2 28 3 29 97 30 4 31 96 32 18 33 19 34
REMARK SMILES IDX 20 35 23 36 21 37 22 38 29 40 30 41 31 42 32 43 33 44 34 45
REMARK SMILES IDX 35 47 36 48 37 49 89 50 38 51 88 52 39 53 40 54 41 55 82 56
REMARK SMILES IDX 42 57 87 58 81 59 83 60 43 61 86 62 80 63 79 64 44 66 70 67
REMARK SMILES IDX 53 68 69 69 54 70 57 71 68 72 84 73 55 74 56 75 67 77 85 78
REMARK SMILES IDX 58 79 45 80 46 81 51 82 47 83 48 84 50 85 52 86 49 87 71 88
REMARK SMILES IDX 72 89 77 90 73 91 74 92 76 93 78 94 75 95 59 96 60 97 65 98
REMARK SMILES IDX 61 99 62 100 64 101 66 102 63 103
REMARK H PARENT 26 6 16 11 23 39 33 46 83 65 57 76
REMARK Flexibility Score: inf
ROOT
ATOM      1  C   UNL     1      -7.876   5.588   7.329  1.00  0.00     0.021 C 
ENDROOT
BRANCH   1   2
ATOM      2  C   UNL     1      -8.342   6.172   6.005  1.00  0.00     0.116 C 
BRANCH   2   3
ATOM      3  N   UNL     1      -7.369   6.976   5.309  1.00  0.00    -0.354 N 
ATOM      4  C   UNL     1      -7.309   7.250   3.971  1.00  0.00     0.242 C 
ATOM      5  O   UNL     1      -6.809   8.335   3.654  1.00  0.00    -0.273 OA
ATOM      6  H   UNL     1      -6.662   7.377   5.865  1.00  0.00     0.163 HD
BRANCH   4   7
ATOM      7  C   UNL     1      -7.933   6.331   2.888  1.00  0.00     0.177 C 
BRANCH   7   8
ATOM      8  N   UNL     1      -7.670   4.900   3.102  1.00  0.00    -0.337 N 
ATOM      9  C   UNL     1      -6.766   4.043   2.513  1.00  0.00     0.293 C 
ATOM     10  O   UNL     1      -6.607   2.943   3.033  1.00  0.00    -0.265 OA
ATOM     11  H   UNL     1      -8.240   4.480   3.786  1.00  0.00     0.164 HD
BRANCH   9  12
ATOM     12  C   UNL     1      -6.007   4.419   1.216  1.00  0.00     0.252 C 
ATOM     13  O   UNL     1      -6.130   5.557   0.774  1.00  0.00    -0.283 OA
BRANCH  12  14
ATOM     14  C   UNL     1      -5.185   3.448   0.480  1.00  0.00     0.054 A 
ATOM     15  N   UNL     1      -4.141   1.590  -0.184  1.00  0.00    -0.240 N 
ATOM     16  C   UNL     1      -4.910   2.134   0.812  1.00  0.00     0.117 A 
ATOM     17  C   UNL     1      -3.885   2.510  -1.179  1.00  0.00     0.065 A 
ATOM     18  C   UNL     1      -4.503   3.698  -0.766  1.00  0.00     0.012 A 
ATOM     19  C   UNL     1      -3.159   2.432  -2.381  1.00  0.00     0.028 A 
ATOM     20  C   UNL     1      -4.368   4.843  -1.583  1.00  0.00     0.011 A 
ATOM     21  C   UNL     1      -3.034   3.588  -3.157  1.00  0.00     0.002 A 
ATOM     22  C   UNL     1      -3.627   4.780  -2.764  1.00  0.00     0.001 A 
BRANCH  15  23
ATOM     23  S   UNL     1      -3.553  -0.007  -0.155  1.00  0.00     0.268 S 
ATOM     24  O   UNL     1      -3.871  -0.552  -1.457  1.00  0.00    -0.201 OA
ATOM     25  O   UNL     1      -4.065  -0.595   1.073  1.00  0.00    -0.201 OA
BRANCH  23  26
ATOM     26  C   UNL     1      -1.787   0.055  -0.007  1.00  0.00     0.088 A 
ATOM     27  C   UNL     1       2.512  -0.044   0.025  1.00  0.00     0.044 C 
ATOM     28  C   UNL     1       1.012  -0.004   0.040  1.00  0.00    -0.051 A 
ATOM     29  C   UNL     1       0.283  -1.196  -0.041  1.00  0.00     0.005 A 
ATOM     30  C   UNL     1       0.325   1.213   0.133  1.00  0.00     0.005 A 
ATOM     31  C   UNL     1      -1.111  -1.169  -0.070  1.00  0.00     0.022 A 
ATOM     32  C   UNL     1      -1.072   1.246   0.124  1.00  0.00     0.022 A 
ENDBRANCH  23  26
ENDBRANCH  15  23
ENDBRANCH  12  14
ENDBRANCH   9  12
ENDBRANCH   7   8
BRANCH   7  33
ATOM     33  C   UNL     1      -9.398   6.647   2.528  1.00  0.00     0.090 C 
BRANCH  33  34
ATOM     34  C   UNL     1     -10.427   6.344   3.562  1.00  0.00     0.037 A 
ATOM     35  C   UNL     1     -10.977   5.164   4.019  1.00  0.00     0.134 A 
ATOM     36  N   UNL     1     -11.093   7.325   4.259  1.00  0.00    -0.348 N 
ATOM     37  N   UNL     1     -11.857   5.402   5.043  1.00  0.00    -0.245 NA
ATOM     38  C   UNL     1     -11.925   6.709   5.149  1.00  0.00     0.196 A 
ATOM     39  H   UNL     1     -10.988   8.297   4.138  1.00  0.00     0.167 HD
ENDBRANCH  33  34
ENDBRANCH   7  33
ENDBRANCH   4   7
ENDBRANCH   2   3
ENDBRANCH   1   2
BRANCH   1  40
ATOM     40  C   UNL     1      -7.849   6.566   8.507  1.00  0.00     0.002 C 
BRANCH  40  41
ATOM     41  C   UNL     1      -9.091   7.451   8.708  1.00  0.00     0.002 C 
BRANCH  41  42
ATOM     42  C   UNL     1     -10.451   6.761   8.611  1.00  0.00     0.021 C 
BRANCH  42  43
ATOM     43  C   UNL     1     -10.753   5.781   9.727  1.00  0.00     0.116 C 
BRANCH  43  44
ATOM     44  N   UNL     1     -11.349   6.398  10.906  1.00  0.00    -0.352 N 
ATOM     45  C   UNL     1     -11.844   5.815  12.060  1.00  0.00     0.251 C 
ATOM     46  H   UNL     1     -11.407   7.380  10.878  1.00  0.00     0.163 HD
ATOM     47  O   UNL     1     -12.346   6.519  12.932  1.00  0.00    -0.269 OA
BRANCH  45  48
ATOM     48  C   UNL     1     -11.582   4.379  12.332  1.00  0.00     0.039 A 
ATOM     49  C   UNL     1     -11.009   4.096  13.579  1.00  0.00     0.014 A 
ATOM     50  C   UNL     1     -11.464   3.481  11.281  1.00  0.00     0.014 A 
ATOM     51  C   UNL     1     -10.009   3.141  13.649  1.00  0.00     0.010 A 
ATOM     52  C   UNL     1     -10.383   2.639  11.299  1.00  0.00     0.010 A 
ATOM     53  C   UNL     1      -9.614   2.543  12.460  1.00  0.00    -0.014 A 
BRANCH  53  54
ATOM     54  C   UNL     1      -8.410   1.758  12.317  1.00  0.00     0.031 A 
ATOM     55  C   UNL     1      -8.549   0.311  12.498  1.00  0.00     0.074 A 
ATOM     56  C   UNL     1      -7.281   2.379  11.913  1.00  0.00     0.049 A 
ATOM     57  N   UNL     1      -7.613  -0.468  12.900  1.00  0.00    -0.248 NA
ATOM     58  C   UNL     1      -9.828  -0.369  12.315  1.00  0.00     0.031 C 
ATOM     59  C   UNL     1      -6.039   1.788  11.433  1.00  0.00     0.029 A 
ATOM     60  N   UNL     1      -6.991   3.744  12.027  1.00  0.00    -0.354 N 
ATOM     61  C   UNL     1      -8.060  -1.762  12.725  1.00  0.00     0.074 A 
ATOM     62  C   UNL     1      -9.476  -1.644  12.492  1.00  0.00     0.031 C 
ATOM     63  C   UNL     1      -5.052   2.698  11.549  1.00  0.00     0.029 A 
ATOM     64  C   UNL     1      -5.603   3.847  12.252  1.00  0.00     0.049 A 
ATOM     65  H   UNL     1      -7.633   4.488  11.962  1.00  0.00     0.167 HD
ATOM     66  C   UNL     1      -7.132  -2.755  12.620  1.00  0.00     0.037 A 
ATOM     67  C   UNL     1      -5.142   4.324  13.448  1.00  0.00     0.037 A 
ATOM     68  C   UNL     1      -5.795  -2.185  12.798  1.00  0.00     0.049 A 
ATOM     69  C   UNL     1      -4.423   3.260  14.248  1.00  0.00     0.074 A 
ATOM     70  C   UNL     1      -4.884  -1.696  11.876  1.00  0.00     0.029 A 
ATOM     71  N   UNL     1      -5.427  -1.668  14.034  1.00  0.00    -0.354 N 
ATOM     72  N   UNL     1      -4.616   1.978  14.090  1.00  0.00    -0.248 NA
ATOM     73  C   UNL     1      -3.427   3.557  15.273  1.00  0.00     0.031 C 
ATOM     74  C   UNL     1      -4.017  -0.803  12.556  1.00  0.00     0.029 A 
ATOM     75  C   UNL     1      -4.379  -0.776  13.893  1.00  0.00     0.049 A 
ATOM     76  H   UNL     1      -5.853  -1.903  14.890  1.00  0.00     0.167 HD
ATOM     77  C   UNL     1      -3.819   1.288  14.963  1.00  0.00     0.074 A 
ATOM     78  C   UNL     1      -3.081   2.320  15.668  1.00  0.00     0.031 C 
ATOM     79  C   UNL     1      -3.833  -0.076  15.047  1.00  0.00     0.037 A 
BRANCH  66  80
ATOM     80  C   UNL     1      -7.378  -4.129  12.035  1.00  0.00     0.057 A 
ATOM     81  C   UNL     1      -6.304  -4.863  11.488  1.00  0.00     0.134 A 
ATOM     82  C   UNL     1      -8.623  -4.776  11.926  1.00  0.00     0.134 A 
ATOM     83  F   UNL     1      -5.038  -4.433  11.580  1.00  0.00    -0.206 F 
ATOM     84  C   UNL     1      -6.467  -6.082  10.817  1.00  0.00     0.040 A 
ATOM     85  C   UNL     1      -8.807  -5.978  11.225  1.00  0.00     0.040 A 
ATOM     86  F   UNL     1      -9.719  -4.316  12.536  1.00  0.00    -0.206 F 
ATOM     87  C   UNL     1      -7.727  -6.634  10.659  1.00  0.00     0.006 A 
ENDBRANCH  66  80
BRANCH  67  88
ATOM     88  C   UNL     1      -6.045   5.367  14.021  1.00  0.00     0.057 A 
ATOM     89  C   UNL     1      -6.215   6.557  13.288  1.00  0.00     0.134 A 
ATOM     90  C   UNL     1      -7.047   5.037  14.938  1.00  0.00     0.134 A 
ATOM     91  F   UNL     1      -5.275   6.950  12.413  1.00  0.00    -0.206 F 
ATOM     92  C   UNL     1      -7.411   7.280  13.323  1.00  0.00     0.040 A 
ATOM     93  C   UNL     1      -8.237   5.772  15.000  1.00  0.00     0.040 A 
ATOM     94  F   UNL     1      -6.954   3.929  15.686  1.00  0.00    -0.206 F 
ATOM     95  C   UNL     1      -8.447   6.855  14.147  1.00  0.00     0.006 A 
ENDBRANCH  67  88
BRANCH  79  96
ATOM     96  C   UNL     1      -3.242  -0.875  16.181  1.00  0.00     0.057 A 
ATOM     97  C   UNL     1      -3.085  -0.382  17.485  1.00  0.00     0.134 A 
ATOM     98  C   UNL     1      -2.939  -2.246  16.020  1.00  0.00     0.134 A 
ATOM     99  F   UNL     1      -3.474   0.855  17.822  1.00  0.00    -0.206 F 
ATOM    100  C   UNL     1      -2.570  -1.163  18.526  1.00  0.00     0.040 A 
ATOM    101  C   UNL     1      -2.494  -3.053  17.069  1.00  0.00     0.040 A 
ATOM    102  F   UNL     1      -3.089  -2.872  14.843  1.00  0.00    -0.206 F 
ATOM    103  C   UNL     1      -2.280  -2.505  18.322  1.00  0.00     0.006 A 
ENDBRANCH  79  96
ENDBRANCH  53  54
ENDBRANCH  45  48
ENDBRANCH  43  44
ENDBRANCH  42  43
ENDBRANCH  41  42
ENDBRANCH  40  41
ENDBRANCH   1  40
TORSDOF 20
