REMARK SMILES Cc1cnc(N[C@@H]2CCCCC[C@H]2C(=O)NCCCCCCNC(=O)c2ccc(-c3c4nc(c(-c5c(F)cccc5F)c5ccc([nH]5)c(-c5c(F)cccc5F)c5nc(c(-c6c(F)cccc6F)c6ccc3[nH]6)C=C5)C=C4)cc2)c([N+](=O)[O-])c1
REMARK SMILES IDX 18 1 17 2 16 3 14 4 15 5 13 7 7 8 6 9 5 11 1 12 2 13 3 14
REMARK SMILES IDX 84 15 4 16 80 17 81 18 82 19 83 20 8 21 9 22 10 23 11 24
REMARK SMILES IDX 12 26 19 28 20 29 21 30 22 31 23 32 24 33 25 35 26 36 27 37
REMARK SMILES IDX 79 38 28 39 78 40 29 41 30 42 31 43 72 44 32 45 77 46 71 47
REMARK SMILES IDX 73 48 33 49 76 50 70 51 69 52 34 54 60 55 43 56 59 57 44 58
REMARK SMILES IDX 47 59 58 60 74 61 45 62 46 63 57 65 75 66 48 67 35 68 36 69
REMARK SMILES IDX 41 70 37 71 38 72 40 73 42 74 39 75 61 76 62 77 67 78 63 79
REMARK SMILES IDX 64 80 66 81 68 82 65 83 49 84 50 85 55 86 51 87 52 88 54 89
REMARK SMILES IDX 56 90 53 91
REMARK H PARENT 16 6 6 10 23 34 73 53 47 64
REMARK Flexibility Score: 90.00
ROOT
ATOM      1  C   UNL     1      -7.297  -2.924   1.607  1.00  0.00     0.021 C 
ENDROOT
BRANCH   1   2
ATOM      2  C   UNL     1      -6.586  -3.416   0.349  1.00  0.00     0.116 C 
BRANCH   2   3
ATOM      3  N   UNL     1      -6.495  -2.436  -0.705  1.00  0.00    -0.356 N 
ATOM      4  C   UNL     1      -5.449  -1.962  -1.428  1.00  0.00     0.225 C 
ATOM      5  O   UNL     1      -5.757  -1.385  -2.479  1.00  0.00    -0.275 OA
ATOM      6  H   UNL     1      -7.359  -2.031  -0.947  1.00  0.00     0.163 HD
BRANCH   4   7
ATOM      7  C   UNL     1      -3.966  -2.057  -1.022  1.00  0.00     0.101 C 
BRANCH   7   8
ATOM      8  C   UNL     1      -3.654  -1.346   0.311  1.00  0.00     0.093 C 
BRANCH   8   9
ATOM      9  N   UNL     1      -3.025  -0.025   0.057  1.00  0.00    -0.361 N 
ATOM     10  H   UNL     1      -3.592   0.776   0.128  1.00  0.00     0.162 HD
BRANCH   9  11
ATOM     11  C   UNL     1      -1.690   0.152  -0.275  1.00  0.00     0.205 A 
ATOM     12  C   UNL     1       2.592   0.149  -0.178  1.00  0.00     0.046 C 
ATOM     13  C   UNL     1       1.107   0.221  -0.327  1.00  0.00    -0.026 A 
ATOM     14  C   UNL     1       0.370  -0.918  -0.587  1.00  0.00     0.117 A 
ATOM     15  C   UNL     1       0.391   1.401  -0.135  1.00  0.00     0.094 A 
ATOM     16  N   UNL     1      -0.981  -0.960  -0.580  1.00  0.00    -0.233 NA
ATOM     17  C   UNL     1      -1.018   1.369  -0.128  1.00  0.00     0.311 A 
BRANCH  17  18
ATOM     18  N   UNL     1      -1.743   2.622   0.070  1.00  0.00     0.066 N 
ATOM     19  O   UNL     1      -2.967   2.642  -0.135  1.00  0.00    -0.258 OA
ATOM     20  O   UNL     1      -1.083   3.619   0.400  1.00  0.00    -0.258 OA
ENDBRANCH  17  18
ENDBRANCH   9  11
ENDBRANCH   8   9
BRANCH   8  21
ATOM     21  C   UNL     1      -2.843  -2.079   1.401  1.00  0.00     0.026 C 
BRANCH  21  22
ATOM     22  C   UNL     1      -3.317  -3.446   1.853  1.00  0.00     0.002 C 
BRANCH  22  23
ATOM     23  C   UNL     1      -2.934  -4.591   0.921  1.00  0.00     0.000 C 
BRANCH  23  24
ATOM     24  C   UNL     1      -3.491  -4.612  -0.499  1.00  0.00     0.001 CG0
ATOM     25  G   UNL     1      -3.261  -3.376  -1.350  1.00  0.00     0.000 G0
ENDBRANCH  23  24
ENDBRANCH  22  23
ENDBRANCH  21  22
ENDBRANCH   8  21
ENDBRANCH   7   8
BRANCH   7  26
ATOM     26  C   UNL     1      -3.261  -3.376  -1.350  1.00  0.00     0.015 CG0
ATOM     27  G   UNL     1      -3.491  -4.612  -0.499  1.00  0.00     0.000 G0
ENDBRANCH   7  26
ENDBRANCH   4   7
ENDBRANCH   2   3
ENDBRANCH   1   2
BRANCH   1  28
ATOM     28  C   UNL     1      -8.397  -3.871   2.103  1.00  0.00     0.002 C 
BRANCH  28  29
ATOM     29  C   UNL     1      -8.011  -5.345   2.289  1.00  0.00     0.002 C 
BRANCH  29  30
ATOM     30  C   UNL     1      -6.891  -5.638   3.288  1.00  0.00     0.021 C 
BRANCH  30  31
ATOM     31  C   UNL     1      -7.108  -5.108   4.704  1.00  0.00     0.116 C 
BRANCH  31  32
ATOM     32  N   UNL     1      -8.390  -5.509   5.263  1.00  0.00    -0.352 N 
ATOM     33  C   UNL     1      -8.698  -6.210   6.397  1.00  0.00     0.251 C 
ATOM     34  H   UNL     1      -9.171  -5.226   4.735  1.00  0.00     0.163 HD
ATOM     35  O   UNL     1      -9.863  -6.577   6.580  1.00  0.00    -0.269 OA
BRANCH  33  36
ATOM     36  C   UNL     1      -7.668  -6.548   7.402  1.00  0.00     0.039 A 
ATOM     37  C   UNL     1      -7.727  -7.800   8.024  1.00  0.00     0.014 A 
ATOM     38  C   UNL     1      -6.688  -5.628   7.785  1.00  0.00     0.014 A 
ATOM     39  C   UNL     1      -6.777  -8.148   8.986  1.00  0.00     0.010 A 
ATOM     40  C   UNL     1      -5.700  -6.001   8.695  1.00  0.00     0.010 A 
ATOM     41  C   UNL     1      -5.739  -7.261   9.310  1.00  0.00    -0.014 A 
BRANCH  41  42
ATOM     42  C   UNL     1      -4.692  -7.635  10.293  1.00  0.00     0.031 A 
ATOM     43  C   UNL     1      -4.576  -6.901  11.600  1.00  0.00     0.074 A 
ATOM     44  C   UNL     1      -3.812  -8.606   9.988  1.00  0.00     0.049 A 
ATOM     45  N   UNL     1      -3.707  -7.061  12.566  1.00  0.00    -0.248 NA
ATOM     46  C   UNL     1      -5.553  -5.829  11.842  1.00  0.00     0.031 C 
ATOM     47  C   UNL     1      -3.796  -9.371   8.740  1.00  0.00     0.029 A 
ATOM     48  N   UNL     1      -2.758  -9.116  10.704  1.00  0.00    -0.354 N 
ATOM     49  C   UNL     1      -4.022  -6.104  13.521  1.00  0.00     0.074 A 
ATOM     50  C   UNL     1      -5.128  -5.333  12.995  1.00  0.00     0.031 C 
ATOM     51  C   UNL     1      -2.807 -10.276   8.793  1.00  0.00     0.029 A 
ATOM     52  C   UNL     1      -2.097 -10.132  10.060  1.00  0.00     0.049 A 
ATOM     53  H   UNL     1      -2.501  -8.784  11.595  1.00  0.00     0.167 HD
ATOM     54  C   UNL     1      -3.458  -5.899  14.736  1.00  0.00     0.037 A 
ATOM     55  C   UNL     1      -1.039 -10.867  10.449  1.00  0.00     0.037 A 
ATOM     56  C   UNL     1      -2.368  -6.678  15.265  1.00  0.00     0.049 A 
ATOM     57  C   UNL     1      -0.413 -10.607  11.789  1.00  0.00     0.074 A 
ATOM     58  C   UNL     1      -1.763  -6.587  16.506  1.00  0.00     0.029 A 
ATOM     59  N   UNL     1      -1.714  -7.689  14.575  1.00  0.00    -0.354 N 
ATOM     60  N   UNL     1      -0.759  -9.739  12.709  1.00  0.00    -0.248 NA
ATOM     61  C   UNL     1       0.750 -11.431  12.145  1.00  0.00     0.031 C 
ATOM     62  C   UNL     1      -0.715  -7.514  16.552  1.00  0.00     0.029 A 
ATOM     63  C   UNL     1      -0.695  -8.213  15.355  1.00  0.00     0.049 A 
ATOM     64  H   UNL     1      -1.940  -7.990  13.666  1.00  0.00     0.167 HD
ATOM     65  C   UNL     1       0.124  -9.931  13.763  1.00  0.00     0.074 A 
ATOM     66  C   UNL     1       1.016 -11.003  13.371  1.00  0.00     0.031 C 
ATOM     67  C   UNL     1       0.187  -9.279  14.951  1.00  0.00     0.037 A 
BRANCH  54  68
ATOM     68  C   UNL     1      -4.014  -4.778  15.568  1.00  0.00     0.057 A 
ATOM     69  C   UNL     1      -5.297  -4.840  16.130  1.00  0.00     0.134 A 
ATOM     70  C   UNL     1      -3.262  -3.621  15.805  1.00  0.00     0.134 A 
ATOM     71  F   UNL     1      -6.075  -5.914  15.932  1.00  0.00    -0.206 F 
ATOM     72  C   UNL     1      -5.827  -3.775  16.861  1.00  0.00     0.040 A 
ATOM     73  C   UNL     1      -3.770  -2.562  16.559  1.00  0.00     0.040 A 
ATOM     74  F   UNL     1      -2.023  -3.498  15.304  1.00  0.00    -0.206 F 
ATOM     75  C   UNL     1      -5.060  -2.632  17.080  1.00  0.00     0.006 A 
ENDBRANCH  54  68
BRANCH  55  76
ATOM     76  C   UNL     1      -0.538 -11.956   9.575  1.00  0.00     0.057 A 
ATOM     77  C   UNL     1      -0.753 -13.297   9.912  1.00  0.00     0.134 A 
ATOM     78  C   UNL     1       0.144 -11.690   8.382  1.00  0.00     0.134 A 
ATOM     79  F   UNL     1      -1.385 -13.612  11.052  1.00  0.00    -0.206 F 
ATOM     80  C   UNL     1      -0.300 -14.336   9.099  1.00  0.00     0.040 A 
ATOM     81  C   UNL     1       0.584 -12.719   7.549  1.00  0.00     0.040 A 
ATOM     82  F   UNL     1       0.374 -10.425   8.001  1.00  0.00    -0.206 F 
ATOM     83  C   UNL     1       0.365 -14.048   7.909  1.00  0.00     0.006 A 
ENDBRANCH  55  76
BRANCH  67  84
ATOM     84  C   UNL     1       1.239  -9.730  15.921  1.00  0.00     0.057 A 
ATOM     85  C   UNL     1       2.597  -9.450  15.723  1.00  0.00     0.134 A 
ATOM     86  C   UNL     1       0.885 -10.434  17.079  1.00  0.00     0.134 A 
ATOM     87  F   UNL     1       3.003  -8.794  14.626  1.00  0.00    -0.206 F 
ATOM     88  C   UNL     1       3.568  -9.875  16.632  1.00  0.00     0.040 A 
ATOM     89  C   UNL     1       1.845 -10.841  18.008  1.00  0.00     0.040 A 
ATOM     90  F   UNL     1      -0.399 -10.729  17.332  1.00  0.00    -0.206 F 
ATOM     91  C   UNL     1       3.192 -10.567  17.781  1.00  0.00     0.006 A 
ENDBRANCH  67  84
ENDBRANCH  41  42
ENDBRANCH  33  36
ENDBRANCH  31  32
ENDBRANCH  30  31
ENDBRANCH  29  30
ENDBRANCH  28  29
ENDBRANCH   1  28
TORSDOF 16
