REMARK SMILES Cc1ccc(C)c(-c2cc(C(=O)NCCCCCCNC(=O)c3ccc(-c4c5nc(c(-c6c(F)cccc6F)c6ccc([nH]6)c(-c6c(F)cccc6F)c6nc(c(-c7c(F)cccc7F)c7ccc4[nH]7)C=C6)C=C5)cc3)c3cc(C)ccc3n2)c1
REMARK SMILES IDX 17 1 16 2 15 3 14 4 13 5 11 6 12 7 10 9 8 10 9 11 84 12
REMARK SMILES IDX 83 13 77 14 82 15 78 16 81 17 79 18 80 19 7 20 1 21 2 22
REMARK SMILES IDX 3 23 85 24 4 25 5 26 6 27 18 28 19 29 20 30 21 31 22 33
REMARK SMILES IDX 23 34 24 35 76 36 25 37 75 38 26 39 27 40 28 41 69 42 29 43
REMARK SMILES IDX 74 44 68 45 70 46 30 47 73 48 67 49 66 50 31 52 57 53 40 54
REMARK SMILES IDX 56 55 41 56 44 57 55 58 71 59 42 60 43 61 54 63 72 64 45 65
REMARK SMILES IDX 32 66 33 67 38 68 34 69 35 70 37 71 39 72 36 73 58 74 59 75
REMARK SMILES IDX 64 76 60 77 61 78 63 79 65 80 62 81 46 82 47 83 52 84 48 85
REMARK SMILES IDX 49 86 51 87 53 88 50 89
REMARK H PARENT 13 8 20 32 70 51 44 62
REMARK Flexibility Score: inf
ROOT
ATOM      1  C   UNL     1      -4.121   9.716  -2.823  1.00  0.00     0.002 C 
ENDROOT
BRANCH   1   2
ATOM      2  C   UNL     1      -2.706   9.900  -2.255  1.00  0.00     0.002 C 
BRANCH   2   3
ATOM      3  C   UNL     1      -2.248   9.084  -1.039  1.00  0.00     0.021 C 
BRANCH   3   4
ATOM      4  C   UNL     1      -2.652   7.619  -0.947  1.00  0.00     0.116 C 
BRANCH   4   5
ATOM      5  N   UNL     1      -2.301   6.767  -2.066  1.00  0.00    -0.352 N 
ATOM      6  C   UNL     1      -2.230   5.390  -2.174  1.00  0.00     0.252 C 
ATOM      7  O   UNL     1      -1.979   4.919  -3.284  1.00  0.00    -0.269 OA
ATOM      8  H   UNL     1      -2.072   7.253  -2.892  1.00  0.00     0.163 HD
BRANCH   6   9
ATOM      9  C   UNL     1      -2.339   4.447  -1.016  1.00  0.00     0.051 A 
ATOM     10  C   UNL     1      -1.420   2.491   0.038  1.00  0.00     0.072 A 
ATOM     11  C   UNL     1      -1.446   3.364  -1.038  1.00  0.00     0.043 A 
ATOM     12  N   UNL     1      -2.129   2.727   1.164  1.00  0.00    -0.248 NA
ATOM     13  C   UNL     1      -3.010   3.735   1.178  1.00  0.00     0.072 A 
ATOM     14  C   UNL     1      -3.246   4.556   0.061  1.00  0.00     0.013 A 
ATOM     15  C   UNL     1      -3.726   3.967   2.345  1.00  0.00     0.029 A 
ATOM     16  C   UNL     1      -4.371   5.409   0.100  1.00  0.00     0.014 A 
ATOM     17  C   UNL     1      -4.696   4.968   2.429  1.00  0.00     0.005 A 
ATOM     18  C   UNL     1      -5.048   5.683   1.290  1.00  0.00    -0.050 A 
ATOM     19  C   UNL     1      -6.034   6.810   1.347  1.00  0.00     0.044 C 
BRANCH  10  20
ATOM     20  C   UNL     1      -0.684   1.215   0.011  1.00  0.00     0.003 A 
ATOM     21  C   UNL     1       2.960   0.023   0.013  1.00  0.00     0.044 C 
ATOM     22  C   UNL     1       1.461   0.017   0.001  1.00  0.00    -0.050 A 
ATOM     23  C   UNL     1       0.779  -1.201  -0.013  1.00  0.00     0.004 A 
ATOM     24  C   UNL     1       0.725   1.213   0.014  1.00  0.00     0.014 A 
ATOM     25  C   UNL     1      -0.613  -1.225  -0.021  1.00  0.00     0.004 A 
ATOM     26  C   UNL     1      -1.357  -0.032  -0.021  1.00  0.00    -0.042 A 
ATOM     27  C   UNL     1      -2.859  -0.158  -0.022  1.00  0.00     0.045 C 
ENDBRANCH  10  20
ENDBRANCH   6   9
ENDBRANCH   4   5
ENDBRANCH   3   4
ENDBRANCH   2   3
ENDBRANCH   1   2
BRANCH   1  28
ATOM     28  C   UNL     1      -5.324   9.831  -1.886  1.00  0.00     0.021 C 
BRANCH  28  29
ATOM     29  C   UNL     1      -5.390  11.085  -1.030  1.00  0.00     0.116 C 
BRANCH  29  30
ATOM     30  N   UNL     1      -5.839  12.289  -1.718  1.00  0.00    -0.352 N 
ATOM     31  C   UNL     1      -5.734  13.608  -1.289  1.00  0.00     0.251 C 
ATOM     32  H   UNL     1      -6.270  12.152  -2.592  1.00  0.00     0.163 HD
ATOM     33  O   UNL     1      -6.166  14.530  -1.948  1.00  0.00    -0.269 OA
BRANCH  31  34
ATOM     34  C   UNL     1      -4.987  13.862  -0.036  1.00  0.00     0.039 A 
ATOM     35  C   UNL     1      -3.858  14.684  -0.084  1.00  0.00     0.014 A 
ATOM     36  C   UNL     1      -5.266  13.099   1.091  1.00  0.00     0.014 A 
ATOM     37  C   UNL     1      -2.890  14.560   0.911  1.00  0.00     0.010 A 
ATOM     38  C   UNL     1      -4.266  12.912   2.024  1.00  0.00     0.010 A 
ATOM     39  C   UNL     1      -3.050  13.595   1.911  1.00  0.00    -0.014 A 
BRANCH  39  40
ATOM     40  C   UNL     1      -1.935  13.255   2.798  1.00  0.00     0.031 A 
ATOM     41  C   UNL     1      -2.117  13.439   4.263  1.00  0.00     0.074 A 
ATOM     42  C   UNL     1      -0.887  12.506   2.399  1.00  0.00     0.049 A 
ATOM     43  N   UNL     1      -1.618  14.352   5.034  1.00  0.00    -0.248 NA
ATOM     44  C   UNL     1      -3.043  12.526   4.949  1.00  0.00     0.031 C 
ATOM     45  C   UNL     1      -0.717  11.786   1.136  1.00  0.00     0.029 A 
ATOM     46  N   UNL     1       0.208  12.133   3.122  1.00  0.00    -0.354 N 
ATOM     47  C   UNL     1      -2.067  14.038   6.317  1.00  0.00     0.074 A 
ATOM     48  C   UNL     1      -3.140  13.100   6.145  1.00  0.00     0.031 C 
ATOM     49  C   UNL     1       0.316  10.919   1.258  1.00  0.00     0.029 A 
ATOM     50  C   UNL     1       0.945  11.104   2.557  1.00  0.00     0.049 A 
ATOM     51  H   UNL     1       0.455  12.559   3.974  1.00  0.00     0.167 HD
ATOM     52  C   UNL     1      -1.372  14.342   7.450  1.00  0.00     0.037 A 
ATOM     53  C   UNL     1       1.952  10.418   3.151  1.00  0.00     0.037 A 
ATOM     54  C   UNL     1      -0.281  15.241   7.182  1.00  0.00     0.049 A 
ATOM     55  C   UNL     1       2.405  11.193   4.335  1.00  0.00     0.074 A 
ATOM     56  C   UNL     1      -0.149  16.490   6.606  1.00  0.00     0.029 A 
ATOM     57  N   UNL     1       0.995  14.735   7.247  1.00  0.00    -0.354 N 
ATOM     58  N   UNL     1       3.058  12.320   4.283  1.00  0.00    -0.248 NA
ATOM     59  C   UNL     1       1.806  10.884   5.625  1.00  0.00     0.031 C 
ATOM     60  C   UNL     1       1.103  16.455   5.922  1.00  0.00     0.029 A 
ATOM     61  C   UNL     1       1.660  15.195   6.142  1.00  0.00     0.049 A 
ATOM     62  H   UNL     1       1.360  14.153   7.952  1.00  0.00     0.167 HD
ATOM     63  C   UNL     1       2.620  13.039   5.385  1.00  0.00     0.074 A 
ATOM     64  C   UNL     1       1.948  12.063   6.234  1.00  0.00     0.031 C 
ATOM     65  C   UNL     1       2.593  14.404   5.374  1.00  0.00     0.037 A 
BRANCH  52  66
ATOM     66  C   UNL     1      -1.465  13.576   8.756  1.00  0.00     0.057 A 
ATOM     67  C   UNL     1      -0.875  14.121   9.912  1.00  0.00     0.134 A 
ATOM     68  C   UNL     1      -1.893  12.238   8.892  1.00  0.00     0.134 A 
ATOM     69  F   UNL     1      -0.394  15.374   9.915  1.00  0.00    -0.206 F 
ATOM     70  C   UNL     1      -0.682  13.381  11.086  1.00  0.00     0.040 A 
ATOM     71  C   UNL     1      -1.773  11.513  10.082  1.00  0.00     0.040 A 
ATOM     72  F   UNL     1      -2.354  11.517   7.864  1.00  0.00    -0.206 F 
ATOM     73  C   UNL     1      -1.137  12.073  11.176  1.00  0.00     0.006 A 
ENDBRANCH  52  66
BRANCH  53  74
ATOM     74  C   UNL     1       2.410   9.032   2.909  1.00  0.00     0.057 A 
ATOM     75  C   UNL     1       3.682   8.606   3.319  1.00  0.00     0.134 A 
ATOM     76  C   UNL     1       1.527   8.021   2.490  1.00  0.00     0.134 A 
ATOM     77  F   UNL     1       4.581   9.489   3.777  1.00  0.00    -0.206 F 
ATOM     78  C   UNL     1       4.050   7.255   3.327  1.00  0.00     0.040 A 
ATOM     79  C   UNL     1       1.885   6.669   2.482  1.00  0.00     0.040 A 
ATOM     80  F   UNL     1       0.259   8.304   2.154  1.00  0.00    -0.206 F 
ATOM     81  C   UNL     1       3.147   6.280   2.913  1.00  0.00     0.006 A 
ENDBRANCH  53  74
BRANCH  65  82
ATOM     82  C   UNL     1       3.344  15.117   4.289  1.00  0.00     0.057 A 
ATOM     83  C   UNL     1       3.027  15.013   2.928  1.00  0.00     0.134 A 
ATOM     84  C   UNL     1       4.315  16.060   4.647  1.00  0.00     0.134 A 
ATOM     85  F   UNL     1       2.038  14.214   2.506  1.00  0.00    -0.206 F 
ATOM     86  C   UNL     1       3.681  15.781   1.961  1.00  0.00     0.040 A 
ATOM     87  C   UNL     1       4.951  16.858   3.694  1.00  0.00     0.040 A 
ATOM     88  F   UNL     1       4.626  16.256   5.938  1.00  0.00    -0.206 F 
ATOM     89  C   UNL     1       4.641  16.713   2.344  1.00  0.00     0.006 A 
ENDBRANCH  65  82
ENDBRANCH  39  40
ENDBRANCH  31  34
ENDBRANCH  29  30
ENDBRANCH  28  29
ENDBRANCH   1  28
TORSDOF 14
