REMARK SMILES CC(C)CN(C)c1cc2c(cc1Cl)C=C(C(=O)NCCCCCCNC(=O)c1ccc(-c3c4nc(c(-c5c(F)cccc5F)c5ccc([nH]5)c(-c5c(F)cccc5F)c5nc(c(-c6c(F)cccc6F)c6ccc3[nH]6)C=C5)C=C4)cc1)[C@@H](C(F)(F)F)O2
REMARK SMILES IDX 21 1 20 2 19 3 18 4 16 5 17 6 15 8 7 9 8 10 12 11 9 12 11 13
REMARK SMILES IDX 13 14 10 15 87 16 14 17 82 18 5 19 6 20 4 21 2 22 1 23 3 24
REMARK SMILES IDX 83 25 84 26 85 27 86 28 22 29 23 30 24 31 25 32 26 33 27 35
REMARK SMILES IDX 28 36 29 37 81 38 30 39 80 40 31 41 32 42 33 43 74 44 34 45
REMARK SMILES IDX 79 46 73 47 75 48 35 49 78 50 72 51 71 52 36 54 62 55 45 56
REMARK SMILES IDX 61 57 46 58 49 59 60 60 76 61 47 62 48 63 59 65 77 66 50 67
REMARK SMILES IDX 37 68 38 69 43 70 39 71 40 72 42 73 44 74 41 75 63 76 64 77
REMARK SMILES IDX 69 78 65 79 66 80 68 81 70 82 67 83 51 84 52 85 57 86 53 87
REMARK SMILES IDX 54 88 56 89 58 90 55 91
REMARK H PARENT 18 7 25 34 75 53 49 64
REMARK Flexibility Score: inf
ROOT
ATOM      1  C   UNL     1      -3.381  -9.208   5.232  1.00  0.00     0.002 C 
ENDROOT
BRANCH   1   2
ATOM      2  C   UNL     1      -3.571  -7.858   4.535  1.00  0.00     0.021 C 
BRANCH   2   3
ATOM      3  C   UNL     1      -2.846  -6.702   5.218  1.00  0.00     0.116 C 
BRANCH   3   4
ATOM      4  N   UNL     1      -1.446  -6.662   4.840  1.00  0.00    -0.352 N 
ATOM      5  C   UNL     1      -0.586  -5.755   4.324  1.00  0.00     0.251 C 
ATOM      6  O   UNL     1       0.578  -6.149   4.198  1.00  0.00    -0.270 OA
ATOM      7  H   UNL     1      -1.004  -7.527   5.002  1.00  0.00     0.163 HD
BRANCH   5   8
ATOM      8  C   UNL     1      -0.943  -4.371   3.909  1.00  0.00     0.067 C 
ATOM      9  C   UNL     1      -0.818   0.254   1.886  1.00  0.00     0.059 A 
ATOM     10  C   UNL     1      -1.809  -0.727   2.045  1.00  0.00     0.074 A 
ATOM     11  C   UNL     1       0.452  -0.000   2.451  1.00  0.00     0.065 A 
ATOM     12  C   UNL     1      -1.516  -1.934   2.671  1.00  0.00     0.130 A 
ATOM     13  C   UNL     1       0.764  -1.250   2.999  1.00  0.00     0.034 A 
ATOM     14  Cl  UNL     1       1.693   1.206   2.493  1.00  0.00    -0.082 Cl
ATOM     15  C   UNL     1      -0.217  -2.232   3.081  1.00  0.00     0.019 A 
ATOM     16  O   UNL     1      -2.546  -2.821   2.828  1.00  0.00    -0.475 OA
ATOM     17  C   UNL     1       0.083  -3.584   3.536  1.00  0.00     0.025 C 
ATOM     18  C   UNL     1      -2.336  -3.808   3.880  1.00  0.00     0.314 C 
BRANCH   9  19
ATOM     19  N   UNL     1      -1.082   1.405   1.126  1.00  0.00    -0.373 N 
ATOM     20  C   UNL     1      -2.178   2.238   1.616  1.00  0.00     0.143 C 
BRANCH  19  21
ATOM     21  C   UNL     1      -0.988   1.237  -0.342  1.00  0.00     0.119 C 
BRANCH  21  22
ATOM     22  C   UNL     1       0.470   1.186  -0.847  1.00  0.00     0.002 C 
ATOM     23  C   UNL     1       0.998  -0.248  -0.974  1.00  0.00     0.009 C 
ATOM     24  C   UNL     1       0.604   1.874  -2.208  1.00  0.00     0.009 C 
ENDBRANCH  21  22
ENDBRANCH  19  21
ENDBRANCH   9  19
BRANCH  18  25
ATOM     25  C   UNL     1      -2.747  -3.242   5.257  1.00  0.00     0.429 C 
ATOM     26  F   UNL     1      -4.088  -3.051   5.316  1.00  0.00    -0.167 F 
ATOM     27  F   UNL     1      -2.438  -4.090   6.269  1.00  0.00    -0.167 F 
ATOM     28  F   UNL     1      -2.155  -2.062   5.546  1.00  0.00    -0.167 F 
ENDBRANCH  18  25
ENDBRANCH   5   8
ENDBRANCH   3   4
ENDBRANCH   2   3
ENDBRANCH   1   2
BRANCH   1  29
ATOM     29  C   UNL     1      -3.803  -9.249   6.707  1.00  0.00     0.002 C 
BRANCH  29  30
ATOM     30  C   UNL     1      -5.191  -8.681   7.007  1.00  0.00     0.021 C 
BRANCH  30  31
ATOM     31  C   UNL     1      -6.328  -9.345   6.242  1.00  0.00     0.116 C 
BRANCH  31  32
ATOM     32  N   UNL     1      -6.480 -10.752   6.578  1.00  0.00    -0.352 N 
ATOM     33  C   UNL     1      -7.613 -11.432   6.954  1.00  0.00     0.251 C 
ATOM     34  H   UNL     1      -5.658 -11.291   6.530  1.00  0.00     0.163 HD
ATOM     35  O   UNL     1      -7.542 -12.588   7.359  1.00  0.00    -0.269 OA
BRANCH  33  36
ATOM     36  C   UNL     1      -8.918 -10.744   6.899  1.00  0.00     0.039 A 
ATOM     37  C   UNL     1      -9.275  -9.997   5.774  1.00  0.00     0.014 A 
ATOM     38  C   UNL     1      -9.771 -10.809   8.004  1.00  0.00     0.014 A 
ATOM     39  C   UNL     1     -10.396  -9.179   5.822  1.00  0.00     0.010 A 
ATOM     40  C   UNL     1     -10.946 -10.055   8.013  1.00  0.00     0.010 A 
ATOM     41  C   UNL     1     -11.241  -9.193   6.944  1.00  0.00    -0.014 A 
BRANCH  41  42
ATOM     42  C   UNL     1     -12.417  -8.287   6.980  1.00  0.00     0.031 A 
ATOM     43  C   UNL     1     -12.511  -7.186   7.999  1.00  0.00     0.074 A 
ATOM     44  C   UNL     1     -13.384  -8.432   6.055  1.00  0.00     0.049 A 
ATOM     45  N   UNL     1     -13.454  -6.292   8.166  1.00  0.00    -0.248 NA
ATOM     46  C   UNL     1     -11.407  -7.077   8.964  1.00  0.00     0.031 C 
ATOM     47  C   UNL     1     -13.406  -9.461   5.013  1.00  0.00     0.029 A 
ATOM     48  N   UNL     1     -14.523  -7.704   5.829  1.00  0.00    -0.354 N 
ATOM     49  C   UNL     1     -13.070  -5.532   9.264  1.00  0.00     0.074 A 
ATOM     50  C   UNL     1     -11.824  -6.091   9.745  1.00  0.00     0.031 C 
ATOM     51  C   UNL     1     -14.480  -9.273   4.234  1.00  0.00     0.029 A 
ATOM     52  C   UNL     1     -15.253  -8.152   4.756  1.00  0.00     0.049 A 
ATOM     53  H   UNL     1     -14.791  -6.936   6.382  1.00  0.00     0.167 HD
ATOM     54  C   UNL     1     -13.692  -4.462   9.816  1.00  0.00     0.037 A 
ATOM     55  C   UNL     1     -16.426  -7.721   4.258  1.00  0.00     0.037 A 
ATOM     56  C   UNL     1     -14.927  -3.902   9.328  1.00  0.00     0.049 A 
ATOM     57  C   UNL     1     -17.115  -6.559   4.909  1.00  0.00     0.074 A 
ATOM     58  C   UNL     1     -15.618  -2.796   9.793  1.00  0.00     0.029 A 
ATOM     59  N   UNL     1     -15.661  -4.412   8.267  1.00  0.00    -0.354 N 
ATOM     60  N   UNL     1     -16.726  -5.832   5.928  1.00  0.00    -0.248 NA
ATOM     61  C   UNL     1     -18.410  -6.161   4.343  1.00  0.00     0.031 C 
ATOM     62  C   UNL     1     -16.795  -2.668   9.044  1.00  0.00     0.029 A 
ATOM     63  C   UNL     1     -16.812  -3.663   8.081  1.00  0.00     0.049 A 
ATOM     64  H   UNL     1     -15.402  -5.193   7.725  1.00  0.00     0.167 HD
ATOM     65  C   UNL     1     -17.723  -4.886   6.123  1.00  0.00     0.074 A 
ATOM     66  C   UNL     1     -18.722  -5.117   5.098  1.00  0.00     0.031 C 
ATOM     67  C   UNL     1     -17.805  -3.916   7.066  1.00  0.00     0.037 A 
BRANCH  54  68
ATOM     68  C   UNL     1     -13.055  -3.852  11.033  1.00  0.00     0.057 A 
ATOM     69  C   UNL     1     -13.655  -3.984  12.292  1.00  0.00     0.134 A 
ATOM     70  C   UNL     1     -11.849  -3.140  10.966  1.00  0.00     0.134 A 
ATOM     71  F   UNL     1     -14.814  -4.645  12.429  1.00  0.00    -0.206 F 
ATOM     72  C   UNL     1     -13.073  -3.444  13.440  1.00  0.00     0.040 A 
ATOM     73  C   UNL     1     -11.243  -2.619  12.112  1.00  0.00     0.040 A 
ATOM     74  F   UNL     1     -11.215  -2.987   9.794  1.00  0.00    -0.206 F 
ATOM     75  C   UNL     1     -11.857  -2.769  13.354  1.00  0.00     0.006 A 
ENDBRANCH  54  68
BRANCH  55  76
ATOM     76  C   UNL     1     -17.020  -8.411   3.087  1.00  0.00     0.057 A 
ATOM     77  C   UNL     1     -17.522  -9.714   3.190  1.00  0.00     0.134 A 
ATOM     78  C   UNL     1     -17.074  -7.793   1.833  1.00  0.00     0.134 A 
ATOM     79  F   UNL     1     -17.489 -10.361   4.364  1.00  0.00    -0.206 F 
ATOM     80  C   UNL     1     -18.040 -10.387   2.084  1.00  0.00     0.040 A 
ATOM     81  C   UNL     1     -17.614  -8.445   0.723  1.00  0.00     0.040 A 
ATOM     82  F   UNL     1     -16.623  -6.540   1.677  1.00  0.00    -0.206 F 
ATOM     83  C   UNL     1     -18.091  -9.749   0.846  1.00  0.00     0.006 A 
ENDBRANCH  55  76
BRANCH  67  84
ATOM     84  C   UNL     1     -19.015  -3.030   7.020  1.00  0.00     0.057 A 
ATOM     85  C   UNL     1     -18.909  -1.697   6.603  1.00  0.00     0.134 A 
ATOM     86  C   UNL     1     -20.284  -3.492   7.393  1.00  0.00     0.134 A 
ATOM     87  F   UNL     1     -17.722  -1.190   6.237  1.00  0.00    -0.206 F 
ATOM     88  C   UNL     1     -20.022  -0.856   6.557  1.00  0.00     0.040 A 
ATOM     89  C   UNL     1     -21.409  -2.669   7.326  1.00  0.00     0.040 A 
ATOM     90  F   UNL     1     -20.456  -4.764   7.785  1.00  0.00    -0.206 F 
ATOM     91  C   UNL     1     -21.278  -1.345   6.912  1.00  0.00     0.006 A 
ENDBRANCH  67  84
ENDBRANCH  41  42
ENDBRANCH  33  36
ENDBRANCH  31  32
ENDBRANCH  30  31
ENDBRANCH  29  30
ENDBRANCH   1  29
TORSDOF 17
