REMARK SMILES O=C(NCCCCCCNC(=O)c1cc2ncoc2cn1)c1ccc(-c2c3nc(c(-c4c(F)cccc4F)c4ccc([nH]4)c(-c4c(F)cccc4F)c4nc(c(-c5c(F)cccc5F)c5ccc2[nH]5)C=C4)C=C3)cc1
REMARK SMILES IDX 5 1 4 2 3 3 1 4 2 5 22 7 23 8 75 9 24 10 74 11 25 12 26 13
REMARK SMILES IDX 27 14 68 15 28 16 73 17 67 18 69 19 29 20 72 21 66 22 65 23
REMARK SMILES IDX 30 25 56 26 39 27 55 28 40 29 43 30 54 31 70 32 41 33 42 34
REMARK SMILES IDX 53 36 71 37 44 38 31 39 32 40 37 41 33 42 34 43 36 44 38 45
REMARK SMILES IDX 35 46 57 47 58 48 63 49 59 50 60 51 62 52 64 53 61 54 45 55
REMARK SMILES IDX 46 56 51 57 47 58 48 59 50 60 52 61 49 62 6 63 7 64 8 65
REMARK SMILES IDX 9 66 10 67 11 68 12 70 13 71 14 72 21 73 15 74 20 75 16 76
REMARK SMILES IDX 19 77 17 78 18 79
REMARK H PARENT 3 6 69 24 43 35 10 69
REMARK Flexibility Score: inf
ROOT
ATOM      1  C   UNL     1       4.620  -1.721   2.709  1.00  0.00     0.021 C 
ENDROOT
BRANCH   1   2
ATOM      2  C   UNL     1       4.225  -0.934   1.475  1.00  0.00     0.116 C 
BRANCH   2   3
ATOM      3  N   UNL     1       2.772  -0.768   1.306  1.00  0.00    -0.352 N 
ATOM      4  O   UNL     1       0.939   0.279   0.433  1.00  0.00    -0.269 OA
ATOM      5  C   UNL     1       2.086  -0.100   0.291  1.00  0.00     0.251 C 
ATOM      6  H   UNL     1       2.211  -1.183   2.001  1.00  0.00     0.163 HD
BRANCH   5   7
ATOM      7  C   UNL     1       2.792   0.110  -0.987  1.00  0.00     0.039 A 
ATOM      8  C   UNL     1       2.668   1.238  -1.801  1.00  0.00     0.014 A 
ATOM      9  C   UNL     1       3.688  -0.883  -1.322  1.00  0.00     0.014 A 
ATOM     10  C   UNL     1       3.469   1.298  -2.943  1.00  0.00     0.010 A 
ATOM     11  C   UNL     1       4.761  -0.530  -2.065  1.00  0.00     0.010 A 
ATOM     12  C   UNL     1       4.503   0.359  -3.074  1.00  0.00    -0.014 A 
BRANCH  12  13
ATOM     13  C   UNL     1       5.383   0.235  -4.221  1.00  0.00     0.031 A 
ATOM     14  C   UNL     1       6.109   1.478  -4.532  1.00  0.00     0.074 A 
ATOM     15  C   UNL     1       5.663  -0.957  -4.805  1.00  0.00     0.049 A 
ATOM     16  N   UNL     1       5.880   2.285  -5.508  1.00  0.00    -0.248 NA
ATOM     17  C   UNL     1       7.058   1.989  -3.533  1.00  0.00     0.031 C 
ATOM     18  C   UNL     1       5.265  -2.319  -4.405  1.00  0.00     0.029 A 
ATOM     19  N   UNL     1       6.448  -1.199  -5.890  1.00  0.00    -0.354 N 
ATOM     20  C   UNL     1       6.815   3.303  -5.378  1.00  0.00     0.074 A 
ATOM     21  C   UNL     1       7.353   3.183  -4.048  1.00  0.00     0.031 C 
ATOM     22  C   UNL     1       5.977  -3.236  -5.101  1.00  0.00     0.029 A 
ATOM     23  C   UNL     1       6.746  -2.543  -6.114  1.00  0.00     0.049 A 
ATOM     24  H   UNL     1       6.781  -0.479  -6.474  1.00  0.00     0.167 HD
ATOM     25  C   UNL     1       7.242   3.989  -6.473  1.00  0.00     0.037 A 
ATOM     26  C   UNL     1       7.577  -3.029  -7.071  1.00  0.00     0.037 A 
ATOM     27  C   UNL     1       6.361   3.752  -7.595  1.00  0.00     0.049 A 
ATOM     28  C   UNL     1       7.718  -1.964  -8.099  1.00  0.00     0.074 A 
ATOM     29  C   UNL     1       5.026   3.999  -7.848  1.00  0.00     0.029 A 
ATOM     30  N   UNL     1       6.741   2.791  -8.503  1.00  0.00    -0.354 N 
ATOM     31  N   UNL     1       6.737  -1.576  -8.867  1.00  0.00    -0.248 NA
ATOM     32  C   UNL     1       8.784  -0.991  -7.907  1.00  0.00     0.031 C 
ATOM     33  C   UNL     1       4.563   2.848  -8.553  1.00  0.00     0.029 A 
ATOM     34  C   UNL     1       5.651   2.000  -8.766  1.00  0.00     0.049 A 
ATOM     35  H   UNL     1       7.638   2.689  -8.895  1.00  0.00     0.167 HD
ATOM     36  C   UNL     1       6.838  -0.191  -8.904  1.00  0.00     0.074 A 
ATOM     37  C   UNL     1       8.158   0.106  -8.345  1.00  0.00     0.031 C 
ATOM     38  C   UNL     1       5.736   0.594  -9.099  1.00  0.00     0.037 A 
BRANCH  25  39
ATOM     39  C   UNL     1       8.637   4.531  -6.652  1.00  0.00     0.057 A 
ATOM     40  C   UNL     1       9.767   4.111  -5.921  1.00  0.00     0.134 A 
ATOM     41  C   UNL     1       8.923   5.283  -7.806  1.00  0.00     0.134 A 
ATOM     42  F   UNL     1       9.681   3.351  -4.824  1.00  0.00    -0.206 F 
ATOM     43  C   UNL     1      11.076   4.366  -6.336  1.00  0.00     0.040 A 
ATOM     44  C   UNL     1      10.230   5.503  -8.255  1.00  0.00     0.040 A 
ATOM     45  F   UNL     1       7.936   5.758  -8.581  1.00  0.00    -0.206 F 
ATOM     46  C   UNL     1      11.312   5.029  -7.527  1.00  0.00     0.006 A 
ENDBRANCH  25  39
BRANCH  26  47
ATOM     47  C   UNL     1       8.488  -4.196  -7.002  1.00  0.00     0.057 A 
ATOM     48  C   UNL     1       9.069  -4.590  -5.783  1.00  0.00     0.134 A 
ATOM     49  C   UNL     1       9.034  -4.776  -8.156  1.00  0.00     0.134 A 
ATOM     50  F   UNL     1       8.675  -4.043  -4.623  1.00  0.00    -0.206 F 
ATOM     51  C   UNL     1      10.139  -5.489  -5.715  1.00  0.00     0.040 A 
ATOM     52  C   UNL     1      10.107  -5.678  -8.103  1.00  0.00     0.040 A 
ATOM     53  F   UNL     1       8.578  -4.432  -9.370  1.00  0.00    -0.206 F 
ATOM     54  C   UNL     1      10.671  -6.028  -6.880  1.00  0.00     0.006 A 
ENDBRANCH  26  47
BRANCH  38  55
ATOM     55  C   UNL     1       4.451  -0.094  -9.485  1.00  0.00     0.057 A 
ATOM     56  C   UNL     1       3.821   0.275 -10.678  1.00  0.00     0.134 A 
ATOM     57  C   UNL     1       3.755  -0.994  -8.661  1.00  0.00     0.134 A 
ATOM     58  F   UNL     1       4.394   1.175 -11.491  1.00  0.00    -0.206 F 
ATOM     59  C   UNL     1       2.571  -0.233 -11.043  1.00  0.00     0.040 A 
ATOM     60  C   UNL     1       2.517  -1.534  -9.028  1.00  0.00     0.040 A 
ATOM     61  F   UNL     1       4.224  -1.333  -7.455  1.00  0.00    -0.206 F 
ATOM     62  C   UNL     1       1.920  -1.150 -10.223  1.00  0.00     0.006 A 
ENDBRANCH  38  55
ENDBRANCH  12  13
ENDBRANCH   5   7
ENDBRANCH   2   3
ENDBRANCH   1   2
BRANCH   1  63
ATOM     63  C   UNL     1       4.202  -3.198   2.670  1.00  0.00     0.002 C 
BRANCH  63  64
ATOM     64  C   UNL     1       4.774  -4.061   1.533  1.00  0.00     0.002 C 
BRANCH  64  65
ATOM     65  C   UNL     1       6.297  -4.051   1.371  1.00  0.00     0.021 C 
BRANCH  65  66
ATOM     66  C   UNL     1       7.087  -4.340   2.645  1.00  0.00     0.116 C 
BRANCH  66  67
ATOM     67  N   UNL     1       6.778  -5.654   3.182  1.00  0.00    -0.351 N 
ATOM     68  C   UNL     1       7.642  -6.684   3.466  1.00  0.00     0.269 C 
ATOM     69  H   UNL     1       5.827  -5.828   3.366  1.00  0.00     0.163 HD
ATOM     70  O   UNL     1       7.200  -7.799   3.737  1.00  0.00    -0.268 OA
BRANCH  68  71
ATOM     71  C   UNL     1       9.114  -6.458   3.406  1.00  0.00     0.130 A 
ATOM     72  C   UNL     1       9.892  -7.415   2.764  1.00  0.00     0.066 A 
ATOM     73  N   UNL     1       9.584  -5.307   3.980  1.00  0.00    -0.247 NA
ATOM     74  C   UNL     1      11.247  -7.108   2.681  1.00  0.00     0.113 A 
ATOM     75  C   UNL     1      10.910  -5.035   3.914  1.00  0.00     0.161 A 
ATOM     76  N   UNL     1      12.290  -7.779   2.091  1.00  0.00    -0.216 NA
ATOM     77  C   UNL     1      11.718  -5.936   3.252  1.00  0.00     0.172 A 
ATOM     78  C   UNL     1      13.326  -7.004   2.328  1.00  0.00     0.309 A 
ATOM     79  O   UNL     1      13.061  -5.864   3.028  1.00  0.00    -0.442 OA
ENDBRANCH  68  71
ENDBRANCH  66  67
ENDBRANCH  65  66
ENDBRANCH  64  65
ENDBRANCH  63  64
ENDBRANCH   1  63
TORSDOF 13
