REMARK SMILES CCC[NH2+][C@@]1(C(=O)NCCCCCCNC(=O)c2ccc(-c3c4nc(c(-c5c(F)cccc5F)c5ccc([nH]5)c(-c5c(F)cccc5F)c5nc(c(-c6c(F)cccc6F)c6ccc3[nH]6)C=C5)C=C4)cc2)CCC[C@@H]1CC[NH+]1CC[NH+](C)CC1
REMARK SMILES IDX 11 1 10 2 9 3 8 4 6 5 7 6 5 8 72 9 75 10 73 11 74 12 4 13
REMARK SMILES IDX 3 16 2 17 1 18 76 19 77 20 78 21 79 22 84 23 80 25 83 26
REMARK SMILES IDX 81 27 82 28 12 30 13 31 14 32 15 33 16 34 17 36 18 37 19 38
REMARK SMILES IDX 71 39 20 40 70 41 21 42 22 43 23 44 64 45 24 46 69 47 63 48
REMARK SMILES IDX 65 49 25 50 68 51 62 52 61 53 26 55 52 56 35 57 51 58 36 59
REMARK SMILES IDX 39 60 50 61 66 62 37 63 38 64 49 66 67 67 40 68 27 69 28 70
REMARK SMILES IDX 33 71 29 72 30 73 32 74 34 75 31 76 53 77 54 78 59 79 55 80
REMARK SMILES IDX 56 81 58 82 60 83 57 84 41 85 42 86 47 87 43 88 44 89 46 90
REMARK SMILES IDX 48 91 45 92
REMARK H PARENT 8 7 4 14 4 15 78 24 81 29 15 35 65 54 39 65
REMARK Flexibility Score: inf
ROOT
ATOM      1  C   UNL     1       2.168  -4.266   8.024  1.00  0.00     0.002 C 
ENDROOT
BRANCH   1   2
ATOM      2  C   UNL     1       2.469  -4.418   6.529  1.00  0.00     0.021 C 
BRANCH   2   3
ATOM      3  C   UNL     1       1.233  -4.684   5.670  1.00  0.00     0.116 C 
BRANCH   3   4
ATOM      4  N   UNL     1       0.618  -3.458   5.237  1.00  0.00    -0.351 N 
ATOM      5  C   UNL     1       0.498  -2.847   4.036  1.00  0.00     0.281 C 
ATOM      6  O   UNL     1      -0.031  -1.724   4.105  1.00  0.00    -0.268 OA
ATOM      7  H   UNL     1       0.195  -2.956   5.971  1.00  0.00     0.163 HD
BRANCH   5   8
ATOM      8  C   UNL     1       1.004  -3.409   2.619  1.00  0.00     0.178 C 
ATOM      9  C   UNL     1       0.395  -4.788   2.317  1.00  0.00     0.079 C 
ATOM     10  C   UNL     1       2.541  -3.605   2.477  1.00  0.00     0.066 C 
ATOM     11  C   UNL     1       1.524  -5.820   2.362  1.00  0.00     0.008 C 
ATOM     12  C   UNL     1       2.822  -5.091   2.700  1.00  0.00     0.011 C 
BRANCH   8  13
ATOM     13  N   UNL     1       0.460  -2.399   1.659  1.00  0.00    -0.333 N 
ATOM     14  H   UNL     1      -0.549  -2.542   1.625  1.00  0.00     0.347 HD
ATOM     15  H   UNL     1       0.803  -1.516   2.036  1.00  0.00     0.347 HD
BRANCH  13  16
ATOM     16  C   UNL     1       0.922  -2.366   0.281  1.00  0.00     0.261 C 
BRANCH  16  17
ATOM     17  C   UNL     1       0.295  -1.194  -0.485  1.00  0.00     0.058 C 
ATOM     18  C   UNL     1       0.825   0.163  -0.031  1.00  0.00     0.010 C 
ENDBRANCH  16  17
ENDBRANCH  13  16
ENDBRANCH   8  13
BRANCH  10  19
ATOM     19  C   UNL     1       3.389  -2.638   3.321  1.00  0.00     0.072 C 
BRANCH  19  20
ATOM     20  C   UNL     1       4.417  -1.845   2.500  1.00  0.00     0.263 C 
BRANCH  20  21
ATOM     21  N   UNL     1       4.618  -0.491   3.028  1.00  0.00    -0.326 N 
ATOM     22  C   UNL     1       5.504   0.293   2.149  1.00  0.00     0.324 C 
ATOM     23  C   UNL     1       5.102  -0.445   4.418  1.00  0.00     0.324 C 
ATOM     24  H   UNL     1       3.689  -0.069   3.042  1.00  0.00     0.348 HD
ATOM     25  C   UNL     1       5.715   1.737   2.660  1.00  0.00     0.324 C 
ATOM     26  C   UNL     1       5.302   1.010   4.911  1.00  0.00     0.324 C 
ATOM     27  N   UNL     1       6.174   1.843   4.060  1.00  0.00    -0.328 N 
ATOM     28  C   UNL     1       7.577   1.467   4.199  1.00  0.00     0.333 C 
ATOM     29  H   UNL     1       6.108   2.816   4.360  1.00  0.00     0.348 HD
ENDBRANCH  20  21
ENDBRANCH  19  20
ENDBRANCH  10  19
ENDBRANCH   5   8
ENDBRANCH   3   4
ENDBRANCH   2   3
ENDBRANCH   1   2
BRANCH   1  30
ATOM     30  C   UNL     1       1.470  -5.466   8.674  1.00  0.00     0.002 C 
BRANCH  30  31
ATOM     31  C   UNL     1       2.135  -6.824   8.427  1.00  0.00     0.021 C 
BRANCH  31  32
ATOM     32  C   UNL     1       3.586  -6.920   8.891  1.00  0.00     0.116 C 
BRANCH  32  33
ATOM     33  N   UNL     1       3.720  -6.660  10.316  1.00  0.00    -0.352 N 
ATOM     34  C   UNL     1       4.196  -7.468  11.312  1.00  0.00     0.251 C 
ATOM     35  H   UNL     1       3.424  -5.768  10.607  1.00  0.00     0.163 HD
ATOM     36  O   UNL     1       4.026  -7.153  12.493  1.00  0.00    -0.269 OA
BRANCH  34  37
ATOM     37  C   UNL     1       4.901  -8.722  10.986  1.00  0.00     0.039 A 
ATOM     38  C   UNL     1       4.592  -9.878  11.707  1.00  0.00     0.014 A 
ATOM     39  C   UNL     1       5.881  -8.755   9.989  1.00  0.00     0.014 A 
ATOM     40  C   UNL     1       5.221 -11.082  11.386  1.00  0.00     0.010 A 
ATOM     41  C   UNL     1       6.460  -9.969   9.627  1.00  0.00     0.010 A 
ATOM     42  C   UNL     1       6.134 -11.144  10.320  1.00  0.00    -0.014 A 
BRANCH  42  43
ATOM     43  C   UNL     1       6.733 -12.435   9.901  1.00  0.00     0.031 A 
ATOM     44  C   UNL     1       8.212 -12.667  10.031  1.00  0.00     0.074 A 
ATOM     45  C   UNL     1       5.948 -13.374   9.340  1.00  0.00     0.049 A 
ATOM     46  N   UNL     1       8.920 -13.704   9.661  1.00  0.00    -0.248 NA
ATOM     47  C   UNL     1       9.003 -11.582  10.631  1.00  0.00     0.031 C 
ATOM     48  C   UNL     1       4.506 -13.246   9.116  1.00  0.00     0.029 A 
ATOM     49  N   UNL     1       6.252 -14.617   8.845  1.00  0.00    -0.354 N 
ATOM     50  C   UNL     1      10.237 -13.394   9.974  1.00  0.00     0.074 A 
ATOM     51  C   UNL     1      10.237 -12.053  10.518  1.00  0.00     0.031 C 
ATOM     52  C   UNL     1       4.049 -14.372   8.545  1.00  0.00     0.029 A 
ATOM     53  C   UNL     1       5.167 -15.284   8.329  1.00  0.00     0.049 A 
ATOM     54  H   UNL     1       7.161 -14.994   8.857  1.00  0.00     0.167 HD
ATOM     55  C   UNL     1      11.342 -14.165   9.838  1.00  0.00     0.037 A 
ATOM     56  C   UNL     1       5.085 -16.491   7.739  1.00  0.00     0.037 A 
ATOM     57  C   UNL     1      11.335 -15.506   9.315  1.00  0.00     0.049 A 
ATOM     58  C   UNL     1       6.328 -17.321   7.590  1.00  0.00     0.074 A 
ATOM     59  C   UNL     1      12.391 -16.395   9.204  1.00  0.00     0.029 A 
ATOM     60  N   UNL     1      10.216 -16.151   8.808  1.00  0.00    -0.354 N 
ATOM     61  N   UNL     1       7.555 -17.045   7.959  1.00  0.00    -0.248 NA
ATOM     62  C   UNL     1       6.174 -18.632   6.944  1.00  0.00     0.031 C 
ATOM     63  C   UNL     1      11.921 -17.558   8.586  1.00  0.00     0.029 A 
ATOM     64  C   UNL     1      10.562 -17.413   8.355  1.00  0.00     0.049 A 
ATOM     65  H   UNL     1       9.310 -15.767   8.775  1.00  0.00     0.167 HD
ATOM     66  C   UNL     1       8.316 -18.152   7.607  1.00  0.00     0.074 A 
ATOM     67  C   UNL     1       7.408 -19.112   7.014  1.00  0.00     0.031 C 
ATOM     68  C   UNL     1       9.648 -18.354   7.760  1.00  0.00     0.037 A 
BRANCH  55  69
ATOM     69  C   UNL     1      12.656 -13.575  10.265  1.00  0.00     0.057 A 
ATOM     70  C   UNL     1      12.964 -13.357  11.614  1.00  0.00     0.134 A 
ATOM     71  C   UNL     1      13.639 -13.259   9.319  1.00  0.00     0.134 A 
ATOM     72  F   UNL     1      12.063 -13.628  12.570  1.00  0.00    -0.206 F 
ATOM     73  C   UNL     1      14.192 -12.820  12.005  1.00  0.00     0.040 A 
ATOM     74  C   UNL     1      14.881 -12.747   9.700  1.00  0.00     0.040 A 
ATOM     75  F   UNL     1      13.412 -13.449   8.011  1.00  0.00    -0.206 F 
ATOM     76  C   UNL     1      15.158 -12.520  11.046  1.00  0.00     0.006 A 
ENDBRANCH  55  69
BRANCH  56  77
ATOM     77  C   UNL     1       3.773 -16.992   7.258  1.00  0.00     0.057 A 
ATOM     78  C   UNL     1       3.126 -18.052   7.902  1.00  0.00     0.134 A 
ATOM     79  C   UNL     1       3.136 -16.425   6.148  1.00  0.00     0.134 A 
ATOM     80  F   UNL     1       3.696 -18.648   8.960  1.00  0.00    -0.206 F 
ATOM     81  C   UNL     1       1.900 -18.543   7.450  1.00  0.00     0.040 A 
ATOM     82  C   UNL     1       1.898 -16.889   5.700  1.00  0.00     0.040 A 
ATOM     83  F   UNL     1       3.701 -15.400   5.493  1.00  0.00    -0.206 F 
ATOM     84  C   UNL     1       1.280 -17.957   6.348  1.00  0.00     0.006 A 
ENDBRANCH  56  77
BRANCH  68  85
ATOM     85  C   UNL     1      10.197 -19.668   7.288  1.00  0.00     0.057 A 
ATOM     86  C   UNL     1      10.328 -19.965   5.926  1.00  0.00     0.134 A 
ATOM     87  C   UNL     1      10.631 -20.633   8.206  1.00  0.00     0.134 A 
ATOM     88  F   UNL     1       9.917 -19.089   4.996  1.00  0.00    -0.206 F 
ATOM     89  C   UNL     1      10.850 -21.185   5.492  1.00  0.00     0.040 A 
ATOM     90  C   UNL     1      11.179 -21.846   7.785  1.00  0.00     0.040 A 
ATOM     91  F   UNL     1      10.541 -20.408   9.525  1.00  0.00    -0.206 F 
ATOM     92  C   UNL     1      11.284 -22.126   6.424  1.00  0.00     0.006 A 
ENDBRANCH  68  85
ENDBRANCH  42  43
ENDBRANCH  34  37
ENDBRANCH  32  33
ENDBRANCH  31  32
ENDBRANCH  30  31
ENDBRANCH   1  30
TORSDOF 19
