REMARK SMILES Cc1cc(C)cc(CSc2cc(C(=O)NCCCCCCNC(=O)c3ccc(-c4c5nc(c(-c6c(F)cccc6F)c6ccc([nH]6)c(-c6c(F)cccc6F)c6nc(c(-c7c(F)cccc7F)c7ccc4[nH]7)C=C6)C=C5)cc3)cc(Cl)n2)c1
REMARK SMILES IDX 18 1 17 2 16 3 15 4 13 5 14 6 12 8 10 9 11 10 82 11 80 12
REMARK SMILES IDX 79 13 81 14 9 15 8 16 7 17 1 18 2 19 3 20 83 21 4 22 5 23
REMARK SMILES IDX 6 24 19 25 20 26 21 27 22 28 23 29 24 31 25 32 26 33 78 34
REMARK SMILES IDX 27 35 77 36 28 37 29 38 30 39 71 40 31 41 76 42 70 43 72 44
REMARK SMILES IDX 32 45 75 46 69 47 68 48 33 50 59 51 42 52 58 53 43 54 46 55
REMARK SMILES IDX 57 56 73 57 44 58 45 59 56 61 74 62 47 63 34 64 35 65 40 66
REMARK SMILES IDX 36 67 37 68 39 69 41 70 38 71 60 72 61 73 66 74 62 75 63 76
REMARK SMILES IDX 65 77 67 78 64 79 48 80 49 81 54 82 50 83 51 84 53 85 55 86
REMARK SMILES IDX 52 87
REMARK H PARENT 15 7 22 30 72 49 46 60
REMARK Flexibility Score: inf
ROOT
ATOM      1  C   UNL     1       2.567  -3.410   9.868  1.00  0.00     0.002 C 
ENDROOT
BRANCH   1   2
ATOM      2  C   UNL     1       1.919  -2.667   8.689  1.00  0.00     0.021 C 
BRANCH   2   3
ATOM      3  C   UNL     1       2.719  -2.791   7.390  1.00  0.00     0.116 C 
BRANCH   3   4
ATOM      4  N   UNL     1       2.439  -4.058   6.747  1.00  0.00    -0.352 N 
ATOM      5  C   UNL     1       1.685  -4.458   5.680  1.00  0.00     0.251 C 
ATOM      6  O   UNL     1       1.678  -5.669   5.445  1.00  0.00    -0.269 OA
ATOM      7  H   UNL     1       2.901  -4.810   7.183  1.00  0.00     0.163 HD
BRANCH   5   8
ATOM      8  C   UNL     1       0.916  -3.560   4.773  1.00  0.00     0.045 A 
ATOM      9  C   UNL     1      -0.263  -3.372   2.677  1.00  0.00     0.099 A 
ATOM     10  C   UNL     1       0.455  -4.141   3.579  1.00  0.00     0.049 A 
ATOM     11  N   UNL     1      -0.540  -2.078   2.898  1.00  0.00    -0.230 NA
ATOM     12  C   UNL     1      -0.090  -1.540   4.038  1.00  0.00     0.131 A 
ATOM     13  C   UNL     1       0.598  -2.230   5.017  1.00  0.00     0.055 A 
ATOM     14  Cl  UNL     1      -0.429   0.133   4.217  1.00  0.00    -0.062 Cl
BRANCH   9  15
ATOM     15  S   UNL     1      -0.966  -4.110   1.221  1.00  0.00    -0.102 SA
BRANCH  15  16
ATOM     16  C   UNL     1       0.018  -3.299  -0.081  1.00  0.00     0.112 C 
BRANCH  16  17
ATOM     17  C   UNL     1      -0.006  -1.790  -0.093  1.00  0.00    -0.037 A 
ATOM     18  C   UNL     1       2.499   1.089   0.001  1.00  0.00     0.044 C 
ATOM     19  C   UNL     1       1.209   0.326  -0.046  1.00  0.00    -0.051 A 
ATOM     20  C   UNL     1      -0.009   1.015  -0.053  1.00  0.00     0.006 A 
ATOM     21  C   UNL     1       1.201  -1.073  -0.066  1.00  0.00     0.008 A 
ATOM     22  C   UNL     1      -1.225   0.323  -0.089  1.00  0.00    -0.051 A 
ATOM     23  C   UNL     1      -2.518   1.082  -0.059  1.00  0.00     0.044 C 
ATOM     24  C   UNL     1      -1.214  -1.076  -0.131  1.00  0.00     0.008 A 
ENDBRANCH  16  17
ENDBRANCH  15  16
ENDBRANCH   9  15
ENDBRANCH   5   8
ENDBRANCH   3   4
ENDBRANCH   2   3
ENDBRANCH   1   2
BRANCH   1  25
ATOM     25  C   UNL     1       3.981  -2.937  10.233  1.00  0.00     0.002 C 
BRANCH  25  26
ATOM     26  C   UNL     1       4.114  -1.430  10.466  1.00  0.00     0.021 C 
BRANCH  26  27
ATOM     27  C   UNL     1       3.268  -0.905  11.620  1.00  0.00     0.116 C 
BRANCH  27  28
ATOM     28  N   UNL     1       3.699  -1.458  12.895  1.00  0.00    -0.352 N 
ATOM     29  C   UNL     1       4.120  -0.805  14.026  1.00  0.00     0.251 C 
ATOM     30  H   UNL     1       3.687  -2.441  12.954  1.00  0.00     0.163 HD
ATOM     31  O   UNL     1       4.675  -1.421  14.928  1.00  0.00    -0.269 OA
BRANCH  29  32
ATOM     32  C   UNL     1       3.912   0.653  14.144  1.00  0.00     0.039 A 
ATOM     33  C   UNL     1       4.952   1.451  14.623  1.00  0.00     0.014 A 
ATOM     34  C   UNL     1       2.688   1.226  13.786  1.00  0.00     0.014 A 
ATOM     35  C   UNL     1       4.784   2.835  14.690  1.00  0.00     0.010 A 
ATOM     36  C   UNL     1       2.549   2.609  13.780  1.00  0.00     0.010 A 
ATOM     37  C   UNL     1       3.593   3.427  14.237  1.00  0.00    -0.014 A 
BRANCH  37  38
ATOM     38  C   UNL     1       3.419   4.901  14.237  1.00  0.00     0.031 A 
ATOM     39  C   UNL     1       2.356   5.536  15.089  1.00  0.00     0.074 A 
ATOM     40  C   UNL     1       4.175   5.659  13.420  1.00  0.00     0.049 A 
ATOM     41  N   UNL     1       2.007   6.795  15.174  1.00  0.00    -0.248 NA
ATOM     42  C   UNL     1       1.561   4.635  15.938  1.00  0.00     0.031 C 
ATOM     43  C   UNL     1       5.207   5.155  12.512  1.00  0.00     0.029 A 
ATOM     44  N   UNL     1       4.185   7.016  13.213  1.00  0.00    -0.354 N 
ATOM     45  C   UNL     1       0.948   6.833  16.072  1.00  0.00     0.074 A 
ATOM     46  C   UNL     1       0.673   5.467  16.461  1.00  0.00     0.031 C 
ATOM     47  C   UNL     1       5.766   6.190  11.864  1.00  0.00     0.029 A 
ATOM     48  C   UNL     1       5.106   7.423  12.278  1.00  0.00     0.049 A 
ATOM     49  H   UNL     1       3.589   7.638  13.689  1.00  0.00     0.167 HD
ATOM     50  C   UNL     1       0.282   7.911  16.549  1.00  0.00     0.037 A 
ATOM     51  C   UNL     1       5.379   8.653  11.801  1.00  0.00     0.037 A 
ATOM     52  C   UNL     1       0.573   9.270  16.173  1.00  0.00     0.049 A 
ATOM     53  C   UNL     1       4.614   9.832  12.334  1.00  0.00     0.074 A 
ATOM     54  C   UNL     1      -0.007  10.436  16.641  1.00  0.00     0.029 A 
ATOM     55  N   UNL     1       1.522   9.643  15.233  1.00  0.00    -0.354 N 
ATOM     56  N   UNL     1       3.663   9.862  13.236  1.00  0.00    -0.248 NA
ATOM     57  C   UNL     1       4.963  11.151  11.787  1.00  0.00     0.031 C 
ATOM     58  C   UNL     1       0.554  11.512  15.946  1.00  0.00     0.029 A 
ATOM     59  C   UNL     1       1.526  11.021  15.088  1.00  0.00     0.049 A 
ATOM     60  H   UNL     1       2.106   9.022  14.741  1.00  0.00     0.167 HD
ATOM     61  C   UNL     1       3.325  11.200  13.390  1.00  0.00     0.074 A 
ATOM     62  C   UNL     1       4.179  11.952  12.495  1.00  0.00     0.031 C 
ATOM     63  C   UNL     1       2.392  11.756  14.202  1.00  0.00     0.037 A 
BRANCH  50  64
ATOM     64  C   UNL     1      -0.828   7.664  17.530  1.00  0.00     0.057 A 
ATOM     65  C   UNL     1      -0.578   7.202  18.830  1.00  0.00     0.134 A 
ATOM     66  C   UNL     1      -2.160   7.923  17.185  1.00  0.00     0.134 A 
ATOM     67  F   UNL     1       0.674   6.923  19.224  1.00  0.00    -0.206 F 
ATOM     68  C   UNL     1      -1.614   6.979  19.739  1.00  0.00     0.040 A 
ATOM     69  C   UNL     1      -3.202   7.733  18.095  1.00  0.00     0.040 A 
ATOM     70  F   UNL     1      -2.472   8.374  15.960  1.00  0.00    -0.206 F 
ATOM     71  C   UNL     1      -2.930   7.252  19.374  1.00  0.00     0.006 A 
ENDBRANCH  50  64
BRANCH  51  72
ATOM     72  C   UNL     1       6.440   8.834  10.778  1.00  0.00     0.057 A 
ATOM     73  C   UNL     1       7.638   9.490  11.088  1.00  0.00     0.134 A 
ATOM     74  C   UNL     1       6.283   8.365   9.468  1.00  0.00     0.134 A 
ATOM     75  F   UNL     1       7.841   9.977  12.321  1.00  0.00    -0.206 F 
ATOM     76  C   UNL     1       8.631   9.693  10.128  1.00  0.00     0.040 A 
ATOM     77  C   UNL     1       7.279   8.537   8.506  1.00  0.00     0.040 A 
ATOM     78  F   UNL     1       5.164   7.719   9.109  1.00  0.00    -0.206 F 
ATOM     79  C   UNL     1       8.454   9.211   8.833  1.00  0.00     0.006 A 
ENDBRANCH  51  72
BRANCH  63  80
ATOM     80  C   UNL     1       2.277  13.253  14.197  1.00  0.00     0.057 A 
ATOM     81  C   UNL     1       1.726  13.953  13.117  1.00  0.00     0.134 A 
ATOM     82  C   UNL     1       2.677  13.998  15.315  1.00  0.00     0.134 A 
ATOM     83  F   UNL     1       1.335  13.301  12.012  1.00  0.00    -0.206 F 
ATOM     84  C   UNL     1       1.595  15.343  13.141  1.00  0.00     0.040 A 
ATOM     85  C   UNL     1       2.524  15.384  15.362  1.00  0.00     0.040 A 
ATOM     86  F   UNL     1       3.204  13.388  16.387  1.00  0.00    -0.206 F 
ATOM     87  C   UNL     1       1.987  16.061  14.269  1.00  0.00     0.006 A 
ENDBRANCH  63  80
ENDBRANCH  37  38
ENDBRANCH  29  32
ENDBRANCH  27  28
ENDBRANCH  26  27
ENDBRANCH  25  26
ENDBRANCH   1  25
TORSDOF 16
