REMARK SMILES CC[NH2+]CCC(=O)NC1(CC(=O)NCCCCCCNC(=O)c2ccc(-c3c4nc(c(-c5c(F)cccc5F)c5ccc([nH]5)c(-c5c(F)cccc5F)c5nc(c(-c6c(F)cccc6F)c6ccc3[nH]6)C=C5)C=C4)cc2)CCC1
REMARK SMILES IDX 14 1 13 2 11 3 12 4 10 6 9 7 77 8 79 9 78 10 8 11 6 12 7 13
REMARK SMILES IDX 5 15 4 16 3 17 2 20 1 21 15 22 16 23 17 24 18 25 19 26 20 27
REMARK SMILES IDX 21 28 22 30 23 31 24 32 76 33 25 34 75 35 26 36 27 37 28 38
REMARK SMILES IDX 69 39 29 40 74 41 68 42 70 43 30 44 73 45 67 46 66 47 31 49
REMARK SMILES IDX 57 50 40 51 56 52 41 53 44 54 55 55 71 56 42 57 43 58 54 60
REMARK SMILES IDX 72 61 45 62 32 63 33 64 38 65 34 66 35 67 37 68 39 69 36 70
REMARK SMILES IDX 58 71 59 72 64 73 60 74 61 75 63 76 65 77 62 78 46 79 47 80
REMARK SMILES IDX 52 81 48 82 49 83 51 84 53 85 50 86
REMARK H PARENT 13 5 8 14 3 18 3 19 20 29 70 48 44 59
REMARK Flexibility Score: inf
ROOT
ATOM      1  C   UNL     1       0.759   2.065  -2.785  1.00  0.00     0.116 C 
ENDROOT
BRANCH   1   2
ATOM      2  N   UNL     1       0.311   0.848  -3.404  1.00  0.00    -0.356 N 
ATOM      3  C   UNL     1       1.020  -0.312  -3.298  1.00  0.00     0.222 C 
ATOM      4  O   UNL     1       1.134  -1.030  -4.286  1.00  0.00    -0.275 OA
ATOM      5  H   UNL     1      -0.529   0.851  -3.917  1.00  0.00     0.163 HD
BRANCH   3   6
ATOM      6  C   UNL     1       1.486  -0.682  -1.914  1.00  0.00     0.128 C 
BRANCH   6   7
ATOM      7  C   UNL     1       2.919  -1.104  -1.676  1.00  0.00     0.049 C 
ATOM      8  C   UNL     1       3.418  -1.300  -0.186  1.00  0.00     0.029 C 
ATOM      9  C   UNL     1       3.929   0.100  -1.685  1.00  0.00     0.029 C 
ATOM     10  C   UNL     1       3.767   0.188  -0.153  1.00  0.00     0.005 C 
BRANCH   7  11
ATOM     11  N   UNL     1       3.328  -2.287  -2.458  1.00  0.00    -0.350 N 
ATOM     12  C   UNL     1       2.743  -3.513  -2.647  1.00  0.00     0.226 C 
ATOM     13  O   UNL     1       3.508  -4.422  -2.994  1.00  0.00    -0.275 OA
ATOM     14  H   UNL     1       4.183  -2.175  -2.934  1.00  0.00     0.164 HD
BRANCH  12  15
ATOM     15  C   UNL     1       1.232  -3.770  -2.601  1.00  0.00     0.161 C 
BRANCH  15  16
ATOM     16  C   UNL     1       0.409  -4.104  -1.336  1.00  0.00     0.270 C 
BRANCH  16  17
ATOM     17  N   UNL     1       0.414  -3.264  -0.135  1.00  0.00    -0.346 N 
ATOM     18  H   UNL     1       0.390  -3.879   0.678  1.00  0.00     0.346 HD
ATOM     19  H   UNL     1       1.259  -2.695  -0.200  1.00  0.00     0.346 HD
BRANCH  17  20
ATOM     20  C   UNL     1      -0.696  -2.313  -0.013  1.00  0.00     0.257 C 
ATOM     21  C   UNL     1      -0.378  -1.200   0.990  1.00  0.00     0.071 C 
ENDBRANCH  17  20
ENDBRANCH  16  17
ENDBRANCH  15  16
ENDBRANCH  12  15
ENDBRANCH   7  11
ENDBRANCH   6   7
ENDBRANCH   3   6
ENDBRANCH   1   2
BRANCH   1  22
ATOM     22  C   UNL     1       1.911   2.620  -3.617  1.00  0.00     0.021 C 
BRANCH  22  23
ATOM     23  C   UNL     1       1.476   3.127  -4.992  1.00  0.00     0.002 C 
BRANCH  23  24
ATOM     24  C   UNL     1       0.298   4.100  -4.954  1.00  0.00     0.002 C 
BRANCH  24  25
ATOM     25  C   UNL     1       0.442   5.220  -3.924  1.00  0.00     0.021 C 
BRANCH  25  26
ATOM     26  C   UNL     1       1.768   5.956  -4.001  1.00  0.00     0.116 C 
BRANCH  26  27
ATOM     27  N   UNL     1       1.957   6.555  -5.306  1.00  0.00    -0.352 N 
ATOM     28  C   UNL     1       2.178   7.866  -5.591  1.00  0.00     0.251 C 
ATOM     29  H   UNL     1       1.922   5.942  -6.076  1.00  0.00     0.163 HD
ATOM     30  O   UNL     1       2.040   8.291  -6.745  1.00  0.00    -0.269 OA
BRANCH  28  31
ATOM     31  C   UNL     1       2.581   8.774  -4.507  1.00  0.00     0.039 A 
ATOM     32  C   UNL     1       1.995  10.035  -4.431  1.00  0.00     0.014 A 
ATOM     33  C   UNL     1       3.549   8.375  -3.575  1.00  0.00     0.014 A 
ATOM     34  C   UNL     1       2.395  10.909  -3.425  1.00  0.00     0.010 A 
ATOM     35  C   UNL     1       3.873   9.210  -2.516  1.00  0.00     0.010 A 
ATOM     36  C   UNL     1       3.340  10.503  -2.466  1.00  0.00    -0.014 A 
BRANCH  36  37
ATOM     37  C   UNL     1       3.850  11.468  -1.468  1.00  0.00     0.031 A 
ATOM     38  C   UNL     1       5.292  11.896  -1.520  1.00  0.00     0.074 A 
ATOM     39  C   UNL     1       3.020  11.957  -0.530  1.00  0.00     0.049 A 
ATOM     40  N   UNL     1       5.926  12.758  -0.768  1.00  0.00    -0.248 NA
ATOM     41  C   UNL     1       6.143  11.249  -2.534  1.00  0.00     0.031 C 
ATOM     42  C   UNL     1       1.617  11.573  -0.356  1.00  0.00     0.029 A 
ATOM     43  N   UNL     1       3.234  12.894   0.446  1.00  0.00    -0.354 N 
ATOM     44  C   UNL     1       7.242  12.747  -1.212  1.00  0.00     0.074 A 
ATOM     45  C   UNL     1       7.336  11.743  -2.246  1.00  0.00     0.031 C 
ATOM     46  C   UNL     1       1.085  12.301   0.639  1.00  0.00     0.029 A 
ATOM     47  C   UNL     1       2.114  13.180   1.186  1.00  0.00     0.049 A 
ATOM     48  H   UNL     1       4.107  13.322   0.602  1.00  0.00     0.167 HD
ATOM     49  C   UNL     1       8.274  13.530  -0.818  1.00  0.00     0.037 A 
ATOM     50  C   UNL     1       1.940  14.065   2.184  1.00  0.00     0.037 A 
ATOM     51  C   UNL     1       8.163  14.548   0.192  1.00  0.00     0.049 A 
ATOM     52  C   UNL     1       3.095  14.937   2.590  1.00  0.00     0.074 A 
ATOM     53  C   UNL     1       9.130  15.428   0.641  1.00  0.00     0.029 A 
ATOM     54  N   UNL     1       7.006  14.821   0.907  1.00  0.00    -0.354 N 
ATOM     55  N   UNL     1       4.319  14.964   2.118  1.00  0.00    -0.248 NA
ATOM     56  C   UNL     1       2.838  15.917   3.653  1.00  0.00     0.031 C 
ATOM     57  C   UNL     1       8.569  16.208   1.658  1.00  0.00     0.029 A 
ATOM     58  C   UNL     1       7.238  15.851   1.803  1.00  0.00     0.049 A 
ATOM     59  H   UNL     1       6.148  14.353   0.794  1.00  0.00     0.167 HD
ATOM     60  C   UNL     1       4.967  15.987   2.800  1.00  0.00     0.074 A 
ATOM     61  C   UNL     1       3.994  16.562   3.706  1.00  0.00     0.031 C 
ATOM     62  C   UNL     1       6.249  16.414   2.686  1.00  0.00     0.037 A 
BRANCH  49  63
ATOM     63  C   UNL     1       9.600  13.315  -1.489  1.00  0.00     0.057 A 
ATOM     64  C   UNL     1       9.811  13.641  -2.837  1.00  0.00     0.134 A 
ATOM     65  C   UNL     1      10.684  12.786  -0.778  1.00  0.00     0.134 A 
ATOM     66  F   UNL     1       8.810  14.134  -3.582  1.00  0.00    -0.206 F 
ATOM     67  C   UNL     1      11.041  13.421  -3.459  1.00  0.00     0.040 A 
ATOM     68  C   UNL     1      11.928  12.590  -1.382  1.00  0.00     0.040 A 
ATOM     69  F   UNL     1      10.554  12.452   0.514  1.00  0.00    -0.206 F 
ATOM     70  C   UNL     1      12.106  12.900  -2.729  1.00  0.00     0.006 A 
ENDBRANCH  49  63
BRANCH  50  71
ATOM     71  C   UNL     1       0.611  14.204   2.832  1.00  0.00     0.057 A 
ATOM     72  C   UNL     1      -0.166  15.354   2.650  1.00  0.00     0.134 A 
ATOM     73  C   UNL     1       0.090  13.197   3.652  1.00  0.00     0.134 A 
ATOM     74  F   UNL     1       0.285  16.360   1.885  1.00  0.00    -0.206 F 
ATOM     75  C   UNL     1      -1.400  15.511   3.283  1.00  0.00     0.040 A 
ATOM     76  C   UNL     1      -1.155  13.329   4.269  1.00  0.00     0.040 A 
ATOM     77  F   UNL     1       0.778  12.064   3.855  1.00  0.00    -0.206 F 
ATOM     78  C   UNL     1      -1.899  14.493   4.093  1.00  0.00     0.006 A 
ENDBRANCH  50  71
BRANCH  62  79
ATOM     79  C   UNL     1       6.651  17.592   3.526  1.00  0.00     0.057 A 
ATOM     80  C   UNL     1       6.791  17.502   4.916  1.00  0.00     0.134 A 
ATOM     81  C   UNL     1       6.916  18.830   2.926  1.00  0.00     0.134 A 
ATOM     82  F   UNL     1       6.542  16.348   5.552  1.00  0.00    -0.206 F 
ATOM     83  C   UNL     1       7.144  18.612   5.685  1.00  0.00     0.040 A 
ATOM     84  C   UNL     1       7.300  19.938   3.681  1.00  0.00     0.040 A 
ATOM     85  F   UNL     1       6.812  18.980   1.597  1.00  0.00    -0.206 F 
ATOM     86  C   UNL     1       7.404  19.834   5.066  1.00  0.00     0.006 A 
ENDBRANCH  62  79
ENDBRANCH  36  37
ENDBRANCH  28  31
ENDBRANCH  26  27
ENDBRANCH  25  26
ENDBRANCH  24  25
ENDBRANCH  23  24
ENDBRANCH  22  23
ENDBRANCH   1  22
TORSDOF 19
