REMARK SMILES O=C(NCCCCCCNC(=O)c1cc(SCC(=O)N2CCOCC2)ccn1)c1ccc(-c2c3nc(c(-c4c(F)cccc4F)c4ccc([nH]4)c(-c4c(F)cccc4F)c4nc(c(-c5c(F)cccc5F)c5ccc2[nH]5)C=C4)C=C3)cc1
REMARK SMILES IDX 7 1 6 2 5 3 4 4 3 5 1 6 2 7 29 9 30 10 82 11 31 12 81 13
REMARK SMILES IDX 32 14 33 15 34 16 75 17 35 18 80 19 74 20 76 21 36 22 79 23
REMARK SMILES IDX 73 24 72 25 37 27 63 28 46 29 62 30 47 31 50 32 61 33 77 34
REMARK SMILES IDX 48 35 49 36 60 38 78 39 51 40 38 41 39 42 44 43 40 44 41 45
REMARK SMILES IDX 43 46 45 47 42 48 64 49 65 50 70 51 66 52 67 53 69 54 71 55
REMARK SMILES IDX 68 56 52 57 53 58 58 59 54 60 55 61 57 62 59 63 56 64 8 65
REMARK SMILES IDX 9 66 10 67 11 68 12 70 13 71 14 72 28 73 15 74 27 75 26 76
REMARK SMILES IDX 16 77 17 78 18 79 19 80 20 81 21 82 25 83 22 84 24 85 23 86
REMARK H PARENT 3 8 76 26 50 37 10 69
REMARK Flexibility Score: inf
ROOT
ATOM      1  C   UNL     1       4.681  -1.717  -4.032  1.00  0.00     0.002 C 
ENDROOT
BRANCH   1   2
ATOM      2  C   UNL     1       4.137  -2.625  -2.924  1.00  0.00     0.002 C 
BRANCH   2   3
ATOM      3  C   UNL     1       4.628  -2.314  -1.510  1.00  0.00     0.021 C 
BRANCH   3   4
ATOM      4  C   UNL     1       4.408  -0.880  -1.047  1.00  0.00     0.116 C 
BRANCH   4   5
ATOM      5  N   UNL     1       3.003  -0.521  -0.956  1.00  0.00    -0.352 N 
ATOM      6  O   UNL     1       1.092   0.160   0.035  1.00  0.00    -0.269 OA
ATOM      7  C   UNL     1       2.313   0.046   0.088  1.00  0.00     0.251 C 
ATOM      8  H   UNL     1       2.467  -0.711  -1.760  1.00  0.00     0.163 HD
BRANCH   7   9
ATOM      9  C   UNL     1       3.041   0.492   1.296  1.00  0.00     0.039 A 
ATOM     10  C   UNL     1       4.230   1.216   1.189  1.00  0.00     0.014 A 
ATOM     11  C   UNL     1       2.522   0.181   2.557  1.00  0.00     0.014 A 
ATOM     12  C   UNL     1       4.973   1.497   2.331  1.00  0.00     0.010 A 
ATOM     13  C   UNL     1       3.227   0.540   3.709  1.00  0.00     0.010 A 
ATOM     14  C   UNL     1       4.477   1.169   3.604  1.00  0.00    -0.014 A 
BRANCH  14  15
ATOM     15  C   UNL     1       5.265   1.541   4.807  1.00  0.00     0.031 A 
ATOM     16  C   UNL     1       5.849   0.492   5.711  1.00  0.00     0.074 A 
ATOM     17  C   UNL     1       5.485   2.846   5.057  1.00  0.00     0.049 A 
ATOM     18  N   UNL     1       6.608   0.646   6.769  1.00  0.00    -0.248 NA
ATOM     19  C   UNL     1       5.540  -0.911   5.397  1.00  0.00     0.031 C 
ATOM     20  C   UNL     1       4.958   3.955   4.258  1.00  0.00     0.029 A 
ATOM     21  N   UNL     1       6.226   3.461   6.032  1.00  0.00    -0.354 N 
ATOM     22  C   UNL     1       6.847  -0.632   7.257  1.00  0.00     0.074 A 
ATOM     23  C   UNL     1       6.135  -1.551   6.395  1.00  0.00     0.031 C 
ATOM     24  C   UNL     1       5.439   5.110   4.739  1.00  0.00     0.029 A 
ATOM     25  C   UNL     1       6.260   4.829   5.911  1.00  0.00     0.049 A 
ATOM     26  H   UNL     1       6.689   2.970   6.748  1.00  0.00     0.167 HD
ATOM     27  C   UNL     1       7.597  -1.003   8.323  1.00  0.00     0.037 A 
ATOM     28  C   UNL     1       6.879   5.757   6.664  1.00  0.00     0.037 A 
ATOM     29  C   UNL     1       8.318  -0.086   9.169  1.00  0.00     0.049 A 
ATOM     30  C   UNL     1       7.690   5.317   7.846  1.00  0.00     0.074 A 
ATOM     31  C   UNL     1       9.142  -0.370  10.246  1.00  0.00     0.029 A 
ATOM     32  N   UNL     1       8.296   1.295   9.039  1.00  0.00    -0.354 N 
ATOM     33  N   UNL     1       7.942   4.102   8.269  1.00  0.00    -0.248 NA
ATOM     34  C   UNL     1       8.298   6.378   8.659  1.00  0.00     0.031 C 
ATOM     35  C   UNL     1       9.584   0.840  10.792  1.00  0.00     0.029 A 
ATOM     36  C   UNL     1       9.072   1.877  10.030  1.00  0.00     0.049 A 
ATOM     37  H   UNL     1       7.803   1.788   8.345  1.00  0.00     0.167 HD
ATOM     38  C   UNL     1       8.752   4.251   9.386  1.00  0.00     0.074 A 
ATOM     39  C   UNL     1       8.963   5.673   9.563  1.00  0.00     0.031 C 
ATOM     40  C   UNL     1       9.271   3.294  10.194  1.00  0.00     0.037 A 
BRANCH  27  41
ATOM     41  C   UNL     1       7.661  -2.468   8.650  1.00  0.00     0.057 A 
ATOM     42  C   UNL     1       8.381  -3.375   7.861  1.00  0.00     0.134 A 
ATOM     43  C   UNL     1       7.026  -2.970   9.793  1.00  0.00     0.134 A 
ATOM     44  F   UNL     1       9.002  -2.963   6.746  1.00  0.00    -0.206 F 
ATOM     45  C   UNL     1       8.447  -4.732   8.186  1.00  0.00     0.040 A 
ATOM     46  C   UNL     1       7.104  -4.320  10.140  1.00  0.00     0.040 A 
ATOM     47  F   UNL     1       6.325  -2.155  10.597  1.00  0.00    -0.206 F 
ATOM     48  C   UNL     1       7.812  -5.207   9.332  1.00  0.00     0.006 A 
ENDBRANCH  27  41
BRANCH  28  49
ATOM     49  C   UNL     1       6.762   7.192   6.308  1.00  0.00     0.057 A 
ATOM     50  C   UNL     1       7.858   7.901   5.804  1.00  0.00     0.134 A 
ATOM     51  C   UNL     1       5.553   7.883   6.447  1.00  0.00     0.134 A 
ATOM     52  F   UNL     1       9.047   7.296   5.664  1.00  0.00    -0.206 F 
ATOM     53  C   UNL     1       7.759   9.250   5.462  1.00  0.00     0.040 A 
ATOM     54  C   UNL     1       5.432   9.224   6.085  1.00  0.00     0.040 A 
ATOM     55  F   UNL     1       4.465   7.255   6.917  1.00  0.00    -0.206 F 
ATOM     56  C   UNL     1       6.540   9.913   5.596  1.00  0.00     0.006 A 
ENDBRANCH  28  49
BRANCH  40  57
ATOM     57  C   UNL     1      10.140   3.761  11.323  1.00  0.00     0.057 A 
ATOM     58  C   UNL     1       9.606   4.391  12.454  1.00  0.00     0.134 A 
ATOM     59  C   UNL     1      11.527   3.569  11.283  1.00  0.00     0.134 A 
ATOM     60  F   UNL     1       8.287   4.620  12.545  1.00  0.00    -0.206 F 
ATOM     61  C   UNL     1      10.423   4.837  13.494  1.00  0.00     0.040 A 
ATOM     62  C   UNL     1      12.351   3.988  12.327  1.00  0.00     0.040 A 
ATOM     63  F   UNL     1      12.101   2.967  10.230  1.00  0.00    -0.206 F 
ATOM     64  C   UNL     1      11.800   4.631  13.434  1.00  0.00     0.006 A 
ENDBRANCH  40  57
ENDBRANCH  14  15
ENDBRANCH   7   9
ENDBRANCH   4   5
ENDBRANCH   3   4
ENDBRANCH   2   3
ENDBRANCH   1   2
BRANCH   1  65
ATOM     65  C   UNL     1       6.205  -1.580  -4.094  1.00  0.00     0.021 C 
BRANCH  65  66
ATOM     66  C   UNL     1       6.968  -2.897  -4.190  1.00  0.00     0.116 C 
BRANCH  66  67
ATOM     67  N   UNL     1       6.682  -3.624  -5.413  1.00  0.00    -0.351 N 
ATOM     68  C   UNL     1       7.568  -4.187  -6.304  1.00  0.00     0.269 C 
ATOM     69  H   UNL     1       5.729  -3.728  -5.634  1.00  0.00     0.163 HD
ATOM     70  O   UNL     1       7.149  -4.757  -7.308  1.00  0.00    -0.268 OA
BRANCH  68  71
ATOM     71  C   UNL     1       9.028  -4.101  -6.033  1.00  0.00     0.129 A 
ATOM     72  C   UNL     1       9.552  -4.673  -4.878  1.00  0.00     0.049 A 
ATOM     73  N   UNL     1       9.757  -3.408  -6.943  1.00  0.00    -0.251 NA
ATOM     74  C   UNL     1      10.898  -4.468  -4.607  1.00  0.00     0.012 A 
ATOM     75  C   UNL     1      11.069  -3.278  -6.686  1.00  0.00     0.113 A 
ATOM     76  C   UNL     1      11.672  -3.773  -5.544  1.00  0.00     0.035 A 
BRANCH  74  77
ATOM     77  S   UNL     1      11.760  -5.031  -3.157  1.00  0.00    -0.116 SA
BRANCH  77  78
ATOM     78  C   UNL     1      10.495  -5.362  -1.907  1.00  0.00     0.175 C 
BRANCH  78  79
ATOM     79  C   UNL     1       9.456  -4.299  -1.584  1.00  0.00     0.233 C 
ATOM     80  O   UNL     1       8.261  -4.592  -1.716  1.00  0.00    -0.274 OA
ATOM     81  N   UNL     1       9.813  -3.124  -0.955  1.00  0.00    -0.337 N 
ATOM     82  C   UNL     1      11.054  -2.366  -1.118  1.00  0.00     0.148 C 
ATOM     83  C   UNL     1       8.848  -2.458  -0.071  1.00  0.00     0.148 C 
ATOM     84  C   UNL     1      11.656  -2.008   0.241  1.00  0.00     0.181 C 
ATOM     85  C   UNL     1       9.526  -2.129   1.268  1.00  0.00     0.181 C 
ATOM     86  O   UNL     1      10.698  -1.323   1.062  1.00  0.00    -0.378 OA
ENDBRANCH  78  79
ENDBRANCH  77  78
ENDBRANCH  74  77
ENDBRANCH  68  71
ENDBRANCH  66  67
ENDBRANCH  65  66
ENDBRANCH   1  65
TORSDOF 16
