REMARK SMILES CCCN1CCC[C@@]2(CCN(c3ccc(C(=O)NCCCCCCNC(=O)c4ccc(-c5c6nc(c(-c7c(F)cccc7F)c7ccc([nH]7)c(-c7c(F)cccc7F)c7nc(c(-c8c(F)cccc8F)c8ccc5[nH]8)C=C7)C=C6)cc4)cn3)C2)C1=O
REMARK SMILES IDX 21 1 20 2 19 3 18 4 16 5 17 6 15 8 12 9 13 10 83 11 14 12
REMARK SMILES IDX 82 13 11 14 4 15 5 16 85 17 6 18 8 19 86 20 7 21 9 22 84 23
REMARK SMILES IDX 10 24 3 25 2 26 1 27 22 28 23 29 24 30 25 31 26 32 27 34
REMARK SMILES IDX 28 35 29 36 81 37 30 38 80 39 31 40 32 41 33 42 74 43 34 44
REMARK SMILES IDX 79 45 73 46 75 47 35 48 78 49 72 50 71 51 36 53 62 54 45 55
REMARK SMILES IDX 61 56 46 57 49 58 60 59 76 60 47 61 48 62 59 64 77 65 50 66
REMARK SMILES IDX 37 67 38 68 43 69 39 70 40 71 42 72 44 73 41 74 63 75 64 76
REMARK SMILES IDX 69 77 65 78 66 79 68 80 70 81 67 82 51 83 52 84 57 85 53 86
REMARK SMILES IDX 54 87 56 88 58 89 55 90
REMARK H PARENT 18 7 25 33 75 52 49 63
REMARK Flexibility Score: inf
ROOT
ATOM      1  C   UNL     1       9.879   7.972  -0.693  1.00  0.00     0.002 C 
ENDROOT
BRANCH   1   2
ATOM      2  C   UNL     1       8.521   7.441  -0.214  1.00  0.00     0.021 C 
BRANCH   2   3
ATOM      3  C   UNL     1       8.466   5.913  -0.149  1.00  0.00     0.116 C 
BRANCH   3   4
ATOM      4  N   UNL     1       9.037   5.442   1.097  1.00  0.00    -0.352 N 
ATOM      5  C   UNL     1       8.484   5.049   2.290  1.00  0.00     0.252 C 
ATOM      6  O   UNL     1       9.260   4.694   3.178  1.00  0.00    -0.269 OA
ATOM      7  H   UNL     1      10.021   5.395   1.086  1.00  0.00     0.163 HD
BRANCH   5   8
ATOM      8  C   UNL     1       7.024   4.989   2.546  1.00  0.00     0.058 A 
ATOM      9  C   UNL     1       4.342   4.607   3.187  1.00  0.00     0.128 A 
ATOM     10  C   UNL     1       4.697   5.430   2.125  1.00  0.00     0.048 A 
ATOM     11  N   UNL     1       5.279   4.023   3.954  1.00  0.00    -0.239 NA
ATOM     12  C   UNL     1       6.040   5.663   1.837  1.00  0.00     0.019 A 
ATOM     13  C   UNL     1       6.585   4.204   3.609  1.00  0.00     0.127 A 
BRANCH   9  14
ATOM     14  N   UNL     1       3.008   4.433   3.460  1.00  0.00    -0.356 N 
ATOM     15  N   UNL     1       0.337   1.105   2.541  1.00  0.00    -0.342 N 
ATOM     16  C   UNL     1      -0.856   1.555   1.838  1.00  0.00     0.119 C 
ATOM     17  C   UNL     1       0.816   1.900   3.586  1.00  0.00     0.230 C 
ATOM     18  C   UNL     1      -0.678   2.973   1.327  1.00  0.00     0.023 C 
ATOM     19  C   UNL     1       0.865   3.406   3.291  1.00  0.00     0.069 C 
ATOM     20  O   UNL     1       1.288   1.416   4.613  1.00  0.00    -0.274 OA
ATOM     21  C   UNL     1      -0.362   3.888   2.502  1.00  0.00     0.021 C 
ATOM     22  C   UNL     1       1.028   4.221   4.593  1.00  0.00     0.040 C 
ATOM     23  C   UNL     1       2.186   3.672   2.523  1.00  0.00     0.135 C 
ATOM     24  C   UNL     1       2.538   4.265   4.818  1.00  0.00     0.119 C 
BRANCH  15  25
ATOM     25  C   UNL     1       0.680  -0.316   2.572  1.00  0.00     0.119 C 
BRANCH  25  26
ATOM     26  C   UNL     1       0.606  -1.054   1.232  1.00  0.00     0.018 C 
ATOM     27  C   UNL     1       1.388  -0.384   0.110  1.00  0.00     0.006 C 
ENDBRANCH  25  26
ENDBRANCH  15  25
ENDBRANCH   9  14
ENDBRANCH   5   8
ENDBRANCH   3   4
ENDBRANCH   2   3
ENDBRANCH   1   2
BRANCH   1  28
ATOM     28  C   UNL     1      10.260   7.558  -2.120  1.00  0.00     0.002 C 
BRANCH  28  29
ATOM     29  C   UNL     1       9.227   7.916  -3.192  1.00  0.00     0.021 C 
BRANCH  29  30
ATOM     30  C   UNL     1       8.971   9.412  -3.334  1.00  0.00     0.116 C 
BRANCH  30  31
ATOM     31  N   UNL     1      10.161  10.116  -3.788  1.00  0.00    -0.352 N 
ATOM     32  C   UNL     1      10.341  10.885  -4.909  1.00  0.00     0.251 C 
ATOM     33  H   UNL     1      10.950  10.028  -3.206  1.00  0.00     0.163 HD
ATOM     34  O   UNL     1      11.469  11.201  -5.270  1.00  0.00    -0.269 OA
BRANCH  32  35
ATOM     35  C   UNL     1       9.167  11.326  -5.689  1.00  0.00     0.039 A 
ATOM     36  C   UNL     1       9.209  11.247  -7.083  1.00  0.00     0.014 A 
ATOM     37  C   UNL     1       8.034  11.831  -5.045  1.00  0.00     0.014 A 
ATOM     38  C   UNL     1       8.092  11.623  -7.829  1.00  0.00     0.010 A 
ATOM     39  C   UNL     1       6.897  12.137  -5.784  1.00  0.00     0.010 A 
ATOM     40  C   UNL     1       6.916  12.041  -7.184  1.00  0.00    -0.014 A 
BRANCH  40  41
ATOM     41  C   UNL     1       5.696  12.382  -7.955  1.00  0.00     0.031 A 
ATOM     42  C   UNL     1       5.152  13.782  -7.931  1.00  0.00     0.074 A 
ATOM     43  C   UNL     1       5.039  11.412  -8.619  1.00  0.00     0.049 A 
ATOM     44  N   UNL     1       4.060  14.255  -8.475  1.00  0.00    -0.248 NA
ATOM     45  C   UNL     1       5.923  14.777  -7.169  1.00  0.00     0.031 C 
ATOM     46  C   UNL     1       5.439  10.004  -8.674  1.00  0.00     0.029 A 
ATOM     47  N   UNL     1       3.886  11.459  -9.361  1.00  0.00    -0.354 N 
ATOM     48  C   UNL     1       4.010  15.596  -8.116  1.00  0.00     0.074 A 
ATOM     49  C   UNL     1       5.147  15.846  -7.258  1.00  0.00     0.031 C 
ATOM     50  C   UNL     1       4.554   9.326  -9.422  1.00  0.00     0.029 A 
ATOM     51  C   UNL     1       3.507  10.240  -9.867  1.00  0.00     0.049 A 
ATOM     52  H   UNL     1       3.379  12.289  -9.517  1.00  0.00     0.167 HD
ATOM     53  C   UNL     1       3.111  16.538  -8.488  1.00  0.00     0.037 A 
ATOM     54  C   UNL     1       2.430   9.895 -10.596  1.00  0.00     0.037 A 
ATOM     55  C   UNL     1       1.988  16.286  -9.353  1.00  0.00     0.049 A 
ATOM     56  C   UNL     1       1.440  10.955 -10.989  1.00  0.00     0.074 A 
ATOM     57  C   UNL     1       1.049  17.183  -9.832  1.00  0.00     0.029 A 
ATOM     58  N   UNL     1       1.649  15.042  -9.864  1.00  0.00    -0.354 N 
ATOM     59  N   UNL     1       1.440  12.233 -10.699  1.00  0.00    -0.248 NA
ATOM     60  C   UNL     1       0.304  10.527 -11.817  1.00  0.00     0.031 C 
ATOM     61  C   UNL     1       0.116  16.473 -10.595  1.00  0.00     0.029 A 
ATOM     62  C   UNL     1       0.502  15.143 -10.634  1.00  0.00     0.049 A 
ATOM     63  H   UNL     1       2.150  14.210  -9.703  1.00  0.00     0.167 HD
ATOM     64  C   UNL     1       0.322  12.767 -11.326  1.00  0.00     0.074 A 
ATOM     65  C   UNL     1      -0.324  11.675 -12.025  1.00  0.00     0.031 C 
ATOM     66  C   UNL     1      -0.130  14.045 -11.322  1.00  0.00     0.037 A 
BRANCH  53  67
ATOM     67  C   UNL     1       3.313  17.929  -7.958  1.00  0.00     0.057 A 
ATOM     68  C   UNL     1       4.386  18.730  -8.374  1.00  0.00     0.134 A 
ATOM     69  C   UNL     1       2.416  18.483  -7.036  1.00  0.00     0.134 A 
ATOM     70  F   UNL     1       5.288  18.257  -9.248  1.00  0.00    -0.206 F 
ATOM     71  C   UNL     1       4.579  20.016  -7.867  1.00  0.00     0.040 A 
ATOM     72  C   UNL     1       2.582  19.779  -6.543  1.00  0.00     0.040 A 
ATOM     73  F   UNL     1       1.363  17.776  -6.599  1.00  0.00    -0.206 F 
ATOM     74  C   UNL     1       3.672  20.546  -6.952  1.00  0.00     0.006 A 
ENDBRANCH  53  67
BRANCH  54  75
ATOM     75  C   UNL     1       2.243   8.482 -11.013  1.00  0.00     0.057 A 
ATOM     76  C   UNL     1       2.390   8.096 -12.350  1.00  0.00     0.134 A 
ATOM     77  C   UNL     1       1.922   7.484 -10.084  1.00  0.00     0.134 A 
ATOM     78  F   UNL     1       2.680   9.009 -13.288  1.00  0.00    -0.206 F 
ATOM     79  C   UNL     1       2.209   6.772 -12.752  1.00  0.00     0.040 A 
ATOM     80  C   UNL     1       1.764   6.152 -10.468  1.00  0.00     0.040 A 
ATOM     81  F   UNL     1       1.778   7.788  -8.786  1.00  0.00    -0.206 F 
ATOM     82  C   UNL     1       1.901   5.794 -11.808  1.00  0.00     0.006 A 
ENDBRANCH  54  75
BRANCH  66  83
ATOM     83  C   UNL     1      -1.368  14.337 -12.118  1.00  0.00     0.057 A 
ATOM     84  C   UNL     1      -2.634  13.908 -11.700  1.00  0.00     0.134 A 
ATOM     85  C   UNL     1      -1.297  15.091 -13.296  1.00  0.00     0.134 A 
ATOM     86  F   UNL     1      -2.769  13.170 -10.588  1.00  0.00    -0.206 F 
ATOM     87  C   UNL     1      -3.783  14.201 -12.437  1.00  0.00     0.040 A 
ATOM     88  C   UNL     1      -2.441  15.414 -14.027  1.00  0.00     0.040 A 
ATOM     89  F   UNL     1      -0.116  15.540 -13.748  1.00  0.00    -0.206 F 
ATOM     90  C   UNL     1      -3.688  14.963 -13.601  1.00  0.00     0.006 A 
ENDBRANCH  66  83
ENDBRANCH  40  41
ENDBRANCH  32  35
ENDBRANCH  30  31
ENDBRANCH  29  30
ENDBRANCH  28  29
ENDBRANCH   1  28
TORSDOF 16
