REMARK SMILES COCC[NH2+]CC(=O)N1C[C@H](OC)C[C@@H]1C(=O)NCCCCCCNC(=O)c1ccc(-c2c3nc(c(-c4c(F)cccc4F)c4ccc([nH]4)c(-c4c(F)cccc4F)c4nc(c(-c5c(F)cccc5F)c5ccc2[nH]5)C=C4)C=C3)cc1
REMARK SMILES IDX 19 1 18 2 16 3 17 4 15 6 9 7 10 8 11 9 14 10 7 11 8 12 6 13
REMARK SMILES IDX 5 14 4 17 3 18 2 19 1 20 12 21 13 22 20 23 21 24 22 25 23 26
REMARK SMILES IDX 24 27 25 28 26 29 27 31 28 32 29 33 81 34 30 35 80 36 31 37
REMARK SMILES IDX 32 38 33 39 74 40 34 41 79 42 73 43 75 44 35 45 78 46 72 47
REMARK SMILES IDX 71 48 36 50 62 51 45 52 61 53 46 54 49 55 60 56 76 57 47 58
REMARK SMILES IDX 48 59 59 61 77 62 50 63 37 64 38 65 43 66 39 67 40 68 42 69
REMARK SMILES IDX 44 70 41 71 63 72 64 73 69 74 65 75 66 76 68 77 70 78 67 79
REMARK SMILES IDX 51 80 52 81 57 82 53 83 54 84 56 85 58 86 55 87
REMARK H PARENT 18 5 5 15 5 16 25 30 75 49 49 60
REMARK Flexibility Score: inf
ROOT
ATOM      1  C   UNL     1      -1.102   6.955  -0.880  1.00  0.00     0.116 C 
ENDROOT
BRANCH   1   2
ATOM      2  N   UNL     1      -2.179   7.005   0.069  1.00  0.00    -0.354 N 
ATOM      3  C   UNL     1      -2.982   5.973   0.465  1.00  0.00     0.242 C 
ATOM      4  O   UNL     1      -3.815   6.218   1.343  1.00  0.00    -0.273 OA
ATOM      5  H   UNL     1      -2.359   7.881   0.480  1.00  0.00     0.163 HD
BRANCH   3   6
ATOM      6  C   UNL     1      -2.973   4.588  -0.238  1.00  0.00     0.177 C 
ATOM      7  N   UNL     1      -1.742   3.776  -0.292  1.00  0.00    -0.323 N 
ATOM      8  C   UNL     1      -1.929   2.911  -1.452  1.00  0.00     0.152 C 
ATOM      9  C   UNL     1      -2.439   3.844  -2.528  1.00  0.00     0.139 C 
ATOM     10  C   UNL     1      -3.436   4.695  -1.723  1.00  0.00     0.069 C 
BRANCH   7  11
ATOM     11  C   UNL     1      -1.240   3.187   0.869  1.00  0.00     0.278 C 
ATOM     12  O   UNL     1      -1.950   2.546   1.641  1.00  0.00    -0.268 OA
BRANCH  11  13
ATOM     13  C   UNL     1       0.277   3.391   1.125  1.00  0.00     0.362 C 
BRANCH  13  14
ATOM     14  N   UNL     1       1.110   2.177   0.888  1.00  0.00    -0.337 N 
ATOM     15  H   UNL     1       2.020   2.305   1.331  1.00  0.00     0.346 HD
ATOM     16  H   UNL     1       0.630   1.370   1.287  1.00  0.00     0.346 HD
BRANCH  14  17
ATOM     17  C   UNL     1       1.302   1.947  -0.543  1.00  0.00     0.289 C 
BRANCH  17  18
ATOM     18  C   UNL     1       2.025   0.697  -1.058  1.00  0.00     0.221 C 
BRANCH  18  19
ATOM     19  O   UNL     1       1.205  -0.473  -1.021  1.00  0.00    -0.379 OA
ATOM     20  C   UNL     1       1.165  -1.097   0.251  1.00  0.00     0.195 C 
ENDBRANCH  18  19
ENDBRANCH  17  18
ENDBRANCH  14  17
ENDBRANCH  13  14
ENDBRANCH  11  13
ENDBRANCH   7  11
BRANCH   9  21
ATOM     21  O   UNL     1      -1.461   4.684  -3.171  1.00  0.00    -0.380 OA
ATOM     22  C   UNL     1      -0.078   4.415  -2.941  1.00  0.00     0.195 C 
ENDBRANCH   9  21
ENDBRANCH   3   6
ENDBRANCH   1   2
BRANCH   1  23
ATOM     23  C   UNL     1      -1.070   8.105  -1.881  1.00  0.00     0.021 C 
BRANCH  23  24
ATOM     24  C   UNL     1      -0.273   9.325  -1.421  1.00  0.00     0.002 C 
BRANCH  24  25
ATOM     25  C   UNL     1       1.171   9.043  -0.989  1.00  0.00     0.002 C 
BRANCH  25  26
ATOM     26  C   UNL     1       2.053   8.322  -2.014  1.00  0.00     0.021 C 
BRANCH  26  27
ATOM     27  C   UNL     1       2.176   9.008  -3.373  1.00  0.00     0.116 C 
BRANCH  27  28
ATOM     28  N   UNL     1       2.612  10.390  -3.263  1.00  0.00    -0.352 N 
ATOM     29  C   UNL     1       3.704  11.028  -3.796  1.00  0.00     0.251 C 
ATOM     30  H   UNL     1       2.029  10.963  -2.714  1.00  0.00     0.163 HD
ATOM     31  O   UNL     1       3.987  12.163  -3.433  1.00  0.00    -0.269 OA
BRANCH  29  32
ATOM     32  C   UNL     1       4.557  10.343  -4.792  1.00  0.00     0.039 A 
ATOM     33  C   UNL     1       5.945  10.433  -4.659  1.00  0.00     0.014 A 
ATOM     34  C   UNL     1       4.000   9.632  -5.857  1.00  0.00     0.014 A 
ATOM     35  C   UNL     1       6.773   9.740  -5.544  1.00  0.00     0.010 A 
ATOM     36  C   UNL     1       4.824   8.889  -6.700  1.00  0.00     0.010 A 
ATOM     37  C   UNL     1       6.218   8.923  -6.542  1.00  0.00    -0.014 A 
BRANCH  37  38
ATOM     38  C   UNL     1       7.077   8.059  -7.394  1.00  0.00     0.031 A 
ATOM     39  C   UNL     1       7.144   8.277  -8.879  1.00  0.00     0.074 A 
ATOM     40  C   UNL     1       7.744   7.033  -6.829  1.00  0.00     0.049 A 
ATOM     41  N   UNL     1       7.758   7.564  -9.790  1.00  0.00    -0.248 NA
ATOM     42  C   UNL     1       6.413   9.435  -9.416  1.00  0.00     0.031 C 
ATOM     43  C   UNL     1       7.732   6.698  -5.402  1.00  0.00     0.029 A 
ATOM     44  N   UNL     1       8.549   6.071  -7.386  1.00  0.00    -0.354 N 
ATOM     45  C   UNL     1       7.492   8.187 -11.002  1.00  0.00     0.074 A 
ATOM     46  C   UNL     1       6.616   9.304 -10.720  1.00  0.00     0.031 C 
ATOM     47  C   UNL     1       8.502   5.618  -5.197  1.00  0.00     0.029 A 
ATOM     48  C   UNL     1       9.022   5.153  -6.478  1.00  0.00     0.049 A 
ATOM     49  H   UNL     1       8.768   6.041  -8.346  1.00  0.00     0.167 HD
ATOM     50  C   UNL     1       7.957   7.871 -12.234  1.00  0.00     0.037 A 
ATOM     51  C   UNL     1       9.770   4.048  -6.659  1.00  0.00     0.037 A 
ATOM     52  C   UNL     1       8.834   6.763 -12.512  1.00  0.00     0.049 A 
ATOM     53  C   UNL     1      10.220   3.689  -8.050  1.00  0.00     0.074 A 
ATOM     54  C   UNL     1       9.384   6.384 -13.724  1.00  0.00     0.029 A 
ATOM     55  N   UNL     1       9.288   5.857 -11.566  1.00  0.00    -0.354 N 
ATOM     56  N   UNL     1      10.010   4.324  -9.177  1.00  0.00    -0.248 NA
ATOM     57  C   UNL     1      11.011   2.458  -8.194  1.00  0.00     0.031 C 
ATOM     58  C   UNL     1      10.132   5.221 -13.521  1.00  0.00     0.029 A 
ATOM     59  C   UNL     1      10.089   4.904 -12.174  1.00  0.00     0.049 A 
ATOM     60  H   UNL     1       9.073   5.887 -10.606  1.00  0.00     0.167 HD
ATOM     61  C   UNL     1      10.661   3.585 -10.157  1.00  0.00     0.074 A 
ATOM     62  C   UNL     1      11.295   2.469  -9.488  1.00  0.00     0.031 C 
ATOM     63  C   UNL     1      10.723   3.805 -11.492  1.00  0.00     0.037 A 
BRANCH  50  64
ATOM     64  C   UNL     1       7.543   8.743 -13.384  1.00  0.00     0.057 A 
ATOM     65  C   UNL     1       8.049  10.040 -13.537  1.00  0.00     0.134 A 
ATOM     66  C   UNL     1       6.697   8.256 -14.389  1.00  0.00     0.134 A 
ATOM     67  F   UNL     1       8.858  10.569 -12.607  1.00  0.00    -0.206 F 
ATOM     68  C   UNL     1       7.720  10.826 -14.643  1.00  0.00     0.040 A 
ATOM     69  C   UNL     1       6.381   9.024 -15.511  1.00  0.00     0.040 A 
ATOM     70  F   UNL     1       6.184   7.019 -14.308  1.00  0.00    -0.206 F 
ATOM     71  C   UNL     1       6.892  10.314 -15.639  1.00  0.00     0.006 A 
ENDBRANCH  50  64
BRANCH  51  72
ATOM     72  C   UNL     1      10.129   3.179  -5.507  1.00  0.00     0.057 A 
ATOM     73  C   UNL     1      11.459   3.032  -5.097  1.00  0.00     0.134 A 
ATOM     74  C   UNL     1       9.159   2.434  -4.824  1.00  0.00     0.134 A 
ATOM     75  F   UNL     1      12.437   3.703  -5.724  1.00  0.00    -0.206 F 
ATOM     76  C   UNL     1      11.818   2.149  -4.077  1.00  0.00     0.040 A 
ATOM     77  C   UNL     1       9.500   1.571  -3.780  1.00  0.00     0.040 A 
ATOM     78  F   UNL     1       7.865   2.534  -5.159  1.00  0.00    -0.206 F 
ATOM     79  C   UNL     1      10.835   1.416  -3.414  1.00  0.00     0.006 A 
ENDBRANCH  51  72
BRANCH  63  80
ATOM     80  C   UNL     1      11.522   2.837 -12.314  1.00  0.00     0.057 A 
ATOM     81  C   UNL     1      11.073   1.534 -12.561  1.00  0.00     0.134 A 
ATOM     82  C   UNL     1      12.733   3.227 -12.901  1.00  0.00     0.134 A 
ATOM     83  F   UNL     1       9.928   1.094 -12.016  1.00  0.00    -0.206 F 
ATOM     84  C   UNL     1      11.809   0.646 -13.348  1.00  0.00     0.040 A 
ATOM     85  C   UNL     1      13.463   2.358 -13.713  1.00  0.00     0.040 A 
ATOM     86  F   UNL     1      13.216   4.464 -12.711  1.00  0.00    -0.206 F 
ATOM     87  C   UNL     1      13.003   1.061 -13.933  1.00  0.00     0.006 A 
ENDBRANCH  63  80
ENDBRANCH  37  38
ENDBRANCH  29  32
ENDBRANCH  27  28
ENDBRANCH  26  27
ENDBRANCH  25  26
ENDBRANCH  24  25
ENDBRANCH  23  24
ENDBRANCH   1  23
TORSDOF 20
