REMARK SMILES CCN(C(=O)C[NH2+][C@@](C)(C(=O)NCCCCCCNC(=O)c1ccc(-c2c3nc(c(-c4c(F)cccc4F)c4ccc([nH]4)c(-c4c(F)cccc4F)c4nc(c(-c5c(F)cccc5F)c5ccc2[nH]5)C=C4)C=C3)cc1)C(F)(F)F)C1CC1
REMARK SMILES IDX 14 1 13 2 12 3 10 4 11 5 8 7 9 8 7 9 6 12 4 13 5 14 3 15
REMARK SMILES IDX 2 16 1 17 80 18 81 19 82 20 76 21 77 22 78 23 79 24 15 25
REMARK SMILES IDX 16 26 17 27 18 28 19 29 20 30 21 32 22 33 23 34 75 35 24 36
REMARK SMILES IDX 74 37 25 38 26 39 27 40 68 41 28 42 73 43 67 44 69 45 29 46
REMARK SMILES IDX 72 47 66 48 65 49 30 51 56 52 39 53 55 54 40 55 43 56 54 57
REMARK SMILES IDX 70 58 41 59 42 60 53 62 71 63 44 64 31 65 32 66 37 67 33 68
REMARK SMILES IDX 34 69 36 70 38 71 35 72 57 73 58 74 63 75 59 76 60 77 62 78
REMARK SMILES IDX 64 79 61 80 45 81 46 82 51 83 47 84 48 85 50 86 52 87 49 88
REMARK H PARENT 12 6 7 10 7 11 19 31 69 50 43 61
REMARK Flexibility Score: inf
ROOT
ATOM      1  C   UNL     1      -1.519   0.903   4.390  1.00  0.00     0.021 C 
ENDROOT
BRANCH   1   2
ATOM      2  C   UNL     1      -2.786   0.107   4.072  1.00  0.00     0.116 C 
BRANCH   2   3
ATOM      3  N   UNL     1      -3.412   0.577   2.850  1.00  0.00    -0.350 N 
ATOM      4  C   UNL     1      -3.611   0.019   1.618  1.00  0.00     0.290 C 
ATOM      5  O   UNL     1      -4.121   0.775   0.786  1.00  0.00    -0.267 OA
ATOM      6  H   UNL     1      -3.768   1.492   2.924  1.00  0.00     0.163 HD
BRANCH   4   7
ATOM      7  C   UNL     1      -3.241  -1.453   1.296  1.00  0.00     0.268 C 
ATOM      8  C   UNL     1      -4.060  -2.396   2.200  1.00  0.00     0.101 C 
BRANCH   7   9
ATOM      9  N   UNL     1      -1.758  -1.607   1.498  1.00  0.00    -0.318 N 
ATOM     10  H   UNL     1      -1.287  -0.894   0.941  1.00  0.00     0.347 HD
ATOM     11  H   UNL     1      -1.595  -1.511   2.500  1.00  0.00     0.347 HD
BRANCH   9  12
ATOM     12  C   UNL     1      -1.211  -2.918   1.117  1.00  0.00     0.363 C 
BRANCH  12  13
ATOM     13  C   UNL     1       0.290  -2.960   1.442  1.00  0.00     0.277 C 
ATOM     14  O   UNL     1       0.669  -3.598   2.431  1.00  0.00    -0.268 OA
BRANCH  13  15
ATOM     15  N   UNL     1       1.174  -2.261   0.614  1.00  0.00    -0.335 N 
BRANCH  15  16
ATOM     16  C   UNL     1       0.748  -1.324  -0.433  1.00  0.00     0.116 C 
ATOM     17  C   UNL     1       0.838   0.125   0.024  1.00  0.00     0.027 C 
ENDBRANCH  15  16
BRANCH  15  18
ATOM     18  C   UNL     1       2.596  -2.392   0.885  1.00  0.00     0.085 C 
ATOM     19  C   UNL     1       3.425  -3.310   0.020  1.00  0.00     0.027 C 
ATOM     20  C   UNL     1       3.716  -1.840   0.043  1.00  0.00     0.027 C 
ENDBRANCH  15  18
ENDBRANCH  13  15
ENDBRANCH  12  13
ENDBRANCH   9  12
ENDBRANCH   7   9
BRANCH   7  21
ATOM     21  C   UNL     1      -3.732  -1.688  -0.170  1.00  0.00     0.453 C 
ATOM     22  F   UNL     1      -3.052  -0.954  -1.079  1.00  0.00    -0.164 F 
ATOM     23  F   UNL     1      -3.547  -2.992  -0.523  1.00  0.00    -0.164 F 
ATOM     24  F   UNL     1      -5.055  -1.455  -0.326  1.00  0.00    -0.164 F 
ENDBRANCH   7  21
ENDBRANCH   4   7
ENDBRANCH   2   3
ENDBRANCH   1   2
BRANCH   1  25
ATOM     25  C   UNL     1      -1.771   2.356   4.810  1.00  0.00     0.002 C 
BRANCH  25  26
ATOM     26  C   UNL     1      -2.699   2.542   6.016  1.00  0.00     0.002 C 
BRANCH  26  27
ATOM     27  C   UNL     1      -2.312   1.761   7.276  1.00  0.00     0.021 C 
BRANCH  27  28
ATOM     28  C   UNL     1      -0.913   2.049   7.819  1.00  0.00     0.116 C 
BRANCH  28  29
ATOM     29  N   UNL     1      -0.744   3.438   8.205  1.00  0.00    -0.352 N 
ATOM     30  C   UNL     1      -0.215   3.977   9.348  1.00  0.00     0.251 C 
ATOM     31  H   UNL     1      -1.057   4.095   7.542  1.00  0.00     0.163 HD
ATOM     32  O   UNL     1      -0.306   5.189   9.544  1.00  0.00    -0.269 OA
BRANCH  30  33
ATOM     33  C   UNL     1       0.444   3.124  10.363  1.00  0.00     0.039 A 
ATOM     34  C   UNL     1       0.208   3.400  11.713  1.00  0.00     0.014 A 
ATOM     35  C   UNL     1       1.325   2.098  10.007  1.00  0.00     0.014 A 
ATOM     36  C   UNL     1       0.818   2.625  12.701  1.00  0.00     0.010 A 
ATOM     37  C   UNL     1       1.889   1.286  10.994  1.00  0.00     0.010 A 
ATOM     38  C   UNL     1       1.646   1.547  12.350  1.00  0.00    -0.014 A 
BRANCH  38  39
ATOM     39  C   UNL     1       2.249   0.692  13.403  1.00  0.00     0.031 A 
ATOM     40  C   UNL     1       3.733   0.702  13.646  1.00  0.00     0.074 A 
ATOM     41  C   UNL     1       1.455  -0.115  14.132  1.00  0.00     0.049 A 
ATOM     42  N   UNL     1       4.426   0.049  14.545  1.00  0.00    -0.248 NA
ATOM     43  C   UNL     1       4.547   1.536  12.750  1.00  0.00     0.031 C 
ATOM     44  C   UNL     1       0.009  -0.262  13.955  1.00  0.00     0.029 A 
ATOM     45  N   UNL     1       1.752  -0.961  15.171  1.00  0.00    -0.354 N 
ATOM     46  C   UNL     1       5.754   0.386  14.319  1.00  0.00     0.074 A 
ATOM     47  C   UNL     1       5.775   1.266  13.169  1.00  0.00     0.031 C 
ATOM     48  C   UNL     1      -0.460  -1.122  14.874  1.00  0.00     0.029 A 
ATOM     49  C   UNL     1       0.652  -1.597  15.692  1.00  0.00     0.049 A 
ATOM     50  H   UNL     1       2.666  -1.098  15.511  1.00  0.00     0.167 HD
ATOM     51  C   UNL     1       6.854   0.015  15.017  1.00  0.00     0.037 A 
ATOM     52  C   UNL     1       0.549  -2.457  16.722  1.00  0.00     0.037 A 
ATOM     53  C   UNL     1       6.832  -0.840  16.176  1.00  0.00     0.049 A 
ATOM     54  C   UNL     1       1.777  -2.821  17.506  1.00  0.00     0.074 A 
ATOM     55  C   UNL     1       7.888  -1.224  16.986  1.00  0.00     0.029 A 
ATOM     56  N   UNL     1       5.695  -1.444  16.689  1.00  0.00    -0.354 N 
ATOM     57  N   UNL     1       3.016  -2.433  17.327  1.00  0.00    -0.248 NA
ATOM     58  C   UNL     1       1.589  -3.730  18.645  1.00  0.00     0.031 C 
ATOM     59  C   UNL     1       7.393  -2.084  17.974  1.00  0.00     0.029 A 
ATOM     60  C   UNL     1       6.024  -2.208  17.798  1.00  0.00     0.049 A 
ATOM     61  H   UNL     1       4.788  -1.345  16.321  1.00  0.00     0.167 HD
ATOM     62  C   UNL     1       3.752  -3.034  18.339  1.00  0.00     0.074 A 
ATOM     63  C   UNL     1       2.816  -3.797  19.140  1.00  0.00     0.031 C 
ATOM     64  C   UNL     1       5.083  -2.963  18.583  1.00  0.00     0.037 A 
BRANCH  51  65
ATOM     65  C   UNL     1       8.177   0.542  14.549  1.00  0.00     0.057 A 
ATOM     66  C   UNL     1       8.540   1.883  14.733  1.00  0.00     0.134 A 
ATOM     67  C   UNL     1       9.112  -0.303  13.939  1.00  0.00     0.134 A 
ATOM     68  F   UNL     1       7.685   2.747  15.300  1.00  0.00    -0.206 F 
ATOM     69  C   UNL     1       9.777   2.369  14.306  1.00  0.00     0.040 A 
ATOM     70  C   UNL     1      10.361   0.166  13.528  1.00  0.00     0.040 A 
ATOM     71  F   UNL     1       8.829  -1.599  13.738  1.00  0.00    -0.206 F 
ATOM     72  C   UNL     1      10.694   1.508  13.707  1.00  0.00     0.006 A 
ENDBRANCH  51  65
BRANCH  52  73
ATOM     73  C   UNL     1      -0.778  -2.997  17.103  1.00  0.00     0.057 A 
ATOM     74  C   UNL     1      -1.429  -2.555  18.261  1.00  0.00     0.134 A 
ATOM     75  C   UNL     1      -1.425  -3.961  16.323  1.00  0.00     0.134 A 
ATOM     76  F   UNL     1      -0.848  -1.644  19.055  1.00  0.00    -0.206 F 
ATOM     77  C   UNL     1      -2.670  -3.066  18.640  1.00  0.00     0.040 A 
ATOM     78  C   UNL     1      -2.676  -4.467  16.680  1.00  0.00     0.040 A 
ATOM     79  F   UNL     1      -0.855  -4.417  15.199  1.00  0.00    -0.206 F 
ATOM     80  C   UNL     1      -3.300  -4.023  17.845  1.00  0.00     0.006 A 
ENDBRANCH  52  73
BRANCH  64  81
ATOM     81  C   UNL     1       5.596  -3.717  19.773  1.00  0.00     0.057 A 
ATOM     82  C   UNL     1       5.707  -5.113  19.767  1.00  0.00     0.134 A 
ATOM     83  C   UNL     1       5.991  -3.039  20.932  1.00  0.00     0.134 A 
ATOM     84  F   UNL     1       5.330  -5.820  18.691  1.00  0.00    -0.206 F 
ATOM     85  C   UNL     1       6.168  -5.811  20.884  1.00  0.00     0.040 A 
ATOM     86  C   UNL     1       6.474  -3.724  22.048  1.00  0.00     0.040 A 
ATOM     87  F   UNL     1       5.915  -1.701  20.999  1.00  0.00    -0.206 F 
ATOM     88  C   UNL     1       6.557  -5.115  22.028  1.00  0.00     0.006 A 
ENDBRANCH  64  81
ENDBRANCH  38  39
ENDBRANCH  30  33
ENDBRANCH  28  29
ENDBRANCH  27  28
ENDBRANCH  26  27
ENDBRANCH  25  26
ENDBRANCH   1  25
TORSDOF 20
