REMARK SMILES N#CCC[NH+]1CC[NH+]([C@@H](C(=O)NCCCCCCNC(=O)c2ccc(-c3c4nc(c(-c5c(F)cccc5F)c5ccc([nH]5)c(-c5c(F)cccc5F)c5nc(c(-c6c(F)cccc6F)c6ccc3[nH]6)C=C5)C=C4)cc2)c2c[nH]c3cc(Cl)ccc23)CC1
REMARK SMILES IDX 14 1 13 2 12 3 10 4 11 5 9 7 8 8 5 9 6 10 87 11 7 13 86 14
REMARK SMILES IDX 4 16 3 17 2 18 1 19 76 20 77 21 85 22 78 23 79 24 84 25
REMARK SMILES IDX 80 27 83 28 81 29 82 30 15 31 16 32 17 33 18 34 19 35 20 36
REMARK SMILES IDX 21 38 22 39 23 40 75 41 24 42 74 43 25 44 26 45 27 46 68 47
REMARK SMILES IDX 28 48 73 49 67 50 69 51 29 52 72 53 66 54 65 55 30 57 56 58
REMARK SMILES IDX 39 59 55 60 40 61 43 62 54 63 70 64 41 65 42 66 53 68 71 69
REMARK SMILES IDX 44 70 31 71 32 72 37 73 33 74 34 75 36 76 38 77 35 78 57 79
REMARK SMILES IDX 58 80 63 81 59 82 60 83 62 84 64 85 61 86 45 87 46 88 51 89
REMARK SMILES IDX 47 90 48 91 50 92 52 93 49 94
REMARK H PARENT 12 6 5 12 8 15 78 26 19 37 69 56 43 67
REMARK Flexibility Score: inf
ROOT
ATOM      1  C   UNL     1       5.697  -4.088   4.839  1.00  0.00     0.021 C 
ENDROOT
BRANCH   1   2
ATOM      2  C   UNL     1       4.645  -5.096   4.217  1.00  0.00     0.116 C 
BRANCH   2   3
ATOM      3  N   UNL     1       3.281  -4.642   3.876  1.00  0.00    -0.351 N 
ATOM      4  C   UNL     1       2.379  -4.813   2.827  1.00  0.00     0.283 C 
ATOM      5  O   UNL     1       1.189  -4.729   3.167  1.00  0.00    -0.268 OA
ATOM      6  H   UNL     1       2.909  -4.061   4.579  1.00  0.00     0.163 HD
BRANCH   4   7
ATOM      7  C   UNL     1       2.758  -5.015   1.319  1.00  0.00     0.308 C 
BRANCH   7   8
ATOM      8  N   UNL     1       3.671  -4.006   0.745  1.00  0.00    -0.312 N 
ATOM      9  N   UNL     1       4.144  -1.350   2.212  1.00  0.00    -0.325 N 
ATOM     10  C   UNL     1       2.858  -1.962   1.929  1.00  0.00     0.324 C 
ATOM     11  C   UNL     1       5.157  -2.412   2.146  1.00  0.00     0.324 C 
ATOM     12  H   UNL     1       4.172  -0.960   3.154  1.00  0.00     0.348 HD
ATOM     13  C   UNL     1       3.014  -2.738   0.613  1.00  0.00     0.325 C 
ATOM     14  C   UNL     1       5.013  -3.702   1.248  1.00  0.00     0.325 C 
ATOM     15  H   UNL     1       3.882  -4.543  -0.096  1.00  0.00     0.349 HD
BRANCH   9  16
ATOM     16  C   UNL     1       4.394  -0.159   1.413  1.00  0.00     0.278 C 
BRANCH  16  17
ATOM     17  C   UNL     1       3.806  -0.097   0.005  1.00  0.00     0.181 C 
BRANCH  17  18
ATOM     18  C   UNL     1       2.286  -0.097   0.005  1.00  0.00     0.068 C 
ATOM     19  N   UNL     1       1.025  -0.097   0.005  1.00  0.00    -0.198 NA
ENDBRANCH  17  18
ENDBRANCH  16  17
ENDBRANCH   9  16
ENDBRANCH   7   8
BRANCH   7  20
ATOM     20  C   UNL     1       1.510  -5.113   0.210  1.00  0.00     0.044 A 
ATOM     21  C   UNL     1       1.701  -5.862  -0.962  1.00  0.00     0.094 A 
ATOM     22  C   UNL     1       0.544  -4.097  -0.327  1.00  0.00     0.009 A 
ATOM     23  N   UNL     1       1.887  -4.870  -1.923  1.00  0.00    -0.361 N 
ATOM     24  C   UNL     1       0.948  -3.892  -1.670  1.00  0.00     0.047 A 
ATOM     25  C   UNL     1      -0.421  -3.166   0.157  1.00  0.00     0.012 A 
ATOM     26  H   UNL     1       2.558  -4.867  -2.643  1.00  0.00     0.166 HD
ATOM     27  C   UNL     1       0.528  -2.825  -2.489  1.00  0.00     0.047 A 
ATOM     28  C   UNL     1      -0.951  -2.160  -0.701  1.00  0.00     0.021 A 
ATOM     29  C   UNL     1      -0.447  -1.971  -1.986  1.00  0.00     0.043 A 
ATOM     30  Cl  UNL     1      -0.956  -0.625  -2.944  1.00  0.00    -0.084 Cl
ENDBRANCH   7  20
ENDBRANCH   4   7
ENDBRANCH   2   3
ENDBRANCH   1   2
BRANCH   1  31
ATOM     31  C   UNL     1       5.204  -2.768   5.492  1.00  0.00     0.002 C 
BRANCH  31  32
ATOM     32  C   UNL     1       5.773  -2.469   6.887  1.00  0.00     0.002 C 
BRANCH  32  33
ATOM     33  C   UNL     1       7.278  -2.175   6.941  1.00  0.00     0.021 C 
BRANCH  33  34
ATOM     34  C   UNL     1       7.692  -0.802   6.401  1.00  0.00     0.116 C 
BRANCH  34  35
ATOM     35  N   UNL     1       7.389   0.270   7.343  1.00  0.00    -0.352 N 
ATOM     36  C   UNL     1       8.243   0.969   8.169  1.00  0.00     0.251 C 
ATOM     37  H   UNL     1       6.441   0.530   7.397  1.00  0.00     0.163 HD
ATOM     38  O   UNL     1       7.811   1.644   9.090  1.00  0.00    -0.269 OA
BRANCH  36  39
ATOM     39  C   UNL     1       9.701   0.896   7.931  1.00  0.00     0.039 A 
ATOM     40  C   UNL     1      10.561   0.619   8.997  1.00  0.00     0.014 A 
ATOM     41  C   UNL     1      10.215   1.121   6.652  1.00  0.00     0.014 A 
ATOM     42  C   UNL     1      11.935   0.506   8.765  1.00  0.00     0.010 A 
ATOM     43  C   UNL     1      11.574   0.940   6.409  1.00  0.00     0.010 A 
ATOM     44  C   UNL     1      12.450   0.637   7.464  1.00  0.00    -0.014 A 
BRANCH  44  45
ATOM     45  C   UNL     1      13.902   0.473   7.189  1.00  0.00     0.031 A 
ATOM     46  C   UNL     1      14.707   1.634   6.671  1.00  0.00     0.074 A 
ATOM     47  C   UNL     1      14.482  -0.732   7.348  1.00  0.00     0.049 A 
ATOM     48  N   UNL     1      15.969   1.677   6.323  1.00  0.00    -0.248 NA
ATOM     49  C   UNL     1      13.995   2.910   6.496  1.00  0.00     0.031 C 
ATOM     50  C   UNL     1      13.802  -1.947   7.800  1.00  0.00     0.029 A 
ATOM     51  N   UNL     1      15.778  -1.137   7.140  1.00  0.00    -0.354 N 
ATOM     52  C   UNL     1      16.194   2.974   5.877  1.00  0.00     0.074 A 
ATOM     53  C   UNL     1      14.929   3.670   5.944  1.00  0.00     0.031 C 
ATOM     54  C   UNL     1      14.691  -2.952   7.863  1.00  0.00     0.029 A 
ATOM     55  C   UNL     1      15.993  -2.465   7.419  1.00  0.00     0.049 A 
ATOM     56  H   UNL     1      16.486  -0.532   6.821  1.00  0.00     0.167 HD
ATOM     57  C   UNL     1      17.356   3.540   5.470  1.00  0.00     0.037 A 
ATOM     58  C   UNL     1      17.113  -3.208   7.322  1.00  0.00     0.037 A 
ATOM     59  C   UNL     1      18.619   2.851   5.428  1.00  0.00     0.049 A 
ATOM     60  C   UNL     1      18.386  -2.558   6.853  1.00  0.00     0.074 A 
ATOM     61  C   UNL     1      19.864   3.355   5.096  1.00  0.00     0.029 A 
ATOM     62  N   UNL     1      18.796   1.508   5.724  1.00  0.00    -0.354 N 
ATOM     63  N   UNL     1      18.601  -1.311   6.507  1.00  0.00    -0.248 NA
ATOM     64  C   UNL     1      19.575  -3.417   6.765  1.00  0.00     0.031 C 
ATOM     65  C   UNL     1      20.785   2.303   5.135  1.00  0.00     0.029 A 
ATOM     66  C   UNL     1      20.125   1.158   5.552  1.00  0.00     0.049 A 
ATOM     67  H   UNL     1      18.083   0.894   6.014  1.00  0.00     0.167 HD
ATOM     68  C   UNL     1      19.952  -1.230   6.196  1.00  0.00     0.074 A 
ATOM     69  C   UNL     1      20.510  -2.549   6.406  1.00  0.00     0.031 C 
ATOM     70  C   UNL     1      20.668  -0.158   5.774  1.00  0.00     0.037 A 
BRANCH  57  71
ATOM     71  C   UNL     1      17.315   4.978   5.035  1.00  0.00     0.057 A 
ATOM     72  C   UNL     1      17.092   6.022   5.943  1.00  0.00     0.134 A 
ATOM     73  C   UNL     1      17.541   5.325   3.697  1.00  0.00     0.134 A 
ATOM     74  F   UNL     1      16.858   5.759   7.238  1.00  0.00    -0.206 F 
ATOM     75  C   UNL     1      17.069   7.356   5.532  1.00  0.00     0.040 A 
ATOM     76  C   UNL     1      17.549   6.657   3.279  1.00  0.00     0.040 A 
ATOM     77  F   UNL     1      17.767   4.378   2.775  1.00  0.00    -0.206 F 
ATOM     78  C   UNL     1      17.306   7.677   4.197  1.00  0.00     0.006 A 
ENDBRANCH  57  71
BRANCH  58  79
ATOM     79  C   UNL     1      17.093  -4.646   7.697  1.00  0.00     0.057 A 
ATOM     80  C   UNL     1      17.785  -5.108   8.823  1.00  0.00     0.134 A 
ATOM     81  C   UNL     1      16.404  -5.595   6.932  1.00  0.00     0.134 A 
ATOM     82  F   UNL     1      18.480  -4.251   9.586  1.00  0.00    -0.206 F 
ATOM     83  C   UNL     1      17.815  -6.462   9.161  1.00  0.00     0.040 A 
ATOM     84  C   UNL     1      16.402  -6.948   7.274  1.00  0.00     0.040 A 
ATOM     85  F   UNL     1      15.714  -5.218   5.846  1.00  0.00    -0.206 F 
ATOM     86  C   UNL     1      17.117  -7.386   8.387  1.00  0.00     0.006 A 
ENDBRANCH  58  79
BRANCH  70  87
ATOM     87  C   UNL     1      22.140  -0.356   5.553  1.00  0.00     0.057 A 
ATOM     88  C   UNL     1      22.636  -1.105   4.479  1.00  0.00     0.134 A 
ATOM     89  C   UNL     1      23.074   0.247   6.407  1.00  0.00     0.134 A 
ATOM     90  F   UNL     1      21.796  -1.719   3.632  1.00  0.00    -0.206 F 
ATOM     91  C   UNL     1      24.008  -1.269   4.277  1.00  0.00     0.040 A 
ATOM     92  C   UNL     1      24.447   0.116   6.196  1.00  0.00     0.040 A 
ATOM     93  F   UNL     1      22.667   0.987   7.449  1.00  0.00    -0.206 F 
ATOM     94  C   UNL     1      24.917  -0.650   5.132  1.00  0.00     0.006 A 
ENDBRANCH  70  87
ENDBRANCH  44  45
ENDBRANCH  36  39
ENDBRANCH  34  35
ENDBRANCH  33  34
ENDBRANCH  32  33
ENDBRANCH  31  32
ENDBRANCH   1  31
TORSDOF 18
