REMARK SMILES Cc1c(Cl)ccc2c(OCC(=O)NCCCCCCNC(=O)c3ccc(-c4c5nc(c(-c6c(F)cccc6F)c6ccc([nH]6)c(-c6c(F)cccc6F)c6nc(c(-c7c(F)cccc7F)c7ccc4[nH]7)C=C6)C=C5)cc3)ccnc12
REMARK SMILES IDX 16 1 15 2 14 3 13 4 11 5 12 6 10 8 9 9 8 10 1 11 2 12 3 13
REMARK SMILES IDX 80 14 4 15 5 16 7 17 79 18 6 19 78 20 77 21 17 22 18 23
REMARK SMILES IDX 19 24 20 25 21 26 22 28 23 29 24 30 76 31 25 32 75 33 26 34
REMARK SMILES IDX 27 35 28 36 69 37 29 38 74 39 68 40 70 41 30 42 73 43 67 44
REMARK SMILES IDX 66 45 31 47 57 48 40 49 56 50 41 51 44 52 55 53 71 54 42 55
REMARK SMILES IDX 43 56 54 58 72 59 45 60 32 61 33 62 38 63 34 64 35 65 37 66
REMARK SMILES IDX 39 67 36 68 58 69 59 70 64 71 60 72 61 73 63 74 65 75 62 76
REMARK SMILES IDX 46 77 47 78 52 79 48 80 49 81 51 82 53 83 50 84
REMARK H PARENT 13 7 20 27 70 46 44 57
REMARK Flexibility Score: inf
ROOT
ATOM      1  C   UNL     1       5.003   6.152   1.853  1.00  0.00     0.002 C 
ENDROOT
BRANCH   1   2
ATOM      2  C   UNL     1       3.472   6.199   1.739  1.00  0.00     0.021 C 
BRANCH   2   3
ATOM      3  C   UNL     1       2.918   7.451   1.056  1.00  0.00     0.116 C 
BRANCH   3   4
ATOM      4  N   UNL     1       3.403   7.581  -0.303  1.00  0.00    -0.353 N 
ATOM      5  C   UNL     1       2.721   7.443  -1.474  1.00  0.00     0.257 C 
ATOM      6  O   UNL     1       3.336   7.567  -2.535  1.00  0.00    -0.271 OA
ATOM      7  H   UNL     1       4.359   7.800  -0.392  1.00  0.00     0.163 HD
BRANCH   5   8
ATOM      8  C   UNL     1       1.208   7.190  -1.458  1.00  0.00     0.329 C 
BRANCH   8   9
ATOM      9  O   UNL     1       0.729   6.093  -0.701  1.00  0.00    -0.483 OA
BRANCH   9  10
ATOM     10  C   UNL     1       1.035   4.816  -1.102  1.00  0.00     0.131 A 
ATOM     11  C   UNL     1       0.876  -0.015  -0.150  1.00  0.00     0.048 C 
ATOM     12  C   UNL     1       0.477   1.390   0.231  1.00  0.00    -0.006 A 
ATOM     13  C   UNL     1      -0.320   1.665   1.356  1.00  0.00     0.046 A 
ATOM     14  C   UNL     1       0.909   2.443  -0.595  1.00  0.00     0.078 A 
ATOM     15  Cl  UNL     1      -0.925   0.422   2.395  1.00  0.00    -0.084 Cl
ATOM     16  C   UNL     1      -0.662   2.974   1.679  1.00  0.00     0.022 A 
ATOM     17  C   UNL     1       0.571   3.775  -0.262  1.00  0.00     0.043 A 
ATOM     18  N   UNL     1       1.639   2.166  -1.692  1.00  0.00    -0.256 NA
ATOM     19  C   UNL     1      -0.214   4.021   0.883  1.00  0.00     0.016 A 
ATOM     20  C   UNL     1       2.039   3.178  -2.488  1.00  0.00     0.115 A 
ATOM     21  C   UNL     1       1.763   4.505  -2.243  1.00  0.00     0.067 A 
ENDBRANCH   9  10
ENDBRANCH   8   9
ENDBRANCH   5   8
ENDBRANCH   3   4
ENDBRANCH   2   3
ENDBRANCH   1   2
BRANCH   1  22
ATOM     22  C   UNL     1       5.656   7.354   2.544  1.00  0.00     0.002 C 
BRANCH  22  23
ATOM     23  C   UNL     1       5.116   7.681   3.938  1.00  0.00     0.021 C 
BRANCH  23  24
ATOM     24  C   UNL     1       5.234   6.546   4.949  1.00  0.00     0.116 C 
BRANCH  24  25
ATOM     25  N   UNL     1       6.617   6.257   5.292  1.00  0.00    -0.352 N 
ATOM     26  C   UNL     1       7.218   6.280   6.527  1.00  0.00     0.251 C 
ATOM     27  H   UNL     1       7.200   6.011   4.538  1.00  0.00     0.163 HD
ATOM     28  O   UNL     1       8.435   6.178   6.635  1.00  0.00    -0.269 OA
BRANCH  26  29
ATOM     29  C   UNL     1       6.382   6.452   7.731  1.00  0.00     0.039 A 
ATOM     30  C   UNL     1       6.715   7.447   8.653  1.00  0.00     0.014 A 
ATOM     31  C   UNL     1       5.268   5.633   7.939  1.00  0.00     0.014 A 
ATOM     32  C   UNL     1       5.896   7.658   9.764  1.00  0.00     0.010 A 
ATOM     33  C   UNL     1       4.423   5.880   9.018  1.00  0.00     0.010 A 
ATOM     34  C   UNL     1       4.736   6.889   9.942  1.00  0.00    -0.014 A 
BRANCH  34  35
ATOM     35  C   UNL     1       3.860   7.092  11.119  1.00  0.00     0.031 A 
ATOM     36  C   UNL     1       3.818   6.051  12.200  1.00  0.00     0.074 A 
ATOM     37  C   UNL     1       3.076   8.183  11.196  1.00  0.00     0.049 A 
ATOM     38  N   UNL     1       3.105   6.024  13.297  1.00  0.00    -0.248 NA
ATOM     39  C   UNL     1       4.682   4.875  12.012  1.00  0.00     0.031 C 
ATOM     40  C   UNL     1       3.012   9.254  10.201  1.00  0.00     0.029 A 
ATOM     41  N   UNL     1       2.179   8.568  12.160  1.00  0.00    -0.354 N 
ATOM     42  C   UNL     1       3.438   4.834  13.931  1.00  0.00     0.074 A 
ATOM     43  C   UNL     1       4.367   4.139  13.066  1.00  0.00     0.031 C 
ATOM     44  C   UNL     1       2.139  10.187  10.617  1.00  0.00     0.029 A 
ATOM     45  C   UNL     1       1.565   9.766  11.892  1.00  0.00     0.049 A 
ATOM     46  H   UNL     1       1.994   8.035  12.967  1.00  0.00     0.167 HD
ATOM     47  C   UNL     1       3.029   4.373  15.137  1.00  0.00     0.037 A 
ATOM     48  C   UNL     1       0.644  10.445  12.602  1.00  0.00     0.037 A 
ATOM     49  C   UNL     1       2.104   5.062  15.995  1.00  0.00     0.049 A 
ATOM     50  C   UNL     1       0.155   9.879  13.906  1.00  0.00     0.074 A 
ATOM     51  C   UNL     1       1.654   4.700  17.253  1.00  0.00     0.029 A 
ATOM     52  N   UNL     1       1.478   6.258  15.676  1.00  0.00    -0.354 N 
ATOM     53  N   UNL     1       0.525   8.785  14.526  1.00  0.00    -0.248 NA
ATOM     54  C   UNL     1      -0.883  10.647  14.609  1.00  0.00     0.031 C 
ATOM     55  C   UNL     1       0.725   5.657  17.677  1.00  0.00     0.029 A 
ATOM     56  C   UNL     1       0.625   6.635  16.700  1.00  0.00     0.049 A 
ATOM     57  H   UNL     1       1.619   6.764  14.843  1.00  0.00     0.167 HD
ATOM     58  C   UNL     1      -0.207   8.750  15.706  1.00  0.00     0.074 A 
ATOM     59  C   UNL     1      -1.038   9.937  15.717  1.00  0.00     0.031 C 
ATOM     60  C   UNL     1      -0.191   7.822  16.695  1.00  0.00     0.037 A 
BRANCH  47  61
ATOM     61  C   UNL     1       3.591   3.056  15.582  1.00  0.00     0.057 A 
ATOM     62  C   UNL     1       2.791   1.908  15.619  1.00  0.00     0.134 A 
ATOM     63  C   UNL     1       4.936   2.920  15.956  1.00  0.00     0.134 A 
ATOM     64  F   UNL     1       1.496   1.969  15.276  1.00  0.00    -0.206 F 
ATOM     65  C   UNL     1       3.311   0.670  16.000  1.00  0.00     0.040 A 
ATOM     66  C   UNL     1       5.473   1.683  16.313  1.00  0.00     0.040 A 
ATOM     67  F   UNL     1       5.760   3.979  15.926  1.00  0.00    -0.206 F 
ATOM     68  C   UNL     1       4.658   0.553  16.338  1.00  0.00     0.006 A 
ENDBRANCH  47  61
BRANCH  48  69
ATOM     69  C   UNL     1       0.143  11.756  12.120  1.00  0.00     0.057 A 
ATOM     70  C   UNL     1      -0.722  11.857  11.026  1.00  0.00     0.134 A 
ATOM     71  C   UNL     1       0.498  12.940  12.776  1.00  0.00     0.134 A 
ATOM     72  F   UNL     1      -1.098  10.758  10.355  1.00  0.00    -0.206 F 
ATOM     73  C   UNL     1      -1.218  13.090  10.600  1.00  0.00     0.040 A 
ATOM     74  C   UNL     1      -0.005  14.178  12.374  1.00  0.00     0.040 A 
ATOM     75  F   UNL     1       1.308  12.903  13.844  1.00  0.00    -0.206 F 
ATOM     76  C   UNL     1      -0.866  14.255  11.281  1.00  0.00     0.006 A 
ENDBRANCH  48  69
BRANCH  60  77
ATOM     77  C   UNL     1      -1.072   8.079  17.881  1.00  0.00     0.057 A 
ATOM     78  C   UNL     1      -0.519   8.462  19.109  1.00  0.00     0.134 A 
ATOM     79  C   UNL     1      -2.463   7.933  17.812  1.00  0.00     0.134 A 
ATOM     80  F   UNL     1       0.807   8.614  19.242  1.00  0.00    -0.206 F 
ATOM     81  C   UNL     1      -1.320   8.692  20.228  1.00  0.00     0.040 A 
ATOM     82  C   UNL     1      -3.276   8.184  18.919  1.00  0.00     0.040 A 
ATOM     83  F   UNL     1      -3.054   7.585  16.660  1.00  0.00    -0.206 F 
ATOM     84  C   UNL     1      -2.704   8.560  20.133  1.00  0.00     0.006 A 
ENDBRANCH  60  77
ENDBRANCH  34  35
ENDBRANCH  26  29
ENDBRANCH  24  25
ENDBRANCH  23  24
ENDBRANCH  22  23
ENDBRANCH   1  22
TORSDOF 15
