REMARK SMILES CC(C)(C)[C@H](CCC(=O)NCCCCCCNC(=O)c1ccc(-c2c3nc(c(-c4c(F)cccc4F)c4ccc([nH]4)c(-c4c(F)cccc4F)c4nc(c(-c5c(F)cccc5F)c5ccc2[nH]5)C=C4)C=C3)cc1)CC[NH+]1CCOCC1
REMARK SMILES IDX 12 1 11 2 10 3 8 4 9 5 7 7 6 8 5 9 2 10 1 11 3 12 4 13 74 14
REMARK SMILES IDX 75 15 76 16 77 17 81 18 78 20 80 21 79 22 13 23 14 24 15 25
REMARK SMILES IDX 16 26 17 27 18 28 19 30 20 31 21 32 73 33 22 34 72 35 23 36
REMARK SMILES IDX 24 37 25 38 66 39 26 40 71 41 65 42 67 43 27 44 70 45 64 46
REMARK SMILES IDX 63 47 28 49 54 50 37 51 53 52 38 53 41 54 52 55 68 56 39 57
REMARK SMILES IDX 40 58 51 60 69 61 42 62 29 63 30 64 35 65 31 66 32 67 34 68
REMARK SMILES IDX 36 69 33 70 55 71 56 72 61 73 57 74 58 75 60 76 62 77 59 78
REMARK SMILES IDX 43 79 44 80 49 81 45 82 46 83 48 84 50 85 47 86
REMARK H PARENT 10 6 76 19 17 29 67 48 41 59
REMARK Flexibility Score: inf
ROOT
ATOM      1  C   UNL     1      -1.429  -2.412  -4.414  1.00  0.00     0.021 C 
ENDROOT
BRANCH   1   2
ATOM      2  C   UNL     1      -1.572  -0.862  -4.170  1.00  0.00     0.116 C 
BRANCH   2   3
ATOM      3  N   UNL     1      -2.224  -0.509  -2.818  1.00  0.00    -0.356 N 
ATOM      4  C   UNL     1      -2.025  -0.226  -1.483  1.00  0.00     0.220 C 
ATOM      5  O   UNL     1      -3.099  -0.295  -0.849  1.00  0.00    -0.275 OA
ATOM      6  H   UNL     1      -3.195  -0.468  -2.974  1.00  0.00     0.163 HD
BRANCH   4   7
ATOM      7  C   UNL     1      -0.774   0.316  -0.642  1.00  0.00     0.100 C 
BRANCH   7   8
ATOM      8  C   UNL     1       0.440  -0.368   0.180  1.00  0.00     0.014 C 
BRANCH   8   9
ATOM      9  C   UNL     1       1.448  -1.470  -0.377  1.00  0.00     0.000 C 
BRANCH   9  10
ATOM     10  C   UNL     1       1.326  -1.572  -1.907  1.00  0.00    -0.035 C 
ATOM     11  C   UNL     1       1.312  -0.117  -2.489  1.00  0.00     0.011 C 
ATOM     12  C   UNL     1       0.084  -2.481  -1.938  1.00  0.00     0.011 C 
ATOM     13  C   UNL     1       2.388  -2.198  -2.831  1.00  0.00     0.011 C 
ENDBRANCH   9  10
BRANCH   9  14
ATOM     14  C   UNL     1       2.886  -1.613   0.152  1.00  0.00     0.065 C 
BRANCH  14  15
ATOM     15  C   UNL     1       3.285  -2.962   0.893  1.00  0.00     0.262 C 
BRANCH  15  16
ATOM     16  N   UNL     1       2.908  -4.316   0.507  1.00  0.00    -0.331 N 
ATOM     17  C   UNL     1       3.904  -5.392   0.526  1.00  0.00     0.291 C 
ATOM     18  C   UNL     1       1.597  -4.857   0.188  1.00  0.00     0.291 C 
ATOM     19  H   UNL     1       2.714  -3.363   0.201  1.00  0.00     0.348 HD
ATOM     20  C   UNL     1       3.964  -6.009  -0.883  1.00  0.00     0.221 C 
ATOM     21  C   UNL     1       1.687  -5.481  -1.214  1.00  0.00     0.221 C 
ATOM     22  O   UNL     1       2.676  -6.518  -1.286  1.00  0.00    -0.370 OA
ENDBRANCH  15  16
ENDBRANCH  14  15
ENDBRANCH   9  14
ENDBRANCH   8   9
ENDBRANCH   7   8
ENDBRANCH   4   7
ENDBRANCH   2   3
ENDBRANCH   1   2
BRANCH   1  23
ATOM     23  C   UNL     1      -1.693  -3.105  -5.751  1.00  0.00     0.002 C 
BRANCH  23  24
ATOM     24  C   UNL     1      -0.585  -3.050  -6.812  1.00  0.00     0.002 C 
BRANCH  24  25
ATOM     25  C   UNL     1       0.817  -3.610  -6.484  1.00  0.00     0.021 C 
BRANCH  25  26
ATOM     26  C   UNL     1       0.941  -5.056  -5.984  1.00  0.00     0.116 C 
BRANCH  26  27
ATOM     27  N   UNL     1       0.359  -6.030  -6.891  1.00  0.00    -0.352 N 
ATOM     28  C   UNL     1       0.919  -6.913  -7.783  1.00  0.00     0.251 C 
ATOM     29  H   UNL     1      -0.624  -6.065  -6.860  1.00  0.00     0.163 HD
ATOM     30  O   UNL     1       0.184  -7.501  -8.570  1.00  0.00    -0.269 OA
BRANCH  28  31
ATOM     31  C   UNL     1       2.379  -7.179  -7.840  1.00  0.00     0.039 A 
ATOM     32  C   UNL     1       2.975  -7.319  -9.101  1.00  0.00     0.014 A 
ATOM     33  C   UNL     1       3.140  -7.429  -6.696  1.00  0.00     0.014 A 
ATOM     34  C   UNL     1       4.328  -7.663  -9.216  1.00  0.00     0.010 A 
ATOM     35  C   UNL     1       4.505  -7.729  -6.809  1.00  0.00     0.010 A 
ATOM     36  C   UNL     1       5.114  -7.856  -8.070  1.00  0.00    -0.014 A 
BRANCH  36  37
ATOM     37  C   UNL     1       6.557  -8.211  -8.184  1.00  0.00     0.031 A 
ATOM     38  C   UNL     1       7.053  -9.562  -7.737  1.00  0.00     0.074 A 
ATOM     39  C   UNL     1       7.436  -7.309  -8.664  1.00  0.00     0.049 A 
ATOM     40  N   UNL     1       8.277 -10.031  -7.713  1.00  0.00    -0.248 NA
ATOM     41  C   UNL     1       6.042 -10.504  -7.234  1.00  0.00     0.031 C 
ATOM     42  C   UNL     1       7.100  -5.955  -9.106  1.00  0.00     0.029 A 
ATOM     43  N   UNL     1       8.795  -7.391  -8.852  1.00  0.00    -0.354 N 
ATOM     44  C   UNL     1       8.184 -11.315  -7.188  1.00  0.00     0.074 A 
ATOM     45  C   UNL     1       6.790 -11.532  -6.860  1.00  0.00     0.031 C 
ATOM     46  C   UNL     1       8.217  -5.338  -9.523  1.00  0.00     0.029 A 
ATOM     47  C   UNL     1       9.354  -6.239  -9.352  1.00  0.00     0.049 A 
ATOM     48  H   UNL     1       9.319  -8.198  -8.648  1.00  0.00     0.167 HD
ATOM     49  C   UNL     1       9.161 -12.239  -7.014  1.00  0.00     0.037 A 
ATOM     50  C   UNL     1      10.636  -5.938  -9.637  1.00  0.00     0.037 A 
ATOM     51  C   UNL     1      10.547 -12.034  -7.351  1.00  0.00     0.049 A 
ATOM     52  C   UNL     1      11.703  -6.979  -9.432  1.00  0.00     0.074 A 
ATOM     53  C   UNL     1      11.607 -12.916  -7.228  1.00  0.00     0.029 A 
ATOM     54  N   UNL     1      11.064 -10.863  -7.884  1.00  0.00    -0.354 N 
ATOM     55  N   UNL     1      11.589  -8.201  -8.973  1.00  0.00    -0.248 NA
ATOM     56  C   UNL     1      13.076  -6.601  -9.799  1.00  0.00     0.031 C 
ATOM     57  C   UNL     1      12.770 -12.270  -7.660  1.00  0.00     0.029 A 
ATOM     58  C   UNL     1      12.428 -10.999  -8.091  1.00  0.00     0.049 A 
ATOM     59  H   UNL     1      10.540 -10.054  -8.085  1.00  0.00     0.167 HD
ATOM     60  C   UNL     1      12.865  -8.748  -9.027  1.00  0.00     0.074 A 
ATOM     61  C   UNL     1      13.735  -7.729  -9.575  1.00  0.00     0.031 C 
ATOM     62  C   UNL     1      13.279  -9.984  -8.654  1.00  0.00     0.037 A 
BRANCH  49  63
ATOM     63  C   UNL     1       8.761 -13.568  -6.441  1.00  0.00     0.057 A 
ATOM     64  C   UNL     1       8.011 -14.491  -7.183  1.00  0.00     0.134 A 
ATOM     65  C   UNL     1       9.156 -13.947  -5.152  1.00  0.00     0.134 A 
ATOM     66  F   UNL     1       7.594 -14.188  -8.422  1.00  0.00    -0.206 F 
ATOM     67  C   UNL     1       7.646 -15.731  -6.654  1.00  0.00     0.040 A 
ATOM     68  C   UNL     1       8.819 -15.195  -4.622  1.00  0.00     0.040 A 
ATOM     69  F   UNL     1       9.884 -13.117  -4.390  1.00  0.00    -0.206 F 
ATOM     70  C   UNL     1       8.056 -16.087  -5.372  1.00  0.00     0.006 A 
ENDBRANCH  49  63
BRANCH  50  71
ATOM     71  C   UNL     1      10.988  -4.597 -10.169  1.00  0.00     0.057 A 
ATOM     72  C   UNL     1      11.415  -4.432 -11.492  1.00  0.00     0.134 A 
ATOM     73  C   UNL     1      10.932  -3.454  -9.362  1.00  0.00     0.134 A 
ATOM     74  F   UNL     1      11.509  -5.492 -12.307  1.00  0.00    -0.206 F 
ATOM     75  C   UNL     1      11.798  -3.184 -11.987  1.00  0.00     0.040 A 
ATOM     76  C   UNL     1      11.288  -2.196  -9.852  1.00  0.00     0.040 A 
ATOM     77  F   UNL     1      10.526  -3.543  -8.087  1.00  0.00    -0.206 F 
ATOM     78  C   UNL     1      11.732  -2.060 -11.166  1.00  0.00     0.006 A 
ENDBRANCH  50  71
BRANCH  62  79
ATOM     79  C   UNL     1      14.726 -10.318  -8.874  1.00  0.00     0.057 A 
ATOM     80  C   UNL     1      15.742  -9.768  -8.083  1.00  0.00     0.134 A 
ATOM     81  C   UNL     1      15.102 -11.221  -9.876  1.00  0.00     0.134 A 
ATOM     82  F   UNL     1      15.450  -8.886  -7.115  1.00  0.00    -0.206 F 
ATOM     83  C   UNL     1      17.085 -10.084  -8.299  1.00  0.00     0.040 A 
ATOM     84  C   UNL     1      16.439 -11.564 -10.085  1.00  0.00     0.040 A 
ATOM     85  F   UNL     1      14.177 -11.789 -10.664  1.00  0.00    -0.206 F 
ATOM     86  C   UNL     1      17.435 -10.989  -9.299  1.00  0.00     0.006 A 
ENDBRANCH  62  79
ENDBRANCH  36  37
ENDBRANCH  28  31
ENDBRANCH  26  27
ENDBRANCH  25  26
ENDBRANCH  24  25
ENDBRANCH  23  24
ENDBRANCH   1  23
TORSDOF 19
