REMARK SMILES COc1ccccc1NC(=O)N[C@@](C)(C(=O)NCCCCCCNC(=O)c1ccc(-c2c3nc(c(-c4c(F)cccc4F)c4ccc([nH]4)c(-c4c(F)cccc4F)c4nc(c(-c5c(F)cccc5F)c5ccc2[nH]5)C=C4)C=C3)cc1)C(F)(F)F
REMARK SMILES IDX 20 1 19 2 18 3 17 4 15 5 16 6 13 8 14 9 12 10 9 11 10 12
REMARK SMILES IDX 11 14 8 16 3 17 4 18 5 19 7 20 6 21 2 22 1 23 81 24 82 25
REMARK SMILES IDX 83 26 84 27 21 28 22 29 23 30 24 31 25 32 26 34 27 35 28 36
REMARK SMILES IDX 80 37 29 38 79 39 30 40 31 41 32 42 73 43 33 44 78 45 72 46
REMARK SMILES IDX 74 47 34 48 77 49 71 50 70 51 35 53 61 54 44 55 60 56 45 57
REMARK SMILES IDX 48 58 59 59 75 60 46 61 47 62 58 64 76 65 49 66 36 67 37 68
REMARK SMILES IDX 42 69 38 70 39 71 41 72 43 73 40 74 62 75 63 76 68 77 64 78
REMARK SMILES IDX 65 79 67 80 69 81 66 82 50 83 51 84 56 85 52 86 53 87 55 88
REMARK SMILES IDX 57 89 54 90
REMARK H PARENT 17 7 9 13 12 15 24 33 74 52 48 63
REMARK Flexibility Score: inf
ROOT
ATOM      1  C   UNL     1       8.455  -6.953  -1.112  1.00  0.00     0.002 C 
ENDROOT
BRANCH   1   2
ATOM      2  C   UNL     1       8.029  -5.590  -1.695  1.00  0.00     0.021 C 
BRANCH   2   3
ATOM      3  C   UNL     1       6.729  -5.606  -2.506  1.00  0.00     0.116 C 
BRANCH   3   4
ATOM      4  N   UNL     1       5.711  -6.332  -1.786  1.00  0.00    -0.354 N 
ATOM      5  C   UNL     1       4.957  -5.831  -0.766  1.00  0.00     0.255 C 
ATOM      6  O   UNL     1       5.164  -6.348   0.332  1.00  0.00    -0.272 OA
ATOM      7  H   UNL     1       5.548  -7.266  -2.052  1.00  0.00     0.163 HD
BRANCH   5   8
ATOM      8  C   UNL     1       3.863  -4.760  -1.062  1.00  0.00     0.213 C 
ATOM      9  C   UNL     1       3.199  -5.199  -2.384  1.00  0.00     0.056 C 
BRANCH   8  10
ATOM     10  N   UNL     1       4.465  -3.398  -1.246  1.00  0.00    -0.316 N 
ATOM     11  N   UNL     1       2.799  -1.669  -1.125  1.00  0.00    -0.305 N 
ATOM     12  C   UNL     1       4.050  -2.124  -1.293  1.00  0.00     0.320 C 
ATOM     13  H   UNL     1       2.793  -0.730  -0.829  1.00  0.00     0.172 HD
ATOM     14  O   UNL     1       4.953  -1.280  -1.354  1.00  0.00    -0.248 OA
ATOM     15  H   UNL     1       5.440  -3.457  -1.368  1.00  0.00     0.166 HD
BRANCH  11  16
ATOM     16  C   UNL     1       1.499  -2.175  -1.260  1.00  0.00     0.085 A 
ATOM     17  C   UNL     1       0.546  -1.839  -0.282  1.00  0.00     0.142 A 
ATOM     18  C   UNL     1      -0.634  -2.578  -0.163  1.00  0.00     0.048 A 
ATOM     19  C   UNL     1      -0.926  -3.570  -1.097  1.00  0.00     0.004 A 
ATOM     20  C   UNL     1       1.106  -3.017  -2.291  1.00  0.00     0.030 A 
ATOM     21  C   UNL     1      -0.086  -3.746  -2.195  1.00  0.00     0.002 A 
BRANCH  17  22
ATOM     22  O   UNL     1       0.805  -0.895   0.677  1.00  0.00    -0.495 OA
ATOM     23  C   UNL     1       0.658   0.423   0.142  1.00  0.00     0.278 C 
ENDBRANCH  17  22
ENDBRANCH  11  16
ENDBRANCH   8  10
BRANCH   8  24
ATOM     24  C   UNL     1       2.973  -4.944   0.198  1.00  0.00     0.420 C 
ATOM     25  F   UNL     1       3.622  -4.599   1.337  1.00  0.00    -0.168 F 
ATOM     26  F   UNL     1       1.850  -4.217   0.186  1.00  0.00    -0.168 F 
ATOM     27  F   UNL     1       2.551  -6.230   0.321  1.00  0.00    -0.168 F 
ENDBRANCH   8  24
ENDBRANCH   5   8
ENDBRANCH   3   4
ENDBRANCH   2   3
ENDBRANCH   1   2
BRANCH   1  28
ATOM     28  C   UNL     1       8.475  -8.136  -2.089  1.00  0.00     0.002 C 
BRANCH  28  29
ATOM     29  C   UNL     1       9.277  -7.903  -3.362  1.00  0.00     0.021 C 
BRANCH  29  30
ATOM     30  C   UNL     1      10.707  -7.463  -3.111  1.00  0.00     0.116 C 
BRANCH  30  31
ATOM     31  N   UNL     1      11.495  -8.499  -2.466  1.00  0.00    -0.352 N 
ATOM     32  C   UNL     1      12.738  -8.961  -2.835  1.00  0.00     0.251 C 
ATOM     33  H   UNL     1      11.092  -8.920  -1.672  1.00  0.00     0.163 HD
ATOM     34  O   UNL     1      13.230  -9.949  -2.325  1.00  0.00    -0.269 OA
BRANCH  32  35
ATOM     35  C   UNL     1      13.447  -8.226  -3.902  1.00  0.00     0.039 A 
ATOM     36  C   UNL     1      13.895  -8.921  -5.027  1.00  0.00     0.014 A 
ATOM     37  C   UNL     1      13.576  -6.837  -3.816  1.00  0.00     0.014 A 
ATOM     38  C   UNL     1      14.426  -8.208  -6.101  1.00  0.00     0.010 A 
ATOM     39  C   UNL     1      14.024  -6.126  -4.919  1.00  0.00     0.010 A 
ATOM     40  C   UNL     1      14.464  -6.805  -6.067  1.00  0.00    -0.014 A 
BRANCH  40  41
ATOM     41  C   UNL     1      14.997  -6.005  -7.195  1.00  0.00     0.031 A 
ATOM     42  C   UNL     1      16.210  -5.148  -6.970  1.00  0.00     0.074 A 
ATOM     43  C   UNL     1      14.344  -5.969  -8.372  1.00  0.00     0.049 A 
ATOM     44  N   UNL     1      16.743  -4.244  -7.750  1.00  0.00    -0.248 NA
ATOM     45  C   UNL     1      16.893  -5.303  -5.675  1.00  0.00     0.031 C 
ATOM     46  C   UNL     1      13.141  -6.735  -8.700  1.00  0.00     0.029 A 
ATOM     47  N   UNL     1      14.590  -5.235  -9.505  1.00  0.00    -0.354 N 
ATOM     48  C   UNL     1      17.799  -3.704  -7.029  1.00  0.00     0.074 A 
ATOM     49  C   UNL     1      17.802  -4.343  -5.732  1.00  0.00     0.031 C 
ATOM     50  C   UNL     1      12.758  -6.437  -9.952  1.00  0.00     0.029 A 
ATOM     51  C   UNL     1      13.659  -5.424 -10.497  1.00  0.00     0.049 A 
ATOM     52  H   UNL     1      15.361  -4.630  -9.598  1.00  0.00     0.167 HD
ATOM     53  C   UNL     1      18.699  -2.772  -7.421  1.00  0.00     0.037 A 
ATOM     54  C   UNL     1      13.534  -4.831 -11.699  1.00  0.00     0.037 A 
ATOM     55  C   UNL     1      18.707  -2.165  -8.724  1.00  0.00     0.049 A 
ATOM     56  C   UNL     1      14.537  -3.787 -12.110  1.00  0.00     0.074 A 
ATOM     57  C   UNL     1      19.609  -1.255  -9.244  1.00  0.00     0.029 A 
ATOM     58  N   UNL     1      17.766  -2.410  -9.713  1.00  0.00    -0.354 N 
ATOM     59  N   UNL     1      15.563  -3.321 -11.440  1.00  0.00    -0.248 NA
ATOM     60  C   UNL     1      14.367  -3.186 -13.441  1.00  0.00     0.031 C 
ATOM     61  C   UNL     1      19.186  -0.911 -10.530  1.00  0.00     0.029 A 
ATOM     62  C   UNL     1      18.054  -1.651 -10.833  1.00  0.00     0.049 A 
ATOM     63  H   UNL     1      17.006  -3.031  -9.630  1.00  0.00     0.167 HD
ATOM     64  C   UNL     1      16.183  -2.405 -12.280  1.00  0.00     0.074 A 
ATOM     65  C   UNL     1      15.416  -2.377 -13.508  1.00  0.00     0.031 C 
ATOM     66  C   UNL     1      17.292  -1.659 -12.057  1.00  0.00     0.037 A 
BRANCH  53  67
ATOM     67  C   UNL     1      19.739  -2.351  -6.425  1.00  0.00     0.057 A 
ATOM     68  C   UNL     1      20.762  -3.215  -6.010  1.00  0.00     0.134 A 
ATOM     69  C   UNL     1      19.730  -1.057  -5.888  1.00  0.00     0.134 A 
ATOM     70  F   UNL     1      20.821  -4.472  -6.474  1.00  0.00    -0.206 F 
ATOM     71  C   UNL     1      21.718  -2.818  -5.074  1.00  0.00     0.040 A 
ATOM     72  C   UNL     1      20.700  -0.639  -4.975  1.00  0.00     0.040 A 
ATOM     73  F   UNL     1      18.783  -0.177  -6.245  1.00  0.00    -0.206 F 
ATOM     74  C   UNL     1      21.692  -1.523  -4.559  1.00  0.00     0.006 A 
ENDBRANCH  53  67
BRANCH  54  75
ATOM     75  C   UNL     1      12.424  -5.219 -12.607  1.00  0.00     0.057 A 
ATOM     76  C   UNL     1      12.672  -5.934 -13.784  1.00  0.00     0.134 A 
ATOM     77  C   UNL     1      11.093  -4.891 -12.321  1.00  0.00     0.134 A 
ATOM     78  F   UNL     1      13.928  -6.263 -14.121  1.00  0.00    -0.206 F 
ATOM     79  C   UNL     1      11.641  -6.294 -14.653  1.00  0.00     0.040 A 
ATOM     80  C   UNL     1      10.049  -5.266 -13.168  1.00  0.00     0.040 A 
ATOM     81  F   UNL     1      10.787  -4.215 -11.204  1.00  0.00    -0.206 F 
ATOM     82  C   UNL     1      10.323  -5.965 -14.343  1.00  0.00     0.006 A 
ENDBRANCH  54  75
BRANCH  66  83
ATOM     83  C   UNL     1      17.789  -0.792 -13.176  1.00  0.00     0.057 A 
ATOM     84  C   UNL     1      17.152   0.402 -13.530  1.00  0.00     0.134 A 
ATOM     85  C   UNL     1      18.979  -1.117 -13.842  1.00  0.00     0.134 A 
ATOM     86  F   UNL     1      16.004   0.762 -12.937  1.00  0.00    -0.206 F 
ATOM     87  C   UNL     1      17.680   1.243 -14.511  1.00  0.00     0.040 A 
ATOM     88  C   UNL     1      19.529  -0.272 -14.806  1.00  0.00     0.040 A 
ATOM     89  F   UNL     1      19.642  -2.244 -13.541  1.00  0.00    -0.206 F 
ATOM     90  C   UNL     1      18.878   0.912 -15.143  1.00  0.00     0.006 A 
ENDBRANCH  66  83
ENDBRANCH  40  41
ENDBRANCH  32  35
ENDBRANCH  30  31
ENDBRANCH  29  30
ENDBRANCH  28  29
ENDBRANCH   1  28
TORSDOF 17
