REMARK SMILES CCOC(=O)c1ccc(-c2cc(F)cc(C(=O)NCCCCCCNC(=O)c3ccc(-c4c5nc(c(-c6c(F)cccc6F)c6ccc([nH]6)c(-c6c(F)cccc6F)c6nc(c(-c7c(F)cccc7F)c7ccc4[nH]7)C=C6)C=C5)cc3)c2)cc1
REMARK SMILES IDX 20 1 19 2 18 3 16 4 17 5 15 7 10 8 11 9 82 10 12 11 13 12
REMARK SMILES IDX 14 13 9 14 6 15 7 16 84 17 8 18 83 19 4 20 5 21 3 22 2 23
REMARK SMILES IDX 1 24 21 25 22 26 23 27 24 28 25 29 26 30 27 32 28 33 29 34
REMARK SMILES IDX 81 35 30 36 80 37 31 38 32 39 33 40 74 41 34 42 79 43 73 44
REMARK SMILES IDX 75 45 35 46 78 47 72 48 71 49 36 51 62 52 45 53 61 54 46 55
REMARK SMILES IDX 49 56 60 57 76 58 47 59 48 60 59 62 77 63 50 64 37 65 38 66
REMARK SMILES IDX 43 67 39 68 40 69 42 70 44 71 41 72 63 73 64 74 69 75 65 76
REMARK SMILES IDX 66 77 68 78 70 79 67 80 51 81 52 82 57 83 53 84 54 85 56 86
REMARK SMILES IDX 58 87 55 88
REMARK H PARENT 18 6 25 31 75 50 49 61
REMARK Flexibility Score: inf
ROOT
ATOM      1  C   UNL     1       6.631   8.725   2.421  1.00  0.00     0.021 C 
ENDROOT
BRANCH   1   2
ATOM      2  C   UNL     1       5.429   9.048   1.543  1.00  0.00     0.116 C 
BRANCH   2   3
ATOM      3  N   UNL     1       5.445  10.379   0.958  1.00  0.00    -0.352 N 
ATOM      4  C   UNL     1       5.089  10.820  -0.298  1.00  0.00     0.251 C 
ATOM      5  O   UNL     1       5.219  12.013  -0.567  1.00  0.00    -0.269 OA
ATOM      6  H   UNL     1       5.766  11.087   1.563  1.00  0.00     0.163 HD
BRANCH   4   7
ATOM      7  C   UNL     1       4.609   9.891  -1.357  1.00  0.00     0.043 A 
ATOM      8  C   UNL     1       3.667   7.736  -2.028  1.00  0.00    -0.015 A 
ATOM      9  C   UNL     1       4.027   8.015  -3.351  1.00  0.00     0.048 A 
ATOM     10  C   UNL     1       3.874   8.739  -1.066  1.00  0.00     0.022 A 
ATOM     11  C   UNL     1       4.627   9.232  -3.670  1.00  0.00     0.124 A 
ATOM     12  F   UNL     1       4.959   9.483  -4.943  1.00  0.00    -0.207 F 
ATOM     13  C   UNL     1       4.947  10.159  -2.685  1.00  0.00     0.053 A 
BRANCH   8  14
ATOM     14  C   UNL     1       3.239   6.396  -1.587  1.00  0.00    -0.018 A 
ATOM     15  C   UNL     1       2.664   3.864  -0.487  1.00  0.00     0.060 A 
ATOM     16  C   UNL     1       3.722   4.007  -1.385  1.00  0.00     0.016 A 
ATOM     17  C   UNL     1       1.884   4.970  -0.140  1.00  0.00     0.016 A 
ATOM     18  C   UNL     1       3.998   5.262  -1.937  1.00  0.00     0.009 A 
ATOM     19  C   UNL     1       2.171   6.224  -0.689  1.00  0.00     0.009 A 
BRANCH  15  20
ATOM     20  C   UNL     1       2.426   2.541   0.128  1.00  0.00     0.338 C 
ATOM     21  O   UNL     1       3.316   1.784   0.468  1.00  0.00    -0.246 OA
BRANCH  20  22
ATOM     22  O   UNL     1       1.090   2.327   0.197  1.00  0.00    -0.462 OA
BRANCH  22  23
ATOM     23  C   UNL     1       0.681   1.085   0.787  1.00  0.00     0.230 C 
ATOM     24  C   UNL     1       0.903  -0.085  -0.154  1.00  0.00     0.049 C 
ENDBRANCH  22  23
ENDBRANCH  20  22
ENDBRANCH  15  20
ENDBRANCH   8  14
ENDBRANCH   4   7
ENDBRANCH   2   3
ENDBRANCH   1   2
BRANCH   1  25
ATOM     25  C   UNL     1       6.788   9.554   3.695  1.00  0.00     0.002 C 
BRANCH  25  26
ATOM     26  C   UNL     1       5.581   9.595   4.635  1.00  0.00     0.002 C 
BRANCH  26  27
ATOM     27  C   UNL     1       4.987   8.244   5.040  1.00  0.00     0.021 C 
BRANCH  27  28
ATOM     28  C   UNL     1       5.967   7.238   5.634  1.00  0.00     0.116 C 
BRANCH  28  29
ATOM     29  N   UNL     1       6.597   7.716   6.853  1.00  0.00    -0.352 N 
ATOM     30  C   UNL     1       6.679   7.124   8.089  1.00  0.00     0.251 C 
ATOM     31  H   UNL     1       7.031   8.597   6.781  1.00  0.00     0.163 HD
ATOM     32  O   UNL     1       7.124   7.755   9.043  1.00  0.00    -0.269 OA
BRANCH  30  33
ATOM     33  C   UNL     1       6.208   5.735   8.284  1.00  0.00     0.039 A 
ATOM     34  C   UNL     1       5.445   5.437   9.417  1.00  0.00     0.014 A 
ATOM     35  C   UNL     1       6.529   4.724   7.373  1.00  0.00     0.014 A 
ATOM     36  C   UNL     1       4.955   4.143   9.605  1.00  0.00     0.010 A 
ATOM     37  C   UNL     1       5.977   3.454   7.522  1.00  0.00     0.010 A 
ATOM     38  C   UNL     1       5.189   3.148   8.642  1.00  0.00    -0.014 A 
BRANCH  38  39
ATOM     39  C   UNL     1       4.619   1.784   8.792  1.00  0.00     0.031 A 
ATOM     40  C   UNL     1       5.527   0.595   8.948  1.00  0.00     0.074 A 
ATOM     41  C   UNL     1       3.284   1.608   8.731  1.00  0.00     0.049 A 
ATOM     42  N   UNL     1       5.221  -0.675   9.033  1.00  0.00    -0.248 NA
ATOM     43  C   UNL     1       6.972   0.868   8.991  1.00  0.00     0.031 C 
ATOM     44  C   UNL     1       2.298   2.674   8.540  1.00  0.00     0.029 A 
ATOM     45  N   UNL     1       2.527   0.466   8.812  1.00  0.00    -0.354 N 
ATOM     46  C   UNL     1       6.431  -1.351   9.125  1.00  0.00     0.074 A 
ATOM     47  C   UNL     1       7.478  -0.356   9.031  1.00  0.00     0.031 C 
ATOM     48  C   UNL     1       1.067   2.139   8.542  1.00  0.00     0.029 A 
ATOM     49  C   UNL     1       1.176   0.691   8.692  1.00  0.00     0.049 A 
ATOM     50  H   UNL     1       2.914  -0.429   8.944  1.00  0.00     0.167 HD
ATOM     51  C   UNL     1       6.651  -2.676   9.295  1.00  0.00     0.037 A 
ATOM     52  C   UNL     1       0.143  -0.173   8.694  1.00  0.00     0.037 A 
ATOM     53  C   UNL     1       5.607  -3.662   9.406  1.00  0.00     0.049 A 
ATOM     54  C   UNL     1       0.415  -1.642   8.868  1.00  0.00     0.074 A 
ATOM     55  C   UNL     1       5.726  -5.021   9.636  1.00  0.00     0.029 A 
ATOM     56  N   UNL     1       4.251  -3.393   9.289  1.00  0.00    -0.354 N 
ATOM     57  N   UNL     1       1.561  -2.259   9.023  1.00  0.00    -0.248 NA
ATOM     58  C   UNL     1      -0.753  -2.535   8.872  1.00  0.00     0.031 C 
ATOM     59  C   UNL     1       4.445  -5.583   9.607  1.00  0.00     0.029 A 
ATOM     60  C   UNL     1       3.524  -4.566   9.416  1.00  0.00     0.049 A 
ATOM     61  H   UNL     1       3.863  -2.501   9.137  1.00  0.00     0.167 HD
ATOM     62  C   UNL     1       1.252  -3.605   9.173  1.00  0.00     0.074 A 
ATOM     63  C   UNL     1      -0.191  -3.712   9.105  1.00  0.00     0.031 C 
ATOM     64  C   UNL     1       2.088  -4.657   9.352  1.00  0.00     0.037 A 
BRANCH  51  65
ATOM     65  C   UNL     1       8.078  -3.139   9.372  1.00  0.00     0.057 A 
ATOM     66  C   UNL     1       8.897  -2.834  10.467  1.00  0.00     0.134 A 
ATOM     67  C   UNL     1       8.631  -3.928   8.355  1.00  0.00     0.134 A 
ATOM     68  F   UNL     1       8.435  -2.074  11.472  1.00  0.00    -0.206 F 
ATOM     69  C   UNL     1      10.221  -3.272  10.535  1.00  0.00     0.040 A 
ATOM     70  C   UNL     1       9.944  -4.396   8.425  1.00  0.00     0.040 A 
ATOM     71  F   UNL     1       7.901  -4.265   7.280  1.00  0.00    -0.206 F 
ATOM     72  C   UNL     1      10.746  -4.062   9.514  1.00  0.00     0.006 A 
ENDBRANCH  51  65
BRANCH  52  73
ATOM     73  C   UNL     1      -1.247   0.328   8.545  1.00  0.00     0.057 A 
ATOM     74  C   UNL     1      -2.153   0.271   9.611  1.00  0.00     0.134 A 
ATOM     75  C   UNL     1      -1.707   0.864   7.337  1.00  0.00     0.134 A 
ATOM     76  F   UNL     1      -1.778  -0.248  10.789  1.00  0.00    -0.206 F 
ATOM     77  C   UNL     1      -3.472   0.707   9.474  1.00  0.00     0.040 A 
ATOM     78  C   UNL     1      -3.016   1.329   7.194  1.00  0.00     0.040 A 
ATOM     79  F   UNL     1      -0.887   0.954   6.279  1.00  0.00    -0.206 F 
ATOM     80  C   UNL     1      -3.905   1.243   8.263  1.00  0.00     0.006 A 
ENDBRANCH  52  73
BRANCH  64  81
ATOM     81  C   UNL     1       1.462  -6.011   9.526  1.00  0.00     0.057 A 
ATOM     82  C   UNL     1       0.851  -6.689   8.463  1.00  0.00     0.134 A 
ATOM     83  C   UNL     1       1.508  -6.662  10.766  1.00  0.00     0.134 A 
ATOM     84  F   UNL     1       0.762  -6.116   7.253  1.00  0.00    -0.206 F 
ATOM     85  C   UNL     1       0.287  -7.954   8.633  1.00  0.00     0.040 A 
ATOM     86  C   UNL     1       0.974  -7.939  10.941  1.00  0.00     0.040 A 
ATOM     87  F   UNL     1       2.087  -6.074  11.824  1.00  0.00    -0.206 F 
ATOM     88  C   UNL     1       0.354  -8.586   9.874  1.00  0.00     0.006 A 
ENDBRANCH  64  81
ENDBRANCH  38  39
ENDBRANCH  30  33
ENDBRANCH  28  29
ENDBRANCH  27  28
ENDBRANCH  26  27
ENDBRANCH  25  26
ENDBRANCH   1  25
TORSDOF 17
