REMARK SMILES Cc1c(CC(=O)NCCCCCCNC(=O)c2ccc(-c3c4nc(c(-c5c(F)cccc5F)c5ccc([nH]5)c(-c5c(F)cccc5F)c5nc(c(-c6c(F)cccc6F)c6ccc3[nH]6)C=C5)C=C4)cc2)c2ccccc2n1C(=O)c1ccc(Cl)cc1
REMARK SMILES IDX 10 1 9 2 8 3 7 4 5 5 6 6 4 8 3 9 1 10 2 11 77 12 71 13 76 14
REMARK SMILES IDX 72 15 75 16 73 17 74 18 78 19 79 20 80 21 81 22 86 23 82 24
REMARK SMILES IDX 85 25 83 26 84 27 11 28 12 29 13 30 14 31 15 32 16 34 17 35
REMARK SMILES IDX 18 36 70 37 19 38 69 39 20 40 21 41 22 42 63 43 23 44 68 45
REMARK SMILES IDX 62 46 64 47 24 48 67 49 61 50 60 51 25 53 51 54 34 55 50 56
REMARK SMILES IDX 35 57 38 58 49 59 65 60 36 61 37 62 48 64 66 65 39 66 26 67
REMARK SMILES IDX 27 68 32 69 28 70 29 71 31 72 33 73 30 74 52 75 53 76 58 77
REMARK SMILES IDX 54 78 55 79 57 80 59 81 56 82 40 83 41 84 46 85 42 86 43 87
REMARK SMILES IDX 45 88 47 89 44 90
REMARK H PARENT 7 7 14 33 64 52 38 63
REMARK Flexibility Score: inf
ROOT
ATOM      1  C   UNL     1      -1.853  -2.704   3.827  1.00  0.00     0.002 C 
ENDROOT
BRANCH   1   2
ATOM      2  C   UNL     1      -1.138  -2.087   2.618  1.00  0.00     0.021 C 
BRANCH   2   3
ATOM      3  C   UNL     1       0.295  -1.651   2.921  1.00  0.00     0.116 C 
BRANCH   3   4
ATOM      4  N   UNL     1       1.171  -2.798   3.046  1.00  0.00    -0.356 N 
ATOM      5  C   UNL     1       2.078  -3.278   2.145  1.00  0.00     0.224 C 
ATOM      6  O   UNL     1       2.658  -4.335   2.405  1.00  0.00    -0.275 OA
ATOM      7  H   UNL     1       1.103  -3.297   3.892  1.00  0.00     0.163 HD
BRANCH   5   8
ATOM      8  C   UNL     1       2.403  -2.480   0.892  1.00  0.00     0.138 C 
BRANCH   8   9
ATOM      9  C   UNL     1       1.274  -2.412  -0.098  1.00  0.00    -0.010 A 
ATOM     10  C   UNL     1       1.123   0.159  -0.453  1.00  0.00     0.065 C 
ATOM     11  C   UNL     1       0.717  -1.268  -0.656  1.00  0.00     0.028 A 
ATOM     12  N   UNL     1      -0.376  -1.642  -1.451  1.00  0.00    -0.280 N 
ATOM     13  C   UNL     1       0.614  -3.527  -0.688  1.00  0.00     0.004 A 
ATOM     14  C   UNL     1      -0.334  -3.037  -1.593  1.00  0.00     0.056 A 
ATOM     15  C   UNL     1       0.773  -4.924  -0.541  1.00  0.00     0.010 A 
ATOM     16  C   UNL     1      -1.053  -3.934  -2.413  1.00  0.00     0.027 A 
ATOM     17  C   UNL     1       0.005  -5.804  -1.304  1.00  0.00     0.001 A 
ATOM     18  C   UNL     1      -0.887  -5.311  -2.241  1.00  0.00     0.002 A 
BRANCH  12  19
ATOM     19  C   UNL     1      -1.348  -0.743  -1.988  1.00  0.00     0.262 C 
ATOM     20  O   UNL     1      -1.268   0.445  -1.736  1.00  0.00    -0.268 OA
BRANCH  19  21
ATOM     21  C   UNL     1      -2.482  -1.145  -2.840  1.00  0.00     0.040 A 
ATOM     22  C   UNL     1      -3.551  -1.878  -2.314  1.00  0.00     0.015 A 
ATOM     23  C   UNL     1      -2.447  -0.792  -4.193  1.00  0.00     0.015 A 
ATOM     24  C   UNL     1      -4.552  -2.334  -3.175  1.00  0.00     0.021 A 
ATOM     25  C   UNL     1      -3.454  -1.244  -5.045  1.00  0.00     0.021 A 
ATOM     26  C   UNL     1      -4.491  -2.028  -4.537  1.00  0.00     0.041 A 
ATOM     27  Cl  UNL     1      -5.692  -2.643  -5.603  1.00  0.00    -0.084 Cl
ENDBRANCH  19  21
ENDBRANCH  12  19
ENDBRANCH   8   9
ENDBRANCH   5   8
ENDBRANCH   3   4
ENDBRANCH   2   3
ENDBRANCH   1   2
BRANCH   1  28
ATOM     28  C   UNL     1      -2.072  -1.742   4.999  1.00  0.00     0.002 C 
BRANCH  28  29
ATOM     29  C   UNL     1      -2.818  -0.454   4.644  1.00  0.00     0.021 C 
BRANCH  29  30
ATOM     30  C   UNL     1      -4.174  -0.677   3.970  1.00  0.00     0.116 C 
BRANCH  30  31
ATOM     31  N   UNL     1      -5.122  -1.425   4.772  1.00  0.00    -0.352 N 
ATOM     32  C   UNL     1      -5.948  -1.109   5.816  1.00  0.00     0.251 C 
ATOM     33  H   UNL     1      -5.185  -2.371   4.508  1.00  0.00     0.163 HD
ATOM     34  O   UNL     1      -6.717  -1.992   6.201  1.00  0.00    -0.269 OA
BRANCH  32  35
ATOM     35  C   UNL     1      -5.915   0.182   6.555  1.00  0.00     0.039 A 
ATOM     36  C   UNL     1      -5.228   1.323   6.146  1.00  0.00     0.014 A 
ATOM     37  C   UNL     1      -6.583   0.207   7.793  1.00  0.00     0.014 A 
ATOM     38  C   UNL     1      -5.066   2.394   7.010  1.00  0.00     0.010 A 
ATOM     39  C   UNL     1      -6.471   1.301   8.644  1.00  0.00     0.010 A 
ATOM     40  C   UNL     1      -5.652   2.364   8.275  1.00  0.00    -0.014 A 
BRANCH  40  41
ATOM     41  C   UNL     1      -5.418   3.516   9.138  1.00  0.00     0.031 A 
ATOM     42  C   UNL     1      -5.882   4.823   8.592  1.00  0.00     0.074 A 
ATOM     43  C   UNL     1      -4.884   3.412  10.370  1.00  0.00     0.049 A 
ATOM     44  N   UNL     1      -5.188   5.889   8.347  1.00  0.00    -0.248 NA
ATOM     45  C   UNL     1      -7.288   4.913   8.169  1.00  0.00     0.031 C 
ATOM     46  C   UNL     1      -4.627   2.191  11.138  1.00  0.00     0.029 A 
ATOM     47  N   UNL     1      -4.548   4.404  11.241  1.00  0.00    -0.354 N 
ATOM     48  C   UNL     1      -6.101   6.847   7.904  1.00  0.00     0.074 A 
ATOM     49  C   UNL     1      -7.344   6.155   7.688  1.00  0.00     0.031 C 
ATOM     50  C   UNL     1      -4.397   2.521  12.428  1.00  0.00     0.029 A 
ATOM     51  C   UNL     1      -4.360   3.969  12.544  1.00  0.00     0.049 A 
ATOM     52  H   UNL     1      -4.449   5.345  10.970  1.00  0.00     0.167 HD
ATOM     53  C   UNL     1      -5.824   8.178   7.957  1.00  0.00     0.037 A 
ATOM     54  C   UNL     1      -4.254   4.742  13.650  1.00  0.00     0.037 A 
ATOM     55  C   UNL     1      -4.407   8.421   8.025  1.00  0.00     0.049 A 
ATOM     56  C   UNL     1      -3.911   6.117  13.219  1.00  0.00     0.074 A 
ATOM     57  C   UNL     1      -3.321   8.172   7.209  1.00  0.00     0.029 A 
ATOM     58  N   UNL     1      -3.879   8.783   9.238  1.00  0.00    -0.354 N 
ATOM     59  N   UNL     1      -2.757   6.467  12.729  1.00  0.00    -0.248 NA
ATOM     60  C   UNL     1      -5.001   7.048  12.969  1.00  0.00     0.031 C 
ATOM     61  C   UNL     1      -2.228   7.947   8.097  1.00  0.00     0.029 A 
ATOM     62  C   UNL     1      -2.708   8.095   9.398  1.00  0.00     0.049 A 
ATOM     63  H   UNL     1      -4.272   9.421   9.877  1.00  0.00     0.167 HD
ATOM     64  C   UNL     1      -3.056   7.416  11.763  1.00  0.00     0.074 A 
ATOM     65  C   UNL     1      -4.431   7.820  12.041  1.00  0.00     0.031 C 
ATOM     66  C   UNL     1      -2.259   7.575  10.666  1.00  0.00     0.037 A 
BRANCH  53  67
ATOM     67  C   UNL     1      -6.832   9.234   8.370  1.00  0.00     0.057 A 
ATOM     68  C   UNL     1      -8.030   8.962   9.062  1.00  0.00     0.134 A 
ATOM     69  C   UNL     1      -6.431  10.585   8.390  1.00  0.00     0.134 A 
ATOM     70  F   UNL     1      -8.546   7.733   9.160  1.00  0.00    -0.206 F 
ATOM     71  C   UNL     1      -8.724   9.935   9.787  1.00  0.00     0.040 A 
ATOM     72  C   UNL     1      -7.091  11.556   9.154  1.00  0.00     0.040 A 
ATOM     73  F   UNL     1      -5.320  10.985   7.752  1.00  0.00    -0.206 F 
ATOM     74  C   UNL     1      -8.231  11.226   9.873  1.00  0.00     0.006 A 
ENDBRANCH  53  67
BRANCH  54  75
ATOM     75  C   UNL     1      -4.691   4.431  15.027  1.00  0.00     0.057 A 
ATOM     76  C   UNL     1      -5.797   3.597  15.272  1.00  0.00     0.134 A 
ATOM     77  C   UNL     1      -4.199   5.144  16.128  1.00  0.00     0.134 A 
ATOM     78  F   UNL     1      -6.401   2.936  14.275  1.00  0.00    -0.206 F 
ATOM     79  C   UNL     1      -6.381   3.480  16.536  1.00  0.00     0.040 A 
ATOM     80  C   UNL     1      -4.782   5.044  17.398  1.00  0.00     0.040 A 
ATOM     81  F   UNL     1      -3.177   5.999  15.984  1.00  0.00    -0.206 F 
ATOM     82  C   UNL     1      -5.882   4.215  17.603  1.00  0.00     0.006 A 
ENDBRANCH  54  75
BRANCH  66  83
ATOM     83  C   UNL     1      -0.909   6.921  10.694  1.00  0.00     0.057 A 
ATOM     84  C   UNL     1       0.231   7.717  10.555  1.00  0.00     0.134 A 
ATOM     85  C   UNL     1      -0.718   5.532  10.735  1.00  0.00     0.134 A 
ATOM     86  F   UNL     1       0.117   9.050  10.446  1.00  0.00    -0.206 F 
ATOM     87  C   UNL     1       1.510   7.162  10.481  1.00  0.00     0.040 A 
ATOM     88  C   UNL     1       0.559   4.965  10.697  1.00  0.00     0.040 A 
ATOM     89  F   UNL     1      -1.759   4.689  10.762  1.00  0.00    -0.206 F 
ATOM     90  C   UNL     1       1.678   5.782  10.566  1.00  0.00     0.006 A 
ENDBRANCH  66  83
ENDBRANCH  40  41
ENDBRANCH  32  35
ENDBRANCH  30  31
ENDBRANCH  29  30
ENDBRANCH  28  29
ENDBRANCH   1  28
TORSDOF 16
