REMARK SMILES O=C(CSc1nc(O)cc(=O)[nH]1)Nc1cccc(C(=O)NCCCCCCNC(=O)c2ccc(-c3c4nc(c(-c5c(F)cccc5F)c5ccc([nH]5)c(-c5c(F)cccc5F)c5nc(c(-c6c(F)cccc6F)c6ccc3[nH]6)C=C5)C=C4)cc2)c1
REMARK SMILES IDX 23 1 22 2 21 3 19 4 20 5 18 7 14 8 15 9 85 10 16 11 17 12
REMARK SMILES IDX 13 13 1 14 2 15 3 17 4 18 5 19 6 20 12 21 7 22 10 23 9 25
REMARK SMILES IDX 11 26 8 27 24 29 25 30 26 31 27 32 28 33 29 34 30 36 31 37
REMARK SMILES IDX 32 38 84 39 33 40 83 41 34 42 35 43 36 44 77 45 37 46 82 47
REMARK SMILES IDX 76 48 78 49 38 50 81 51 75 52 74 53 39 55 65 56 48 57 64 58
REMARK SMILES IDX 49 59 52 60 63 61 79 62 50 63 51 64 62 66 80 67 53 68 40 69
REMARK SMILES IDX 41 70 46 71 42 72 43 73 45 74 47 75 44 76 66 77 67 78 72 79
REMARK SMILES IDX 68 80 69 81 71 82 73 83 70 84 54 85 55 86 60 87 56 88 57 89
REMARK SMILES IDX 59 90 61 91 58 92
REMARK H PARENT 21 6 13 16 12 24 8 28 28 35 78 54 52 65
REMARK Flexibility Score: inf
ROOT
ATOM      1  C   UNL     1       0.089  -4.035  -1.964  1.00  0.00     0.021 C 
ENDROOT
BRANCH   1   2
ATOM      2  C   UNL     1      -0.145  -3.264  -0.672  1.00  0.00     0.116 C 
BRANCH   2   3
ATOM      3  N   UNL     1      -0.796  -4.027   0.384  1.00  0.00    -0.352 N 
ATOM      4  C   UNL     1      -0.562  -4.051   1.745  1.00  0.00     0.251 C 
ATOM      5  O   UNL     1      -1.227  -4.803   2.455  1.00  0.00    -0.269 OA
ATOM      6  H   UNL     1      -1.519  -4.621   0.078  1.00  0.00     0.163 HD
BRANCH   4   7
ATOM      7  C   UNL     1       0.534  -3.251   2.357  1.00  0.00     0.041 A 
ATOM      8  C   UNL     1       2.140  -1.461   2.147  1.00  0.00     0.041 A 
ATOM      9  C   UNL     1       2.887  -2.017   3.190  1.00  0.00     0.026 A 
ATOM     10  C   UNL     1       0.897  -2.005   1.847  1.00  0.00     0.040 A 
ATOM     11  C   UNL     1       2.429  -3.160   3.853  1.00  0.00     0.003 A 
ATOM     12  C   UNL     1       1.273  -3.803   3.407  1.00  0.00     0.014 A 
BRANCH   8  13
ATOM     13  N   UNL     1       2.736  -0.451   1.362  1.00  0.00    -0.325 N 
ATOM     14  O   UNL     1       1.128  -0.098  -0.294  1.00  0.00    -0.274 OA
ATOM     15  C   UNL     1       2.232   0.119   0.197  1.00  0.00     0.234 C 
ATOM     16  H   UNL     1       3.606  -0.112   1.674  1.00  0.00     0.169 HD
BRANCH  15  17
ATOM     17  C   UNL     1       3.208   1.038  -0.521  1.00  0.00     0.178 C 
BRANCH  17  18
ATOM     18  S   UNL     1       4.307   1.925   0.615  1.00  0.00    -0.078 SA
BRANCH  18  19
ATOM     19  C   UNL     1       3.198   3.052   1.336  1.00  0.00     0.172 A 
ATOM     20  N   UNL     1       3.348   4.318   1.141  1.00  0.00    -0.189 NA
ATOM     21  N   UNL     1       2.251   2.505   2.144  1.00  0.00    -0.301 N 
ATOM     22  C   UNL     1       2.490   5.134   1.818  1.00  0.00     0.218 A 
ATOM     23  C   UNL     1       1.360   3.278   2.823  1.00  0.00     0.255 A 
ATOM     24  H   UNL     1       2.209   1.526   2.240  1.00  0.00     0.172 HD
ATOM     25  C   UNL     1       1.519   4.723   2.635  1.00  0.00     0.139 A 
ATOM     26  O   UNL     1       0.501   2.809   3.553  1.00  0.00    -0.269 OA
BRANCH  22  27
ATOM     27  O   UNL     1       2.699   6.476   1.642  1.00  0.00    -0.493 OA
ATOM     28  H   UNL     1       3.379   6.773   1.070  1.00  0.00     0.295 HD
ENDBRANCH  22  27
ENDBRANCH  18  19
ENDBRANCH  17  18
ENDBRANCH  15  17
ENDBRANCH   8  13
ENDBRANCH   4   7
ENDBRANCH   2   3
ENDBRANCH   1   2
BRANCH   1  29
ATOM     29  C   UNL     1      -1.160  -4.467  -2.728  1.00  0.00     0.002 C 
BRANCH  29  30
ATOM     30  C   UNL     1      -2.155  -3.357  -3.075  1.00  0.00     0.002 C 
BRANCH  30  31
ATOM     31  C   UNL     1      -1.581  -2.136  -3.797  1.00  0.00     0.021 C 
BRANCH  31  32
ATOM     32  C   UNL     1      -0.806  -2.434  -5.075  1.00  0.00     0.116 C 
BRANCH  32  33
ATOM     33  N   UNL     1      -1.625  -3.064  -6.097  1.00  0.00    -0.352 N 
ATOM     34  C   UNL     1      -1.810  -2.702  -7.409  1.00  0.00     0.251 C 
ATOM     35  H   UNL     1      -2.119  -3.866  -5.807  1.00  0.00     0.163 HD
ATOM     36  O   UNL     1      -2.661  -3.257  -8.094  1.00  0.00    -0.269 OA
BRANCH  34  37
ATOM     37  C   UNL     1      -0.988  -1.619  -7.991  1.00  0.00     0.039 A 
ATOM     38  C   UNL     1      -1.612  -0.622  -8.746  1.00  0.00     0.014 A 
ATOM     39  C   UNL     1       0.395  -1.586  -7.790  1.00  0.00     0.014 A 
ATOM     40  C   UNL     1      -0.858   0.443  -9.245  1.00  0.00     0.010 A 
ATOM     41  C   UNL     1       1.130  -0.487  -8.221  1.00  0.00     0.010 A 
ATOM     42  C   UNL     1       0.513   0.537  -8.958  1.00  0.00    -0.014 A 
BRANCH  42  43
ATOM     43  C   UNL     1       1.335   1.679  -9.437  1.00  0.00     0.031 A 
ATOM     44  C   UNL     1       2.472   1.431 -10.391  1.00  0.00     0.074 A 
ATOM     45  C   UNL     1       1.104   2.921  -8.968  1.00  0.00     0.049 A 
ATOM     46  N   UNL     1       3.382   2.263 -10.830  1.00  0.00    -0.248 NA
ATOM     47  C   UNL     1       2.621   0.056 -10.897  1.00  0.00     0.031 C 
ATOM     48  C   UNL     1       0.047   3.291  -8.025  1.00  0.00     0.029 A 
ATOM     49  N   UNL     1       1.756   4.105  -9.214  1.00  0.00    -0.354 N 
ATOM     50  C   UNL     1       4.211   1.513 -11.656  1.00  0.00     0.074 A 
ATOM     51  C   UNL     1       3.737   0.147 -11.605  1.00  0.00     0.031 C 
ATOM     52  C   UNL     1       0.111   4.612  -7.788  1.00  0.00     0.029 A 
ATOM     53  C   UNL     1       1.240   5.175  -8.522  1.00  0.00     0.049 A 
ATOM     54  H   UNL     1       2.522   4.180  -9.828  1.00  0.00     0.167 HD
ATOM     55  C   UNL     1       5.253   1.929 -12.413  1.00  0.00     0.037 A 
ATOM     56  C   UNL     1       1.643   6.459  -8.474  1.00  0.00     0.037 A 
ATOM     57  C   UNL     1       5.713   3.291 -12.475  1.00  0.00     0.049 A 
ATOM     58  C   UNL     1       2.840   6.882  -9.284  1.00  0.00     0.074 A 
ATOM     59  C   UNL     1       6.752   3.817 -13.224  1.00  0.00     0.029 A 
ATOM     60  N   UNL     1       5.157   4.345 -11.766  1.00  0.00    -0.354 N 
ATOM     61  N   UNL     1       3.592   6.170 -10.088  1.00  0.00    -0.248 NA
ATOM     62  C   UNL     1       3.244   8.293  -9.183  1.00  0.00     0.031 C 
ATOM     63  C   UNL     1       6.851   5.181 -12.936  1.00  0.00     0.029 A 
ATOM     64  C   UNL     1       5.839   5.515 -12.052  1.00  0.00     0.049 A 
ATOM     65  H   UNL     1       4.392   4.271 -11.151  1.00  0.00     0.167 HD
ATOM     66  C   UNL     1       4.521   7.053 -10.624  1.00  0.00     0.074 A 
ATOM     67  C   UNL     1       4.237   8.354 -10.058  1.00  0.00     0.031 C 
ATOM     68  C   UNL     1       5.519   6.810 -11.508  1.00  0.00     0.037 A 
BRANCH  55  69
ATOM     69  C   UNL     1       5.959   0.901 -13.249  1.00  0.00     0.057 A 
ATOM     70  C   UNL     1       5.347   0.318 -14.367  1.00  0.00     0.134 A 
ATOM     71  C   UNL     1       7.278   0.524 -12.966  1.00  0.00     0.134 A 
ATOM     72  F   UNL     1       4.081   0.626 -14.686  1.00  0.00    -0.206 F 
ATOM     73  C   UNL     1       6.013  -0.617 -15.160  1.00  0.00     0.040 A 
ATOM     74  C   UNL     1       7.965  -0.388 -13.770  1.00  0.00     0.040 A 
ATOM     75  F   UNL     1       7.926   1.048 -11.915  1.00  0.00    -0.206 F 
ATOM     76  C   UNL     1       7.330  -0.965 -14.867  1.00  0.00     0.006 A 
ENDBRANCH  55  69
BRANCH  56  77
ATOM     77  C   UNL     1       0.914   7.452  -7.642  1.00  0.00     0.057 A 
ATOM     78  C   UNL     1       0.224   8.519  -8.232  1.00  0.00     0.134 A 
ATOM     79  C   UNL     1       0.935   7.397  -6.243  1.00  0.00     0.134 A 
ATOM     80  F   UNL     1       0.182   8.640  -9.567  1.00  0.00    -0.206 F 
ATOM     81  C   UNL     1      -0.385   9.514  -7.464  1.00  0.00     0.040 A 
ATOM     82  C   UNL     1       0.304   8.367  -5.462  1.00  0.00     0.040 A 
ATOM     83  F   UNL     1       1.572   6.398  -5.613  1.00  0.00    -0.206 F 
ATOM     84  C   UNL     1      -0.346   9.438  -6.073  1.00  0.00     0.006 A 
ENDBRANCH  56  77
BRANCH  68  85
ATOM     85  C   UNL     1       6.331   7.982 -11.978  1.00  0.00     0.057 A 
ATOM     86  C   UNL     1       7.252   8.633 -11.149  1.00  0.00     0.134 A 
ATOM     87  C   UNL     1       6.222   8.429 -13.302  1.00  0.00     0.134 A 
ATOM     88  F   UNL     1       7.396   8.262  -9.868  1.00  0.00    -0.206 F 
ATOM     89  C   UNL     1       8.021   9.702 -11.613  1.00  0.00     0.040 A 
ATOM     90  C   UNL     1       7.007   9.476 -13.786  1.00  0.00     0.040 A 
ATOM     91  F   UNL     1       5.366   7.842 -14.152  1.00  0.00    -0.206 F 
ATOM     92  C   UNL     1       7.905  10.120 -12.938  1.00  0.00     0.006 A 
ENDBRANCH  68  85
ENDBRANCH  42  43
ENDBRANCH  34  37
ENDBRANCH  32  33
ENDBRANCH  31  32
ENDBRANCH  30  31
ENDBRANCH  29  30
ENDBRANCH   1  29
TORSDOF 18
