REMARK SMILES O=C(NCCCCCCNC(=O)c1ccc(CNC(=O)c2cccnc2)o1)c1ccc(-c2c3nc(c(-c4c(F)cccc4F)c4ccc([nH]4)c(-c4c(F)cccc4F)c4nc(c(-c5c(F)cccc5F)c5ccc2[nH]5)C=C4)C=C3)cc1
REMARK SMILES IDX 7 1 6 2 5 3 4 4 3 5 1 6 2 7 28 9 29 10 81 11 30 12 80 13
REMARK SMILES IDX 31 14 32 15 33 16 74 17 34 18 79 19 73 20 75 21 35 22 78 23
REMARK SMILES IDX 72 24 71 25 36 27 62 28 45 29 61 30 46 31 49 32 60 33 76 34
REMARK SMILES IDX 47 35 48 36 59 38 77 39 50 40 37 41 38 42 43 43 39 44 40 45
REMARK SMILES IDX 42 46 44 47 41 48 63 49 64 50 69 51 65 52 66 53 68 54 70 55
REMARK SMILES IDX 67 56 51 57 52 58 57 59 53 60 54 61 56 62 58 63 55 64 8 65
REMARK SMILES IDX 9 66 10 67 11 68 12 70 13 71 14 72 27 73 15 74 16 75 17 76
REMARK SMILES IDX 18 77 19 78 20 80 21 81 22 82 26 83 23 84 25 85 24 86
REMARK H PARENT 3 8 75 26 49 37 10 69 18 79
REMARK Flexibility Score: inf
ROOT
ATOM      1  C   UNL     1       4.868  -2.360  -3.711  1.00  0.00     0.002 C 
ENDROOT
BRANCH   1   2
ATOM      2  C   UNL     1       4.251  -3.057  -2.494  1.00  0.00     0.002 C 
BRANCH   2   3
ATOM      3  C   UNL     1       4.696  -2.525  -1.131  1.00  0.00     0.021 C 
BRANCH   3   4
ATOM      4  C   UNL     1       4.491  -1.030  -0.917  1.00  0.00     0.116 C 
BRANCH   4   5
ATOM      5  N   UNL     1       3.090  -0.644  -0.896  1.00  0.00    -0.352 N 
ATOM      6  O   UNL     1       1.183   0.207  -0.040  1.00  0.00    -0.269 OA
ATOM      7  C   UNL     1       2.401   0.087   0.043  1.00  0.00     0.251 C 
ATOM      8  H   UNL     1       2.558  -0.950  -1.666  1.00  0.00     0.163 HD
BRANCH   7   9
ATOM      9  C   UNL     1       3.125   0.702   1.178  1.00  0.00     0.039 A 
ATOM     10  C   UNL     1       4.327   1.383   0.978  1.00  0.00     0.014 A 
ATOM     11  C   UNL     1       2.592   0.589   2.466  1.00  0.00     0.014 A 
ATOM     12  C   UNL     1       5.070   1.809   2.073  1.00  0.00     0.010 A 
ATOM     13  C   UNL     1       3.300   1.095   3.561  1.00  0.00     0.010 A 
ATOM     14  C   UNL     1       4.566   1.672   3.378  1.00  0.00    -0.014 A 
BRANCH  14  15
ATOM     15  C   UNL     1       5.371   2.171   4.522  1.00  0.00     0.031 A 
ATOM     16  C   UNL     1       5.922   1.230   5.558  1.00  0.00     0.074 A 
ATOM     17  C   UNL     1       5.645   3.488   4.598  1.00  0.00     0.049 A 
ATOM     18  N   UNL     1       6.697   1.493   6.582  1.00  0.00    -0.248 NA
ATOM     19  C   UNL     1       5.552  -0.189   5.439  1.00  0.00     0.031 C 
ATOM     20  C   UNL     1       5.155   4.504   3.663  1.00  0.00     0.029 A 
ATOM     21  N   UNL     1       6.422   4.194   5.479  1.00  0.00    -0.354 N 
ATOM     22  C   UNL     1       6.885   0.284   7.240  1.00  0.00     0.074 A 
ATOM     23  C   UNL     1       6.128  -0.712   6.513  1.00  0.00     0.031 C 
ATOM     24  C   UNL     1       5.690   5.690   3.984  1.00  0.00     0.029 A 
ATOM     25  C   UNL     1       6.516   5.531   5.176  1.00  0.00     0.049 A 
ATOM     26  H   UNL     1       6.869   3.784   6.255  1.00  0.00     0.167 HD
ATOM     27  C   UNL     1       7.627   0.028   8.345  1.00  0.00     0.037 A 
ATOM     28  C   UNL     1       7.191   6.520   5.789  1.00  0.00     0.037 A 
ATOM     29  C   UNL     1       8.402   1.015   9.053  1.00  0.00     0.049 A 
ATOM     30  C   UNL     1       8.004   6.207   7.010  1.00  0.00     0.074 A 
ATOM     31  C   UNL     1       9.227   0.840  10.151  1.00  0.00     0.029 A 
ATOM     32  N   UNL     1       8.445   2.364   8.734  1.00  0.00    -0.354 N 
ATOM     33  N   UNL     1       8.207   5.051   7.592  1.00  0.00    -0.248 NA
ATOM     34  C   UNL     1       8.677   7.339   7.661  1.00  0.00     0.031 C 
ATOM     35  C   UNL     1       9.738   2.089  10.521  1.00  0.00     0.029 A 
ATOM     36  C   UNL     1       9.264   3.036   9.627  1.00  0.00     0.049 A 
ATOM     37  H   UNL     1       7.964   2.783   7.984  1.00  0.00     0.167 HD
ATOM     38  C   UNL     1       9.045   5.311   8.667  1.00  0.00     0.074 A 
ATOM     39  C   UNL     1       9.326   6.733   8.645  1.00  0.00     0.031 C 
ATOM     40  C   UNL     1       9.536   4.450   9.591  1.00  0.00     0.037 A 
BRANCH  27  41
ATOM     41  C   UNL     1       7.624  -1.377   8.873  1.00  0.00     0.057 A 
ATOM     42  C   UNL     1       8.307  -2.415   8.226  1.00  0.00     0.134 A 
ATOM     43  C   UNL     1       6.964  -1.686  10.069  1.00  0.00     0.134 A 
ATOM     44  F   UNL     1       8.951  -2.189   7.071  1.00  0.00    -0.206 F 
ATOM     45  C   UNL     1       8.317  -3.714   8.740  1.00  0.00     0.040 A 
ATOM     46  C   UNL     1       6.984  -2.975  10.604  1.00  0.00     0.040 A 
ATOM     47  F   UNL     1       6.296  -0.737  10.743  1.00  0.00    -0.206 F 
ATOM     48  C   UNL     1       7.659  -3.995   9.936  1.00  0.00     0.006 A 
ENDBRANCH  27  41
BRANCH  28  49
ATOM     49  C   UNL     1       7.137   7.897   5.241  1.00  0.00     0.057 A 
ATOM     50  C   UNL     1       8.254   8.471   4.624  1.00  0.00     0.134 A 
ATOM     51  C   UNL     1       5.968   8.664   5.308  1.00  0.00     0.134 A 
ATOM     52  F   UNL     1       9.406   7.790   4.545  1.00  0.00    -0.206 F 
ATOM     53  C   UNL     1       8.214   9.765   4.102  1.00  0.00     0.040 A 
ATOM     54  C   UNL     1       5.906   9.949   4.768  1.00  0.00     0.040 A 
ATOM     55  F   UNL     1       4.862   8.165   5.880  1.00  0.00    -0.206 F 
ATOM     56  C   UNL     1       7.034  10.504   4.167  1.00  0.00     0.006 A 
ENDBRANCH  28  49
BRANCH  40  57
ATOM     57  C   UNL     1      10.447   5.023  10.634  1.00  0.00     0.057 A 
ATOM     58  C   UNL     1       9.963   5.817  11.681  1.00  0.00     0.134 A 
ATOM     59  C   UNL     1      11.823   4.766  10.597  1.00  0.00     0.134 A 
ATOM     60  F   UNL     1       8.657   6.112  11.763  1.00  0.00    -0.206 F 
ATOM     61  C   UNL     1      10.820   6.358  12.641  1.00  0.00     0.040 A 
ATOM     62  C   UNL     1      12.687   5.282  11.564  1.00  0.00     0.040 A 
ATOM     63  F   UNL     1      12.349   4.008   9.623  1.00  0.00    -0.206 F 
ATOM     64  C   UNL     1      12.186   6.086  12.586  1.00  0.00     0.006 A 
ENDBRANCH  40  57
ENDBRANCH  14  15
ENDBRANCH   7   9
ENDBRANCH   4   5
ENDBRANCH   3   4
ENDBRANCH   2   3
ENDBRANCH   1   2
BRANCH   1  65
ATOM     65  C   UNL     1       6.398  -2.267  -3.723  1.00  0.00     0.021 C 
BRANCH  65  66
ATOM     66  C   UNL     1       7.135  -3.600  -3.600  1.00  0.00     0.116 C 
BRANCH  66  67
ATOM     67  N   UNL     1       6.882  -4.463  -4.737  1.00  0.00    -0.349 N 
ATOM     68  C   UNL     1       7.791  -5.064  -5.578  1.00  0.00     0.286 C 
ATOM     69  H   UNL     1       5.934  -4.643  -4.935  1.00  0.00     0.163 HD
ATOM     70  O   UNL     1       7.362  -5.596  -6.602  1.00  0.00    -0.266 OA
BRANCH  68  71
ATOM     71  C   UNL     1       9.187  -5.042  -5.209  1.00  0.00     0.191 A 
ATOM     72  C   UNL     1       9.855  -5.449  -4.068  1.00  0.00     0.056 A 
ATOM     73  O   UNL     1      10.085  -4.524  -6.100  1.00  0.00    -0.454 OA
ATOM     74  C   UNL     1      11.224  -5.149  -4.267  1.00  0.00     0.048 A 
ATOM     75  C   UNL     1      11.315  -4.571  -5.515  1.00  0.00     0.124 A 
BRANCH  75  76
ATOM     76  C   UNL     1      12.429  -3.963  -6.280  1.00  0.00     0.191 C 
BRANCH  76  77
ATOM     77  N   UNL     1      12.731  -4.775  -7.441  1.00  0.00    -0.345 N 
ATOM     78  C   UNL     1      12.828  -4.394  -8.754  1.00  0.00     0.253 C 
ATOM     79  H   UNL     1      12.887  -5.730  -7.262  1.00  0.00     0.164 HD
ATOM     80  O   UNL     1      12.966  -5.235  -9.636  1.00  0.00    -0.269 OA
BRANCH  78  81
ATOM     81  C   UNL     1      12.750  -2.971  -9.124  1.00  0.00     0.058 A 
ATOM     82  C   UNL     1      13.544  -1.990  -8.528  1.00  0.00     0.017 A 
ATOM     83  C   UNL     1      11.875  -2.592 -10.130  1.00  0.00     0.124 A 
ATOM     84  C   UNL     1      13.385  -0.662  -8.918  1.00  0.00     0.021 A 
ATOM     85  N   UNL     1      11.704  -1.306 -10.529  1.00  0.00    -0.264 NA
ATOM     86  C   UNL     1      12.458  -0.372  -9.908  1.00  0.00     0.111 A 
ENDBRANCH  78  81
ENDBRANCH  76  77
ENDBRANCH  75  76
ENDBRANCH  68  71
ENDBRANCH  66  67
ENDBRANCH  65  66
ENDBRANCH   1  65
TORSDOF 16
