REMARK SMILES Cc1ccc(C)c(N2C(=O)S[C@H](CC(=O)Nc3ccc(C(=O)NCCCCCCNC(=O)c4ccc(-c5c6nc(c(-c7c(F)cccc7F)c7ccc([nH]7)c(-c7c(F)cccc7F)c7nc(c(-c8c(F)cccc8F)c8ccc5[nH]8)C=C7)C=C6)cc4)c(O)c3)C2=O)c1
REMARK SMILES IDX 25 1 24 2 23 3 21 4 22 5 20 7 17 8 18 9 89 10 19 11 87 12
REMARK SMILES IDX 16 13 14 14 15 15 13 17 12 18 8 19 9 20 90 21 10 22 11 23
REMARK SMILES IDX 91 24 7 25 1 26 2 27 3 28 92 29 4 30 5 31 6 32 88 33 26 35
REMARK SMILES IDX 27 36 28 37 29 38 30 39 31 40 32 42 33 43 34 44 86 45 35 46
REMARK SMILES IDX 85 47 36 48 37 49 38 50 79 51 39 52 84 53 78 54 80 55 40 56
REMARK SMILES IDX 83 57 77 58 76 59 41 61 67 62 50 63 66 64 51 65 54 66 65 67
REMARK SMILES IDX 81 68 52 69 53 70 64 72 82 73 55 74 42 75 43 76 48 77 44 78
REMARK SMILES IDX 45 79 47 80 49 81 46 82 68 83 69 84 74 85 70 86 71 87 73 88
REMARK SMILES IDX 75 89 72 90 56 91 57 92 62 93 58 94 59 95 61 96 63 97 60 98
REMARK H PARENT 23 6 16 16 88 34 30 41 80 60 54 71
REMARK Flexibility Score: inf
ROOT
ATOM      1  C   UNL     1       4.271   7.242  -2.984  1.00  0.00     0.021 C 
ENDROOT
BRANCH   1   2
ATOM      2  C   UNL     1       2.757   7.361  -2.929  1.00  0.00     0.116 C 
BRANCH   2   3
ATOM      3  N   UNL     1       2.029   6.325  -3.615  1.00  0.00    -0.352 N 
ATOM      4  C   UNL     1       0.692   6.019  -3.612  1.00  0.00     0.255 C 
ATOM      5  O   UNL     1       0.320   5.162  -4.415  1.00  0.00    -0.269 OA
ATOM      6  H   UNL     1       2.583   5.739  -4.180  1.00  0.00     0.163 HD
BRANCH   4   7
ATOM      7  C   UNL     1      -0.297   6.574  -2.634  1.00  0.00     0.081 A 
ATOM      8  C   UNL     1      -2.053   7.096  -0.486  1.00  0.00     0.044 A 
ATOM      9  C   UNL     1      -2.287   6.051  -1.366  1.00  0.00     0.027 A 
ATOM     10  C   UNL     1      -1.098   8.037  -0.835  1.00  0.00     0.073 A 
ATOM     11  C   UNL     1      -1.391   5.745  -2.384  1.00  0.00     0.020 A 
ATOM     12  C   UNL     1      -0.267   7.794  -1.943  1.00  0.00     0.130 A 
BRANCH   8  13
ATOM     13  N   UNL     1      -2.826   7.218   0.679  1.00  0.00    -0.326 N 
ATOM     14  C   UNL     1      -3.309   6.183   1.458  1.00  0.00     0.226 C 
ATOM     15  O   UNL     1      -4.273   6.361   2.201  1.00  0.00    -0.275 OA
ATOM     16  H   UNL     1      -3.046   8.132   0.971  1.00  0.00     0.169 HD
BRANCH  14  17
ATOM     17  C   UNL     1      -2.477   4.905   1.546  1.00  0.00     0.125 C 
BRANCH  17  18
ATOM     18  C   UNL     1      -3.233   3.586   1.402  1.00  0.00     0.156 C 
ATOM     19  N   UNL     1      -1.744   1.974   0.432  1.00  0.00    -0.240 N 
ATOM     20  C   UNL     1      -2.363   2.410  -0.705  1.00  0.00     0.293 C 
ATOM     21  C   UNL     1      -2.248   2.445   1.634  1.00  0.00     0.248 C 
ATOM     22  O   UNL     1      -2.018   2.263  -1.875  1.00  0.00    -0.261 OA
ATOM     23  S   UNL     1      -3.841   3.252  -0.277  1.00  0.00    -0.050 SA
ATOM     24  O   UNL     1      -1.947   2.055   2.757  1.00  0.00    -0.273 OA
BRANCH  19  25
ATOM     25  C   UNL     1      -0.885   0.853   0.369  1.00  0.00     0.056 A 
ATOM     26  C   UNL     1       2.853   0.084   0.100  1.00  0.00     0.044 C 
ATOM     27  C   UNL     1       1.361  -0.070   0.180  1.00  0.00    -0.049 A 
ATOM     28  C   UNL     1       0.809  -1.352   0.087  1.00  0.00     0.004 A 
ATOM     29  C   UNL     1       0.507   1.034   0.336  1.00  0.00     0.030 A 
ATOM     30  C   UNL     1      -0.572  -1.534   0.123  1.00  0.00     0.006 A 
ATOM     31  C   UNL     1      -1.437  -0.439   0.249  1.00  0.00    -0.027 A 
ATOM     32  C   UNL     1      -2.915  -0.717   0.245  1.00  0.00     0.046 C 
ENDBRANCH  19  25
ENDBRANCH  17  18
ENDBRANCH  14  17
ENDBRANCH   8  13
BRANCH  12  33
ATOM     33  O   UNL     1       0.471   8.870  -2.346  1.00  0.00    -0.507 OA
ATOM     34  H   UNL     1       1.052   8.793  -3.077  1.00  0.00     0.293 HD
ENDBRANCH  12  33
ENDBRANCH   4   7
ENDBRANCH   2   3
ENDBRANCH   1   2
BRANCH   1  35
ATOM     35  C   UNL     1       4.936   7.065  -4.354  1.00  0.00     0.002 C 
BRANCH  35  36
ATOM     36  C   UNL     1       4.409   7.801  -5.593  1.00  0.00     0.002 C 
BRANCH  36  37
ATOM     37  C   UNL     1       4.183   9.317  -5.604  1.00  0.00     0.021 C 
BRANCH  37  38
ATOM     38  C   UNL     1       5.292  10.224  -5.089  1.00  0.00     0.116 C 
BRANCH  38  39
ATOM     39  N   UNL     1       6.604  10.002  -5.709  1.00  0.00    -0.352 N 
ATOM     40  C   UNL     1       7.902  10.105  -5.231  1.00  0.00     0.251 C 
ATOM     41  H   UNL     1       6.552   9.724  -6.652  1.00  0.00     0.163 HD
ATOM     42  O   UNL     1       8.839  10.136  -6.024  1.00  0.00    -0.269 OA
BRANCH  40  43
ATOM     43  C   UNL     1       8.188  10.154  -3.781  1.00  0.00     0.039 A 
ATOM     44  C   UNL     1       9.468  10.228  -3.225  1.00  0.00     0.014 A 
ATOM     45  C   UNL     1       7.141   9.909  -2.924  1.00  0.00     0.014 A 
ATOM     46  C   UNL     1       9.620   9.931  -1.861  1.00  0.00     0.010 A 
ATOM     47  C   UNL     1       7.257  10.121  -1.593  1.00  0.00     0.010 A 
ATOM     48  C   UNL     1       8.477   9.783  -1.072  1.00  0.00    -0.014 A 
BRANCH  48  49
ATOM     49  C   UNL     1       8.440   9.418   0.327  1.00  0.00     0.031 A 
ATOM     50  C   UNL     1       8.758  10.528   1.240  1.00  0.00     0.074 A 
ATOM     51  C   UNL     1       7.796   8.322   0.784  1.00  0.00     0.049 A 
ATOM     52  N   UNL     1       9.868  10.736   1.860  1.00  0.00    -0.248 NA
ATOM     53  C   UNL     1       7.799  11.642   1.328  1.00  0.00     0.031 C 
ATOM     54  C   UNL     1       6.990   7.341   0.045  1.00  0.00     0.029 A 
ATOM     55  N   UNL     1       7.659   7.911   2.074  1.00  0.00    -0.354 N 
ATOM     56  C   UNL     1       9.654  11.893   2.596  1.00  0.00     0.074 A 
ATOM     57  C   UNL     1       8.518  12.539   2.001  1.00  0.00     0.031 C 
ATOM     58  C   UNL     1       6.316   6.558   0.921  1.00  0.00     0.029 A 
ATOM     59  C   UNL     1       6.739   6.890   2.272  1.00  0.00     0.049 A 
ATOM     60  H   UNL     1       8.175   8.308   2.812  1.00  0.00     0.167 HD
ATOM     61  C   UNL     1      10.216  12.059   3.824  1.00  0.00     0.037 A 
ATOM     62  C   UNL     1       6.341   6.398   3.472  1.00  0.00     0.037 A 
ATOM     63  C   UNL     1      11.235  11.060   4.061  1.00  0.00     0.049 A 
ATOM     64  C   UNL     1       7.346   6.825   4.482  1.00  0.00     0.074 A 
ATOM     65  C   UNL     1      12.380  10.657   3.399  1.00  0.00     0.029 A 
ATOM     66  N   UNL     1      10.927  10.033   4.922  1.00  0.00    -0.354 N 
ATOM     67  N   UNL     1       8.570   6.381   4.534  1.00  0.00    -0.248 NA
ATOM     68  C   UNL     1       7.112   8.077   5.187  1.00  0.00     0.031 C 
ATOM     69  C   UNL     1      12.418   9.238   3.549  1.00  0.00     0.029 A 
ATOM     70  C   UNL     1      11.328   8.861   4.335  1.00  0.00     0.049 A 
ATOM     71  H   UNL     1      10.495  10.124   5.802  1.00  0.00     0.167 HD
ATOM     72  C   UNL     1       9.334   7.481   4.895  1.00  0.00     0.074 A 
ATOM     73  C   UNL     1       8.374   8.461   5.393  1.00  0.00     0.031 C 
ATOM     74  C   UNL     1      10.631   7.603   4.483  1.00  0.00     0.037 A 
BRANCH  61  75
ATOM     75  C   UNL     1       9.587  12.844   4.954  1.00  0.00     0.057 A 
ATOM     76  C   UNL     1      10.340  13.043   6.125  1.00  0.00     0.134 A 
ATOM     77  C   UNL     1       8.220  13.179   5.067  1.00  0.00     0.134 A 
ATOM     78  F   UNL     1      11.653  12.767   6.153  1.00  0.00    -0.206 F 
ATOM     79  C   UNL     1       9.762  13.448   7.333  1.00  0.00     0.040 A 
ATOM     80  C   UNL     1       7.645  13.642   6.253  1.00  0.00     0.040 A 
ATOM     81  F   UNL     1       7.336  12.991   4.082  1.00  0.00    -0.206 F 
ATOM     82  C   UNL     1       8.408  13.741   7.402  1.00  0.00     0.006 A 
ENDBRANCH  61  75
BRANCH  62  83
ATOM     83  C   UNL     1       5.050   5.792   3.871  1.00  0.00     0.057 A 
ATOM     84  C   UNL     1       4.934   5.051   5.057  1.00  0.00     0.134 A 
ATOM     85  C   UNL     1       3.843   6.155   3.251  1.00  0.00     0.134 A 
ATOM     86  F   UNL     1       6.027   4.685   5.742  1.00  0.00    -0.206 F 
ATOM     87  C   UNL     1       3.691   4.719   5.612  1.00  0.00     0.040 A 
ATOM     88  C   UNL     1       2.594   5.824   3.792  1.00  0.00     0.040 A 
ATOM     89  F   UNL     1       3.832   6.918   2.149  1.00  0.00    -0.206 F 
ATOM     90  C   UNL     1       2.515   5.118   4.985  1.00  0.00     0.006 A 
ENDBRANCH  62  83
BRANCH  74  91
ATOM     91  C   UNL     1      11.297   6.385   3.903  1.00  0.00     0.057 A 
ATOM     92  C   UNL     1      10.886   5.746   2.723  1.00  0.00     0.134 A 
ATOM     93  C   UNL     1      12.479   5.922   4.491  1.00  0.00     0.134 A 
ATOM     94  F   UNL     1       9.823   6.179   2.033  1.00  0.00    -0.206 F 
ATOM     95  C   UNL     1      11.592   4.668   2.182  1.00  0.00     0.040 A 
ATOM     96  C   UNL     1      13.214   4.869   3.941  1.00  0.00     0.040 A 
ATOM     97  F   UNL     1      12.966   6.518   5.591  1.00  0.00    -0.206 F 
ATOM     98  C   UNL     1      12.764   4.230   2.789  1.00  0.00     0.006 A 
ENDBRANCH  74  91
ENDBRANCH  48  49
ENDBRANCH  40  43
ENDBRANCH  38  39
ENDBRANCH  37  38
ENDBRANCH  36  37
ENDBRANCH  35  36
ENDBRANCH   1  35
TORSDOF 18
