REMARK SMILES COc1c[nH]c(C[N@H+]2CCC[C@@H](c3ccc(C(=O)NCCCCCCNC(=O)c4ccc(-c5c6nc(c(-c7c(F)cccc7F)c7ccc([nH]7)c(-c7c(F)cccc7F)c7nc(c(-c8c(F)cccc8F)c8ccc5[nH]8)C=C7)C=C6)cc4)cc3)C2)cc1=O
REMARK SMILES IDX 21 1 20 2 19 3 17 4 18 5 16 7 13 8 14 9 84 10 15 11 83 12
REMARK SMILES IDX 12 13 8 14 9 15 85 16 10 18 11 19 7 20 6 21 3 22 4 23 87 24
REMARK SMILES IDX 5 25 86 26 88 27 2 29 1 30 22 31 23 32 24 33 25 34 26 35
REMARK SMILES IDX 27 36 28 38 29 39 30 40 82 41 31 42 81 43 32 44 33 45 34 46
REMARK SMILES IDX 75 47 35 48 80 49 74 50 76 51 36 52 79 53 73 54 72 55 37 57
REMARK SMILES IDX 63 58 46 59 62 60 47 61 50 62 61 63 77 64 48 65 49 66 60 68
REMARK SMILES IDX 78 69 51 70 38 71 39 72 44 73 40 74 41 75 43 76 45 77 42 78
REMARK SMILES IDX 64 79 65 80 70 81 66 82 67 83 69 84 71 85 68 86 52 87 53 88
REMARK SMILES IDX 58 89 54 90 55 91 57 92 59 93 56 94
REMARK H PARENT 19 6 8 17 5 28 26 37 76 56 50 67
REMARK Flexibility Score: inf
ROOT
ATOM      1  C   UNL     1      -7.144   0.276 -10.930  1.00  0.00     0.021 C 
ENDROOT
BRANCH   1   2
ATOM      2  C   UNL     1      -6.843   0.924  -9.577  1.00  0.00     0.116 C 
BRANCH   2   3
ATOM      3  N   UNL     1      -6.974  -0.062  -8.524  1.00  0.00    -0.352 N 
ATOM      4  C   UNL     1      -6.040  -0.801  -7.848  1.00  0.00     0.251 C 
ATOM      5  O   UNL     1      -6.441  -1.596  -6.997  1.00  0.00    -0.269 OA
ATOM      6  H   UNL     1      -7.902  -0.231  -8.243  1.00  0.00     0.163 HD
BRANCH   4   7
ATOM      7  C   UNL     1      -4.577  -0.620  -8.041  1.00  0.00     0.039 A 
ATOM      8  C   UNL     1      -1.796  -0.133  -8.156  1.00  0.00    -0.039 A 
ATOM      9  C   UNL     1      -2.398  -0.593  -6.975  1.00  0.00     0.005 A 
ATOM     10  C   UNL     1      -2.589  -0.020  -9.303  1.00  0.00     0.005 A 
ATOM     11  C   UNL     1      -3.774  -0.815  -6.913  1.00  0.00     0.014 A 
ATOM     12  C   UNL     1      -3.962  -0.291  -9.251  1.00  0.00     0.014 A 
BRANCH   8  13
ATOM     13  C   UNL     1      -0.321   0.241  -8.210  1.00  0.00     0.074 C 
ATOM     14  N   UNL     1       1.504   1.459  -6.940  1.00  0.00    -0.329 N 
ATOM     15  C   UNL     1       2.330   0.244  -6.971  1.00  0.00     0.262 C 
ATOM     16  C   UNL     1       0.072   1.139  -7.015  1.00  0.00     0.270 C 
ATOM     17  H   UNL     1       1.728   2.004  -7.773  1.00  0.00     0.348 HD
ATOM     18  C   UNL     1       2.034  -0.615  -8.202  1.00  0.00     0.062 C 
ATOM     19  C   UNL     1       0.562  -1.010  -8.259  1.00  0.00     0.020 C 
BRANCH  14  20
ATOM     20  C   UNL     1       1.829   2.318  -5.776  1.00  0.00     0.317 C 
BRANCH  20  21
ATOM     21  C   UNL     1       1.614   1.697  -4.395  1.00  0.00     0.074 A 
ATOM     22  C   UNL     1       0.948   0.275  -2.010  1.00  0.00     0.182 A 
ATOM     23  C   UNL     1       0.024   0.826  -2.808  1.00  0.00     0.133 A 
ATOM     24  C   UNL     1       2.386   0.522  -2.386  1.00  0.00     0.223 A 
ATOM     25  N   UNL     1       0.322   1.572  -3.915  1.00  0.00    -0.357 N 
ATOM     26  C   UNL     1       2.650   1.246  -3.664  1.00  0.00     0.083 A 
ATOM     27  O   UNL     1       3.332   0.129  -1.709  1.00  0.00    -0.286 OA
ATOM     28  H   UNL     1      -0.407   2.036  -4.387  1.00  0.00     0.166 HD
BRANCH  22  29
ATOM     29  O   UNL     1       0.580  -0.549  -0.966  1.00  0.00    -0.491 OA
ATOM     30  C   UNL     1       1.070  -0.090   0.289  1.00  0.00     0.278 C 
ENDBRANCH  22  29
ENDBRANCH  20  21
ENDBRANCH  14  20
ENDBRANCH   8  13
ENDBRANCH   4   7
ENDBRANCH   2   3
ENDBRANCH   1   2
BRANCH   1  31
ATOM     31  C   UNL     1      -8.644   0.077 -11.181  1.00  0.00     0.002 C 
BRANCH  31  32
ATOM     32  C   UNL     1      -9.454   1.375 -11.270  1.00  0.00     0.002 C 
BRANCH  32  33
ATOM     33  C   UNL     1      -8.939   2.384 -12.301  1.00  0.00     0.021 C 
BRANCH  33  34
ATOM     34  C   UNL     1      -8.927   1.859 -13.733  1.00  0.00     0.116 C 
BRANCH  34  35
ATOM     35  N   UNL     1     -10.272   1.594 -14.215  1.00  0.00    -0.352 N 
ATOM     36  C   UNL     1     -10.898   2.073 -15.338  1.00  0.00     0.251 C 
ATOM     37  H   UNL     1     -10.809   0.985 -13.659  1.00  0.00     0.163 HD
ATOM     38  O   UNL     1     -12.109   1.942 -15.476  1.00  0.00    -0.269 OA
BRANCH  36  39
ATOM     39  C   UNL     1     -10.105   2.754 -16.382  1.00  0.00     0.039 A 
ATOM     40  C   UNL     1     -10.607   3.923 -16.959  1.00  0.00     0.014 A 
ATOM     41  C   UNL     1      -8.887   2.220 -16.812  1.00  0.00     0.014 A 
ATOM     42  C   UNL     1      -9.868   4.578 -17.946  1.00  0.00     0.010 A 
ATOM     43  C   UNL     1      -8.120   2.910 -17.746  1.00  0.00     0.010 A 
ATOM     44  C   UNL     1      -8.612   4.085 -18.334  1.00  0.00    -0.014 A 
BRANCH  44  45
ATOM     45  C   UNL     1      -7.813   4.760 -19.386  1.00  0.00     0.031 A 
ATOM     46  C   UNL     1      -7.545   4.056 -20.688  1.00  0.00     0.074 A 
ATOM     47  C   UNL     1      -7.285   5.976 -19.150  1.00  0.00     0.049 A 
ATOM     48  N   UNL     1      -6.810   4.440 -21.701  1.00  0.00    -0.248 NA
ATOM     49  C   UNL     1      -8.161   2.731 -20.862  1.00  0.00     0.031 C 
ATOM     50  C   UNL     1      -7.441   6.742 -17.913  1.00  0.00     0.029 A 
ATOM     51  N   UNL     1      -6.500   6.776 -19.941  1.00  0.00    -0.354 N 
ATOM     52  C   UNL     1      -6.862   3.400 -22.619  1.00  0.00     0.074 A 
ATOM     53  C   UNL     1      -7.655   2.347 -22.024  1.00  0.00     0.031 C 
ATOM     54  C   UNL     1      -6.790   7.910 -18.036  1.00  0.00     0.029 A 
ATOM     55  C   UNL     1      -6.144   7.961 -19.344  1.00  0.00     0.049 A 
ATOM     56  H   UNL     1      -6.218   6.525 -20.851  1.00  0.00     0.167 HD
ATOM     57  C   UNL     1      -6.319   3.337 -23.858  1.00  0.00     0.037 A 
ATOM     58  C   UNL     1      -5.380   8.970 -19.801  1.00  0.00     0.037 A 
ATOM     59  C   UNL     1      -5.558   4.399 -24.461  1.00  0.00     0.049 A 
ATOM     60  C   UNL     1      -4.793   8.879 -21.182  1.00  0.00     0.074 A 
ATOM     61  C   UNL     1      -5.010   4.455 -25.730  1.00  0.00     0.029 A 
ATOM     62  N   UNL     1      -5.242   5.594 -23.833  1.00  0.00    -0.354 N 
ATOM     63  N   UNL     1      -4.896   7.913 -22.063  1.00  0.00    -0.248 NA
ATOM     64  C   UNL     1      -3.988  10.021 -21.636  1.00  0.00     0.031 C 
ATOM     65  C   UNL     1      -4.330   5.671 -25.858  1.00  0.00     0.029 A 
ATOM     66  C   UNL     1      -4.494   6.390 -24.685  1.00  0.00     0.049 A 
ATOM     67  H   UNL     1      -5.510   5.841 -22.919  1.00  0.00     0.167 HD
ATOM     68  C   UNL     1      -4.200   8.344 -23.184  1.00  0.00     0.074 A 
ATOM     69  C   UNL     1      -3.686   9.662 -22.876  1.00  0.00     0.031 C 
ATOM     70  C   UNL     1      -4.004   7.706 -24.364  1.00  0.00     0.037 A 
BRANCH  57  71
ATOM     71  C   UNL     1      -6.538   2.077 -24.645  1.00  0.00     0.057 A 
ATOM     72  C   UNL     1      -7.796   1.738 -25.162  1.00  0.00     0.134 A 
ATOM     73  C   UNL     1      -5.475   1.205 -24.911  1.00  0.00     0.134 A 
ATOM     74  F   UNL     1      -8.859   2.524 -24.932  1.00  0.00    -0.206 F 
ATOM     75  C   UNL     1      -7.995   0.564 -25.890  1.00  0.00     0.040 A 
ATOM     76  C   UNL     1      -5.656   0.041 -25.661  1.00  0.00     0.040 A 
ATOM     77  F   UNL     1      -4.244   1.471 -24.451  1.00  0.00    -0.206 F 
ATOM     78  C   UNL     1      -6.921  -0.285 -26.146  1.00  0.00     0.006 A 
ENDBRANCH  57  71
BRANCH  58  79
ATOM     79  C   UNL     1      -5.151  10.170 -18.958  1.00  0.00     0.057 A 
ATOM     80  C   UNL     1      -5.733  11.400 -19.284  1.00  0.00     0.134 A 
ATOM     81  C   UNL     1      -4.342  10.120 -17.817  1.00  0.00     0.134 A 
ATOM     82  F   UNL     1      -6.504  11.514 -20.376  1.00  0.00    -0.206 F 
ATOM     83  C   UNL     1      -5.503  12.544 -18.518  1.00  0.00     0.040 A 
ATOM     84  C   UNL     1      -4.123  11.251 -17.028  1.00  0.00     0.040 A 
ATOM     85  F   UNL     1      -3.763   8.969 -17.446  1.00  0.00    -0.206 F 
ATOM     86  C   UNL     1      -4.698  12.470 -17.383  1.00  0.00     0.006 A 
ENDBRANCH  58  79
BRANCH  70  87
ATOM     87  C   UNL     1      -3.240   8.443 -25.424  1.00  0.00     0.057 A 
ATOM     88  C   UNL     1      -1.855   8.636 -25.340  1.00  0.00     0.134 A 
ATOM     89  C   UNL     1      -3.894   8.931 -26.562  1.00  0.00     0.134 A 
ATOM     90  F   UNL     1      -1.173   8.204 -24.268  1.00  0.00    -0.206 F 
ATOM     91  C   UNL     1      -1.152   9.306 -26.341  1.00  0.00     0.040 A 
ATOM     92  C   UNL     1      -3.198   9.580 -27.582  1.00  0.00     0.040 A 
ATOM     93  F   UNL     1      -5.218   8.771 -26.708  1.00  0.00    -0.206 F 
ATOM     94  C   UNL     1      -1.823   9.774 -27.470  1.00  0.00     0.006 A 
ENDBRANCH  70  87
ENDBRANCH  44  45
ENDBRANCH  36  39
ENDBRANCH  34  35
ENDBRANCH  33  34
ENDBRANCH  32  33
ENDBRANCH  31  32
ENDBRANCH   1  31
TORSDOF 17
