REMARK SMILES O=C(COc1ccc(Br)cc1/C=C1\C(=O)Nc2ccc(Br)cc21)NCCCCCCNC(=O)c1ccc(-c2c3nc(c(-c4c(F)cccc4F)c4ccc([nH]4)c(-c4c(F)cccc4F)c4nc(c(-c5c(F)cccc5F)c5ccc2[nH]5)C=C4)C=C3)cc1
REMARK SMILES IDX 27 1 26 2 25 3 24 4 1 5 2 6 3 8 4 9 5 10 6 11 11 12 7 13
REMARK SMILES IDX 10 14 8 15 9 16 12 17 13 18 14 19 23 20 15 21 16 22 17 23
REMARK SMILES IDX 22 24 18 26 20 27 19 28 21 29 28 30 29 31 30 32 31 33 32 34
REMARK SMILES IDX 33 36 34 37 35 38 87 39 36 40 86 41 37 42 38 43 39 44 80 45
REMARK SMILES IDX 40 46 85 47 79 48 81 49 41 50 84 51 78 52 77 53 42 55 68 56
REMARK SMILES IDX 51 57 67 58 52 59 55 60 66 61 82 62 53 63 54 64 65 66 83 67
REMARK SMILES IDX 56 68 43 69 44 70 49 71 45 72 46 73 48 74 50 75 47 76 69 77
REMARK SMILES IDX 70 78 75 79 71 80 72 81 74 82 76 83 73 84 57 85 58 86 63 87
REMARK SMILES IDX 59 88 60 89 62 90 64 91 61 92
REMARK H PARENT 24 7 16 25 31 35 81 54 55 65
REMARK Flexibility Score: inf
ROOT
ATOM      1  C   UNL     1       4.514   2.773  -2.167  1.00  0.00     0.002 C 
ENDROOT
BRANCH   1   2
ATOM      2  C   UNL     1       3.059   2.590  -1.724  1.00  0.00     0.021 C 
BRANCH   2   3
ATOM      3  C   UNL     1       2.587   1.144  -1.611  1.00  0.00     0.116 C 
BRANCH   3   4
ATOM      4  N   UNL     1       3.384   0.315  -0.718  1.00  0.00    -0.353 N 
ATOM      5  O   UNL     1       1.714  -0.063   0.813  1.00  0.00    -0.271 OA
ATOM      6  C   UNL     1       2.819  -0.349   0.357  1.00  0.00     0.257 C 
ATOM      7  H   UNL     1       4.351   0.225  -0.883  1.00  0.00     0.163 HD
BRANCH   6   8
ATOM      8  C   UNL     1       3.660  -1.519   0.929  1.00  0.00     0.329 C 
BRANCH   8   9
ATOM      9  O   UNL     1       4.297  -2.464   0.057  1.00  0.00    -0.483 OA
BRANCH   9  10
ATOM     10  C   UNL     1       3.427  -3.316  -0.594  1.00  0.00     0.127 A 
ATOM     11  C   UNL     1       2.465  -2.753  -1.458  1.00  0.00     0.048 A 
ATOM     12  C   UNL     1       3.550  -4.726  -0.489  1.00  0.00     0.018 A 
ATOM     13  C   UNL     1       1.540  -3.527  -2.144  1.00  0.00     0.019 A 
ATOM     14  C   UNL     1       2.620  -5.468  -1.241  1.00  0.00     0.027 A 
ATOM     15  C   UNL     1       1.617  -4.892  -2.023  1.00  0.00     0.018 A 
ATOM     16  Br  UNL     1       0.376  -5.992  -2.930  1.00  0.00    -0.051 Br
BRANCH  12  17
ATOM     17  C   UNL     1       4.566  -5.410   0.393  1.00  0.00     0.026 C 
ATOM     18  C   UNL     1       4.641  -6.697   0.817  1.00  0.00     0.050 C 
ATOM     19  C   UNL     1       3.702  -7.849   0.521  1.00  0.00     0.256 C 
ATOM     20  C   UNL     1       5.391  -7.165   2.008  1.00  0.00     0.012 A 
ATOM     21  O   UNL     1       3.320  -8.285  -0.543  1.00  0.00    -0.269 OA
ATOM     22  N   UNL     1       3.535  -8.488   1.733  1.00  0.00    -0.321 N 
ATOM     23  C   UNL     1       4.566  -8.143   2.594  1.00  0.00     0.049 A 
ATOM     24  C   UNL     1       6.665  -6.976   2.513  1.00  0.00     0.026 A 
ATOM     25  H   UNL     1       2.795  -9.099   1.953  1.00  0.00     0.170 HD
ATOM     26  C   UNL     1       4.871  -8.819   3.756  1.00  0.00     0.028 A 
ATOM     27  C   UNL     1       7.034  -7.729   3.643  1.00  0.00     0.018 A 
ATOM     28  C   UNL     1       6.135  -8.601   4.289  1.00  0.00     0.018 A 
ATOM     29  Br  UNL     1       8.820  -7.662   4.273  1.00  0.00    -0.051 Br
ENDBRANCH  12  17
ENDBRANCH   9  10
ENDBRANCH   8   9
ENDBRANCH   6   8
ENDBRANCH   3   4
ENDBRANCH   2   3
ENDBRANCH   1   2
BRANCH   1  30
ATOM     30  C   UNL     1       4.894   2.144  -3.511  1.00  0.00     0.002 C 
BRANCH  30  31
ATOM     31  C   UNL     1       4.131   2.658  -4.733  1.00  0.00     0.021 C 
BRANCH  31  32
ATOM     32  C   UNL     1       4.216   4.161  -4.984  1.00  0.00     0.116 C 
BRANCH  32  33
ATOM     33  N   UNL     1       5.568   4.630  -5.254  1.00  0.00    -0.352 N 
ATOM     34  C   UNL     1       6.033   5.431  -6.272  1.00  0.00     0.251 C 
ATOM     35  H   UNL     1       6.252   4.329  -4.612  1.00  0.00     0.163 HD
ATOM     36  O   UNL     1       7.236   5.640  -6.397  1.00  0.00    -0.269 OA
BRANCH  34  37
ATOM     37  C   UNL     1       5.082   6.005  -7.250  1.00  0.00     0.039 A 
ATOM     38  C   UNL     1       3.899   6.612  -6.825  1.00  0.00     0.014 A 
ATOM     39  C   UNL     1       5.361   5.894  -8.616  1.00  0.00     0.014 A 
ATOM     40  C   UNL     1       2.915   6.930  -7.757  1.00  0.00     0.010 A 
ATOM     41  C   UNL     1       4.403   6.290  -9.555  1.00  0.00     0.010 A 
ATOM     42  C   UNL     1       3.146   6.750  -9.131  1.00  0.00    -0.014 A 
BRANCH  42  43
ATOM     43  C   UNL     1       2.044   7.000 -10.097  1.00  0.00     0.031 A 
ATOM     44  C   UNL     1       1.451   5.864 -10.891  1.00  0.00     0.074 A 
ATOM     45  C   UNL     1       1.527   8.238 -10.215  1.00  0.00     0.049 A 
ATOM     46  N   UNL     1       0.471   5.885 -11.761  1.00  0.00    -0.248 NA
ATOM     47  C   UNL     1       2.035   4.529 -10.684  1.00  0.00     0.031 C 
ATOM     48  C   UNL     1       1.998   9.421  -9.493  1.00  0.00     0.029 A 
ATOM     49  N   UNL     1       0.478   8.702 -10.967  1.00  0.00    -0.354 N 
ATOM     50  C   UNL     1       0.334   4.578 -12.215  1.00  0.00     0.074 A 
ATOM     51  C   UNL     1       1.352   3.793 -11.549  1.00  0.00     0.031 C 
ATOM     52  C   UNL     1       1.214  10.464  -9.803  1.00  0.00     0.029 A 
ATOM     53  C   UNL     1       0.222  10.038 -10.784  1.00  0.00     0.049 A 
ATOM     54  H   UNL     1      -0.041   8.131 -11.579  1.00  0.00     0.167 HD
ATOM     55  C   UNL     1      -0.565   4.072 -13.094  1.00  0.00     0.037 A 
ATOM     56  C   UNL     1      -0.701  10.836 -11.353  1.00  0.00     0.037 A 
ATOM     57  C   UNL     1      -1.592   4.844 -13.744  1.00  0.00     0.049 A 
ATOM     58  C   UNL     1      -1.651  10.260 -12.363  1.00  0.00     0.074 A 
ATOM     59  C   UNL     1      -2.564   4.415 -14.632  1.00  0.00     0.029 A 
ATOM     60  N   UNL     1      -1.780   6.207 -13.575  1.00  0.00    -0.354 N 
ATOM     61  N   UNL     1      -1.774   9.021 -12.771  1.00  0.00    -0.248 NA
ATOM     62  C   UNL     1      -2.586  11.199 -12.998  1.00  0.00     0.031 C 
ATOM     63  C   UNL     1      -3.316   5.527 -15.030  1.00  0.00     0.029 A 
ATOM     64  C   UNL     1      -2.838   6.640 -14.359  1.00  0.00     0.049 A 
ATOM     65  H   UNL     1      -1.241   6.783 -12.986  1.00  0.00     0.167 HD
ATOM     66  C   UNL     1      -2.806   9.028 -13.700  1.00  0.00     0.074 A 
ATOM     67  C   UNL     1      -3.290  10.391 -13.777  1.00  0.00     0.031 C 
ATOM     68  C   UNL     1      -3.304   8.000 -14.429  1.00  0.00     0.037 A 
BRANCH  55  69
ATOM     69  C   UNL     1      -0.466   2.609 -13.417  1.00  0.00     0.057 A 
ATOM     70  C   UNL     1      -0.008   2.183 -14.670  1.00  0.00     0.134 A 
ATOM     71  C   UNL     1      -0.851   1.621 -12.501  1.00  0.00     0.134 A 
ATOM     72  F   UNL     1       0.371   3.077 -15.596  1.00  0.00    -0.206 F 
ATOM     73  C   UNL     1       0.065   0.829 -15.001  1.00  0.00     0.040 A 
ATOM     74  C   UNL     1      -0.761   0.262 -12.811  1.00  0.00     0.040 A 
ATOM     75  F   UNL     1      -1.286   1.961 -11.278  1.00  0.00    -0.206 F 
ATOM     76  C   UNL     1      -0.306  -0.136 -14.067  1.00  0.00     0.006 A 
ENDBRANCH  55  69
BRANCH  56  77
ATOM     77  C   UNL     1      -0.763  12.273 -10.992  1.00  0.00     0.057 A 
ATOM     78  C   UNL     1       0.245  13.165 -11.378  1.00  0.00     0.134 A 
ATOM     79  C   UNL     1      -1.840  12.791 -10.265  1.00  0.00     0.134 A 
ATOM     80  F   UNL     1       1.305  12.729 -12.075  1.00  0.00    -0.206 F 
ATOM     81  C   UNL     1       0.189  14.518 -11.046  1.00  0.00     0.040 A 
ATOM     82  C   UNL     1      -1.922  14.147  -9.948  1.00  0.00     0.040 A 
ATOM     83  F   UNL     1      -2.846  11.989  -9.886  1.00  0.00    -0.206 F 
ATOM     84  C   UNL     1      -0.902  15.014 -10.335  1.00  0.00     0.006 A 
ENDBRANCH  56  77
BRANCH  68  85
ATOM     85  C   UNL     1      -4.441   8.315 -15.354  1.00  0.00     0.057 A 
ATOM     86  C   UNL     1      -5.744   7.896 -15.056  1.00  0.00     0.134 A 
ATOM     87  C   UNL     1      -4.245   9.027 -16.545  1.00  0.00     0.134 A 
ATOM     88  F   UNL     1      -5.997   7.205 -13.934  1.00  0.00    -0.206 F 
ATOM     89  C   UNL     1      -6.812   8.176 -15.909  1.00  0.00     0.040 A 
ATOM     90  C   UNL     1      -5.310   9.334 -17.393  1.00  0.00     0.040 A 
ATOM     91  F   UNL     1      -3.024   9.470 -16.878  1.00  0.00    -0.206 F 
ATOM     92  C   UNL     1      -6.598   8.904 -17.078  1.00  0.00     0.006 A 
ENDBRANCH  68  85
ENDBRANCH  42  43
ENDBRANCH  34  37
ENDBRANCH  32  33
ENDBRANCH  31  32
ENDBRANCH  30  31
ENDBRANCH   1  30
TORSDOF 16
