REMARK SMILES Cc1ccnc(C(=O)c2[nH]c3cc(F)ccc3c2CC(=O)NCCCCCCNC(=O)c2ccc(-c3c4nc(c(-c5c(F)cccc5F)c5ccc([nH]5)c(-c5c(F)cccc5F)c5nc(c(-c6c(F)cccc6F)c6ccc3[nH]6)C=C5)C=C4)cc2)c1
REMARK SMILES IDX 25 1 24 2 23 3 22 4 20 5 21 6 19 8 18 9 9 10 10 11 11 12
REMARK SMILES IDX 17 14 12 15 16 16 13 17 15 18 14 19 7 20 8 21 6 22 1 23 2 24
REMARK SMILES IDX 3 25 86 26 4 27 5 28 26 29 27 30 28 31 29 32 30 33 31 35
REMARK SMILES IDX 32 36 33 37 85 38 34 39 84 40 35 41 36 42 37 43 78 44 38 45
REMARK SMILES IDX 83 46 77 47 79 48 39 49 82 50 76 51 75 52 40 54 66 55 49 56
REMARK SMILES IDX 65 57 50 58 53 59 64 60 80 61 51 62 52 63 63 65 81 66 54 67
REMARK SMILES IDX 41 68 42 69 47 70 43 71 44 72 46 73 48 74 45 75 67 76 68 77
REMARK SMILES IDX 73 78 69 79 70 80 72 81 74 82 71 83 55 84 56 85 61 86 57 87
REMARK SMILES IDX 58 88 60 89 62 90 59 91
REMARK H PARENT 22 7 10 13 29 34 79 53 53 64
REMARK Flexibility Score: inf
ROOT
ATOM      1  C   UNL     1       4.938  -6.766  -1.347  1.00  0.00     0.002 C 
ENDROOT
BRANCH   1   2
ATOM      2  C   UNL     1       3.556  -6.757  -0.681  1.00  0.00     0.021 C 
BRANCH   2   3
ATOM      3  C   UNL     1       3.581  -6.790   0.847  1.00  0.00     0.116 C 
BRANCH   3   4
ATOM      4  N   UNL     1       4.058  -5.548   1.419  1.00  0.00    -0.356 N 
ATOM      5  C   UNL     1       3.359  -4.550   2.034  1.00  0.00     0.224 C 
ATOM      6  O   UNL     1       3.996  -3.627   2.548  1.00  0.00    -0.275 OA
ATOM      7  H   UNL     1       5.030  -5.403   1.356  1.00  0.00     0.163 HD
BRANCH   5   8
ATOM      8  C   UNL     1       1.850  -4.638   2.202  1.00  0.00     0.138 C 
BRANCH   8   9
ATOM      9  C   UNL     1       1.055  -4.677   0.926  1.00  0.00    -0.002 A 
ATOM     10  C   UNL     1       1.023  -3.720  -0.083  1.00  0.00     0.093 A 
ATOM     11  N   UNL     1       0.218  -4.204  -1.087  1.00  0.00    -0.351 N 
ATOM     12  C   UNL     1      -0.370  -5.386  -0.712  1.00  0.00     0.049 A 
ATOM     13  H   UNL     1       0.082  -3.763  -1.957  1.00  0.00     0.167 HD
ATOM     14  C   UNL     1       0.123  -5.705   0.553  1.00  0.00     0.004 A 
ATOM     15  C   UNL     1      -1.284  -6.195  -1.396  1.00  0.00     0.066 A 
ATOM     16  C   UNL     1      -0.334  -6.891   1.172  1.00  0.00     0.013 A 
ATOM     17  C   UNL     1      -1.708  -7.359  -0.757  1.00  0.00     0.125 A 
ATOM     18  C   UNL     1      -1.250  -7.710   0.505  1.00  0.00     0.040 A 
ATOM     19  F   UNL     1      -2.582  -8.160  -1.380  1.00  0.00    -0.207 F 
BRANCH  10  20
ATOM     20  C   UNL     1       1.746  -2.463  -0.188  1.00  0.00     0.227 C 
ATOM     21  O   UNL     1       2.959  -2.452  -0.368  1.00  0.00    -0.285 OA
BRANCH  20  22
ATOM     22  C   UNL     1       0.961  -1.171  -0.123  1.00  0.00     0.113 A 
ATOM     23  C   UNL     1      -2.577   0.160   0.242  1.00  0.00     0.044 C 
ATOM     24  C   UNL     1      -1.089   0.082   0.075  1.00  0.00    -0.047 A 
ATOM     25  C   UNL     1      -0.341   1.248  -0.084  1.00  0.00     0.023 A 
ATOM     26  C   UNL     1      -0.421  -1.148   0.075  1.00  0.00     0.036 A 
ATOM     27  C   UNL     1       1.029   1.139  -0.256  1.00  0.00     0.112 A 
ATOM     28  N   UNL     1       1.688  -0.037  -0.294  1.00  0.00    -0.253 NA
ENDBRANCH  20  22
ENDBRANCH  10  20
ENDBRANCH   8   9
ENDBRANCH   5   8
ENDBRANCH   3   4
ENDBRANCH   2   3
ENDBRANCH   1   2
BRANCH   1  29
ATOM     29  C   UNL     1       5.829  -7.971  -1.023  1.00  0.00     0.002 C 
BRANCH  29  30
ATOM     30  C   UNL     1       5.200  -9.350  -1.249  1.00  0.00     0.021 C 
BRANCH  30  31
ATOM     31  C   UNL     1       4.738  -9.636  -2.677  1.00  0.00     0.116 C 
BRANCH  31  32
ATOM     32  N   UNL     1       5.846  -9.712  -3.615  1.00  0.00    -0.352 N 
ATOM     33  C   UNL     1       6.120 -10.657  -4.572  1.00  0.00     0.251 C 
ATOM     34  H   UNL     1       6.497  -8.976  -3.554  1.00  0.00     0.163 HD
ATOM     35  O   UNL     1       7.191 -10.629  -5.172  1.00  0.00    -0.269 OA
BRANCH  33  36
ATOM     36  C   UNL     1       5.143 -11.727  -4.880  1.00  0.00     0.039 A 
ATOM     37  C   UNL     1       5.612 -13.037  -5.032  1.00  0.00     0.014 A 
ATOM     38  C   UNL     1       3.788 -11.445  -5.073  1.00  0.00     0.014 A 
ATOM     39  C   UNL     1       4.718 -14.071  -5.322  1.00  0.00     0.010 A 
ATOM     40  C   UNL     1       2.889 -12.483  -5.326  1.00  0.00     0.010 A 
ATOM     41  C   UNL     1       3.347 -13.804  -5.452  1.00  0.00    -0.014 A 
BRANCH  41  42
ATOM     42  C   UNL     1       2.376 -14.893  -5.726  1.00  0.00     0.031 A 
ATOM     43  C   UNL     1       1.700 -14.984  -7.064  1.00  0.00     0.074 A 
ATOM     44  C   UNL     1       2.057 -15.765  -4.751  1.00  0.00     0.049 A 
ATOM     45  N   UNL     1       0.746 -15.791  -7.454  1.00  0.00    -0.248 NA
ATOM     46  C   UNL     1       2.144 -14.031  -8.093  1.00  0.00     0.031 C 
ATOM     47  C   UNL     1       2.622 -15.770  -3.401  1.00  0.00     0.029 A 
ATOM     48  N   UNL     1       1.165 -16.807  -4.745  1.00  0.00    -0.354 N 
ATOM     49  C   UNL     1       0.457 -15.428  -8.762  1.00  0.00     0.074 A 
ATOM     50  C   UNL     1       1.326 -14.319  -9.096  1.00  0.00     0.031 C 
ATOM     51  C   UNL     1       2.064 -16.770  -2.697  1.00  0.00     0.029 A 
ATOM     52  C   UNL     1       1.088 -17.457  -3.538  1.00  0.00     0.049 A 
ATOM     53  H   UNL     1       0.631 -17.065  -5.531  1.00  0.00     0.167 HD
ATOM     54  C   UNL     1      -0.446 -15.973  -9.611  1.00  0.00     0.037 A 
ATOM     55  C   UNL     1       0.311 -18.485  -3.150  1.00  0.00     0.037 A 
ATOM     56  C   UNL     1      -1.291 -17.095  -9.298  1.00  0.00     0.049 A 
ATOM     57  C   UNL     1      -0.655 -19.097  -4.123  1.00  0.00     0.074 A 
ATOM     58  C   UNL     1      -2.221 -17.728 -10.105  1.00  0.00     0.029 A 
ATOM     59  N   UNL     1      -1.299 -17.758  -8.082  1.00  0.00    -0.354 N 
ATOM     60  N   UNL     1      -0.909 -18.750  -5.360  1.00  0.00    -0.248 NA
ATOM     61  C   UNL     1      -1.440 -20.245  -3.645  1.00  0.00     0.031 C 
ATOM     62  C   UNL     1      -2.800 -18.771  -9.372  1.00  0.00     0.029 A 
ATOM     63  C   UNL     1      -2.215 -18.796  -8.116  1.00  0.00     0.049 A 
ATOM     64  H   UNL     1      -0.738 -17.525  -7.307  1.00  0.00     0.167 HD
ATOM     65  C   UNL     1      -1.869 -19.643  -5.814  1.00  0.00     0.074 A 
ATOM     66  C   UNL     1      -2.147 -20.555  -4.724  1.00  0.00     0.031 C 
ATOM     67  C   UNL     1      -2.469 -19.701  -7.027  1.00  0.00     0.037 A 
BRANCH  54  68
ATOM     68  C   UNL     1      -0.567 -15.357 -10.970  1.00  0.00     0.057 A 
ATOM     69  C   UNL     1       0.372 -15.614 -11.976  1.00  0.00     0.134 A 
ATOM     70  C   UNL     1      -1.648 -14.524 -11.284  1.00  0.00     0.134 A 
ATOM     71  F   UNL     1       1.435 -16.393 -11.729  1.00  0.00    -0.206 F 
ATOM     72  C   UNL     1       0.247 -15.051 -13.247  1.00  0.00     0.040 A 
ATOM     73  C   UNL     1      -1.791 -13.968 -12.556  1.00  0.00     0.040 A 
ATOM     74  F   UNL     1      -2.581 -14.242 -10.362  1.00  0.00    -0.206 F 
ATOM     75  C   UNL     1      -0.840 -14.229 -13.540  1.00  0.00     0.006 A 
ENDBRANCH  54  68
BRANCH  55  76
ATOM     76  C   UNL     1       0.425 -19.015  -1.772  1.00  0.00     0.057 A 
ATOM     77  C   UNL     1       1.097 -20.214  -1.516  1.00  0.00     0.134 A 
ATOM     78  C   UNL     1      -0.137 -18.338  -0.684  1.00  0.00     0.134 A 
ATOM     79  F   UNL     1       1.638 -20.912  -2.525  1.00  0.00    -0.206 F 
ATOM     80  C   UNL     1       1.198 -20.731  -0.225  1.00  0.00     0.040 A 
ATOM     81  C   UNL     1      -0.032 -18.837   0.615  1.00  0.00     0.040 A 
ATOM     82  F   UNL     1      -0.792 -17.183  -0.869  1.00  0.00    -0.206 F 
ATOM     83  C   UNL     1       0.635 -20.039   0.847  1.00  0.00     0.006 A 
ENDBRANCH  55  76
BRANCH  67  84
ATOM     84  C   UNL     1      -3.460 -20.800  -7.245  1.00  0.00     0.057 A 
ATOM     85  C   UNL     1      -4.771 -20.709  -6.764  1.00  0.00     0.134 A 
ATOM     86  C   UNL     1      -3.108 -21.944  -7.971  1.00  0.00     0.134 A 
ATOM     87  F   UNL     1      -5.160 -19.642  -6.051  1.00  0.00    -0.206 F 
ATOM     88  C   UNL     1      -5.698 -21.727  -6.989  1.00  0.00     0.040 A 
ATOM     89  C   UNL     1      -4.030 -22.963  -8.212  1.00  0.00     0.040 A 
ATOM     90  F   UNL     1      -1.866 -22.087  -8.458  1.00  0.00    -0.206 F 
ATOM     91  C   UNL     1      -5.330 -22.856  -7.719  1.00  0.00     0.006 A 
ENDBRANCH  67  84
ENDBRANCH  41  42
ENDBRANCH  33  36
ENDBRANCH  31  32
ENDBRANCH  30  31
ENDBRANCH  29  30
ENDBRANCH   1  29
TORSDOF 16
