REMARK SMILES O=C(CSc1nnc2sc3ccccc3n12)N[C@H](Cc1c[nH]c2ccccc12)C(=O)NCCCCCCNC(=O)c1ccc(-c2c3nc(c(-c4c(F)cccc4F)c4ccc([nH]4)c(-c4c(F)cccc4F)c4nc(c(-c5c(F)cccc5F)c5ccc2[nH]5)C=C4)C=C3)cc1
REMARK SMILES IDX 33 1 32 2 31 3 29 4 30 5 18 7 17 8 1 9 2 10 3 12 4 13 5 14
REMARK SMILES IDX 6 15 16 16 7 17 8 18 15 19 9 20 10 21 14 22 11 23 13 24
REMARK SMILES IDX 12 25 19 26 20 27 21 28 28 29 22 30 23 31 27 32 24 34 26 35
REMARK SMILES IDX 25 36 34 37 35 38 36 39 37 40 38 41 39 42 40 44 41 45 42 46
REMARK SMILES IDX 94 47 43 48 93 49 44 50 45 51 46 52 87 53 47 54 92 55 86 56
REMARK SMILES IDX 88 57 48 58 91 59 85 60 84 61 49 63 75 64 58 65 74 66 59 67
REMARK SMILES IDX 62 68 73 69 89 70 60 71 61 72 72 74 90 75 63 76 50 77 51 78
REMARK SMILES IDX 56 79 52 80 53 81 55 82 57 83 54 84 76 85 77 86 82 87 78 88
REMARK SMILES IDX 79 89 81 90 83 91 80 92 64 93 65 94 70 95 66 96 67 97 69 98
REMARK SMILES IDX 71 99 68 100
REMARK H PARENT 31 6 17 11 22 33 38 43 88 62 62 73
REMARK Flexibility Score: inf
ROOT
ATOM      1  C   UNL     1       6.256   0.710  -2.806  1.00  0.00     0.021 C 
ENDROOT
BRANCH   1   2
ATOM      2  C   UNL     1       5.283   1.833  -2.494  1.00  0.00     0.116 C 
BRANCH   2   3
ATOM      3  N   UNL     1       4.055   1.737  -3.249  1.00  0.00    -0.354 N 
ATOM      4  C   UNL     1       2.768   1.887  -2.826  1.00  0.00     0.242 C 
ATOM      5  O   UNL     1       1.880   1.952  -3.683  1.00  0.00    -0.273 OA
ATOM      6  H   UNL     1       4.163   1.534  -4.207  1.00  0.00     0.163 HD
BRANCH   4   7
ATOM      7  C   UNL     1       2.424   2.095  -1.338  1.00  0.00     0.175 C 
BRANCH   7   8
ATOM      8  N   UNL     1       2.918   3.434  -0.971  1.00  0.00    -0.343 N 
ATOM      9  O   UNL     1       4.545   2.956   0.564  1.00  0.00    -0.274 OA
ATOM     10  C   UNL     1       3.990   3.758  -0.191  1.00  0.00     0.231 C 
ATOM     11  H   UNL     1       2.408   4.194  -1.335  1.00  0.00     0.164 HD
BRANCH  10  12
ATOM     12  C   UNL     1       4.480   5.198  -0.261  1.00  0.00     0.178 C 
BRANCH  12  13
ATOM     13  S   UNL     1       3.772   6.186  -1.610  1.00  0.00    -0.076 SA
BRANCH  13  14
ATOM     14  C   UNL     1       4.878   5.882  -2.901  1.00  0.00     0.197 A 
ATOM     15  N   UNL     1       4.762   4.909  -3.786  1.00  0.00    -0.122 NA
ATOM     16  N   UNL     1       5.913   6.694  -3.267  1.00  0.00    -0.260 N 
ATOM     17  N   UNL     1       5.739   5.085  -4.762  1.00  0.00    -0.118 NA
ATOM     18  C   UNL     1       6.401   6.154  -4.420  1.00  0.00     0.217 A 
ATOM     19  C   UNL     1       6.533   7.865  -2.844  1.00  0.00     0.068 A 
ATOM     20  S   UNL     1       7.703   7.056  -5.112  1.00  0.00    -0.094 S 
ATOM     21  C   UNL     1       7.530   8.231  -3.765  1.00  0.00     0.055 A 
ATOM     22  C   UNL     1       6.246   8.624  -1.724  1.00  0.00     0.028 A 
ATOM     23  C   UNL     1       8.240   9.405  -3.591  1.00  0.00     0.021 A 
ATOM     24  C   UNL     1       6.968   9.806  -1.550  1.00  0.00     0.002 A 
ATOM     25  C   UNL     1       7.947  10.199  -2.478  1.00  0.00     0.002 A 
ENDBRANCH  13  14
ENDBRANCH  12  13
ENDBRANCH  10  12
ENDBRANCH   7   8
BRANCH   7  26
ATOM     26  C   UNL     1       2.729   0.896  -0.430  1.00  0.00     0.072 C 
BRANCH  26  27
ATOM     27  C   UNL     1       2.115  -0.430  -0.828  1.00  0.00    -0.020 A 
ATOM     28  C   UNL     1       2.749  -1.651  -0.660  1.00  0.00     0.087 A 
ATOM     29  C   UNL     1       0.820  -0.724  -1.390  1.00  0.00     0.003 A 
ATOM     30  N   UNL     1       1.909  -2.646  -1.074  1.00  0.00    -0.361 N 
ATOM     31  C   UNL     1       0.725  -2.113  -1.520  1.00  0.00     0.046 A 
ATOM     32  C   UNL     1      -0.293   0.040  -1.806  1.00  0.00     0.010 A 
ATOM     33  H   UNL     1       2.122  -3.607  -1.054  1.00  0.00     0.166 HD
ATOM     34  C   UNL     1      -0.411  -2.762  -2.025  1.00  0.00     0.026 A 
ATOM     35  C   UNL     1      -1.428  -0.589  -2.331  1.00  0.00     0.001 A 
ATOM     36  C   UNL     1      -1.487  -1.973  -2.432  1.00  0.00     0.002 A 
ENDBRANCH  26  27
ENDBRANCH   7  26
ENDBRANCH   4   7
ENDBRANCH   2   3
ENDBRANCH   1   2
BRANCH   1  37
ATOM     37  C   UNL     1       6.937   0.824  -4.168  1.00  0.00     0.002 C 
BRANCH  37  38
ATOM     38  C   UNL     1       7.695   2.131  -4.421  1.00  0.00     0.002 C 
BRANCH  38  39
ATOM     39  C   UNL     1       8.703   2.552  -3.342  1.00  0.00     0.021 C 
BRANCH  39  40
ATOM     40  C   UNL     1       9.717   1.470  -2.976  1.00  0.00     0.116 C 
BRANCH  40  41
ATOM     41  N   UNL     1      10.412   0.936  -4.126  1.00  0.00    -0.352 N 
ATOM     42  C   UNL     1      11.537   1.261  -4.822  1.00  0.00     0.251 C 
ATOM     43  H   UNL     1       9.963   0.142  -4.496  1.00  0.00     0.163 HD
ATOM     44  O   UNL     1      11.834   0.502  -5.749  1.00  0.00    -0.269 OA
BRANCH  42  45
ATOM     45  C   UNL     1      12.380   2.462  -4.589  1.00  0.00     0.039 A 
ATOM     46  C   UNL     1      12.189   3.420  -3.593  1.00  0.00     0.014 A 
ATOM     47  C   UNL     1      13.425   2.653  -5.514  1.00  0.00     0.014 A 
ATOM     48  C   UNL     1      12.948   4.585  -3.587  1.00  0.00     0.010 A 
ATOM     49  C   UNL     1      14.197   3.804  -5.503  1.00  0.00     0.010 A 
ATOM     50  C   UNL     1      13.916   4.796  -4.574  1.00  0.00    -0.014 A 
BRANCH  50  51
ATOM     51  C   UNL     1      14.659   6.050  -4.548  1.00  0.00     0.031 A 
ATOM     52  C   UNL     1      15.424   6.294  -3.293  1.00  0.00     0.074 A 
ATOM     53  C   UNL     1      14.728   6.891  -5.599  1.00  0.00     0.049 A 
ATOM     54  N   UNL     1      15.245   7.233  -2.421  1.00  0.00    -0.248 NA
ATOM     55  C   UNL     1      16.432   5.297  -2.899  1.00  0.00     0.031 C 
ATOM     56  C   UNL     1      14.257   6.681  -6.971  1.00  0.00     0.029 A 
ATOM     57  N   UNL     1      15.326   8.113  -5.671  1.00  0.00    -0.354 N 
ATOM     58  C   UNL     1      16.236   7.058  -1.457  1.00  0.00     0.074 A 
ATOM     59  C   UNL     1      16.842   5.780  -1.725  1.00  0.00     0.031 C 
ATOM     60  C   UNL     1      14.787   7.628  -7.778  1.00  0.00     0.029 A 
ATOM     61  C   UNL     1      15.510   8.589  -6.962  1.00  0.00     0.049 A 
ATOM     62  H   UNL     1      15.604   8.617  -4.873  1.00  0.00     0.167 HD
ATOM     63  C   UNL     1      16.624   8.079  -0.644  1.00  0.00     0.037 A 
ATOM     64  C   UNL     1      16.247   9.666  -7.330  1.00  0.00     0.037 A 
ATOM     65  C   UNL     1      15.630   9.120  -0.596  1.00  0.00     0.049 A 
ATOM     66  C   UNL     1      16.425  10.522  -6.132  1.00  0.00     0.074 A 
ATOM     67  C   UNL     1      14.312   9.197  -0.191  1.00  0.00     0.029 A 
ATOM     68  N   UNL     1      15.851  10.255  -1.336  1.00  0.00    -0.354 N 
ATOM     69  N   UNL     1      15.458  11.193  -5.573  1.00  0.00    -0.248 NA
ATOM     70  C   UNL     1      17.578  10.263  -5.283  1.00  0.00     0.031 C 
ATOM     71  C   UNL     1      13.693  10.086  -1.120  1.00  0.00     0.029 A 
ATOM     72  C   UNL     1      14.683  10.538  -1.993  1.00  0.00     0.049 A 
ATOM     73  H   UNL     1      16.691  10.767  -1.386  1.00  0.00     0.167 HD
ATOM     74  C   UNL     1      15.674  11.052  -4.210  1.00  0.00     0.074 A 
ATOM     75  C   UNL     1      17.039  10.541  -4.092  1.00  0.00     0.031 C 
ATOM     76  C   UNL     1      14.636  11.091  -3.323  1.00  0.00     0.037 A 
BRANCH  63  77
ATOM     77  C   UNL     1      18.054   8.327  -0.219  1.00  0.00     0.057 A 
ATOM     78  C   UNL     1      19.177   7.816  -0.900  1.00  0.00     0.134 A 
ATOM     79  C   UNL     1      18.327   9.375   0.681  1.00  0.00     0.134 A 
ATOM     80  F   UNL     1      19.085   6.850  -1.820  1.00  0.00    -0.206 F 
ATOM     81  C   UNL     1      20.460   8.349  -0.749  1.00  0.00     0.040 A 
ATOM     82  C   UNL     1      19.599   9.946   0.804  1.00  0.00     0.040 A 
ATOM     83  F   UNL     1      17.345   9.941   1.398  1.00  0.00    -0.206 F 
ATOM     84  C   UNL     1      20.668   9.444   0.073  1.00  0.00     0.006 A 
ENDBRANCH  63  77
BRANCH  64  85
ATOM     85  C   UNL     1      17.062   9.845  -8.553  1.00  0.00     0.057 A 
ATOM     86  C   UNL     1      17.671   8.746  -9.185  1.00  0.00     0.134 A 
ATOM     87  C   UNL     1      17.495  11.111  -8.969  1.00  0.00     0.134 A 
ATOM     88  F   UNL     1      17.393   7.490  -8.807  1.00  0.00    -0.206 F 
ATOM     89  C   UNL     1      18.658   8.896 -10.165  1.00  0.00     0.040 A 
ATOM     90  C   UNL     1      18.487  11.276  -9.947  1.00  0.00     0.040 A 
ATOM     91  F   UNL     1      17.010  12.220  -8.391  1.00  0.00    -0.206 F 
ATOM     92  C   UNL     1      19.079  10.165 -10.541  1.00  0.00     0.006 A 
ENDBRANCH  64  85
BRANCH  76  93
ATOM     93  C   UNL     1      13.293  11.518  -3.846  1.00  0.00     0.057 A 
ATOM     94  C   UNL     1      12.649  12.607  -3.252  1.00  0.00     0.134 A 
ATOM     95  C   UNL     1      12.579  10.821  -4.833  1.00  0.00     0.134 A 
ATOM     96  F   UNL     1      13.242  13.283  -2.256  1.00  0.00    -0.206 F 
ATOM     97  C   UNL     1      11.368  13.006  -3.639  1.00  0.00     0.040 A 
ATOM     98  C   UNL     1      11.313  11.235  -5.258  1.00  0.00     0.040 A 
ATOM     99  F   UNL     1      13.059   9.696  -5.374  1.00  0.00    -0.206 F 
ATOM    100  C   UNL     1      10.702  12.331  -4.658  1.00  0.00     0.006 A 
ENDBRANCH  76  93
ENDBRANCH  50  51
ENDBRANCH  42  45
ENDBRANCH  40  41
ENDBRANCH  39  40
ENDBRANCH  38  39
ENDBRANCH  37  38
ENDBRANCH   1  37
TORSDOF 19
