REMARK SMILES O=C(COc1ccc(Br)cc1/C=N/Nc1ncccc1[N+](=O)[O-])NCCCCCCNC(=O)c1ccc(-c2c3nc(c(-c4c(F)cccc4F)c4ccc([nH]4)c(-c4c(F)cccc4F)c4nc(c(-c5c(F)cccc5F)c5ccc2[nH]5)C=C4)C=C3)cc1
REMARK SMILES IDX 25 1 24 2 1 3 2 4 3 6 4 7 5 8 6 9 11 10 7 11 10 12 8 13 9 14
REMARK SMILES IDX 12 15 13 16 14 17 15 19 16 20 20 21 17 22 19 23 18 24 21 25
REMARK SMILES IDX 22 26 23 27 26 28 27 29 28 30 29 31 30 32 31 33 32 34 33 36
REMARK SMILES IDX 34 37 35 38 87 39 36 40 86 41 37 42 38 43 39 44 80 45 40 46
REMARK SMILES IDX 85 47 79 48 81 49 41 50 84 51 78 52 77 53 42 55 68 56 51 57
REMARK SMILES IDX 67 58 52 59 55 60 66 61 82 62 53 63 54 64 65 66 83 67 56 68
REMARK SMILES IDX 43 69 44 70 49 71 45 72 46 73 48 74 50 75 47 76 69 77 70 78
REMARK SMILES IDX 75 79 71 80 72 81 74 82 76 83 73 84 57 85 58 86 63 87 59 88
REMARK SMILES IDX 60 89 62 90 64 91 61 92
REMARK H PARENT 24 5 14 18 31 35 81 54 55 65
REMARK Flexibility Score: inf
ROOT
ATOM      1  C   UNL     1       2.127  -2.408  -0.422  1.00  0.00     0.116 C 
ENDROOT
BRANCH   1   2
ATOM      2  N   UNL     1       2.778  -1.161  -0.086  1.00  0.00    -0.353 N 
ATOM      3  O   UNL     1       1.027   0.212  -0.663  1.00  0.00    -0.271 OA
ATOM      4  C   UNL     1       2.133   0.057  -0.153  1.00  0.00     0.257 C 
ATOM      5  H   UNL     1       3.719  -1.181   0.203  1.00  0.00     0.163 HD
BRANCH   4   6
ATOM      6  C   UNL     1       2.915   1.209   0.488  1.00  0.00     0.329 C 
BRANCH   6   7
ATOM      7  O   UNL     1       3.781   0.828   1.565  1.00  0.00    -0.483 OA
BRANCH   7   8
ATOM      8  C   UNL     1       3.155   0.770   2.785  1.00  0.00     0.129 A 
ATOM      9  C   UNL     1       2.107  -0.127   3.021  1.00  0.00     0.048 A 
ATOM     10  C   UNL     1       3.629   1.550   3.848  1.00  0.00     0.038 A 
ATOM     11  C   UNL     1       1.535  -0.236   4.290  1.00  0.00     0.019 A 
ATOM     12  C   UNL     1       3.047   1.451   5.120  1.00  0.00     0.029 A 
ATOM     13  C   UNL     1       2.009   0.550   5.334  1.00  0.00     0.018 A 
ATOM     14  Br  UNL     1       1.261   0.364   7.059  1.00  0.00    -0.051 Br
BRANCH  10  15
ATOM     15  C   UNL     1       4.763   2.473   3.663  1.00  0.00     0.145 C 
ATOM     16  N   UNL     1       4.909   3.511   4.430  1.00  0.00    -0.181 NA
BRANCH  16  17
ATOM     17  N   UNL     1       6.003   4.284   4.232  1.00  0.00    -0.256 N 
ATOM     18  H   UNL     1       6.529   4.516   5.032  1.00  0.00     0.192 HD
BRANCH  17  19
ATOM     19  C   UNL     1       6.463   4.786   3.016  1.00  0.00     0.225 A 
ATOM     20  N   UNL     1       7.814   4.920   2.957  1.00  0.00    -0.232 NA
ATOM     21  C   UNL     1       5.690   5.061   1.896  1.00  0.00     0.313 A 
ATOM     22  C   UNL     1       8.385   5.248   1.774  1.00  0.00     0.114 A 
ATOM     23  C   UNL     1       6.288   5.383   0.671  1.00  0.00     0.091 A 
ATOM     24  C   UNL     1       7.673   5.463   0.609  1.00  0.00     0.027 A 
BRANCH  21  25
ATOM     25  N   UNL     1       4.251   5.079   1.966  1.00  0.00     0.066 N 
ATOM     26  O   UNL     1       3.719   5.935   2.684  1.00  0.00    -0.258 OA
ATOM     27  O   UNL     1       3.651   4.299   1.210  1.00  0.00    -0.258 OA
ENDBRANCH  21  25
ENDBRANCH  17  19
ENDBRANCH  16  17
ENDBRANCH  10  15
ENDBRANCH   7   8
ENDBRANCH   6   7
ENDBRANCH   4   6
ENDBRANCH   1   2
BRANCH   1  28
ATOM     28  C   UNL     1       2.697  -3.044  -1.684  1.00  0.00     0.021 C 
BRANCH  28  29
ATOM     29  C   UNL     1       4.193  -3.372  -1.610  1.00  0.00     0.002 C 
BRANCH  29  30
ATOM     30  C   UNL     1       4.609  -4.307  -0.470  1.00  0.00     0.002 C 
BRANCH  30  31
ATOM     31  C   UNL     1       3.906  -5.666  -0.446  1.00  0.00     0.021 C 
BRANCH  31  32
ATOM     32  C   UNL     1       4.052  -6.490  -1.720  1.00  0.00     0.116 C 
BRANCH  32  33
ATOM     33  N   UNL     1       5.434  -6.851  -1.997  1.00  0.00    -0.352 N 
ATOM     34  C   UNL     1       5.977  -8.082  -2.269  1.00  0.00     0.251 C 
ATOM     35  H   UNL     1       6.074  -6.103  -1.987  1.00  0.00     0.163 HD
ATOM     36  O   UNL     1       7.197  -8.222  -2.314  1.00  0.00    -0.269 OA
BRANCH  34  37
ATOM     37  C   UNL     1       5.096  -9.250  -2.482  1.00  0.00     0.039 A 
ATOM     38  C   UNL     1       5.420 -10.462  -1.868  1.00  0.00     0.014 A 
ATOM     39  C   UNL     1       3.956  -9.154  -3.285  1.00  0.00     0.014 A 
ATOM     40  C   UNL     1       4.566 -11.559  -2.005  1.00  0.00     0.010 A 
ATOM     41  C   UNL     1       3.067 -10.224  -3.358  1.00  0.00     0.010 A 
ATOM     42  C   UNL     1       3.363 -11.438  -2.720  1.00  0.00    -0.014 A 
BRANCH  42  43
ATOM     43  C   UNL     1       2.402 -12.568  -2.806  1.00  0.00     0.031 A 
ATOM     44  C   UNL     1       2.076 -13.189  -4.137  1.00  0.00     0.074 A 
ATOM     45  C   UNL     1       1.774 -12.996  -1.693  1.00  0.00     0.049 A 
ATOM     46  N   UNL     1       1.219 -14.137  -4.420  1.00  0.00    -0.248 NA
ATOM     47  C   UNL     1       2.791 -12.658  -5.308  1.00  0.00     0.031 C 
ATOM     48  C   UNL     1       1.968 -12.449  -0.349  1.00  0.00     0.029 A 
ATOM     49  N   UNL     1       0.837 -13.984  -1.516  1.00  0.00    -0.354 N 
ATOM     50  C   UNL     1       1.283 -14.307  -5.797  1.00  0.00     0.074 A 
ATOM     51  C   UNL     1       2.221 -13.326  -6.300  1.00  0.00     0.031 C 
ATOM     52  C   UNL     1       1.194 -13.123   0.517  1.00  0.00     0.029 A 
ATOM     53  C   UNL     1       0.417 -14.119  -0.214  1.00  0.00     0.049 A 
ATOM     54  H   UNL     1       0.498 -14.543  -2.252  1.00  0.00     0.167 HD
ATOM     55  C   UNL     1       0.638 -15.213  -6.571  1.00  0.00     0.037 A 
ATOM     56  C   UNL     1      -0.498 -14.945   0.328  1.00  0.00     0.037 A 
ATOM     57  C   UNL     1      -0.283 -16.198  -6.066  1.00  0.00     0.049 A 
ATOM     58  C   UNL     1      -1.218 -15.926  -0.557  1.00  0.00     0.074 A 
ATOM     59  C   UNL     1      -0.946 -17.194  -6.762  1.00  0.00     0.029 A 
ATOM     60  N   UNL     1      -0.676 -16.308  -4.741  1.00  0.00    -0.354 N 
ATOM     61  N   UNL     1      -1.095 -16.122  -1.847  1.00  0.00    -0.248 NA
ATOM     62  C   UNL     1      -2.200 -16.805   0.092  1.00  0.00     0.031 C 
ATOM     63  C   UNL     1      -1.781 -17.871  -5.869  1.00  0.00     0.029 A 
ATOM     64  C   UNL     1      -1.594 -17.337  -4.604  1.00  0.00     0.049 A 
ATOM     65  H   UNL     1      -0.352 -15.738  -4.006  1.00  0.00     0.167 HD
ATOM     66  C   UNL     1      -1.959 -17.165  -2.158  1.00  0.00     0.074 A 
ATOM     67  C   UNL     1      -2.588 -17.570  -0.919  1.00  0.00     0.031 C 
ATOM     68  C   UNL     1      -2.207 -17.736  -3.362  1.00  0.00     0.037 A 
BRANCH  55  69
ATOM     69  C   UNL     1       0.906 -15.180  -8.049  1.00  0.00     0.057 A 
ATOM     70  C   UNL     1       2.144 -15.557  -8.586  1.00  0.00     0.134 A 
ATOM     71  C   UNL     1      -0.099 -14.803  -8.950  1.00  0.00     0.134 A 
ATOM     72  F   UNL     1       3.153 -15.918  -7.779  1.00  0.00    -0.206 F 
ATOM     73  C   UNL     1       2.383 -15.534  -9.961  1.00  0.00     0.040 A 
ATOM     74  C   UNL     1       0.118 -14.806 -10.329  1.00  0.00     0.040 A 
ATOM     75  F   UNL     1      -1.311 -14.438  -8.506  1.00  0.00    -0.206 F 
ATOM     76  C   UNL     1       1.365 -15.165 -10.838  1.00  0.00     0.006 A 
ENDBRANCH  55  69
BRANCH  56  77
ATOM     77  C   UNL     1      -0.778 -14.894   1.786  1.00  0.00     0.057 A 
ATOM     78  C   UNL     1      -0.421 -15.953   2.629  1.00  0.00     0.134 A 
ATOM     79  C   UNL     1      -1.423 -13.797   2.369  1.00  0.00     0.134 A 
ATOM     80  F   UNL     1       0.183 -17.040   2.127  1.00  0.00    -0.206 F 
ATOM     81  C   UNL     1      -0.715 -15.934   3.993  1.00  0.00     0.040 A 
ATOM     82  C   UNL     1      -1.698 -13.752   3.737  1.00  0.00     0.040 A 
ATOM     83  F   UNL     1      -1.785 -12.745   1.619  1.00  0.00    -0.206 F 
ATOM     84  C   UNL     1      -1.352 -14.828   4.551  1.00  0.00     0.006 A 
ENDBRANCH  56  77
BRANCH  68  85
ATOM     85  C   UNL     1      -3.171 -18.888  -3.393  1.00  0.00     0.057 A 
ATOM     86  C   UNL     1      -4.546 -18.712  -3.193  1.00  0.00     0.134 A 
ATOM     87  C   UNL     1      -2.718 -20.186  -3.665  1.00  0.00     0.134 A 
ATOM     88  F   UNL     1      -5.044 -17.498  -2.916  1.00  0.00    -0.206 F 
ATOM     89  C   UNL     1      -5.433 -19.790  -3.237  1.00  0.00     0.040 A 
ATOM     90  C   UNL     1      -3.598 -21.266  -3.742  1.00  0.00     0.040 A 
ATOM     91  F   UNL     1      -1.415 -20.423  -3.876  1.00  0.00    -0.206 F 
ATOM     92  C   UNL     1      -4.960 -21.070  -3.520  1.00  0.00     0.006 A 
ENDBRANCH  68  85
ENDBRANCH  42  43
ENDBRANCH  34  37
ENDBRANCH  32  33
ENDBRANCH  31  32
ENDBRANCH  30  31
ENDBRANCH  29  30
ENDBRANCH  28  29
ENDBRANCH   1  28
TORSDOF 19
