REMARK SMILES Cc1ccccc1OCC(=O)N[C@@H](Cc1c[nH]c2ccccc12)C(=O)NCCCCCCNC(=O)c1ccc(-c2c3nc(c(-c4c(F)cccc4F)c4ccc([nH]4)c(-c4c(F)cccc4F)c4nc(c(-c5c(F)cccc5F)c5ccc2[nH]5)C=C4)C=C3)cc1
REMARK SMILES IDX 28 1 27 2 26 3 24 4 25 5 13 7 12 8 10 9 11 10 9 12 8 13 7 14
REMARK SMILES IDX 1 15 2 16 3 17 4 18 6 19 5 20 14 21 15 22 16 23 23 24 17 25
REMARK SMILES IDX 18 26 22 27 19 29 21 30 20 31 29 32 30 33 31 34 32 35 33 36
REMARK SMILES IDX 34 37 35 39 36 40 37 41 89 42 38 43 88 44 39 45 40 46 41 47
REMARK SMILES IDX 82 48 42 49 87 50 81 51 83 52 43 53 86 54 80 55 79 56 44 58
REMARK SMILES IDX 70 59 53 60 69 61 54 62 57 63 68 64 84 65 55 66 56 67 67 69
REMARK SMILES IDX 85 70 58 71 45 72 46 73 51 74 47 75 48 76 50 77 52 78 49 79
REMARK SMILES IDX 71 80 72 81 77 82 73 83 74 84 76 85 78 86 75 87 59 88 60 89
REMARK SMILES IDX 65 90 61 91 62 92 64 93 66 94 63 95
REMARK H PARENT 26 6 12 11 17 28 33 38 83 57 57 68
REMARK Flexibility Score: inf
ROOT
ATOM      1  C   UNL     1       4.630   2.711   5.995  1.00  0.00     0.021 C 
ENDROOT
BRANCH   1   2
ATOM      2  C   UNL     1       3.276   3.059   5.386  1.00  0.00     0.116 C 
BRANCH   2   3
ATOM      3  N   UNL     1       3.273   4.164   4.453  1.00  0.00    -0.354 N 
ATOM      4  C   UNL     1       2.359   4.452   3.475  1.00  0.00     0.242 C 
ATOM      5  O   UNL     1       2.204   5.647   3.196  1.00  0.00    -0.273 OA
ATOM      6  H   UNL     1       4.028   4.791   4.531  1.00  0.00     0.163 HD
BRANCH   4   7
ATOM      7  C   UNL     1       1.479   3.379   2.773  1.00  0.00     0.175 C 
BRANCH   7   8
ATOM      8  N   UNL     1       2.232   2.161   2.477  1.00  0.00    -0.341 N 
ATOM      9  C   UNL     1       2.924   1.893   1.334  1.00  0.00     0.258 C 
ATOM     10  O   UNL     1       3.925   1.179   1.410  1.00  0.00    -0.271 OA
ATOM     11  H   UNL     1       2.240   1.465   3.174  1.00  0.00     0.164 HD
BRANCH   9  12
ATOM     12  C   UNL     1       2.443   2.474   0.000  1.00  0.00     0.329 C 
BRANCH  12  13
ATOM     13  O   UNL     1       1.091   2.288  -0.377  1.00  0.00    -0.484 OA
BRANCH  13  14
ATOM     14  C   UNL     1       0.464   1.081  -0.247  1.00  0.00     0.122 A 
ATOM     15  C   UNL     1       2.417  -0.586  -0.614  1.00  0.00     0.048 C 
ATOM     16  C   UNL     1       0.991  -0.217  -0.324  1.00  0.00    -0.009 A 
ATOM     17  C   UNL     1       0.118  -1.311  -0.118  1.00  0.00     0.007 A 
ATOM     18  C   UNL     1      -1.248  -1.135   0.088  1.00  0.00     0.001 A 
ATOM     19  C   UNL     1      -0.923   1.239  -0.067  1.00  0.00     0.047 A 
ATOM     20  C   UNL     1      -1.774   0.146   0.099  1.00  0.00     0.004 A 
ENDBRANCH  13  14
ENDBRANCH  12  13
ENDBRANCH   9  12
ENDBRANCH   7   8
BRANCH   7  21
ATOM     21  C   UNL     1       0.103   3.148   3.418  1.00  0.00     0.072 C 
BRANCH  21  22
ATOM     22  C   UNL     1       0.083   2.575   4.800  1.00  0.00    -0.020 A 
ATOM     23  C   UNL     1      -0.084   3.292   5.971  1.00  0.00     0.087 A 
ATOM     24  C   UNL     1       0.193   1.196   5.174  1.00  0.00     0.003 A 
ATOM     25  N   UNL     1      -0.023   2.421   7.024  1.00  0.00    -0.361 N 
ATOM     26  C   UNL     1       0.181   1.140   6.569  1.00  0.00     0.046 A 
ATOM     27  C   UNL     1       0.325  -0.010   4.456  1.00  0.00     0.010 A 
ATOM     28  H   UNL     1      -0.112   2.675   7.971  1.00  0.00     0.166 HD
ATOM     29  C   UNL     1       0.341  -0.054   7.283  1.00  0.00     0.026 A 
ATOM     30  C   UNL     1       0.466  -1.216   5.154  1.00  0.00     0.001 A 
ATOM     31  C   UNL     1       0.486  -1.233   6.547  1.00  0.00     0.002 A 
ENDBRANCH  21  22
ENDBRANCH   7  21
ENDBRANCH   4   7
ENDBRANCH   2   3
ENDBRANCH   1   2
BRANCH   1  32
ATOM     32  C   UNL     1       5.139   3.640   7.104  1.00  0.00     0.002 C 
BRANCH  32  33
ATOM     33  C   UNL     1       4.151   4.046   8.213  1.00  0.00     0.002 C 
BRANCH  33  34
ATOM     34  C   UNL     1       3.275   2.946   8.821  1.00  0.00     0.021 C 
BRANCH  34  35
ATOM     35  C   UNL     1       4.021   1.871   9.593  1.00  0.00     0.116 C 
BRANCH  35  36
ATOM     36  N   UNL     1       4.018   2.054  11.039  1.00  0.00    -0.352 N 
ATOM     37  C   UNL     1       4.699   1.315  11.995  1.00  0.00     0.251 C 
ATOM     38  H   UNL     1       3.463   2.792  11.379  1.00  0.00     0.163 HD
ATOM     39  O   UNL     1       4.616   1.595  13.179  1.00  0.00    -0.269 OA
BRANCH  37  40
ATOM     40  C   UNL     1       5.635   0.262  11.532  1.00  0.00     0.039 A 
ATOM     41  C   UNL     1       6.967   0.358  11.942  1.00  0.00     0.014 A 
ATOM     42  C   UNL     1       5.265  -0.623  10.521  1.00  0.00     0.014 A 
ATOM     43  C   UNL     1       7.957  -0.231  11.161  1.00  0.00     0.010 A 
ATOM     44  C   UNL     1       6.248  -1.137   9.696  1.00  0.00     0.010 A 
ATOM     45  C   UNL     1       7.593  -0.875   9.975  1.00  0.00    -0.014 A 
BRANCH  45  46
ATOM     46  C   UNL     1       8.560  -1.145   8.916  1.00  0.00     0.031 A 
ATOM     47  C   UNL     1       9.093  -2.503   8.701  1.00  0.00     0.074 A 
ATOM     48  C   UNL     1       9.002  -0.132   8.137  1.00  0.00     0.049 A 
ATOM     49  N   UNL     1      10.307  -2.749   8.335  1.00  0.00    -0.248 NA
ATOM     50  C   UNL     1       8.293  -3.701   8.913  1.00  0.00     0.031 C 
ATOM     51  C   UNL     1       9.846  -0.237   6.951  1.00  0.00     0.029 A 
ATOM     52  N   UNL     1       8.944   1.241   8.408  1.00  0.00    -0.354 N 
ATOM     53  C   UNL     1      10.380  -4.085   8.016  1.00  0.00     0.074 A 
ATOM     54  C   UNL     1       9.120  -4.646   8.454  1.00  0.00     0.031 C 
ATOM     55  C   UNL     1      10.457   0.941   6.752  1.00  0.00     0.029 A 
ATOM     56  C   UNL     1      10.117   1.806   7.869  1.00  0.00     0.049 A 
ATOM     57  H   UNL     1       8.224   1.719   8.881  1.00  0.00     0.167 HD
ATOM     58  C   UNL     1      11.432  -4.559   7.286  1.00  0.00     0.037 A 
ATOM     59  C   UNL     1      11.014   2.475   8.646  1.00  0.00     0.037 A 
ATOM     60  C   UNL     1      12.355  -3.491   6.916  1.00  0.00     0.049 A 
ATOM     61  C   UNL     1      12.398   1.873   8.643  1.00  0.00     0.074 A 
ATOM     62  C   UNL     1      12.464  -2.729   5.764  1.00  0.00     0.029 A 
ATOM     63  N   UNL     1      13.132  -2.862   7.881  1.00  0.00    -0.354 N 
ATOM     64  N   UNL     1      12.661   0.661   8.244  1.00  0.00    -0.248 NA
ATOM     65  C   UNL     1      13.585   2.570   9.133  1.00  0.00     0.031 C 
ATOM     66  C   UNL     1      13.280  -1.612   6.049  1.00  0.00     0.029 A 
ATOM     67  C   UNL     1      13.679  -1.699   7.370  1.00  0.00     0.049 A 
ATOM     68  H   UNL     1      13.273  -3.196   8.797  1.00  0.00     0.167 HD
ATOM     69  C   UNL     1      13.989   0.391   8.453  1.00  0.00     0.074 A 
ATOM     70  C   UNL     1      14.531   1.626   8.984  1.00  0.00     0.031 C 
ATOM     71  C   UNL     1      14.522  -0.837   8.183  1.00  0.00     0.037 A 
BRANCH  58  72
ATOM     72  C   UNL     1      11.425  -5.923   6.634  1.00  0.00     0.057 A 
ATOM     73  C   UNL     1      12.009  -6.136   5.370  1.00  0.00     0.134 A 
ATOM     74  C   UNL     1      10.808  -7.057   7.188  1.00  0.00     0.134 A 
ATOM     75  F   UNL     1      12.746  -5.198   4.763  1.00  0.00    -0.206 F 
ATOM     76  C   UNL     1      11.863  -7.332   4.655  1.00  0.00     0.040 A 
ATOM     77  C   UNL     1      10.609  -8.243   6.465  1.00  0.00     0.040 A 
ATOM     78  F   UNL     1      10.401  -7.072   8.466  1.00  0.00    -0.206 F 
ATOM     79  C   UNL     1      11.121  -8.376   5.183  1.00  0.00     0.006 A 
ENDBRANCH  58  72
BRANCH  59  80
ATOM     80  C   UNL     1      10.401   3.175   9.801  1.00  0.00     0.057 A 
ATOM     81  C   UNL     1       9.536   4.255   9.556  1.00  0.00     0.134 A 
ATOM     82  C   UNL     1      10.363   2.604  11.076  1.00  0.00     0.134 A 
ATOM     83  F   UNL     1       9.523   4.848   8.351  1.00  0.00    -0.206 F 
ATOM     84  C   UNL     1       8.602   4.683  10.501  1.00  0.00     0.040 A 
ATOM     85  C   UNL     1       9.437   3.030  12.035  1.00  0.00     0.040 A 
ATOM     86  F   UNL     1      11.143   1.557  11.379  1.00  0.00    -0.206 F 
ATOM     87  C   UNL     1       8.529   4.046  11.736  1.00  0.00     0.006 A 
ENDBRANCH  59  80
BRANCH  71  88
ATOM     88  C   UNL     1      15.907  -1.301   8.554  1.00  0.00     0.057 A 
ATOM     89  C   UNL     1      16.609  -0.860   9.685  1.00  0.00     0.134 A 
ATOM     90  C   UNL     1      16.531  -2.341   7.829  1.00  0.00     0.134 A 
ATOM     91  F   UNL     1      16.087   0.043  10.526  1.00  0.00    -0.206 F 
ATOM     92  C   UNL     1      17.867  -1.371  10.035  1.00  0.00     0.040 A 
ATOM     93  C   UNL     1      17.761  -2.893   8.198  1.00  0.00     0.040 A 
ATOM     94  F   UNL     1      15.962  -2.882   6.742  1.00  0.00    -0.206 F 
ATOM     95  C   UNL     1      18.443  -2.397   9.298  1.00  0.00     0.006 A 
ENDBRANCH  71  88
ENDBRANCH  45  46
ENDBRANCH  37  40
ENDBRANCH  35  36
ENDBRANCH  34  35
ENDBRANCH  33  34
ENDBRANCH  32  33
ENDBRANCH   1  32
TORSDOF 19
