REMARK SMILES Cc1ccc(CNC(=O)NC[C@@H](CC(C)C)C(=O)NCCCCCCNC(=O)c2ccc(-c3c4nc(c(-c5c(F)cccc5F)c5ccc([nH]5)c(-c5c(F)cccc5F)c5nc(c(-c6c(F)cccc6F)c6ccc3[nH]6)C=C5)C=C4)cc2)s1
REMARK SMILES IDX 21 1 20 2 19 3 17 4 18 5 12 7 11 8 10 9 7 10 8 11 9 13 6 15
REMARK SMILES IDX 5 16 1 17 2 18 3 19 83 20 4 21 13 22 14 23 15 24 16 25 22 26
REMARK SMILES IDX 23 27 24 28 25 29 26 30 27 31 28 33 29 34 30 35 82 36 31 37
REMARK SMILES IDX 81 38 32 39 33 40 34 41 75 42 35 43 80 44 74 45 76 46 36 47
REMARK SMILES IDX 79 48 73 49 72 50 37 52 63 53 46 54 62 55 47 56 50 57 61 58
REMARK SMILES IDX 77 59 48 60 49 61 60 63 78 64 51 65 38 66 39 67 44 68 40 69
REMARK SMILES IDX 41 70 43 71 45 72 42 73 64 74 65 75 70 76 66 77 67 78 69 79
REMARK SMILES IDX 71 80 68 81 52 82 53 83 58 84 54 85 55 86 57 87 59 88 56 89
REMARK H PARENT 19 6 7 12 10 14 26 32 76 51 50 62
REMARK Flexibility Score: inf
ROOT
ATOM      1  C   UNL     1      -0.723   2.224  -4.346  1.00  0.00     0.021 C 
ENDROOT
BRANCH   1   2
ATOM      2  C   UNL     1      -2.031   2.890  -3.950  1.00  0.00     0.116 C 
BRANCH   2   3
ATOM      3  N   UNL     1      -3.148   1.971  -3.905  1.00  0.00    -0.356 N 
ATOM      4  C   UNL     1      -4.328   2.036  -3.234  1.00  0.00     0.224 C 
ATOM      5  O   UNL     1      -5.181   1.193  -3.530  1.00  0.00    -0.275 OA
ATOM      6  H   UNL     1      -3.033   1.162  -4.454  1.00  0.00     0.163 HD
BRANCH   4   7
ATOM      7  C   UNL     1      -4.640   3.092  -2.177  1.00  0.00     0.098 C 
BRANCH   7   8
ATOM      8  C   UNL     1      -3.504   3.321  -1.172  1.00  0.00     0.131 C 
BRANCH   8   9
ATOM      9  N   UNL     1      -3.976   3.455   0.196  1.00  0.00    -0.337 N 
ATOM     10  N   UNL     1      -3.105   1.574   1.327  1.00  0.00    -0.333 N 
ATOM     11  C   UNL     1      -3.637   2.801   1.318  1.00  0.00     0.315 C 
ATOM     12  H   UNL     1      -2.636   1.356   2.164  1.00  0.00     0.165 HD
ATOM     13  O   UNL     1      -3.824   3.368   2.396  1.00  0.00    -0.249 OA
ATOM     14  H   UNL     1      -4.665   4.146   0.321  1.00  0.00     0.165 HD
BRANCH  10  15
ATOM     15  C   UNL     1      -3.081   0.502   0.354  1.00  0.00     0.164 C 
BRANCH  15  16
ATOM     16  C   UNL     1      -1.690  -0.048   0.207  1.00  0.00     0.024 A 
ATOM     17  C   UNL     1       2.236  -0.110  -0.021  1.00  0.00     0.056 C 
ATOM     18  C   UNL     1       0.765  -0.349   0.023  1.00  0.00     0.002 A 
ATOM     19  C   UNL     1       0.092  -1.551   0.018  1.00  0.00     0.015 A 
ATOM     20  S   UNL     1      -0.315   0.975   0.088  1.00  0.00    -0.144 S 
ATOM     21  C   UNL     1      -1.319  -1.378   0.121  1.00  0.00     0.017 A 
ENDBRANCH  15  16
ENDBRANCH  10  15
ENDBRANCH   8   9
ENDBRANCH   7   8
BRANCH   7  22
ATOM     22  C   UNL     1      -5.279   4.393  -2.729  1.00  0.00     0.018 C 
BRANCH  22  23
ATOM     23  C   UNL     1      -4.466   5.221  -3.746  1.00  0.00    -0.017 C 
ATOM     24  C   UNL     1      -4.738   4.783  -5.191  1.00  0.00     0.007 C 
ATOM     25  C   UNL     1      -4.788   6.715  -3.634  1.00  0.00     0.007 C 
ENDBRANCH  22  23
ENDBRANCH   7  22
ENDBRANCH   4   7
ENDBRANCH   2   3
ENDBRANCH   1   2
BRANCH   1  26
ATOM     26  C   UNL     1      -0.636   1.829  -5.823  1.00  0.00     0.002 C 
BRANCH  26  27
ATOM     27  C   UNL     1      -0.987   2.927  -6.836  1.00  0.00     0.002 C 
BRANCH  27  28
ATOM     28  C   UNL     1      -0.273   4.268  -6.651  1.00  0.00     0.021 C 
BRANCH  28  29
ATOM     29  C   UNL     1       1.244   4.188  -6.552  1.00  0.00     0.116 C 
BRANCH  29  30
ATOM     30  N   UNL     1       1.848   3.552  -7.707  1.00  0.00    -0.352 N 
ATOM     31  C   UNL     1       2.957   3.930  -8.422  1.00  0.00     0.251 C 
ATOM     32  H   UNL     1       1.400   2.735  -8.023  1.00  0.00     0.163 HD
ATOM     33  O   UNL     1       3.248   3.349  -9.460  1.00  0.00    -0.269 OA
BRANCH  31  34
ATOM     34  C   UNL     1       3.786   5.058  -7.946  1.00  0.00     0.039 A 
ATOM     35  C   UNL     1       4.230   6.001  -8.875  1.00  0.00     0.014 A 
ATOM     36  C   UNL     1       4.132   5.182  -6.597  1.00  0.00     0.014 A 
ATOM     37  C   UNL     1       4.991   7.088  -8.446  1.00  0.00     0.010 A 
ATOM     38  C   UNL     1       4.816   6.310  -6.159  1.00  0.00     0.010 A 
ATOM     39  C   UNL     1       5.272   7.263  -7.081  1.00  0.00    -0.014 A 
BRANCH  39  40
ATOM     40  C   UNL     1       6.082   8.413  -6.606  1.00  0.00     0.031 A 
ATOM     41  C   UNL     1       7.413   8.169  -5.948  1.00  0.00     0.074 A 
ATOM     42  C   UNL     1       5.606   9.666  -6.727  1.00  0.00     0.049 A 
ATOM     43  N   UNL     1       8.247   9.029  -5.422  1.00  0.00    -0.248 NA
ATOM     44  C   UNL     1       7.852   6.768  -5.842  1.00  0.00     0.031 C 
ATOM     45  C   UNL     1       4.315  10.029  -7.314  1.00  0.00     0.029 A 
ATOM     46  N   UNL     1       6.154  10.869  -6.360  1.00  0.00    -0.354 N 
ATOM     47  C   UNL     1       9.298   8.274  -4.915  1.00  0.00     0.074 A 
ATOM     48  C   UNL     1       8.964   6.884  -5.134  1.00  0.00     0.031 C 
ATOM     49  C   UNL     1       4.185  11.366  -7.296  1.00  0.00     0.029 A 
ATOM     50  C   UNL     1       5.362  11.950  -6.660  1.00  0.00     0.049 A 
ATOM     51  H   UNL     1       7.032  10.950  -5.922  1.00  0.00     0.167 HD
ATOM     52  C   UNL     1      10.451   8.699  -4.347  1.00  0.00     0.037 A 
ATOM     53  C   UNL     1       5.563  13.264  -6.444  1.00  0.00     0.037 A 
ATOM     54  C   UNL     1      10.786  10.084  -4.146  1.00  0.00     0.049 A 
ATOM     55  C   UNL     1       6.840  13.710  -5.786  1.00  0.00     0.074 A 
ATOM     56  C   UNL     1      11.945  10.623  -3.616  1.00  0.00     0.029 A 
ATOM     57  N   UNL     1       9.959  11.150  -4.468  1.00  0.00    -0.354 N 
ATOM     58  N   UNL     1       7.852  12.990  -5.365  1.00  0.00    -0.248 NA
ATOM     59  C   UNL     1       7.007  15.156  -5.582  1.00  0.00     0.031 C 
ATOM     60  C   UNL     1      11.797  12.013  -3.568  1.00  0.00     0.029 A 
ATOM     61  C   UNL     1      10.573  12.344  -4.128  1.00  0.00     0.049 A 
ATOM     62  H   UNL     1       9.067  11.070  -4.876  1.00  0.00     0.167 HD
ATOM     63  C   UNL     1       8.790  13.894  -4.884  1.00  0.00     0.074 A 
ATOM     64  C   UNL     1       8.230  15.216  -5.075  1.00  0.00     0.031 C 
ATOM     65  C   UNL     1      10.008  13.653  -4.339  1.00  0.00     0.037 A 
BRANCH  52  66
ATOM     66  C   UNL     1      11.430   7.649  -3.904  1.00  0.00     0.057 A 
ATOM     67  C   UNL     1      12.115   6.839  -4.822  1.00  0.00     0.134 A 
ATOM     68  C   UNL     1      11.704   7.452  -2.544  1.00  0.00     0.134 A 
ATOM     69  F   UNL     1      11.891   6.965  -6.139  1.00  0.00    -0.206 F 
ATOM     70  C   UNL     1      13.007   5.851  -4.403  1.00  0.00     0.040 A 
ATOM     71  C   UNL     1      12.620   6.489  -2.115  1.00  0.00     0.040 A 
ATOM     72  F   UNL     1      11.091   8.194  -1.610  1.00  0.00    -0.206 F 
ATOM     73  C   UNL     1      13.267   5.678  -3.045  1.00  0.00     0.006 A 
ENDBRANCH  52  66
BRANCH  53  74
ATOM     74  C   UNL     1       4.549  14.256  -6.882  1.00  0.00     0.057 A 
ATOM     75  C   UNL     1       4.816  15.146  -7.930  1.00  0.00     0.134 A 
ATOM     76  C   UNL     1       3.298  14.352  -6.260  1.00  0.00     0.134 A 
ATOM     77  F   UNL     1       6.002  15.115  -8.556  1.00  0.00    -0.206 F 
ATOM     78  C   UNL     1       3.888  16.111  -8.326  1.00  0.00     0.040 A 
ATOM     79  C   UNL     1       2.350  15.294  -6.664  1.00  0.00     0.040 A 
ATOM     80  F   UNL     1       2.976  13.523  -5.256  1.00  0.00    -0.206 F 
ATOM     81  C   UNL     1       2.649  16.183  -7.694  1.00  0.00     0.006 A 
ENDBRANCH  53  74
BRANCH  65  82
ATOM     82  C   UNL     1      10.844  14.844  -3.963  1.00  0.00     0.057 A 
ATOM     83  C   UNL     1      10.522  15.670  -2.880  1.00  0.00     0.134 A 
ATOM     84  C   UNL     1      12.011  15.142  -4.679  1.00  0.00     0.134 A 
ATOM     85  F   UNL     1       9.411  15.447  -2.160  1.00  0.00    -0.206 F 
ATOM     86  C   UNL     1      11.315  16.767  -2.539  1.00  0.00     0.040 A 
ATOM     87  C   UNL     1      12.829  16.216  -4.328  1.00  0.00     0.040 A 
ATOM     88  F   UNL     1      12.384  14.385  -5.721  1.00  0.00    -0.206 F 
ATOM     89  C   UNL     1      12.477  17.038  -3.260  1.00  0.00     0.006 A 
ENDBRANCH  65  82
ENDBRANCH  39  40
ENDBRANCH  31  34
ENDBRANCH  29  30
ENDBRANCH  28  29
ENDBRANCH  27  28
ENDBRANCH  26  27
ENDBRANCH   1  26
TORSDOF 19
