REMARK SMILES CC(C)(Oc1ccc(Cl)cc1)C(=O)N1CCC[C@H](C(=O)NCCCCCCNC(=O)c2ccc(-c3c4nc(c(-c5c(F)cccc5F)c5ccc([nH]5)c(-c5c(F)cccc5F)c5nc(c(-c6c(F)cccc6F)c6ccc3[nH]6)C=C5)C=C4)cc2)C1
REMARK SMILES IDX 23 1 22 2 21 3 19 4 20 5 18 7 14 8 15 9 85 10 16 11 17 12
REMARK SMILES IDX 12 13 13 14 2 15 1 16 3 17 4 18 5 19 6 20 11 21 7 22 10 23
REMARK SMILES IDX 8 24 9 25 24 26 25 27 26 28 27 29 28 30 29 31 30 33 31 34
REMARK SMILES IDX 32 35 84 36 33 37 83 38 34 39 35 40 36 41 77 42 37 43 82 44
REMARK SMILES IDX 76 45 78 46 38 47 81 48 75 49 74 50 39 52 65 53 48 54 64 55
REMARK SMILES IDX 49 56 52 57 63 58 79 59 50 60 51 61 62 63 80 64 53 65 40 66
REMARK SMILES IDX 41 67 46 68 42 69 43 70 45 71 47 72 44 73 66 74 67 75 72 76
REMARK SMILES IDX 68 77 69 78 71 79 73 80 70 81 54 82 55 83 60 84 56 85 57 86
REMARK SMILES IDX 59 87 61 88 58 89
REMARK H PARENT 21 6 28 32 78 51 52 62
REMARK Flexibility Score: inf
ROOT
ATOM      1  C   UNL     1       1.717  -5.826  -0.694  1.00  0.00     0.021 C 
ENDROOT
BRANCH   1   2
ATOM      2  C   UNL     1       0.789  -4.734  -0.171  1.00  0.00     0.116 C 
BRANCH   2   3
ATOM      3  N   UNL     1      -0.592  -5.146  -0.079  1.00  0.00    -0.356 N 
ATOM      4  C   UNL     1      -1.483  -5.059   0.940  1.00  0.00     0.224 C 
ATOM      5  O   UNL     1      -2.657  -5.337   0.664  1.00  0.00    -0.275 OA
ATOM      6  H   UNL     1      -0.948  -5.563  -0.897  1.00  0.00     0.163 HD
BRANCH   4   7
ATOM      7  C   UNL     1      -1.129  -4.664   2.381  1.00  0.00     0.098 C 
ATOM      8  N   UNL     1       0.677  -2.939   2.564  1.00  0.00    -0.338 N 
ATOM      9  C   UNL     1       1.476  -3.806   3.436  1.00  0.00     0.119 C 
ATOM     10  C   UNL     1      -0.759  -3.189   2.575  1.00  0.00     0.133 C 
ATOM     11  C   UNL     1       1.237  -5.297   3.210  1.00  0.00     0.022 C 
ATOM     12  C   UNL     1      -0.240  -5.663   3.126  1.00  0.00     0.017 C 
BRANCH   8  13
ATOM     13  C   UNL     1       1.329  -2.034   1.727  1.00  0.00     0.266 C 
ATOM     14  O   UNL     1       2.492  -2.281   1.377  1.00  0.00    -0.270 OA
BRANCH  13  15
ATOM     15  C   UNL     1       0.687  -0.624   1.402  1.00  0.00     0.181 C 
ATOM     16  C   UNL     1       1.480  -0.027   0.218  1.00  0.00     0.067 C 
ATOM     17  C   UNL     1       0.944   0.202   2.679  1.00  0.00     0.067 C 
BRANCH  15  18
ATOM     18  O   UNL     1      -0.702  -0.688   1.030  1.00  0.00    -0.478 OA
BRANCH  18  19
ATOM     19  C   UNL     1      -1.452   0.449   1.166  1.00  0.00     0.121 A 
ATOM     20  C   UNL     1      -1.341   1.519   0.279  1.00  0.00     0.048 A 
ATOM     21  C   UNL     1      -2.417   0.484   2.175  1.00  0.00     0.048 A 
ATOM     22  C   UNL     1      -2.121   2.665   0.459  1.00  0.00     0.024 A 
ATOM     23  C   UNL     1      -3.211   1.622   2.347  1.00  0.00     0.024 A 
ATOM     24  C   UNL     1      -3.047   2.716   1.498  1.00  0.00     0.041 A 
ATOM     25  Cl  UNL     1      -4.003   4.128   1.723  1.00  0.00    -0.084 Cl
ENDBRANCH  18  19
ENDBRANCH  15  18
ENDBRANCH  13  15
ENDBRANCH   8  13
ENDBRANCH   4   7
ENDBRANCH   2   3
ENDBRANCH   1   2
BRANCH   1  26
ATOM     26  C   UNL     1       2.071  -5.690  -2.176  1.00  0.00     0.002 C 
BRANCH  26  27
ATOM     27  C   UNL     1       2.741  -4.369  -2.579  1.00  0.00     0.002 C 
BRANCH  27  28
ATOM     28  C   UNL     1       3.993  -3.981  -1.785  1.00  0.00     0.021 C 
BRANCH  28  29
ATOM     29  C   UNL     1       5.122  -5.008  -1.803  1.00  0.00     0.116 C 
BRANCH  29  30
ATOM     30  N   UNL     1       5.536  -5.350  -3.155  1.00  0.00    -0.352 N 
ATOM     31  C   UNL     1       6.769  -5.283  -3.750  1.00  0.00     0.251 C 
ATOM     32  H   UNL     1       4.814  -5.682  -3.737  1.00  0.00     0.163 HD
ATOM     33  O   UNL     1       6.872  -5.438  -4.963  1.00  0.00    -0.269 OA
BRANCH  31  34
ATOM     34  C   UNL     1       7.979  -5.020  -2.942  1.00  0.00     0.039 A 
ATOM     35  C   UNL     1       8.948  -4.148  -3.450  1.00  0.00     0.014 A 
ATOM     36  C   UNL     1       8.188  -5.662  -1.719  1.00  0.00     0.014 A 
ATOM     37  C   UNL     1      10.101  -3.882  -2.708  1.00  0.00     0.010 A 
ATOM     38  C   UNL     1       9.306  -5.346  -0.950  1.00  0.00     0.010 A 
ATOM     39  C   UNL     1      10.276  -4.460  -1.440  1.00  0.00    -0.014 A 
BRANCH  39  40
ATOM     40  C   UNL     1      11.473  -4.153  -0.618  1.00  0.00     0.031 A 
ATOM     41  C   UNL     1      12.468  -5.233  -0.296  1.00  0.00     0.074 A 
ATOM     42  C   UNL     1      11.630  -2.915  -0.111  1.00  0.00     0.049 A 
ATOM     43  N   UNL     1      13.536  -5.176   0.459  1.00  0.00    -0.248 NA
ATOM     44  C   UNL     1      12.215  -6.560  -0.880  1.00  0.00     0.031 C 
ATOM     45  C   UNL     1      10.711  -1.794  -0.313  1.00  0.00     0.029 A 
ATOM     46  N   UNL     1      12.617  -2.396   0.690  1.00  0.00    -0.354 N 
ATOM     47  C   UNL     1      14.071  -6.457   0.454  1.00  0.00     0.074 A 
ATOM     48  C   UNL     1      13.185  -7.282  -0.339  1.00  0.00     0.031 C 
ATOM     49  C   UNL     1      11.185  -0.715   0.329  1.00  0.00     0.029 A 
ATOM     50  C   UNL     1      12.422  -1.076   1.016  1.00  0.00     0.049 A 
ATOM     51  H   UNL     1      13.390  -2.919   1.000  1.00  0.00     0.167 HD
ATOM     52  C   UNL     1      15.209  -6.902   1.039  1.00  0.00     0.037 A 
ATOM     53  C   UNL     1      13.154  -0.251   1.788  1.00  0.00     0.037 A 
ATOM     54  C   UNL     1      16.101  -6.072   1.806  1.00  0.00     0.049 A 
ATOM     55  C   UNL     1      14.415  -0.767   2.424  1.00  0.00     0.074 A 
ATOM     56  C   UNL     1      17.309  -6.413   2.389  1.00  0.00     0.029 A 
ATOM     57  N   UNL     1      15.881  -4.734   2.095  1.00  0.00    -0.354 N 
ATOM     58  N   UNL     1      14.943  -1.966   2.358  1.00  0.00    -0.248 NA
ATOM     59  C   UNL     1      15.184   0.185   3.236  1.00  0.00     0.031 C 
ATOM     60  C   UNL     1      17.800  -5.291   3.066  1.00  0.00     0.029 A 
ATOM     61  C   UNL     1      16.921  -4.239   2.865  1.00  0.00     0.049 A 
ATOM     62  H   UNL     1      15.101  -4.212   1.797  1.00  0.00     0.167 HD
ATOM     63  C   UNL     1      16.118  -1.904   3.095  1.00  0.00     0.074 A 
ATOM     64  C   UNL     1      16.232  -0.547   3.588  1.00  0.00     0.031 C 
ATOM     65  C   UNL     1      17.022  -2.883   3.341  1.00  0.00     0.037 A 
BRANCH  52  66
ATOM     66  C   UNL     1      15.554  -8.353   0.868  1.00  0.00     0.057 A 
ATOM     67  C   UNL     1      15.972  -8.872  -0.364  1.00  0.00     0.134 A 
ATOM     68  C   UNL     1      15.499  -9.235   1.955  1.00  0.00     0.134 A 
ATOM     69  F   UNL     1      16.036  -8.084  -1.448  1.00  0.00    -0.206 F 
ATOM     70  C   UNL     1      16.296 -10.222  -0.516  1.00  0.00     0.040 A 
ATOM     71  C   UNL     1      15.847 -10.580   1.822  1.00  0.00     0.040 A 
ATOM     72  F   UNL     1      15.114  -8.803   3.165  1.00  0.00    -0.206 F 
ATOM     73  C   UNL     1      16.240 -11.079   0.581  1.00  0.00     0.006 A 
ENDBRANCH  52  66
BRANCH  53  74
ATOM     74  C   UNL     1      12.728   1.157   1.981  1.00  0.00     0.057 A 
ATOM     75  C   UNL     1      13.441   2.212   1.399  1.00  0.00     0.134 A 
ATOM     76  C   UNL     1      11.605   1.483   2.750  1.00  0.00     0.134 A 
ATOM     77  F   UNL     1      14.536   1.963   0.667  1.00  0.00    -0.206 F 
ATOM     78  C   UNL     1      13.063   3.542   1.590  1.00  0.00     0.040 A 
ATOM     79  C   UNL     1      11.202   2.807   2.929  1.00  0.00     0.040 A 
ATOM     80  F   UNL     1      10.876   0.517   3.328  1.00  0.00    -0.206 F 
ATOM     81  C   UNL     1      11.937   3.842   2.353  1.00  0.00     0.006 A 
ENDBRANCH  53  74
BRANCH  65  82
ATOM     82  C   UNL     1      18.229  -2.513   4.151  1.00  0.00     0.057 A 
ATOM     83  C   UNL     1      18.152  -2.279   5.529  1.00  0.00     0.134 A 
ATOM     84  C   UNL     1      19.491  -2.425   3.548  1.00  0.00     0.134 A 
ATOM     85  F   UNL     1      16.971  -2.334   6.163  1.00  0.00    -0.206 F 
ATOM     86  C   UNL     1      19.284  -1.949   6.277  1.00  0.00     0.040 A 
ATOM     87  C   UNL     1      20.633  -2.122   4.289  1.00  0.00     0.040 A 
ATOM     88  F   UNL     1      19.635  -2.646   2.233  1.00  0.00    -0.206 F 
ATOM     89  C   UNL     1      20.530  -1.876   5.657  1.00  0.00     0.006 A 
ENDBRANCH  65  82
ENDBRANCH  39  40
ENDBRANCH  31  34
ENDBRANCH  29  30
ENDBRANCH  28  29
ENDBRANCH  27  28
ENDBRANCH  26  27
ENDBRANCH   1  26
TORSDOF 17
