REMARK SMILES Cc1cccc2nc([C@@H]3CCCC[C@@H]3C(=O)NCCCCCCNC(=O)c3ccc(-c4c5nc(c(-c6c(F)cccc6F)c6ccc([nH]6)c(-c6c(F)cccc6F)c6nc(c(-c7c(F)cccc7F)c7ccc4[nH]7)C=C6)C=C5)cc3)oc12
REMARK SMILES IDX 21 1 20 2 19 3 18 4 17 5 15 6 16 7 14 9 9 10 10 11 11 12
REMARK SMILES IDX 13 13 12 14 8 15 1 16 2 17 3 18 82 19 4 20 6 21 81 22 5 23
REMARK SMILES IDX 7 24 22 25 23 26 24 27 25 28 26 30 27 31 28 32 80 33 29 34
REMARK SMILES IDX 79 35 30 36 31 37 32 38 73 39 33 40 78 41 72 42 74 43 34 44
REMARK SMILES IDX 77 45 71 46 70 47 35 49 61 50 44 51 60 52 45 53 48 54 59 55
REMARK SMILES IDX 75 56 46 57 47 58 58 60 76 61 49 62 36 63 37 64 42 65 38 66
REMARK SMILES IDX 39 67 41 68 43 69 40 70 62 71 63 72 68 73 64 74 65 75 67 76
REMARK SMILES IDX 69 77 66 78 50 79 51 80 56 81 52 82 53 83 55 84 57 85 54 86
REMARK H PARENT 17 8 24 29 74 48 48 59
REMARK Flexibility Score: inf
ROOT
ATOM      1  C   UNL     1      -0.739   6.172   2.037  1.00  0.00     0.002 C 
ENDROOT
BRANCH   1   2
ATOM      2  C   UNL     1       0.618   6.883   2.087  1.00  0.00     0.002 C 
BRANCH   2   3
ATOM      3  C   UNL     1       1.593   6.562   0.948  1.00  0.00     0.021 C 
BRANCH   3   4
ATOM      4  C   UNL     1       1.066   6.901  -0.448  1.00  0.00     0.116 C 
BRANCH   4   5
ATOM      5  N   UNL     1       2.153   7.132  -1.400  1.00  0.00    -0.356 N 
ATOM      6  C   UNL     1       2.144   6.582  -2.651  1.00  0.00     0.223 C 
ATOM      7  O   UNL     1       1.651   7.251  -3.565  1.00  0.00    -0.275 OA
ATOM      8  H   UNL     1       2.912   7.700  -1.132  1.00  0.00     0.163 HD
BRANCH   6   9
ATOM      9  C   UNL     1       3.005   5.345  -2.982  1.00  0.00     0.091 C 
ATOM     10  C   UNL     1       3.422   4.324  -1.907  1.00  0.00     0.088 C 
ATOM     11  C   UNL     1       4.391   4.915  -0.876  1.00  0.00     0.014 C 
ATOM     12  C   UNL     1       5.623   5.529  -1.553  1.00  0.00     0.001 C 
ATOM     13  C   UNL     1       4.287   5.834  -3.689  1.00  0.00     0.014 C 
ATOM     14  C   UNL     1       5.277   6.465  -2.710  1.00  0.00     0.001 C 
BRANCH  10  15
ATOM     15  C   UNL     1       2.261   3.580  -1.333  1.00  0.00     0.199 A 
ATOM     16  C   UNL     1       1.683  -0.681  -0.291  1.00  0.00     0.048 C 
ATOM     17  C   UNL     1       0.809   0.531  -0.255  1.00  0.00    -0.006 A 
ATOM     18  C   UNL     1      -0.543   0.422   0.137  1.00  0.00     0.007 A 
ATOM     19  C   UNL     1       1.202   1.810  -0.657  1.00  0.00     0.157 A 
ATOM     20  C   UNL     1      -1.425   1.508   0.089  1.00  0.00     0.003 A 
ATOM     21  C   UNL     1       0.346   2.896  -0.740  1.00  0.00     0.110 A 
ATOM     22  O   UNL     1       2.445   2.244  -1.047  1.00  0.00    -0.440 OA
ATOM     23  C   UNL     1      -0.999   2.750  -0.386  1.00  0.00     0.032 A 
ATOM     24  N   UNL     1       1.024   3.997  -1.178  1.00  0.00    -0.213 NA
ENDBRANCH  10  15
ENDBRANCH   6   9
ENDBRANCH   4   5
ENDBRANCH   3   4
ENDBRANCH   2   3
ENDBRANCH   1   2
BRANCH   1  25
ATOM     25  C   UNL     1      -0.702   4.661   2.285  1.00  0.00     0.021 C 
BRANCH  25  26
ATOM     26  C   UNL     1      -0.449   4.252   3.725  1.00  0.00     0.116 C 
BRANCH  26  27
ATOM     27  N   UNL     1      -1.532   4.643   4.623  1.00  0.00    -0.352 N 
ATOM     28  C   UNL     1      -1.619   4.476   5.990  1.00  0.00     0.251 C 
ATOM     29  H   UNL     1      -2.303   5.084   4.197  1.00  0.00     0.163 HD
ATOM     30  O   UNL     1      -2.693   4.580   6.567  1.00  0.00    -0.269 OA
BRANCH  28  31
ATOM     31  C   UNL     1      -0.398   4.145   6.748  1.00  0.00     0.039 A 
ATOM     32  C   UNL     1      -0.431   3.205   7.783  1.00  0.00     0.014 A 
ATOM     33  C   UNL     1       0.797   4.766   6.402  1.00  0.00     0.014 A 
ATOM     34  C   UNL     1       0.761   2.846   8.413  1.00  0.00     0.010 A 
ATOM     35  C   UNL     1       1.986   4.295   6.909  1.00  0.00     0.010 A 
ATOM     36  C   UNL     1       1.975   3.385   7.963  1.00  0.00    -0.014 A 
BRANCH  36  37
ATOM     37  C   UNL     1       3.240   3.009   8.591  1.00  0.00     0.031 A 
ATOM     38  C   UNL     1       3.584   1.563   8.624  1.00  0.00     0.074 A 
ATOM     39  C   UNL     1       4.176   3.913   8.957  1.00  0.00     0.049 A 
ATOM     40  N   UNL     1       3.728   0.806   9.661  1.00  0.00    -0.248 NA
ATOM     41  C   UNL     1       3.760   0.863   7.344  1.00  0.00     0.031 C 
ATOM     42  C   UNL     1       4.176   5.360   8.701  1.00  0.00     0.029 A 
ATOM     43  N   UNL     1       5.390   3.706   9.547  1.00  0.00    -0.354 N 
ATOM     44  C   UNL     1       4.198  -0.418   9.186  1.00  0.00     0.074 A 
ATOM     45  C   UNL     1       4.070  -0.370   7.752  1.00  0.00     0.031 C 
ATOM     46  C   UNL     1       5.410   5.855   8.916  1.00  0.00     0.029 A 
ATOM     47  C   UNL     1       6.221   4.813   9.516  1.00  0.00     0.049 A 
ATOM     48  H   UNL     1       5.650   2.849   9.956  1.00  0.00     0.167 HD
ATOM     49  C   UNL     1       4.869  -1.281   9.998  1.00  0.00     0.037 A 
ATOM     50  C   UNL     1       7.489   4.911   9.966  1.00  0.00     0.037 A 
ATOM     51  C   UNL     1       4.741  -0.906  11.383  1.00  0.00     0.049 A 
ATOM     52  C   UNL     1       7.707   3.856  10.975  1.00  0.00     0.074 A 
ATOM     53  C   UNL     1       3.748  -0.903  12.336  1.00  0.00     0.029 A 
ATOM     54  N   UNL     1       5.767  -0.140  11.866  1.00  0.00    -0.354 N 
ATOM     55  N   UNL     1       7.106   3.821  12.132  1.00  0.00    -0.248 NA
ATOM     56  C   UNL     1       8.399   2.630  10.598  1.00  0.00     0.031 C 
ATOM     57  C   UNL     1       4.104   0.120  13.266  1.00  0.00     0.029 A 
ATOM     58  C   UNL     1       5.302   0.698  12.844  1.00  0.00     0.049 A 
ATOM     59  H   UNL     1       6.701  -0.184  11.556  1.00  0.00     0.167 HD
ATOM     60  C   UNL     1       6.983   2.474  12.417  1.00  0.00     0.074 A 
ATOM     61  C   UNL     1       7.953   1.814  11.557  1.00  0.00     0.031 C 
ATOM     62  C   UNL     1       5.894   1.996  13.083  1.00  0.00     0.037 A 
BRANCH  49  63
ATOM     63  C   UNL     1       5.990  -2.207   9.570  1.00  0.00     0.057 A 
ATOM     64  C   UNL     1       6.791  -2.005   8.430  1.00  0.00     0.134 A 
ATOM     65  C   UNL     1       6.503  -3.133  10.502  1.00  0.00     0.134 A 
ATOM     66  F   UNL     1       6.483  -1.102   7.491  1.00  0.00    -0.206 F 
ATOM     67  C   UNL     1       8.020  -2.648   8.244  1.00  0.00     0.040 A 
ATOM     68  C   UNL     1       7.756  -3.741  10.350  1.00  0.00     0.040 A 
ATOM     69  F   UNL     1       5.841  -3.410  11.635  1.00  0.00    -0.206 F 
ATOM     70  C   UNL     1       8.524  -3.492   9.221  1.00  0.00     0.006 A 
ENDBRANCH  49  63
BRANCH  50  71
ATOM     71  C   UNL     1       8.547   5.816   9.485  1.00  0.00     0.057 A 
ATOM     72  C   UNL     1       8.657   6.134   8.119  1.00  0.00     0.134 A 
ATOM     73  C   UNL     1       9.605   6.218  10.306  1.00  0.00     0.134 A 
ATOM     74  F   UNL     1       7.726   5.731   7.240  1.00  0.00    -0.206 F 
ATOM     75  C   UNL     1       9.760   6.812   7.596  1.00  0.00     0.040 A 
ATOM     76  C   UNL     1      10.720   6.892   9.794  1.00  0.00     0.040 A 
ATOM     77  F   UNL     1       9.600   5.927  11.614  1.00  0.00    -0.206 F 
ATOM     78  C   UNL     1      10.804   7.183   8.434  1.00  0.00     0.006 A 
ENDBRANCH  50  71
BRANCH  62  79
ATOM     79  C   UNL     1       5.128   2.964  13.932  1.00  0.00     0.057 A 
ATOM     80  C   UNL     1       5.079   2.747  15.313  1.00  0.00     0.134 A 
ATOM     81  C   UNL     1       4.378   4.034  13.427  1.00  0.00     0.134 A 
ATOM     82  F   UNL     1       5.732   1.708  15.858  1.00  0.00    -0.206 F 
ATOM     83  C   UNL     1       4.332   3.567  16.161  1.00  0.00     0.040 A 
ATOM     84  C   UNL     1       3.651   4.881  14.268  1.00  0.00     0.040 A 
ATOM     85  F   UNL     1       4.296   4.263  12.110  1.00  0.00    -0.206 F 
ATOM     86  C   UNL     1       3.625   4.647  15.640  1.00  0.00     0.006 A 
ENDBRANCH  62  79
ENDBRANCH  36  37
ENDBRANCH  28  31
ENDBRANCH  26  27
ENDBRANCH  25  26
ENDBRANCH   1  25
TORSDOF 14
