REMARK SMILES [NH3+][C@@H]1CCC[C@@H](C(=O)N2CCO[C@H](CC(=O)NCCCCCCNC(=O)c3ccc(-c4c5nc(c(-c6c(F)cccc6F)c6ccc([nH]6)c(-c6c(F)cccc6F)c6nc(c(-c7c(F)cccc7F)c7ccc4[nH]7)C=C6)C=C5)cc3)C2)C1
REMARK SMILES IDX 19 1 18 2 17 3 15 4 16 5 14 7 13 8 9 9 10 10 81 11 11 12
REMARK SMILES IDX 12 13 7 14 8 15 6 16 2 17 3 18 82 19 4 20 5 21 1 22 20 26
REMARK SMILES IDX 21 27 22 28 23 29 24 30 25 31 26 33 27 34 28 35 80 36 29 37
REMARK SMILES IDX 79 38 30 39 31 40 32 41 73 42 33 43 78 44 72 45 74 46 34 47
REMARK SMILES IDX 77 48 71 49 70 50 35 52 61 53 44 54 60 55 45 56 48 57 59 58
REMARK SMILES IDX 75 59 46 60 47 61 58 63 76 64 49 65 36 66 37 67 42 68 38 69
REMARK SMILES IDX 39 70 41 71 43 72 40 73 62 74 63 75 68 76 64 77 65 78 67 79
REMARK SMILES IDX 69 80 66 81 50 82 51 83 56 84 52 85 53 86 55 87 57 88 54 89
REMARK H PARENT 17 6 1 23 1 24 1 25 24 32 74 51 48 62
REMARK Flexibility Score: inf
ROOT
ATOM      1  C   UNL     1       6.457  -0.089   4.157  1.00  0.00     0.021 C 
ENDROOT
BRANCH   1   2
ATOM      2  C   UNL     1       5.210   0.712   4.517  1.00  0.00     0.116 C 
BRANCH   2   3
ATOM      3  N   UNL     1       4.519   1.160   3.334  1.00  0.00    -0.356 N 
ATOM      4  C   UNL     1       3.237   0.958   2.961  1.00  0.00     0.222 C 
ATOM      5  O   UNL     1       2.788   1.695   2.082  1.00  0.00    -0.275 OA
ATOM      6  H   UNL     1       5.061   1.691   2.706  1.00  0.00     0.163 HD
BRANCH   4   7
ATOM      7  C   UNL     1       2.371  -0.075   3.648  1.00  0.00     0.133 C 
BRANCH   7   8
ATOM      8  C   UNL     1       2.892  -1.520   3.660  1.00  0.00     0.147 C 
ATOM      9  N   UNL     1       1.881  -2.445   1.616  1.00  0.00    -0.338 N 
ATOM     10  C   UNL     1       1.003  -3.295   2.411  1.00  0.00     0.148 C 
ATOM     11  C   UNL     1       3.141  -2.146   2.277  1.00  0.00     0.152 C 
ATOM     12  C   UNL     1       0.769  -2.663   3.785  1.00  0.00     0.182 C 
ATOM     13  O   UNL     1       2.009  -2.358   4.449  1.00  0.00    -0.374 OA
BRANCH   9  14
ATOM     14  C   UNL     1       1.872  -2.536   0.234  1.00  0.00     0.226 C 
ATOM     15  O   UNL     1       2.651  -3.262  -0.379  1.00  0.00    -0.275 OA
BRANCH  14  16
ATOM     16  C   UNL     1       1.036  -1.459  -0.469  1.00  0.00     0.084 C 
ATOM     17  C   UNL     1      -1.193  -0.181  -0.473  1.00  0.00     0.181 C 
ATOM     18  C   UNL     1      -0.433   1.112  -0.155  1.00  0.00     0.065 C 
ATOM     19  C   UNL     1      -0.411  -1.395   0.041  1.00  0.00     0.078 C 
ATOM     20  C   UNL     1       0.981   1.109  -0.727  1.00  0.00     0.007 C 
ATOM     21  C   UNL     1       1.761  -0.120  -0.282  1.00  0.00     0.014 C 
BRANCH  17  22
ATOM     22  N   UNL     1      -1.467  -0.304  -1.905  1.00  0.00    -0.355 N 
ATOM     23  H   UNL     1      -1.987   0.514  -2.223  1.00  0.00     0.344 HD
ATOM     24  H   UNL     1      -2.019  -1.145  -2.074  1.00  0.00     0.344 HD
ATOM     25  H   UNL     1      -0.586  -0.367  -2.416  1.00  0.00     0.344 HD
ENDBRANCH  17  22
ENDBRANCH  14  16
ENDBRANCH   9  14
ENDBRANCH   7   8
ENDBRANCH   4   7
ENDBRANCH   2   3
ENDBRANCH   1   2
BRANCH   1  26
ATOM     26  C   UNL     1       7.474   0.674   3.297  1.00  0.00     0.002 C 
BRANCH  26  27
ATOM     27  C   UNL     1       7.845   2.072   3.805  1.00  0.00     0.002 C 
BRANCH  27  28
ATOM     28  C   UNL     1       8.284   2.132   5.268  1.00  0.00     0.021 C 
BRANCH  28  29
ATOM     29  C   UNL     1       9.455   1.224   5.605  1.00  0.00     0.116 C 
BRANCH  29  30
ATOM     30  N   UNL     1      10.669   1.631   4.921  1.00  0.00    -0.352 N 
ATOM     31  C   UNL     1      11.902   1.896   5.459  1.00  0.00     0.251 C 
ATOM     32  H   UNL     1      10.599   1.728   3.944  1.00  0.00     0.163 HD
ATOM     33  O   UNL     1      12.777   2.432   4.785  1.00  0.00    -0.269 OA
BRANCH  31  34
ATOM     34  C   UNL     1      12.159   1.550   6.871  1.00  0.00     0.039 A 
ATOM     35  C   UNL     1      12.780   2.488   7.697  1.00  0.00     0.014 A 
ATOM     36  C   UNL     1      11.762   0.309   7.381  1.00  0.00     0.014 A 
ATOM     37  C   UNL     1      12.957   2.201   9.050  1.00  0.00     0.010 A 
ATOM     38  C   UNL     1      11.860   0.061   8.745  1.00  0.00     0.010 A 
ATOM     39  C   UNL     1      12.470   0.999   9.590  1.00  0.00    -0.014 A 
BRANCH  39  40
ATOM     40  C   UNL     1      12.603   0.698  11.037  1.00  0.00     0.031 A 
ATOM     41  C   UNL     1      13.427  -0.474  11.490  1.00  0.00     0.074 A 
ATOM     42  C   UNL     1      11.936   1.445  11.937  1.00  0.00     0.049 A 
ATOM     43  N   UNL     1      13.627  -0.925  12.702  1.00  0.00    -0.248 NA
ATOM     44  C   UNL     1      14.089  -1.262  10.439  1.00  0.00     0.031 C 
ATOM     45  C   UNL     1      11.070   2.581  11.618  1.00  0.00     0.029 A 
ATOM     46  N   UNL     1      11.881   1.358  13.305  1.00  0.00    -0.354 N 
ATOM     47  C   UNL     1      14.427  -2.052  12.557  1.00  0.00     0.074 A 
ATOM     48  C   UNL     1      14.618  -2.254  11.137  1.00  0.00     0.031 C 
ATOM     49  C   UNL     1      10.597   3.106  12.760  1.00  0.00     0.029 A 
ATOM     50  C   UNL     1      11.091   2.319  13.886  1.00  0.00     0.049 A 
ATOM     51  H   UNL     1      12.362   0.671  13.821  1.00  0.00     0.167 HD
ATOM     52  C   UNL     1      14.975  -2.832  13.519  1.00  0.00     0.037 A 
ATOM     53  C   UNL     1      10.795   2.539  15.181  1.00  0.00     0.037 A 
ATOM     54  C   UNL     1      14.789  -2.620  14.930  1.00  0.00     0.049 A 
ATOM     55  C   UNL     1      11.391   1.643  16.231  1.00  0.00     0.074 A 
ATOM     56  C   UNL     1      15.342  -3.318  15.988  1.00  0.00     0.029 A 
ATOM     57  N   UNL     1      13.976  -1.638  15.480  1.00  0.00    -0.354 N 
ATOM     58  N   UNL     1      12.204   0.624  16.085  1.00  0.00    -0.248 NA
ATOM     59  C   UNL     1      11.032   1.931  17.626  1.00  0.00     0.031 C 
ATOM     60  C   UNL     1      14.819  -2.797  17.177  1.00  0.00     0.029 A 
ATOM     61  C   UNL     1      13.989  -1.733  16.863  1.00  0.00     0.049 A 
ATOM     62  H   UNL     1      13.466  -0.973  14.964  1.00  0.00     0.167 HD
ATOM     63  C   UNL     1      12.477   0.169  17.369  1.00  0.00     0.074 A 
ATOM     64  C   UNL     1      11.752   1.031  18.280  1.00  0.00     0.031 C 
ATOM     65  C   UNL     1      13.261  -0.867  17.758  1.00  0.00     0.037 A 
BRANCH  52  66
ATOM     66  C   UNL     1      15.816  -3.993  13.066  1.00  0.00     0.057 A 
ATOM     67  C   UNL     1      17.047  -3.811  12.419  1.00  0.00     0.134 A 
ATOM     68  C   UNL     1      15.393  -5.310  13.280  1.00  0.00     0.134 A 
ATOM     69  F   UNL     1      17.509  -2.575  12.170  1.00  0.00    -0.206 F 
ATOM     70  C   UNL     1      17.802  -4.893  11.963  1.00  0.00     0.040 A 
ATOM     71  C   UNL     1      16.155  -6.401  12.860  1.00  0.00     0.040 A 
ATOM     72  F   UNL     1      14.229  -5.560  13.900  1.00  0.00    -0.206 F 
ATOM     73  C   UNL     1      17.358  -6.194  12.188  1.00  0.00     0.006 A 
ENDBRANCH  52  66
BRANCH  53  74
ATOM     74  C   UNL     1       9.919   3.677  15.555  1.00  0.00     0.057 A 
ATOM     75  C   UNL     1      10.436   4.795  16.220  1.00  0.00     0.134 A 
ATOM     76  C   UNL     1       8.553   3.684  15.248  1.00  0.00     0.134 A 
ATOM     77  F   UNL     1      11.733   4.840  16.555  1.00  0.00    -0.206 F 
ATOM     78  C   UNL     1       9.624   5.872  16.579  1.00  0.00     0.040 A 
ATOM     79  C   UNL     1       7.735   4.766  15.579  1.00  0.00     0.040 A 
ATOM     80  F   UNL     1       7.998   2.647  14.604  1.00  0.00    -0.206 F 
ATOM     81  C   UNL     1       8.270   5.862  16.252  1.00  0.00     0.006 A 
ENDBRANCH  53  74
BRANCH  65  82
ATOM     82  C   UNL     1      13.404  -1.105  19.234  1.00  0.00     0.057 A 
ATOM     83  C   UNL     1      12.353  -1.606  20.012  1.00  0.00     0.134 A 
ATOM     84  C   UNL     1      14.626  -0.865  19.877  1.00  0.00     0.134 A 
ATOM     85  F   UNL     1      11.153  -1.846  19.461  1.00  0.00    -0.206 F 
ATOM     86  C   UNL     1      12.504  -1.836  21.381  1.00  0.00     0.040 A 
ATOM     87  C   UNL     1      14.798  -1.120  21.238  1.00  0.00     0.040 A 
ATOM     88  F   UNL     1      15.677  -0.394  19.190  1.00  0.00    -0.206 F 
ATOM     89  C   UNL     1      13.732  -1.600  21.995  1.00  0.00     0.006 A 
ENDBRANCH  65  82
ENDBRANCH  39  40
ENDBRANCH  31  34
ENDBRANCH  29  30
ENDBRANCH  28  29
ENDBRANCH  27  28
ENDBRANCH  26  27
ENDBRANCH   1  26
TORSDOF 17
