REMARK SMILES C[C@]12c3ccccc3[C@](C)(c3ccccc31)[C@@H]1C(=O)N(c3ccc(C(=O)NCCCCCCNC(=O)c4ccc(-c5c6nc(c(-c7c(F)cccc7F)c7ccc([nH]7)c(-c7c(F)cccc7F)c7nc(c(-c8c(F)cccc8F)c8ccc5[nH]8)C=C7)C=C6)cc4)cc3)C(=O)[C@H]12
REMARK SMILES IDX 31 1 30 2 29 3 28 4 27 5 25 6 26 7 24 9 21 10 22 11 92 12
REMARK SMILES IDX 23 13 91 14 20 15 1 16 2 17 16 18 3 19 95 20 15 21 11 22
REMARK SMILES IDX 8 23 4 24 17 25 93 26 14 27 12 28 9 29 7 30 5 31 18 32 94 33
REMARK SMILES IDX 13 34 10 35 6 36 19 37 32 38 33 39 34 40 35 41 36 43 37 44
REMARK SMILES IDX 38 45 90 46 39 47 89 48 40 49 41 50 42 51 83 52 43 53 88 54
REMARK SMILES IDX 82 55 84 56 44 57 87 58 81 59 80 60 45 62 71 63 54 64 70 65
REMARK SMILES IDX 55 66 58 67 69 68 85 69 56 70 57 71 68 73 86 74 59 75 46 76
REMARK SMILES IDX 47 77 52 78 48 79 49 80 51 81 53 82 50 83 72 84 73 85 78 86
REMARK SMILES IDX 74 87 75 88 77 89 79 90 76 91 60 92 61 93 66 94 62 95 63 96
REMARK SMILES IDX 65 97 67 98 64 99
REMARK H PARENT 27 8 34 42 84 61 58 72
REMARK Flexibility Score: inf
ROOT
ATOM      1  C   UNL     1       9.053   3.624   9.952  1.00  0.00     0.002 C 
ENDROOT
BRANCH   1   2
ATOM      2  C   UNL     1       9.178   2.474   8.949  1.00  0.00     0.002 C 
BRANCH   2   3
ATOM      3  C   UNL     1       7.923   2.144   8.135  1.00  0.00     0.021 C 
BRANCH   3   4
ATOM      4  C   UNL     1       7.280   3.307   7.384  1.00  0.00     0.116 C 
BRANCH   4   5
ATOM      5  N   UNL     1       8.152   3.912   6.396  1.00  0.00    -0.352 N 
ATOM      6  C   UNL     1       7.899   4.308   5.105  1.00  0.00     0.251 C 
ATOM      7  O   UNL     1       8.820   4.752   4.423  1.00  0.00    -0.269 OA
ATOM      8  H   UNL     1       9.076   4.064   6.700  1.00  0.00     0.163 HD
BRANCH   6   9
ATOM      9  C   UNL     1       6.554   4.153   4.497  1.00  0.00     0.039 A 
ATOM     10  C   UNL     1       4.059   3.597   3.313  1.00  0.00     0.052 A 
ATOM     11  C   UNL     1       5.247   3.407   2.596  1.00  0.00     0.027 A 
ATOM     12  C   UNL     1       4.134   4.160   4.595  1.00  0.00     0.027 A 
ATOM     13  C   UNL     1       6.484   3.700   3.176  1.00  0.00     0.016 A 
ATOM     14  C   UNL     1       5.373   4.443   5.181  1.00  0.00     0.016 A 
BRANCH  10  15
ATOM     15  N   UNL     1       2.817   3.179   2.784  1.00  0.00    -0.250 N 
ATOM     16  C   UNL     1       1.039   0.117  -0.065  1.00  0.00     0.022 C 
ATOM     17  C   UNL     1       0.305   1.069   0.879  1.00  0.00     0.030 C 
ATOM     18  C   UNL     1      -0.536   0.383   1.988  1.00  0.00    -0.033 A 
ATOM     19  C   UNL     1      -0.712   2.025   0.170  1.00  0.00    -0.033 A 
ATOM     20  C   UNL     1       1.244   2.149   1.479  1.00  0.00     0.108 C 
ATOM     21  C   UNL     1      -0.664  -0.988   2.197  1.00  0.00     0.005 A 
ATOM     22  C   UNL     1      -1.288   1.295   2.809  1.00  0.00    -0.033 A 
ATOM     23  C   UNL     1      -1.286   3.003   1.054  1.00  0.00    -0.033 A 
ATOM     24  C   UNL     1      -1.021   2.035  -1.188  1.00  0.00     0.005 A 
ATOM     25  C   UNL     1       0.593   2.705   2.748  1.00  0.00     0.108 C 
ATOM     26  C   UNL     1       2.658   2.054   1.958  1.00  0.00     0.238 C 
ATOM     27  C   UNL     1      -1.544  -1.450   3.181  1.00  0.00     0.000 A 
ATOM     28  C   UNL     1      -2.176   0.820   3.770  1.00  0.00     0.005 A 
ATOM     29  C   UNL     1      -0.937   2.794   2.546  1.00  0.00     0.030 C 
ATOM     30  C   UNL     1      -2.125   3.988   0.542  1.00  0.00     0.005 A 
ATOM     31  C   UNL     1      -1.871   3.027  -1.679  1.00  0.00     0.000 A 
ATOM     32  C   UNL     1       1.585   3.757   3.110  1.00  0.00     0.238 C 
ATOM     33  O   UNL     1       3.471   1.211   1.624  1.00  0.00    -0.274 OA
ATOM     34  C   UNL     1      -2.303  -0.557   3.948  1.00  0.00     0.000 A 
ATOM     35  C   UNL     1      -1.585   3.778   3.518  1.00  0.00     0.022 C 
ATOM     36  C   UNL     1      -2.407   3.999  -0.825  1.00  0.00     0.000 A 
ATOM     37  O   UNL     1       1.341   4.808   3.681  1.00  0.00    -0.274 OA
ENDBRANCH  10  15
ENDBRANCH   6   9
ENDBRANCH   4   5
ENDBRANCH   3   4
ENDBRANCH   2   3
ENDBRANCH   1   2
BRANCH   1  38
ATOM     38  C   UNL     1       7.881   3.536  10.928  1.00  0.00     0.021 C 
BRANCH  38  39
ATOM     39  C   UNL     1       7.784   2.239  11.720  1.00  0.00     0.116 C 
BRANCH  39  40
ATOM     40  N   UNL     1       8.916   2.018  12.607  1.00  0.00    -0.352 N 
ATOM     41  C   UNL     1       8.924   1.736  13.954  1.00  0.00     0.251 C 
ATOM     42  H   UNL     1       9.803   2.080  12.183  1.00  0.00     0.163 HD
ATOM     43  O   UNL     1       9.979   1.704  14.577  1.00  0.00    -0.269 OA
BRANCH  41  44
ATOM     44  C   UNL     1       7.642   1.516  14.657  1.00  0.00     0.039 A 
ATOM     45  C   UNL     1       6.657   0.701  14.097  1.00  0.00     0.014 A 
ATOM     46  C   UNL     1       7.402   2.179  15.863  1.00  0.00     0.014 A 
ATOM     47  C   UNL     1       5.374   0.710  14.631  1.00  0.00     0.010 A 
ATOM     48  C   UNL     1       6.138   2.103  16.455  1.00  0.00     0.010 A 
ATOM     49  C   UNL     1       5.095   1.417  15.812  1.00  0.00    -0.014 A 
BRANCH  49  50
ATOM     50  C   UNL     1       3.704   1.441  16.338  1.00  0.00     0.031 A 
ATOM     51  C   UNL     1       2.937   2.736  16.435  1.00  0.00     0.074 A 
ATOM     52  C   UNL     1       3.106   0.282  16.675  1.00  0.00     0.049 A 
ATOM     53  N   UNL     1       1.713   2.942  16.857  1.00  0.00    -0.248 NA
ATOM     54  C   UNL     1       3.634   3.958  16.008  1.00  0.00     0.031 C 
ATOM     55  C   UNL     1       3.731  -1.041  16.608  1.00  0.00     0.029 A 
ATOM     56  N   UNL     1       1.834   0.025  17.119  1.00  0.00    -0.354 N 
ATOM     57  C   UNL     1       1.503   4.314  16.763  1.00  0.00     0.074 A 
ATOM     58  C   UNL     1       2.736   4.894  16.279  1.00  0.00     0.031 C 
ATOM     59  C   UNL     1       2.828  -1.972  16.945  1.00  0.00     0.029 A 
ATOM     60  C   UNL     1       1.585  -1.310  17.324  1.00  0.00     0.049 A 
ATOM     61  H   UNL     1       1.165   0.730  17.276  1.00  0.00     0.167 HD
ATOM     62  C   UNL     1       0.382   5.023  17.043  1.00  0.00     0.037 A 
ATOM     63  C   UNL     1       0.486  -1.932  17.787  1.00  0.00     0.037 A 
ATOM     64  C   UNL     1      -0.849   4.442  17.519  1.00  0.00     0.049 A 
ATOM     65  C   UNL     1      -0.714  -1.111  18.165  1.00  0.00     0.074 A 
ATOM     66  C   UNL     1      -2.046   5.074  17.811  1.00  0.00     0.029 A 
ATOM     67  N   UNL     1      -1.037   3.093  17.782  1.00  0.00    -0.354 N 
ATOM     68  N   UNL     1      -0.905   0.181  18.051  1.00  0.00    -0.248 NA
ATOM     69  C   UNL     1      -1.850  -1.839  18.745  1.00  0.00     0.031 C 
ATOM     70  C   UNL     1      -2.938   4.117  18.306  1.00  0.00     0.029 A 
ATOM     71  C   UNL     1      -2.320   2.878  18.263  1.00  0.00     0.049 A 
ATOM     72  H   UNL     1      -0.360   2.392  17.647  1.00  0.00     0.167 HD
ATOM     73  C   UNL     1      -2.190   0.417  18.523  1.00  0.00     0.074 A 
ATOM     74  C   UNL     1      -2.739  -0.869  18.899  1.00  0.00     0.031 C 
ATOM     75  C   UNL     1      -2.854   1.593  18.636  1.00  0.00     0.037 A 
BRANCH  62  76
ATOM     76  C   UNL     1       0.444   6.516  16.870  1.00  0.00     0.057 A 
ATOM     77  C   UNL     1       0.392   7.365  17.983  1.00  0.00     0.134 A 
ATOM     78  C   UNL     1       0.529   7.117  15.606  1.00  0.00     0.134 A 
ATOM     79  F   UNL     1       0.300   6.860  19.222  1.00  0.00    -0.206 F 
ATOM     80  C   UNL     1       0.427   8.755  17.846  1.00  0.00     0.040 A 
ATOM     81  C   UNL     1       0.595   8.504  15.459  1.00  0.00     0.040 A 
ATOM     82  F   UNL     1       0.593   6.363  14.498  1.00  0.00    -0.206 F 
ATOM     83  C   UNL     1       0.538   9.327  16.581  1.00  0.00     0.006 A 
ENDBRANCH  62  76
BRANCH  63  84
ATOM     84  C   UNL     1       0.470  -3.409  17.943  1.00  0.00     0.057 A 
ATOM     85  C   UNL     1       1.275  -4.052  18.891  1.00  0.00     0.134 A 
ATOM     86  C   UNL     1      -0.378  -4.208  17.168  1.00  0.00     0.134 A 
ATOM     87  F   UNL     1       2.114  -3.344  19.662  1.00  0.00    -0.206 F 
ATOM     88  C   UNL     1       1.241  -5.437  19.060  1.00  0.00     0.040 A 
ATOM     89  C   UNL     1      -0.446  -5.590  17.349  1.00  0.00     0.040 A 
ATOM     90  F   UNL     1      -1.187  -3.649  16.256  1.00  0.00    -0.206 F 
ATOM     91  C   UNL     1       0.369  -6.208  18.296  1.00  0.00     0.006 A 
ENDBRANCH  63  84
BRANCH  75  92
ATOM     92  C   UNL     1      -4.263   1.530  19.155  1.00  0.00     0.057 A 
ATOM     93  C   UNL     1      -5.346   1.796  18.308  1.00  0.00     0.134 A 
ATOM     94  C   UNL     1      -4.550   1.209  20.488  1.00  0.00     0.134 A 
ATOM     95  F   UNL     1      -5.144   2.118  17.021  1.00  0.00    -0.206 F 
ATOM     96  C   UNL     1      -6.663   1.741  18.767  1.00  0.00     0.040 A 
ATOM     97  C   UNL     1      -5.864   1.119  20.951  1.00  0.00     0.040 A 
ATOM     98  F   UNL     1      -3.560   0.927  21.349  1.00  0.00    -0.206 F 
ATOM     99  C   UNL     1      -6.925   1.391  20.089  1.00  0.00     0.006 A 
ENDBRANCH  75  92
ENDBRANCH  49  50
ENDBRANCH  41  44
ENDBRANCH  39  40
ENDBRANCH  38  39
ENDBRANCH   1  38
TORSDOF 14
