REMARK SMILES O=C(Cc1ccc(-c2cccc(F)c2F)cc1)NCCCCCCNC(=O)c1ccc(-c2c3nc(c(-c4c(F)cccc4F)c4ccc([nH]4)c(-c4c(F)cccc4F)c4nc(c(-c5c(F)cccc5F)c5ccc2[nH]5)C=C4)C=C3)cc1
REMARK SMILES IDX 21 1 20 2 19 3 18 4 1 5 2 6 3 8 4 9 5 10 17 11 6 12 16 13
REMARK SMILES IDX 7 14 8 15 9 16 14 17 10 18 12 19 15 20 11 21 13 22 22 23
REMARK SMILES IDX 23 24 24 25 25 26 26 27 27 29 28 30 29 31 81 32 30 33 80 34
REMARK SMILES IDX 31 35 32 36 33 37 74 38 34 39 79 40 73 41 75 42 35 43 78 44
REMARK SMILES IDX 72 45 71 46 36 48 62 49 45 50 61 51 46 52 49 53 60 54 76 55
REMARK SMILES IDX 47 56 48 57 59 59 77 60 50 61 37 62 38 63 43 64 39 65 40 66
REMARK SMILES IDX 42 67 44 68 41 69 63 70 64 71 69 72 65 73 66 74 68 75 70 76
REMARK SMILES IDX 67 77 51 78 52 79 57 80 53 81 54 82 56 83 58 84 55 85
REMARK H PARENT 18 7 25 28 75 47 49 58
REMARK Flexibility Score: inf
ROOT
ATOM      1  C   UNL     1       4.172   0.158   3.620  1.00  0.00     0.002 C 
ENDROOT
BRANCH   1   2
ATOM      2  C   UNL     1       2.668  -0.019   3.374  1.00  0.00     0.021 C 
BRANCH   2   3
ATOM      3  C   UNL     1       2.106   0.807   2.220  1.00  0.00     0.116 C 
BRANCH   3   4
ATOM      4  N   UNL     1       2.743   0.482   0.962  1.00  0.00    -0.356 N 
ATOM      5  O   UNL     1       0.899  -0.458  -0.030  1.00  0.00    -0.275 OA
ATOM      6  C   UNL     1       2.075  -0.107  -0.089  1.00  0.00     0.224 C 
ATOM      7  H   UNL     1       3.699   0.691   0.852  1.00  0.00     0.163 HD
BRANCH   6   8
ATOM      8  C   UNL     1       2.926  -0.365  -1.324  1.00  0.00     0.135 C 
BRANCH   8   9
ATOM      9  C   UNL     1       3.775   0.803  -1.778  1.00  0.00    -0.039 A 
ATOM     10  C   UNL     1       5.083   0.585  -2.228  1.00  0.00     0.005 A 
ATOM     11  C   UNL     1       3.267   2.108  -1.800  1.00  0.00     0.005 A 
ATOM     12  C   UNL     1       5.880   1.656  -2.647  1.00  0.00     0.009 A 
ATOM     13  C   UNL     1       4.070   3.178  -2.204  1.00  0.00     0.009 A 
ATOM     14  C   UNL     1       5.391   2.971  -2.628  1.00  0.00    -0.015 A 
BRANCH  14  15
ATOM     15  C   UNL     1       6.233   4.100  -3.047  1.00  0.00     0.020 A 
ATOM     16  C   UNL     1       6.766   4.157  -4.349  1.00  0.00     0.012 A 
ATOM     17  C   UNL     1       6.527   5.158  -2.173  1.00  0.00     0.166 A 
ATOM     18  C   UNL     1       7.560   5.234  -4.759  1.00  0.00     0.004 A 
ATOM     19  C   UNL     1       7.320   6.226  -2.583  1.00  0.00     0.159 A 
ATOM     20  F   UNL     1       6.048   5.148  -0.918  1.00  0.00    -0.203 F 
ATOM     21  C   UNL     1       7.838   6.272  -3.872  1.00  0.00     0.042 A 
ATOM     22  F   UNL     1       7.592   7.226  -1.732  1.00  0.00    -0.204 F 
ENDBRANCH  14  15
ENDBRANCH   8   9
ENDBRANCH   6   8
ENDBRANCH   3   4
ENDBRANCH   2   3
ENDBRANCH   1   2
BRANCH   1  23
ATOM     23  C   UNL     1       4.636   1.591   3.900  1.00  0.00     0.002 C 
BRANCH  23  24
ATOM     24  C   UNL     1       3.958   2.286   5.083  1.00  0.00     0.021 C 
BRANCH  24  25
ATOM     25  C   UNL     1       4.075   1.562   6.422  1.00  0.00     0.116 C 
BRANCH  25  26
ATOM     26  N   UNL     1       5.450   1.435   6.878  1.00  0.00    -0.352 N 
ATOM     27  C   UNL     1       5.990   1.692   8.113  1.00  0.00     0.251 C 
ATOM     28  H   UNL     1       6.089   1.118   6.199  1.00  0.00     0.163 HD
ATOM     29  O   UNL     1       7.210   1.651   8.270  1.00  0.00    -0.269 OA
BRANCH  27  30
ATOM     30  C   UNL     1       5.120   2.047   9.256  1.00  0.00     0.039 A 
ATOM     31  C   UNL     1       5.510   3.095  10.097  1.00  0.00     0.014 A 
ATOM     32  C   UNL     1       3.938   1.349   9.516  1.00  0.00     0.014 A 
ATOM     33  C   UNL     1       4.687   3.480  11.158  1.00  0.00     0.010 A 
ATOM     34  C   UNL     1       3.086   1.776  10.534  1.00  0.00     0.010 A 
ATOM     35  C   UNL     1       3.453   2.845  11.366  1.00  0.00    -0.014 A 
BRANCH  35  36
ATOM     36  C   UNL     1       2.533   3.293  12.442  1.00  0.00     0.031 A 
ATOM     37  C   UNL     1       2.211   2.388  13.599  1.00  0.00     0.074 A 
ATOM     38  C   UNL     1       1.938   4.499  12.349  1.00  0.00     0.049 A 
ATOM     39  N   UNL     1       1.407   2.594  14.612  1.00  0.00    -0.248 NA
ATOM     40  C   UNL     1       2.860   1.068  13.605  1.00  0.00     0.031 C 
ATOM     41  C   UNL     1       2.128   5.454  11.256  1.00  0.00     0.029 A 
ATOM     42  N   UNL     1       1.050   5.125  13.187  1.00  0.00    -0.354 N 
ATOM     43  C   UNL     1       1.438   1.426  15.363  1.00  0.00     0.074 A 
ATOM     44  C   UNL     1       2.305   0.500  14.665  1.00  0.00     0.031 C 
ATOM     45  C   UNL     1       1.406   6.557  11.507  1.00  0.00     0.029 A 
ATOM     46  C   UNL     1       0.677   6.376  12.758  1.00  0.00     0.049 A 
ATOM     47  H   UNL     1       0.713   4.717  14.017  1.00  0.00     0.167 HD
ATOM     48  C   UNL     1       0.817   1.155  16.536  1.00  0.00     0.037 A 
ATOM     49  C   UNL     1      -0.156   7.276  13.313  1.00  0.00     0.037 A 
ATOM     50  C   UNL     1      -0.021   2.087  17.245  1.00  0.00     0.049 A 
ATOM     51  C   UNL     1      -0.834   6.952  14.614  1.00  0.00     0.074 A 
ATOM     52  C   UNL     1      -0.627   1.935  18.481  1.00  0.00     0.029 A 
ATOM     53  N   UNL     1      -0.375   3.344  16.779  1.00  0.00    -0.354 N 
ATOM     54  N   UNL     1      -0.733   5.874  15.353  1.00  0.00    -0.248 NA
ATOM     55  C   UNL     1      -1.739   7.973  15.159  1.00  0.00     0.031 C 
ATOM     56  C   UNL     1      -1.383   3.084  18.742  1.00  0.00     0.029 A 
ATOM     57  C   UNL     1      -1.214   3.968  17.689  1.00  0.00     0.049 A 
ATOM     58  H   UNL     1      -0.075   3.735  15.926  1.00  0.00     0.167 HD
ATOM     59  C   UNL     1      -1.537   6.098  16.463  1.00  0.00     0.074 A 
ATOM     60  C   UNL     1      -2.111   7.419  16.304  1.00  0.00     0.031 C 
ATOM     61  C   UNL     1      -1.776   5.284  17.520  1.00  0.00     0.037 A 
BRANCH  48  62
ATOM     62  C   UNL     1       1.021  -0.211  17.123  1.00  0.00     0.057 A 
ATOM     63  C   UNL     1       2.249  -0.608  17.669  1.00  0.00     0.134 A 
ATOM     64  C   UNL     1      -0.030  -1.137  17.159  1.00  0.00     0.134 A 
ATOM     65  F   UNL     1       3.300   0.227  17.656  1.00  0.00    -0.206 F 
ATOM     66  C   UNL     1       2.434  -1.886  18.198  1.00  0.00     0.040 A 
ATOM     67  C   UNL     1       0.135  -2.408  17.710  1.00  0.00     0.040 A 
ATOM     68  F   UNL     1      -1.235  -0.820  16.661  1.00  0.00    -0.206 F 
ATOM     69  C   UNL     1       1.373  -2.789  18.224  1.00  0.00     0.006 A 
ENDBRANCH  48  62
BRANCH  49  70
ATOM     70  C   UNL     1      -0.362   8.593  12.662  1.00  0.00     0.057 A 
ATOM     71  C   UNL     1       0.176   9.758  13.220  1.00  0.00     0.134 A 
ATOM     72  C   UNL     1      -1.096   8.722  11.478  1.00  0.00     0.134 A 
ATOM     73  F   UNL     1       0.871   9.698  14.366  1.00  0.00    -0.206 F 
ATOM     74  C   UNL     1      -0.019  11.008  12.632  1.00  0.00     0.040 A 
ATOM     75  C   UNL     1      -1.281   9.963  10.867  1.00  0.00     0.040 A 
ATOM     76  F   UNL     1      -1.633   7.642  10.892  1.00  0.00    -0.206 F 
ATOM     77  C   UNL     1      -0.746  11.112  11.448  1.00  0.00     0.006 A 
ENDBRANCH  49  70
BRANCH  61  78
ATOM     78  C   UNL     1      -2.672   5.813  18.601  1.00  0.00     0.057 A 
ATOM     79  C   UNL     1      -4.055   5.938  18.419  1.00  0.00     0.134 A 
ATOM     80  C   UNL     1      -2.146   6.181  19.845  1.00  0.00     0.134 A 
ATOM     81  F   UNL     1      -4.619   5.617  17.245  1.00  0.00    -0.206 F 
ATOM     82  C   UNL     1      -4.881   6.434  19.430  1.00  0.00     0.040 A 
ATOM     83  C   UNL     1      -2.965   6.655  20.872  1.00  0.00     0.040 A 
ATOM     84  F   UNL     1      -0.831   6.079  20.087  1.00  0.00    -0.206 F 
ATOM     85  C   UNL     1      -4.336   6.789  20.663  1.00  0.00     0.006 A 
ENDBRANCH  61  78
ENDBRANCH  35  36
ENDBRANCH  27  30
ENDBRANCH  25  26
ENDBRANCH  24  25
ENDBRANCH  23  24
ENDBRANCH   1  23
TORSDOF 15
