REMARK SMILES O=C(NCCCCCCNC(=O)c1ccc(-c2c3nc(c(-c4c(F)cccc4F)c4ccc([nH]4)c(-c4c(F)cccc4F)c4nc(c(-c5c(F)cccc5F)c5ccc2[nH]5)C=C4)C=C3)cc1)C1=Cc2c(Cl)ccc(Cl)c2O[C@@H]1C(F)(F)F
REMARK SMILES IDX 7 1 6 2 5 3 4 4 3 5 1 6 2 7 67 9 68 10 78 11 69 12 77 13
REMARK SMILES IDX 70 14 76 15 71 16 72 17 74 18 73 19 75 20 79 21 80 22 81 23
REMARK SMILES IDX 82 24 8 25 9 26 10 27 11 28 12 30 13 31 14 32 66 33 15 34
REMARK SMILES IDX 65 35 16 36 17 37 18 38 59 39 19 40 64 41 58 42 60 43 20 44
REMARK SMILES IDX 63 45 57 46 56 47 21 49 47 50 30 51 46 52 31 53 34 54 45 55
REMARK SMILES IDX 61 56 32 57 33 58 44 60 62 61 35 62 22 63 23 64 28 65 24 66
REMARK SMILES IDX 25 67 27 68 29 69 26 70 48 71 49 72 54 73 50 74 51 75 53 76
REMARK SMILES IDX 55 77 52 78 36 79 37 80 42 81 38 82 39 83 41 84 43 85 40 86
REMARK H PARENT 3 8 10 29 60 48 34 59
REMARK Flexibility Score: inf
ROOT
ATOM      1  C   UNL     1       4.471   1.510  -4.508  1.00  0.00     0.002 C 
ENDROOT
BRANCH   1   2
ATOM      2  C   UNL     1       3.801   0.129  -4.486  1.00  0.00     0.002 C 
BRANCH   2   3
ATOM      3  C   UNL     1       4.107  -0.758  -3.281  1.00  0.00     0.021 C 
BRANCH   3   4
ATOM      4  C   UNL     1       3.808  -0.151  -1.916  1.00  0.00     0.116 C 
BRANCH   4   5
ATOM      5  N   UNL     1       2.539  -0.539  -1.327  1.00  0.00    -0.352 N 
ATOM      6  O   UNL     1       0.986  -0.787   0.274  1.00  0.00    -0.270 OA
ATOM      7  C   UNL     1       2.171  -0.624  -0.013  1.00  0.00     0.251 C 
ATOM      8  H   UNL     1       1.836  -0.779  -1.974  1.00  0.00     0.163 HD
BRANCH   7   9
ATOM      9  C   UNL     1       3.141  -0.429   1.104  1.00  0.00     0.067 C 
ATOM     10  C   UNL     1       4.349  -1.019   1.118  1.00  0.00     0.027 C 
ATOM     11  C   UNL     1       2.967   0.887   1.816  1.00  0.00     0.314 C 
ATOM     12  C   UNL     1       5.453  -0.041   0.880  1.00  0.00     0.037 A 
ATOM     13  O   UNL     1       3.970   1.842   1.382  1.00  0.00    -0.474 OA
ATOM     14  C   UNL     1       6.680  -0.480   0.345  1.00  0.00     0.052 A 
ATOM     15  C   UNL     1       5.160   1.340   0.903  1.00  0.00     0.148 A 
ATOM     16  Cl  UNL     1       7.085  -2.159   0.247  1.00  0.00    -0.084 Cl
ATOM     17  C   UNL     1       7.558   0.433  -0.242  1.00  0.00     0.023 A 
ATOM     18  C   UNL     1       6.051   2.244   0.310  1.00  0.00     0.083 A 
ATOM     19  C   UNL     1       7.232   1.789  -0.280  1.00  0.00     0.026 A 
ATOM     20  Cl  UNL     1       5.668   3.922   0.175  1.00  0.00    -0.080 Cl
BRANCH  11  21
ATOM     21  C   UNL     1       2.955   0.735   3.346  1.00  0.00     0.429 C 
ATOM     22  F   UNL     1       2.640   1.901   3.956  1.00  0.00    -0.167 F 
ATOM     23  F   UNL     1       2.047  -0.183   3.752  1.00  0.00    -0.167 F 
ATOM     24  F   UNL     1       4.159   0.342   3.829  1.00  0.00    -0.167 F 
ENDBRANCH  11  21
ENDBRANCH   7   9
ENDBRANCH   4   5
ENDBRANCH   3   4
ENDBRANCH   2   3
ENDBRANCH   1   2
BRANCH   1  25
ATOM     25  C   UNL     1       5.986   1.546  -4.285  1.00  0.00     0.021 C 
BRANCH  25  26
ATOM     26  C   UNL     1       6.825   0.711  -5.249  1.00  0.00     0.116 C 
BRANCH  26  27
ATOM     27  N   UNL     1       6.632   1.089  -6.639  1.00  0.00    -0.352 N 
ATOM     28  C   UNL     1       7.542   1.436  -7.603  1.00  0.00     0.251 C 
ATOM     29  H   UNL     1       5.693   1.096  -6.937  1.00  0.00     0.163 HD
ATOM     30  O   UNL     1       7.140   1.869  -8.686  1.00  0.00    -0.269 OA
BRANCH  28  31
ATOM     31  C   UNL     1       8.998   1.323  -7.364  1.00  0.00     0.039 A 
ATOM     32  C   UNL     1       9.836   2.329  -7.855  1.00  0.00     0.014 A 
ATOM     33  C   UNL     1       9.551   0.220  -6.707  1.00  0.00     0.014 A 
ATOM     34  C   UNL     1      11.215   2.257  -7.641  1.00  0.00     0.010 A 
ATOM     35  C   UNL     1      10.917   0.187  -6.428  1.00  0.00     0.010 A 
ATOM     36  C   UNL     1      11.765   1.201  -6.898  1.00  0.00    -0.014 A 
BRANCH  36  37
ATOM     37  C   UNL     1      13.224   1.140  -6.615  1.00  0.00     0.031 A 
ATOM     38  C   UNL     1      14.057   0.010  -7.158  1.00  0.00     0.074 A 
ATOM     39  C   UNL     1      13.792   2.077  -5.830  1.00  0.00     0.049 A 
ATOM     40  N   UNL     1      15.327  -0.247  -6.968  1.00  0.00    -0.248 NA
ATOM     41  C   UNL     1      13.367  -0.975  -8.005  1.00  0.00     0.031 C 
ATOM     42  C   UNL     1      13.087   3.199  -5.208  1.00  0.00     0.029 A 
ATOM     43  N   UNL     1      15.091   2.229  -5.413  1.00  0.00    -0.354 N 
ATOM     44  C   UNL     1      15.585  -1.420  -7.666  1.00  0.00     0.074 A 
ATOM     45  C   UNL     1      14.327  -1.859  -8.231  1.00  0.00     0.031 C 
ATOM     46  C   UNL     1      13.963   3.932  -4.503  1.00  0.00     0.029 A 
ATOM     47  C   UNL     1      15.282   3.313  -4.591  1.00  0.00     0.049 A 
ATOM     48  H   UNL     1      15.816   1.618  -5.677  1.00  0.00     0.167 HD
ATOM     49  C   UNL     1      16.765  -2.060  -7.845  1.00  0.00     0.037 A 
ATOM     50  C   UNL     1      16.392   3.753  -3.968  1.00  0.00     0.037 A 
ATOM     51  C   UNL     1      18.019  -1.615  -7.294  1.00  0.00     0.049 A 
ATOM     52  C   UNL     1      17.688   3.016  -4.167  1.00  0.00     0.074 A 
ATOM     53  C   UNL     1      19.276  -2.174  -7.448  1.00  0.00     0.029 A 
ATOM     54  N   UNL     1      18.174  -0.501  -6.482  1.00  0.00    -0.354 N 
ATOM     55  N   UNL     1      17.926   1.939  -4.876  1.00  0.00    -0.248 NA
ATOM     56  C   UNL     1      18.872   3.560  -3.487  1.00  0.00     0.031 C 
ATOM     57  C   UNL     1      20.184  -1.425  -6.693  1.00  0.00     0.029 A 
ATOM     58  C   UNL     1      19.502  -0.367  -6.112  1.00  0.00     0.049 A 
ATOM     59  H   UNL     1      17.448   0.104  -6.208  1.00  0.00     0.167 HD
ATOM     60  C   UNL     1      19.287   1.693  -4.751  1.00  0.00     0.074 A 
ATOM     61  C   UNL     1      19.826   2.743  -3.912  1.00  0.00     0.031 C 
ATOM     62  C   UNL     1      20.025   0.688  -5.282  1.00  0.00     0.037 A 
BRANCH  49  63
ATOM     63  C   UNL     1      16.757  -3.308  -8.682  1.00  0.00     0.057 A 
ATOM     64  C   UNL     1      16.537  -3.265 -10.065  1.00  0.00     0.134 A 
ATOM     65  C   UNL     1      17.008  -4.560  -8.108  1.00  0.00     0.134 A 
ATOM     66  F   UNL     1      16.279  -2.099 -10.677  1.00  0.00    -0.206 F 
ATOM     67  C   UNL     1      16.538  -4.425 -10.842  1.00  0.00     0.040 A 
ATOM     68  C   UNL     1      17.041  -5.724  -8.879  1.00  0.00     0.040 A 
ATOM     69  F   UNL     1      17.235  -4.674  -6.790  1.00  0.00    -0.206 F 
ATOM     70  C   UNL     1      16.799  -5.659 -10.249  1.00  0.00     0.006 A 
ENDBRANCH  49  63
BRANCH  50  71
ATOM     71  C   UNL     1      16.331   4.958  -3.101  1.00  0.00     0.057 A 
ATOM     72  C   UNL     1      16.965   6.151  -3.470  1.00  0.00     0.134 A 
ATOM     73  C   UNL     1      15.649   4.943  -1.878  1.00  0.00     0.134 A 
ATOM     74  F   UNL     1      17.649   6.224  -4.621  1.00  0.00    -0.206 F 
ATOM     75  C   UNL     1      16.944   7.276  -2.643  1.00  0.00     0.040 A 
ATOM     76  C   UNL     1      15.596   6.069  -1.055  1.00  0.00     0.040 A 
ATOM     77  F   UNL     1      15.012   3.835  -1.472  1.00  0.00    -0.206 F 
ATOM     78  C   UNL     1      16.254   7.238  -1.434  1.00  0.00     0.006 A 
ENDBRANCH  50  71
BRANCH  62  79
ATOM     79  C   UNL     1      21.500   0.695  -5.001  1.00  0.00     0.057 A 
ATOM     80  C   UNL     1      22.015   0.391  -3.735  1.00  0.00     0.134 A 
ATOM     81  C   UNL     1      22.417   0.972  -6.023  1.00  0.00     0.134 A 
ATOM     82  F   UNL     1      21.190   0.128  -2.710  1.00  0.00    -0.206 F 
ATOM     83  C   UNL     1      23.389   0.386  -3.489  1.00  0.00     0.040 A 
ATOM     84  C   UNL     1      23.794   0.943  -5.796  1.00  0.00     0.040 A 
ATOM     85  F   UNL     1      21.991   1.262  -7.261  1.00  0.00    -0.206 F 
ATOM     86  C   UNL     1      24.283   0.656  -4.524  1.00  0.00     0.006 A 
ENDBRANCH  62  79
ENDBRANCH  36  37
ENDBRANCH  28  31
ENDBRANCH  26  27
ENDBRANCH  25  26
ENDBRANCH   1  25
TORSDOF 14
