REMARK SMILES CCN(CC(=O)NCCCCCCNC(=O)c1ccc(-c2c3nc(c(-c4c(F)cccc4F)c4ccc([nH]4)c(-c4c(F)cccc4F)c4nc(c(-c5c(F)cccc5F)c5ccc2[nH]5)C=C4)C=C3)cc1)C(=O)[C@@H]1CC[NH2+][C@@H]1C
REMARK SMILES IDX 10 1 9 2 8 3 7 4 5 5 6 6 4 8 3 9 2 10 1 11 71 12 72 13 73 14
REMARK SMILES IDX 74 15 77 16 75 17 76 18 78 19 11 22 12 23 13 24 14 25 15 26
REMARK SMILES IDX 16 28 17 29 18 30 70 31 19 32 69 33 20 34 21 35 22 36 63 37
REMARK SMILES IDX 23 38 68 39 62 40 64 41 24 42 67 43 61 44 60 45 25 47 51 48
REMARK SMILES IDX 34 49 50 50 35 51 38 52 49 53 65 54 36 55 37 56 48 58 66 59
REMARK SMILES IDX 39 60 26 61 27 62 32 63 28 64 29 65 31 66 33 67 30 68 52 69
REMARK SMILES IDX 53 70 58 71 54 72 55 73 57 74 59 75 56 76 40 77 41 78 46 79
REMARK SMILES IDX 42 80 43 81 45 82 47 83 44 84
REMARK H PARENT 7 7 76 20 76 21 14 27 64 46 38 57
REMARK Flexibility Score: inf
ROOT
ATOM      1  C   UNL     1       5.456  -2.084  -8.550  1.00  0.00     0.002 C 
ENDROOT
BRANCH   1   2
ATOM      2  C   UNL     1       4.000  -2.401  -8.191  1.00  0.00     0.021 C 
BRANCH   2   3
ATOM      3  C   UNL     1       3.733  -3.872  -7.889  1.00  0.00     0.116 C 
BRANCH   3   4
ATOM      4  N   UNL     1       4.442  -4.327  -6.718  1.00  0.00    -0.355 N 
ATOM      5  C   UNL     1       3.942  -4.742  -5.522  1.00  0.00     0.239 C 
ATOM      6  O   UNL     1       4.727  -5.244  -4.715  1.00  0.00    -0.273 OA
ATOM      7  H   UNL     1       5.423  -4.339  -6.794  1.00  0.00     0.163 HD
BRANCH   5   8
ATOM      8  C   UNL     1       2.437  -4.689  -5.247  1.00  0.00     0.219 C 
BRANCH   8   9
ATOM      9  N   UNL     1       1.771  -3.385  -5.353  1.00  0.00    -0.333 N 
BRANCH   9  10
ATOM     10  C   UNL     1       0.656  -3.305  -6.317  1.00  0.00     0.116 C 
ATOM     11  C   UNL     1      -0.723  -3.282  -5.671  1.00  0.00     0.027 C 
ENDBRANCH   9  10
BRANCH   9  12
ATOM     12  C   UNL     1       1.960  -2.275  -4.548  1.00  0.00     0.232 C 
ATOM     13  O   UNL     1       1.272  -1.264  -4.780  1.00  0.00    -0.274 OA
BRANCH  12  14
ATOM     14  C   UNL     1       3.030  -2.098  -3.465  1.00  0.00     0.142 C 
ATOM     15  C   UNL     1       4.423  -1.772  -3.977  1.00  0.00     0.081 C 
ATOM     16  C   UNL     1       3.238  -2.893  -2.168  1.00  0.00     0.192 C 
ATOM     17  C   UNL     1       5.224  -1.706  -2.692  1.00  0.00     0.261 C 
ATOM     18  N   UNL     1       4.694  -2.804  -1.877  1.00  0.00    -0.343 N 
ATOM     19  C   UNL     1       2.794  -4.335  -2.031  1.00  0.00     0.076 C 
ATOM     20  H   UNL     1       4.843  -2.610  -0.887  1.00  0.00     0.346 HD
ATOM     21  H   UNL     1       5.165  -3.682  -2.096  1.00  0.00     0.346 HD
ENDBRANCH  12  14
ENDBRANCH   9  12
ENDBRANCH   8   9
ENDBRANCH   5   8
ENDBRANCH   3   4
ENDBRANCH   2   3
ENDBRANCH   1   2
BRANCH   1  22
ATOM     22  C   UNL     1       6.087  -2.999  -9.606  1.00  0.00     0.002 C 
BRANCH  22  23
ATOM     23  C   UNL     1       5.289  -3.159 -10.903  1.00  0.00     0.021 C 
BRANCH  23  24
ATOM     24  C   UNL     1       4.986  -1.857 -11.630  1.00  0.00     0.116 C 
BRANCH  24  25
ATOM     25  N   UNL     1       6.195  -1.188 -12.069  1.00  0.00    -0.352 N 
ATOM     26  C   UNL     1       6.518  -0.707 -13.311  1.00  0.00     0.251 C 
ATOM     27  H   UNL     1       6.882  -1.061 -11.375  1.00  0.00     0.163 HD
ATOM     28  O   UNL     1       7.668  -0.355 -13.550  1.00  0.00    -0.269 OA
BRANCH  26  29
ATOM     29  C   UNL     1       5.487  -0.624 -14.368  1.00  0.00     0.039 A 
ATOM     30  C   UNL     1       5.843  -0.969 -15.674  1.00  0.00     0.014 A 
ATOM     31  C   UNL     1       4.192  -0.174 -14.091  1.00  0.00     0.014 A 
ATOM     32  C   UNL     1       4.895  -0.887 -16.694  1.00  0.00     0.010 A 
ATOM     33  C   UNL     1       3.226  -0.168 -15.094  1.00  0.00     0.010 A 
ATOM     34  C   UNL     1       3.574  -0.502 -16.410  1.00  0.00    -0.014 A 
BRANCH  34  35
ATOM     35  C   UNL     1       2.564  -0.421 -17.494  1.00  0.00     0.031 A 
ATOM     36  C   UNL     1       1.972   0.906 -17.883  1.00  0.00     0.074 A 
ATOM     37  C   UNL     1       2.171  -1.547 -18.119  1.00  0.00     0.049 A 
ATOM     38  N   UNL     1       1.105   1.179 -18.826  1.00  0.00    -0.248 NA
ATOM     39  C   UNL     1       2.386   2.077 -17.095  1.00  0.00     0.031 C 
ATOM     40  C   UNL     1       2.630  -2.899 -17.793  1.00  0.00     0.029 A 
ATOM     41  N   UNL     1       1.303  -1.733 -19.164  1.00  0.00    -0.354 N 
ATOM     42  C   UNL     1       0.869   2.545 -18.739  1.00  0.00     0.074 A 
ATOM     43  C   UNL     1       1.633   3.035 -17.614  1.00  0.00     0.031 C 
ATOM     44  C   UNL     1       2.068  -3.770 -18.646  1.00  0.00     0.029 A 
ATOM     45  C   UNL     1       1.192  -3.044 -19.560  1.00  0.00     0.049 A 
ATOM     46  H   UNL     1       0.806  -0.998 -19.590  1.00  0.00     0.167 HD
ATOM     47  C   UNL     1       0.106   3.326 -19.541  1.00  0.00     0.037 A 
ATOM     48  C   UNL     1       0.476  -3.594 -20.557  1.00  0.00     0.037 A 
ATOM     49  C   UNL     1      -0.636   2.838 -20.674  1.00  0.00     0.049 A 
ATOM     50  C   UNL     1      -0.344  -2.703 -21.448  1.00  0.00     0.074 A 
ATOM     51  C   UNL     1      -1.400   3.554 -21.579  1.00  0.00     0.029 A 
ATOM     52  N   UNL     1      -0.706   1.507 -21.056  1.00  0.00    -0.354 N 
ATOM     53  N   UNL     1      -0.501  -1.402 -21.399  1.00  0.00    -0.248 NA
ATOM     54  C   UNL     1      -1.073  -3.356 -22.544  1.00  0.00     0.031 C 
ATOM     55  C   UNL     1      -1.964   2.650 -22.486  1.00  0.00     0.029 A 
ATOM     56  C   UNL     1      -1.511   1.378 -22.176  1.00  0.00     0.049 A 
ATOM     57  H   UNL     1      -0.251   0.763 -20.599  1.00  0.00     0.167 HD
ATOM     58  C   UNL     1      -1.319  -1.077 -22.473  1.00  0.00     0.074 A 
ATOM     59  C   UNL     1      -1.611  -2.316 -23.165  1.00  0.00     0.031 C 
ATOM     60  C   UNL     1      -1.786   0.137 -22.855  1.00  0.00     0.037 A 
BRANCH  47  61
ATOM     61  C   UNL     1       0.046   4.793 -19.222  1.00  0.00     0.057 A 
ATOM     62  C   UNL     1       1.150   5.636 -19.409  1.00  0.00     0.134 A 
ATOM     63  C   UNL     1      -1.137   5.376 -18.749  1.00  0.00     0.134 A 
ATOM     64  F   UNL     1       2.317   5.140 -19.847  1.00  0.00    -0.206 F 
ATOM     65  C   UNL     1       1.089   6.998 -19.110  1.00  0.00     0.040 A 
ATOM     66  C   UNL     1      -1.218   6.742 -18.474  1.00  0.00     0.040 A 
ATOM     67  F   UNL     1      -2.233   4.629 -18.552  1.00  0.00    -0.206 F 
ATOM     68  C   UNL     1      -0.100   7.556 -18.648  1.00  0.00     0.006 A 
ENDBRANCH  47  61
BRANCH  48  69
ATOM     69  C   UNL     1       0.539  -5.058 -20.797  1.00  0.00     0.057 A 
ATOM     70  C   UNL     1       1.183  -5.577 -21.926  1.00  0.00     0.134 A 
ATOM     71  C   UNL     1      -0.043  -5.970 -19.910  1.00  0.00     0.134 A 
ATOM     72  F   UNL     1       1.747  -4.753 -22.821  1.00  0.00    -0.206 F 
ATOM     73  C   UNL     1       1.226  -6.950 -22.177  1.00  0.00     0.040 A 
ATOM     74  C   UNL     1       0.014  -7.346 -20.135  1.00  0.00     0.040 A 
ATOM     75  F   UNL     1      -0.665  -5.536 -18.804  1.00  0.00    -0.206 F 
ATOM     76  C   UNL     1       0.644  -7.839 -21.277  1.00  0.00     0.006 A 
ENDBRANCH  48  69
BRANCH  60  77
ATOM     77  C   UNL     1      -2.626   0.184 -24.098  1.00  0.00     0.057 A 
ATOM     78  C   UNL     1      -3.928  -0.331 -24.134  1.00  0.00     0.134 A 
ATOM     79  C   UNL     1      -2.127   0.765 -25.270  1.00  0.00     0.134 A 
ATOM     80  F   UNL     1      -4.460  -0.912 -23.048  1.00  0.00    -0.206 F 
ATOM     81  C   UNL     1      -4.691  -0.301 -25.303  1.00  0.00     0.040 A 
ATOM     82  C   UNL     1      -2.890   0.827 -26.436  1.00  0.00     0.040 A 
ATOM     83  F   UNL     1      -0.891   1.287 -25.301  1.00  0.00    -0.206 F 
ATOM     84  C   UNL     1      -4.173   0.283 -26.457  1.00  0.00     0.006 A 
ENDBRANCH  60  77
ENDBRANCH  34  35
ENDBRANCH  26  29
ENDBRANCH  24  25
ENDBRANCH  23  24
ENDBRANCH  22  23
ENDBRANCH   1  22
TORSDOF 17
