REMARK SMILES Cc1cc(C(=O)NCCCCCCNC(=O)c2ccc(-c3c4nc(c(-c5c(F)cccc5F)c5ccc([nH]5)c(-c5c(F)cccc5F)c5nc(c(-c6c(F)cccc6F)c6ccc3[nH]6)C=C5)C=C4)cc2)ccc1NC(=O)c1ccc(=O)n(CCOc2ccccc2)n1
REMARK SMILES IDX 8 1 7 2 5 3 6 4 4 6 1 7 2 8 3 9 73 10 72 11 71 12 74 13
REMARK SMILES IDX 75 14 76 16 77 17 78 18 92 19 79 20 82 21 80 22 81 23 83 24
REMARK SMILES IDX 84 25 85 26 86 27 87 28 91 29 88 30 90 31 89 32 9 33 10 34
REMARK SMILES IDX 11 35 12 36 13 37 14 38 15 39 16 41 17 42 18 43 70 44 19 45
REMARK SMILES IDX 69 46 20 47 21 48 22 49 63 50 23 51 68 52 62 53 64 54 24 55
REMARK SMILES IDX 67 56 61 57 60 58 25 60 51 61 34 62 50 63 35 64 38 65 49 66
REMARK SMILES IDX 65 67 36 68 37 69 48 71 66 72 39 73 26 74 27 75 32 76 28 77
REMARK SMILES IDX 29 78 31 79 33 80 30 81 52 82 53 83 58 84 54 85 55 86 57 87
REMARK SMILES IDX 59 88 56 89 40 90 41 91 46 92 42 93 43 94 45 95 47 96 44 97
REMARK H PARENT 7 5 74 15 14 40 64 59 38 70
REMARK Flexibility Score: inf
ROOT
ATOM      1  C   UNL     1      -3.807  -1.730   0.264  1.00  0.00     0.116 C 
ENDROOT
BRANCH   1   2
ATOM      2  N   UNL     1      -2.847  -2.806   0.046  1.00  0.00    -0.352 N 
ATOM      3  C   UNL     1      -1.477  -2.794  -0.088  1.00  0.00     0.251 C 
ATOM      4  O   UNL     1      -0.866  -3.861  -0.061  1.00  0.00    -0.269 OA
ATOM      5  H   UNL     1      -3.252  -3.701  -0.017  1.00  0.00     0.163 HD
BRANCH   3   6
ATOM      6  C   UNL     1      -0.709  -1.530  -0.226  1.00  0.00     0.040 A 
ATOM      7  C   UNL     1       2.747  -0.262   0.726  1.00  0.00     0.046 C 
ATOM      8  C   UNL     1       1.306  -0.218   0.293  1.00  0.00    -0.027 A 
ATOM      9  C   UNL     1       0.583  -1.436   0.310  1.00  0.00     0.019 A 
ATOM     10  C   UNL     1       0.672   0.931  -0.203  1.00  0.00     0.044 A 
ATOM     11  C   UNL     1      -0.487   0.743  -0.956  1.00  0.00     0.027 A 
ATOM     12  C   UNL     1      -1.184  -0.463  -0.966  1.00  0.00     0.016 A 
BRANCH  10  13
ATOM     13  N   UNL     1       1.186   2.221   0.071  1.00  0.00    -0.320 N 
ATOM     14  C   UNL     1       0.519   3.433   0.201  1.00  0.00     0.276 C 
ATOM     15  H   UNL     1       2.162   2.267   0.186  1.00  0.00     0.170 HD
ATOM     16  O   UNL     1       1.108   4.479   0.447  1.00  0.00    -0.267 OA
BRANCH  14  17
ATOM     17  C   UNL     1      -0.989   3.473   0.050  1.00  0.00     0.149 A 
ATOM     18  C   UNL     1      -1.470   3.879  -1.287  1.00  0.00     0.042 A 
ATOM     19  N   UNL     1      -1.757   3.112   1.036  1.00  0.00    -0.164 NA
ATOM     20  C   UNL     1      -2.669   3.396  -1.619  1.00  0.00     0.076 A 
ATOM     21  N   UNL     1      -3.087   2.872   0.700  1.00  0.00    -0.226 N 
ATOM     22  C   UNL     1      -3.461   2.639  -0.618  1.00  0.00     0.266 A 
ATOM     23  O   UNL     1      -4.404   1.945  -0.987  1.00  0.00    -0.268 OA
BRANCH  21  24
ATOM     24  C   UNL     1      -4.036   2.650   1.792  1.00  0.00     0.190 C 
BRANCH  24  25
ATOM     25  C   UNL     1      -4.766   3.946   2.199  1.00  0.00     0.253 C 
BRANCH  25  26
ATOM     26  O   UNL     1      -5.981   4.136   1.442  1.00  0.00    -0.492 OA
BRANCH  26  27
ATOM     27  C   UNL     1      -5.888   5.189   0.576  1.00  0.00     0.119 A 
ATOM     28  C   UNL     1      -6.090   6.500   0.993  1.00  0.00     0.046 A 
ATOM     29  C   UNL     1      -5.658   4.922  -0.769  1.00  0.00     0.046 A 
ATOM     30  C   UNL     1      -5.947   7.545   0.073  1.00  0.00     0.004 A 
ATOM     31  C   UNL     1      -5.447   5.958  -1.673  1.00  0.00     0.004 A 
ATOM     32  C   UNL     1      -5.585   7.275  -1.249  1.00  0.00     0.000 A 
ENDBRANCH  26  27
ENDBRANCH  25  26
ENDBRANCH  24  25
ENDBRANCH  21  24
ENDBRANCH  14  17
ENDBRANCH  10  13
ENDBRANCH   3   6
ENDBRANCH   1   2
BRANCH   1  33
ATOM     33  C   UNL     1      -4.797  -1.591  -0.897  1.00  0.00     0.021 C 
BRANCH  33  34
ATOM     34  C   UNL     1      -5.878  -2.681  -0.981  1.00  0.00     0.002 C 
BRANCH  34  35
ATOM     35  C   UNL     1      -6.765  -2.880   0.261  1.00  0.00     0.002 C 
BRANCH  35  36
ATOM     36  C   UNL     1      -7.384  -1.615   0.863  1.00  0.00     0.021 C 
BRANCH  36  37
ATOM     37  C   UNL     1      -8.481  -0.981   0.014  1.00  0.00     0.116 C 
BRANCH  37  38
ATOM     38  N   UNL     1      -9.833  -1.391   0.381  1.00  0.00    -0.352 N 
ATOM     39  C   UNL     1     -11.045  -1.116  -0.239  1.00  0.00     0.251 C 
ATOM     40  H   UNL     1      -9.895  -1.947   1.191  1.00  0.00     0.163 HD
ATOM     41  O   UNL     1     -12.082  -1.529   0.237  1.00  0.00    -0.269 OA
BRANCH  39  42
ATOM     42  C   UNL     1     -11.051  -0.434  -1.561  1.00  0.00     0.039 A 
ATOM     43  C   UNL     1     -11.870  -0.967  -2.564  1.00  0.00     0.014 A 
ATOM     44  C   UNL     1     -10.139   0.570  -1.868  1.00  0.00     0.014 A 
ATOM     45  C   UNL     1     -11.585  -0.688  -3.900  1.00  0.00     0.010 A 
ATOM     46  C   UNL     1      -9.793   0.777  -3.188  1.00  0.00     0.010 A 
ATOM     47  C   UNL     1     -10.466   0.087  -4.200  1.00  0.00    -0.014 A 
BRANCH  47  48
ATOM     48  C   UNL     1      -9.847   0.121  -5.521  1.00  0.00     0.031 A 
ATOM     49  C   UNL     1      -9.998   1.294  -6.402  1.00  0.00     0.074 A 
ATOM     50  C   UNL     1      -9.056  -0.908  -5.897  1.00  0.00     0.049 A 
ATOM     51  N   UNL     1      -9.802   1.275  -7.677  1.00  0.00    -0.248 NA
ATOM     52  C   UNL     1     -10.421   2.596  -5.902  1.00  0.00     0.031 C 
ATOM     53  C   UNL     1      -8.146  -0.967  -7.037  1.00  0.00     0.029 A 
ATOM     54  N   UNL     1      -9.102  -2.226  -5.422  1.00  0.00    -0.354 N 
ATOM     55  C   UNL     1      -9.840   2.572  -8.131  1.00  0.00     0.074 A 
ATOM     56  C   UNL     1     -10.261   3.355  -6.990  1.00  0.00     0.031 C 
ATOM     57  C   UNL     1      -7.960  -2.254  -7.371  1.00  0.00     0.029 A 
ATOM     58  C   UNL     1      -8.856  -3.047  -6.546  1.00  0.00     0.049 A 
ATOM     59  H   UNL     1      -9.271  -2.520  -4.497  1.00  0.00     0.167 HD
ATOM     60  C   UNL     1      -9.413   2.854  -9.396  1.00  0.00     0.037 A 
ATOM     61  C   UNL     1      -9.825  -3.887  -7.015  1.00  0.00     0.037 A 
ATOM     62  C   UNL     1      -9.061   1.643 -10.131  1.00  0.00     0.049 A 
ATOM     63  C   UNL     1     -10.288  -3.593  -8.427  1.00  0.00     0.074 A 
ATOM     64  C   UNL     1      -7.876   0.966 -10.367  1.00  0.00     0.029 A 
ATOM     65  N   UNL     1     -10.075   0.779 -10.502  1.00  0.00    -0.354 N 
ATOM     66  N   UNL     1      -9.896  -2.570  -9.135  1.00  0.00    -0.248 NA
ATOM     67  C   UNL     1     -11.312  -4.385  -9.114  1.00  0.00     0.031 C 
ATOM     68  C   UNL     1      -8.197  -0.339 -10.840  1.00  0.00     0.029 A 
ATOM     69  C   UNL     1      -9.575  -0.445 -10.898  1.00  0.00     0.049 A 
ATOM     70  H   UNL     1     -11.032   1.008 -10.485  1.00  0.00     0.167 HD
ATOM     71  C   UNL     1     -10.620  -2.523 -10.295  1.00  0.00     0.074 A 
ATOM     72  C   UNL     1     -11.487  -3.684 -10.245  1.00  0.00     0.031 C 
ATOM     73  C   UNL     1     -10.503  -1.516 -11.204  1.00  0.00     0.037 A 
BRANCH  60  74
ATOM     74  C   UNL     1      -9.111   4.247  -9.886  1.00  0.00     0.057 A 
ATOM     75  C   UNL     1      -8.081   4.475 -10.819  1.00  0.00     0.134 A 
ATOM     76  C   UNL     1      -9.771   5.409  -9.451  1.00  0.00     0.134 A 
ATOM     77  F   UNL     1      -7.421   3.465 -11.400  1.00  0.00    -0.206 F 
ATOM     78  C   UNL     1      -7.666   5.758 -11.196  1.00  0.00     0.040 A 
ATOM     79  C   UNL     1      -9.328   6.700  -9.773  1.00  0.00     0.040 A 
ATOM     80  F   UNL     1     -10.903   5.345  -8.738  1.00  0.00    -0.206 F 
ATOM     81  C   UNL     1      -8.261   6.879 -10.640  1.00  0.00     0.006 A 
ENDBRANCH  60  74
BRANCH  61  82
ATOM     82  C   UNL     1     -10.693  -4.428  -5.934  1.00  0.00     0.057 A 
ATOM     83  C   UNL     1     -10.101  -5.191  -4.910  1.00  0.00     0.134 A 
ATOM     84  C   UNL     1     -11.974  -3.925  -5.695  1.00  0.00     0.134 A 
ATOM     85  F   UNL     1      -8.872  -5.706  -5.076  1.00  0.00    -0.206 F 
ATOM     86  C   UNL     1     -10.704  -5.339  -3.660  1.00  0.00     0.040 A 
ATOM     87  C   UNL     1     -12.597  -4.087  -4.454  1.00  0.00     0.040 A 
ATOM     88  F   UNL     1     -12.597  -3.173  -6.614  1.00  0.00    -0.206 F 
ATOM     89  C   UNL     1     -11.944  -4.757  -3.420  1.00  0.00     0.006 A 
ENDBRANCH  61  82
BRANCH  73  90
ATOM     90  C   UNL     1     -11.284  -1.491 -12.476  1.00  0.00     0.057 A 
ATOM     91  C   UNL     1     -11.270  -2.568 -13.370  1.00  0.00     0.134 A 
ATOM     92  C   UNL     1     -11.969  -0.338 -12.895  1.00  0.00     0.134 A 
ATOM     93  F   UNL     1     -10.617  -3.701 -13.070  1.00  0.00    -0.206 F 
ATOM     94  C   UNL     1     -11.915  -2.508 -14.609  1.00  0.00     0.040 A 
ATOM     95  C   UNL     1     -12.584  -0.251 -14.145  1.00  0.00     0.040 A 
ATOM     96  F   UNL     1     -12.077   0.736 -12.098  1.00  0.00    -0.206 F 
ATOM     97  C   UNL     1     -12.562  -1.342 -15.006  1.00  0.00     0.006 A 
ENDBRANCH  73  90
ENDBRANCH  47  48
ENDBRANCH  39  42
ENDBRANCH  37  38
ENDBRANCH  36  37
ENDBRANCH  35  36
ENDBRANCH  34  35
ENDBRANCH  33  34
ENDBRANCH   1  33
TORSDOF 19
