REMARK SMILES CC1=NN(c2ccc(Cl)c(C(=O)NCCCCCCNC(=O)c3ccc(-c4c5nc(c(-c6c(F)cccc6F)c6ccc([nH]6)c(-c6c(F)cccc6F)c6nc(c(-c7c(F)cccc7F)c7ccc4[nH]7)C=C6)C=C5)cc3)c2)C(=O)/C1=C\c1ccccc1Cl
REMARK SMILES IDX 16 1 15 2 14 3 13 4 11 5 12 6 10 8 5 9 6 10 77 11 7 12 8 13
REMARK SMILES IDX 9 14 4 15 1 16 2 17 3 18 80 19 78 20 81 21 79 22 82 23 83 24
REMARK SMILES IDX 87 25 84 26 86 27 88 28 85 29 17 30 18 31 19 32 20 33 21 34
REMARK SMILES IDX 22 36 23 37 24 38 76 39 25 40 75 41 26 42 27 43 28 44 69 45
REMARK SMILES IDX 29 46 74 47 68 48 70 49 30 50 73 51 67 52 66 53 31 55 57 56
REMARK SMILES IDX 40 57 56 58 41 59 44 60 55 61 71 62 42 63 43 64 54 66 72 67
REMARK SMILES IDX 45 68 32 69 33 70 38 71 34 72 35 73 37 74 39 75 36 76 58 77
REMARK SMILES IDX 59 78 64 79 60 80 61 81 63 82 65 83 62 84 46 85 47 86 52 87
REMARK SMILES IDX 48 88 49 89 51 90 53 91 50 92
REMARK H PARENT 13 7 20 35 70 54 44 65
REMARK Flexibility Score: inf
ROOT
ATOM      1  C   UNL     1       2.605   9.996   1.868  1.00  0.00     0.002 C 
ENDROOT
BRANCH   1   2
ATOM      2  C   UNL     1       2.257   9.047   0.716  1.00  0.00     0.021 C 
BRANCH   2   3
ATOM      3  C   UNL     1       2.768   7.618   0.836  1.00  0.00     0.116 C 
BRANCH   3   4
ATOM      4  N   UNL     1       2.179   6.845   1.911  1.00  0.00    -0.352 N 
ATOM      5  C   UNL     1       1.896   5.499   1.989  1.00  0.00     0.252 C 
ATOM      6  O   UNL     1       1.427   5.061   3.039  1.00  0.00    -0.269 OA
ATOM      7  H   UNL     1       1.943   7.365   2.714  1.00  0.00     0.163 HD
BRANCH   5   8
ATOM      8  C   UNL     1       2.062   4.567   0.838  1.00  0.00     0.060 A 
ATOM      9  C   UNL     1       1.196   2.600  -0.317  1.00  0.00     0.070 A 
ATOM     10  C   UNL     1       2.239   2.707  -1.242  1.00  0.00     0.030 A 
ATOM     11  C   UNL     1       1.047   3.594   0.658  1.00  0.00     0.044 A 
ATOM     12  C   UNL     1       3.242   3.649  -1.071  1.00  0.00     0.023 A 
ATOM     13  C   UNL     1       3.210   4.499   0.033  1.00  0.00     0.053 A 
ATOM     14  Cl  UNL     1       4.726   5.234   0.424  1.00  0.00    -0.083 Cl
BRANCH   9  15
ATOM     15  N   UNL     1       0.480   1.387  -0.266  1.00  0.00    -0.196 N 
ATOM     16  C   UNL     1      -2.546  -0.498   0.230  1.00  0.00     0.069 C 
ATOM     17  C   UNL     1      -1.169   0.050   0.063  1.00  0.00     0.071 C 
ATOM     18  N   UNL     1      -0.869   1.329   0.053  1.00  0.00    -0.169 NA
ATOM     19  C   UNL     1       0.017  -0.808  -0.123  1.00  0.00     0.065 C 
ATOM     20  C   UNL     1       1.101   0.140  -0.443  1.00  0.00     0.280 C 
ATOM     21  C   UNL     1       0.139  -2.128   0.086  1.00  0.00     0.025 C 
ATOM     22  O   UNL     1       2.248  -0.136  -0.748  1.00  0.00    -0.267 OA
BRANCH  21  23
ATOM     23  C   UNL     1       1.458  -2.788   0.121  1.00  0.00    -0.006 A 
ATOM     24  C   UNL     1       1.891  -3.506  -1.001  1.00  0.00     0.009 A 
ATOM     25  C   UNL     1       2.341  -2.639   1.212  1.00  0.00     0.048 A 
ATOM     26  C   UNL     1       3.186  -4.036  -1.046  1.00  0.00     0.001 A 
ATOM     27  C   UNL     1       3.636  -3.163   1.158  1.00  0.00     0.021 A 
ATOM     28  Cl  UNL     1       1.878  -1.792   2.651  1.00  0.00    -0.084 Cl
ATOM     29  C   UNL     1       4.059  -3.856   0.025  1.00  0.00     0.002 A 
ENDBRANCH  21  23
ENDBRANCH   9  15
ENDBRANCH   5   8
ENDBRANCH   3   4
ENDBRANCH   2   3
ENDBRANCH   1   2
BRANCH   1  30
ATOM     30  C   UNL     1       4.072  10.066   2.307  1.00  0.00     0.002 C 
BRANCH  30  31
ATOM     31  C   UNL     1       5.119  10.297   1.214  1.00  0.00     0.021 C 
BRANCH  31  32
ATOM     32  C   UNL     1       4.884  11.491   0.296  1.00  0.00     0.116 C 
BRANCH  32  33
ATOM     33  N   UNL     1       4.845  12.758   1.004  1.00  0.00    -0.352 N 
ATOM     34  C   UNL     1       5.526  13.924   0.756  1.00  0.00     0.251 C 
ATOM     35  H   UNL     1       4.238  12.785   1.779  1.00  0.00     0.163 HD
ATOM     36  O   UNL     1       5.450  14.859   1.548  1.00  0.00    -0.269 OA
BRANCH  34  37
ATOM     37  C   UNL     1       6.377  14.055  -0.449  1.00  0.00     0.039 A 
ATOM     38  C   UNL     1       7.641  14.637  -0.315  1.00  0.00     0.014 A 
ATOM     39  C   UNL     1       5.936  13.627  -1.704  1.00  0.00     0.014 A 
ATOM     40  C   UNL     1       8.485  14.732  -1.425  1.00  0.00     0.010 A 
ATOM     41  C   UNL     1       6.805  13.657  -2.794  1.00  0.00     0.010 A 
ATOM     42  C   UNL     1       8.088  14.211  -2.667  1.00  0.00    -0.014 A 
BRANCH  42  43
ATOM     43  C   UNL     1       9.001  14.238  -3.840  1.00  0.00     0.031 A 
ATOM     44  C   UNL     1       8.645  15.045  -5.058  1.00  0.00     0.074 A 
ATOM     45  C   UNL     1      10.126  13.497  -3.828  1.00  0.00     0.049 A 
ATOM     46  N   UNL     1       9.277  15.140  -6.201  1.00  0.00    -0.248 NA
ATOM     47  C   UNL     1       7.404  15.833  -4.992  1.00  0.00     0.031 C 
ATOM     48  C   UNL     1      10.569  12.646  -2.721  1.00  0.00     0.029 A 
ATOM     49  N   UNL     1      11.101  13.334  -4.781  1.00  0.00    -0.354 N 
ATOM     50  C   UNL     1       8.510  15.992  -6.988  1.00  0.00     0.074 A 
ATOM     51  C   UNL     1       7.338  16.339  -6.215  1.00  0.00     0.031 C 
ATOM     52  C   UNL     1      11.738  12.072  -3.048  1.00  0.00     0.029 A 
ATOM     53  C   UNL     1      12.107  12.479  -4.400  1.00  0.00     0.049 A 
ATOM     54  H   UNL     1      11.081  13.787  -5.655  1.00  0.00     0.167 HD
ATOM     55  C   UNL     1       8.772  16.463  -8.230  1.00  0.00     0.037 A 
ATOM     56  C   UNL     1      13.200  12.064  -5.069  1.00  0.00     0.037 A 
ATOM     57  C   UNL     1       9.945  16.129  -8.994  1.00  0.00     0.049 A 
ATOM     58  C   UNL     1      13.446  12.574  -6.463  1.00  0.00     0.074 A 
ATOM     59  C   UNL     1      10.315  16.579 -10.250  1.00  0.00     0.029 A 
ATOM     60  N   UNL     1      10.941  15.261  -8.572  1.00  0.00    -0.354 N 
ATOM     61  N   UNL     1      12.738  13.418  -7.173  1.00  0.00    -0.248 NA
ATOM     62  C   UNL     1      14.648  12.075  -7.147  1.00  0.00     0.031 C 
ATOM     63  C   UNL     1      11.514  15.953 -10.605  1.00  0.00     0.029 A 
ATOM     64  C   UNL     1      11.917  15.150  -9.550  1.00  0.00     0.049 A 
ATOM     65  H   UNL     1      10.954  14.793  -7.706  1.00  0.00     0.167 HD
ATOM     66  C   UNL     1      13.426  13.579  -8.369  1.00  0.00     0.074 A 
ATOM     67  C   UNL     1      14.613  12.755  -8.284  1.00  0.00     0.031 C 
ATOM     68  C   UNL     1      13.103  14.340  -9.443  1.00  0.00     0.037 A 
BRANCH  55  69
ATOM     69  C   UNL     1       7.773  17.404  -8.839  1.00  0.00     0.057 A 
ATOM     70  C   UNL     1       7.608  18.711  -8.360  1.00  0.00     0.134 A 
ATOM     71  C   UNL     1       6.998  17.018  -9.940  1.00  0.00     0.134 A 
ATOM     72  F   UNL     1       8.312  19.141  -7.302  1.00  0.00    -0.206 F 
ATOM     73  C   UNL     1       6.693  19.592  -8.939  1.00  0.00     0.040 A 
ATOM     74  C   UNL     1       6.099  17.899 -10.545  1.00  0.00     0.040 A 
ATOM     75  F   UNL     1       7.109  15.784 -10.454  1.00  0.00    -0.206 F 
ATOM     76  C   UNL     1       5.941  19.189 -10.040  1.00  0.00     0.006 A 
ENDBRANCH  55  69
BRANCH  56  77
ATOM     77  C   UNL     1      14.160  11.126  -4.431  1.00  0.00     0.057 A 
ATOM     78  C   UNL     1      15.454  11.540  -4.091  1.00  0.00     0.134 A 
ATOM     79  C   UNL     1      13.824   9.791  -4.179  1.00  0.00     0.134 A 
ATOM     80  F   UNL     1      15.842  12.802  -4.327  1.00  0.00    -0.206 F 
ATOM     81  C   UNL     1      16.387  10.655  -3.550  1.00  0.00     0.040 A 
ATOM     82  C   UNL     1      14.739   8.901  -3.612  1.00  0.00     0.040 A 
ATOM     83  F   UNL     1      12.600   9.332  -4.476  1.00  0.00    -0.206 F 
ATOM     84  C   UNL     1      16.029   9.331  -3.306  1.00  0.00     0.006 A 
ENDBRANCH  56  77
BRANCH  68  85
ATOM     85  C   UNL     1      14.070  14.356 -10.590  1.00  0.00     0.057 A 
ATOM     86  C   UNL     1      14.233  13.256 -11.440  1.00  0.00     0.134 A 
ATOM     87  C   UNL     1      14.825  15.504 -10.866  1.00  0.00     0.134 A 
ATOM     88  F   UNL     1      13.550  12.121 -11.222  1.00  0.00    -0.206 F 
ATOM     89  C   UNL     1      15.129  13.287 -12.510  1.00  0.00     0.040 A 
ATOM     90  C   UNL     1      15.703  15.557 -11.949  1.00  0.00     0.040 A 
ATOM     91  F   UNL     1      14.711  16.597 -10.096  1.00  0.00    -0.206 F 
ATOM     92  C   UNL     1      15.862  14.444 -12.771  1.00  0.00     0.006 A 
ENDBRANCH  68  85
ENDBRANCH  42  43
ENDBRANCH  34  37
ENDBRANCH  32  33
ENDBRANCH  31  32
ENDBRANCH  30  31
ENDBRANCH   1  30
TORSDOF 15
