REMARK SMILES CN1CC(=O)N(CC(=O)N2CCCC[C@H]2C(=O)NCCCCCCNC(=O)c2ccc(-c3c4nc(c(-c5c(F)cccc5F)c5ccc([nH]5)c(-c5c(F)cccc5F)c5nc(c(-c6c(F)cccc6F)c6ccc3[nH]6)C=C5)C=C4)cc2)C1=O
REMARK SMILES IDX 21 1 20 2 19 3 18 4 16 5 17 6 15 8 10 9 11 10 12 11 14 12
REMARK SMILES IDX 13 13 8 14 9 15 7 16 6 17 1 18 2 19 3 20 82 21 4 22 83 23
REMARK SMILES IDX 5 24 22 25 23 26 24 27 25 28 26 29 27 31 28 32 29 33 81 34
REMARK SMILES IDX 30 35 80 36 31 37 32 38 33 39 74 40 34 41 79 42 73 43 75 44
REMARK SMILES IDX 35 45 78 46 72 47 71 48 36 50 62 51 45 52 61 53 46 54 49 55
REMARK SMILES IDX 60 56 76 57 47 58 48 59 59 61 77 62 50 63 37 64 38 65 43 66
REMARK SMILES IDX 39 67 40 68 42 69 44 70 41 71 63 72 64 73 69 74 65 75 66 76
REMARK SMILES IDX 68 77 70 78 67 79 51 80 52 81 57 82 53 83 54 84 56 85 58 86
REMARK SMILES IDX 55 87
REMARK H PARENT 18 7 25 30 75 49 49 60
REMARK Flexibility Score: inf
ROOT
ATOM      1  C   UNL     1       1.601   7.890  -2.436  1.00  0.00     0.002 C 
ENDROOT
BRANCH   1   2
ATOM      2  C   UNL     1       1.206   6.609  -3.171  1.00  0.00     0.021 C 
BRANCH   2   3
ATOM      3  C   UNL     1       2.350   5.650  -3.470  1.00  0.00     0.116 C 
BRANCH   3   4
ATOM      4  N   UNL     1       2.859   4.979  -2.298  1.00  0.00    -0.354 N 
ATOM      5  C   UNL     1       3.503   3.791  -2.148  1.00  0.00     0.242 C 
ATOM      6  O   UNL     1       3.991   3.585  -1.029  1.00  0.00    -0.273 OA
ATOM      7  H   UNL     1       2.714   5.469  -1.457  1.00  0.00     0.163 HD
BRANCH   5   8
ATOM      8  C   UNL     1       3.535   2.663  -3.226  1.00  0.00     0.174 C 
ATOM      9  N   UNL     1       3.184   2.935  -4.631  1.00  0.00    -0.329 N 
ATOM     10  C   UNL     1       4.239   3.582  -5.430  1.00  0.00     0.120 C 
ATOM     11  C   UNL     1       5.593   2.892  -5.324  1.00  0.00     0.022 C 
ATOM     12  C   UNL     1       4.881   1.909  -3.154  1.00  0.00     0.035 C 
ATOM     13  C   UNL     1       5.988   2.671  -3.872  1.00  0.00     0.004 C 
BRANCH   9  14
ATOM     14  C   UNL     1       1.935   2.752  -5.229  1.00  0.00     0.243 C 
ATOM     15  O   UNL     1       1.770   3.101  -6.409  1.00  0.00    -0.273 OA
BRANCH  14  16
ATOM     16  C   UNL     1       0.652   2.411  -4.432  1.00  0.00     0.230 C 
BRANCH  16  17
ATOM     17  N   UNL     1       0.656   1.353  -3.455  1.00  0.00    -0.253 N 
ATOM     18  C   UNL     1       0.723   0.064  -0.087  1.00  0.00     0.149 C 
ATOM     19  N   UNL     1       0.584   0.293  -1.505  1.00  0.00    -0.318 N 
ATOM     20  C   UNL     1       0.634  -0.775  -2.472  1.00  0.00     0.221 C 
ATOM     21  C   UNL     1       0.551   1.539  -2.104  1.00  0.00     0.327 C 
ATOM     22  C   UNL     1       0.659   0.024  -3.764  1.00  0.00     0.250 C 
ATOM     23  O   UNL     1       0.489   2.609  -1.532  1.00  0.00    -0.248 OA
ATOM     24  O   UNL     1       0.689  -0.459  -4.886  1.00  0.00    -0.272 OA
ENDBRANCH  16  17
ENDBRANCH  14  16
ENDBRANCH   9  14
ENDBRANCH   5   8
ENDBRANCH   3   4
ENDBRANCH   2   3
ENDBRANCH   1   2
BRANCH   1  25
ATOM     25  C   UNL     1       2.757   8.688  -3.045  1.00  0.00     0.002 C 
BRANCH  25  26
ATOM     26  C   UNL     1       2.653   9.002  -4.540  1.00  0.00     0.021 C 
BRANCH  26  27
ATOM     27  C   UNL     1       1.357   9.664  -4.991  1.00  0.00     0.116 C 
BRANCH  27  28
ATOM     28  N   UNL     1       1.085  10.908  -4.295  1.00  0.00    -0.352 N 
ATOM     29  C   UNL     1       0.724  12.131  -4.801  1.00  0.00     0.251 C 
ATOM     30  H   UNL     1       1.172  10.869  -3.315  1.00  0.00     0.163 HD
ATOM     31  O   UNL     1       0.657  13.108  -4.061  1.00  0.00    -0.269 OA
BRANCH  29  32
ATOM     32  C   UNL     1       0.443  12.285  -6.245  1.00  0.00     0.039 A 
ATOM     33  C   UNL     1       0.984  13.384  -6.917  1.00  0.00     0.014 A 
ATOM     34  C   UNL     1      -0.352  11.364  -6.933  1.00  0.00     0.014 A 
ATOM     35  C   UNL     1       0.775  13.530  -8.290  1.00  0.00     0.010 A 
ATOM     36  C   UNL     1      -0.500  11.471  -8.314  1.00  0.00     0.010 A 
ATOM     37  C   UNL     1       0.058  12.557  -9.005  1.00  0.00    -0.014 A 
BRANCH  37  38
ATOM     38  C   UNL     1      -0.119  12.663 -10.475  1.00  0.00     0.031 A 
ATOM     39  C   UNL     1      -1.491  12.854 -11.059  1.00  0.00     0.074 A 
ATOM     40  C   UNL     1       0.948  12.534 -11.286  1.00  0.00     0.049 A 
ATOM     41  N   UNL     1      -1.856  12.911 -12.315  1.00  0.00    -0.248 NA
ATOM     42  C   UNL     1      -2.605  12.973 -10.104  1.00  0.00     0.031 C 
ATOM     43  C   UNL     1       2.325  12.310 -10.844  1.00  0.00     0.029 A 
ATOM     44  N   UNL     1       1.040  12.567 -12.655  1.00  0.00    -0.354 N 
ATOM     45  C   UNL     1      -3.236  13.062 -12.301  1.00  0.00     0.074 A 
ATOM     46  C   UNL     1      -3.651  13.031 -10.915  1.00  0.00     0.031 C 
ATOM     47  C   UNL     1       3.128  12.252 -11.918  1.00  0.00     0.029 A 
ATOM     48  C   UNL     1       2.319  12.396 -13.125  1.00  0.00     0.049 A 
ATOM     49  H   UNL     1       0.263  12.701 -13.244  1.00  0.00     0.167 HD
ATOM     50  C   UNL     1      -4.080  13.235 -13.346  1.00  0.00     0.037 A 
ATOM     51  C   UNL     1       2.786  12.354 -14.387  1.00  0.00     0.037 A 
ATOM     52  C   UNL     1      -3.663  13.280 -14.723  1.00  0.00     0.049 A 
ATOM     53  C   UNL     1       1.825  12.521 -15.531  1.00  0.00     0.074 A 
ATOM     54  C   UNL     1      -4.435  13.496 -15.852  1.00  0.00     0.029 A 
ATOM     55  N   UNL     1      -2.359  13.102 -15.159  1.00  0.00    -0.354 N 
ATOM     56  N   UNL     1       0.530  12.722 -15.502  1.00  0.00    -0.248 NA
ATOM     57  C   UNL     1       2.393  12.458 -16.885  1.00  0.00     0.031 C 
ATOM     58  C   UNL     1      -3.603  13.406 -16.974  1.00  0.00     0.029 A 
ATOM     59  C   UNL     1      -2.306  13.182 -16.541  1.00  0.00     0.049 A 
ATOM     60  H   UNL     1      -1.584  12.942 -14.572  1.00  0.00     0.167 HD
ATOM     61  C   UNL     1       0.133  12.841 -16.827  1.00  0.00     0.074 A 
ATOM     62  C   UNL     1       1.327  12.700 -17.635  1.00  0.00     0.031 C 
ATOM     63  C   UNL     1      -1.108  13.049 -17.330  1.00  0.00     0.037 A 
BRANCH  50  64
ATOM     64  C   UNL     1      -5.541  13.389 -13.034  1.00  0.00     0.057 A 
ATOM     65  C   UNL     1      -6.043  14.535 -12.401  1.00  0.00     0.134 A 
ATOM     66  C   UNL     1      -6.460  12.393 -13.385  1.00  0.00     0.134 A 
ATOM     67  F   UNL     1      -5.215  15.523 -12.026  1.00  0.00    -0.206 F 
ATOM     68  C   UNL     1      -7.399  14.669 -12.100  1.00  0.00     0.040 A 
ATOM     69  C   UNL     1      -7.823  12.528 -13.116  1.00  0.00     0.040 A 
ATOM     70  F   UNL     1      -6.050  11.273 -14.000  1.00  0.00    -0.206 F 
ATOM     71  C   UNL     1      -8.295  13.666 -12.464  1.00  0.00     0.006 A 
ENDBRANCH  50  64
BRANCH  51  72
ATOM     72  C   UNL     1       4.238  12.173 -14.637  1.00  0.00     0.057 A 
ATOM     73  C   UNL     1       5.016  13.222 -15.142  1.00  0.00     0.134 A 
ATOM     74  C   UNL     1       4.881  10.956 -14.385  1.00  0.00     0.134 A 
ATOM     75  F   UNL     1       4.452  14.406 -15.421  1.00  0.00    -0.206 F 
ATOM     76  C   UNL     1       6.377  13.062 -15.404  1.00  0.00     0.040 A 
ATOM     77  C   UNL     1       6.247  10.790 -14.619  1.00  0.00     0.040 A 
ATOM     78  F   UNL     1       4.193   9.915 -13.894  1.00  0.00    -0.206 F 
ATOM     79  C   UNL     1       6.998  11.843 -15.138  1.00  0.00     0.006 A 
ENDBRANCH  51  72
BRANCH  63  80
ATOM     80  C   UNL     1      -1.232  13.176 -18.820  1.00  0.00     0.057 A 
ATOM     81  C   UNL     1      -1.100  12.073 -19.672  1.00  0.00     0.134 A 
ATOM     82  C   UNL     1      -1.525  14.415 -19.406  1.00  0.00     0.134 A 
ATOM     83  F   UNL     1      -0.805  10.862 -19.175  1.00  0.00    -0.206 F 
ATOM     84  C   UNL     1      -1.232  12.200 -21.056  1.00  0.00     0.040 A 
ATOM     85  C   UNL     1      -1.686  14.550 -20.785  1.00  0.00     0.040 A 
ATOM     86  F   UNL     1      -1.672  15.511 -18.646  1.00  0.00    -0.206 F 
ATOM     87  C   UNL     1      -1.533  13.441 -21.615  1.00  0.00     0.006 A 
ENDBRANCH  63  80
ENDBRANCH  37  38
ENDBRANCH  29  32
ENDBRANCH  27  28
ENDBRANCH  26  27
ENDBRANCH  25  26
ENDBRANCH   1  25
TORSDOF 16
