REMARK SMILES Cc1nc(CC(=O)N2Cc3nc[nH]c3C[C@H]2C(=O)NCCCCCCNC(=O)c2ccc(-c3c4nc(c(-c5c(F)cccc5F)c5ccc([nH]5)c(-c5c(F)cccc5F)c5nc(c(-c6c(F)cccc6F)c6ccc3[nH]6)C=C5)C=C4)cc2)cs1
REMARK SMILES IDX 22 1 21 2 20 3 19 4 17 5 18 6 16 8 8 9 9 10 10 11 15 12
REMARK SMILES IDX 11 13 14 14 12 15 13 16 6 18 7 19 5 20 4 21 1 22 2 23 3 24
REMARK SMILES IDX 84 25 83 26 23 27 24 28 25 29 26 30 27 31 28 33 29 34 30 35
REMARK SMILES IDX 82 36 31 37 81 38 32 39 33 40 34 41 75 42 35 43 80 44 74 45
REMARK SMILES IDX 76 46 36 47 79 48 73 49 72 50 37 52 63 53 46 54 62 55 47 56
REMARK SMILES IDX 50 57 61 58 77 59 48 60 49 61 60 63 78 64 51 65 38 66 39 67
REMARK SMILES IDX 44 68 40 69 41 70 43 71 45 72 42 73 64 74 65 75 70 76 66 77
REMARK SMILES IDX 67 78 69 79 71 80 68 81 52 82 53 83 58 84 54 85 55 86 57 87
REMARK SMILES IDX 59 88 56 89
REMARK H PARENT 19 7 13 17 26 32 76 51 50 62
REMARK Flexibility Score: inf
ROOT
ATOM      1  C   UNL     1       1.001  -5.619  -6.981  1.00  0.00     0.002 C 
ENDROOT
BRANCH   1   2
ATOM      2  C   UNL     1       1.638  -4.756  -5.889  1.00  0.00     0.021 C 
BRANCH   2   3
ATOM      3  C   UNL     1       0.953  -3.405  -5.698  1.00  0.00     0.116 C 
BRANCH   3   4
ATOM      4  N   UNL     1       0.145  -3.356  -4.505  1.00  0.00    -0.354 N 
ATOM      5  C   UNL     1       0.203  -2.599  -3.383  1.00  0.00     0.243 C 
ATOM      6  O   UNL     1      -0.731  -2.781  -2.590  1.00  0.00    -0.273 OA
ATOM      7  H   UNL     1      -0.599  -4.001  -4.506  1.00  0.00     0.163 HD
BRANCH   5   8
ATOM      8  C   UNL     1       1.332  -1.596  -3.025  1.00  0.00     0.180 C 
ATOM      9  N   UNL     1       2.607  -2.177  -2.485  1.00  0.00    -0.324 N 
ATOM     10  C   UNL     1       3.664  -2.563  -3.448  1.00  0.00     0.178 C 
ATOM     11  C   UNL     1       3.694  -1.623  -4.603  1.00  0.00     0.081 A 
ATOM     12  C   UNL     1       1.545  -0.417  -4.018  1.00  0.00     0.091 C 
ATOM     13  N   UNL     1       4.545  -1.727  -5.673  1.00  0.00    -0.240 NA
ATOM     14  C   UNL     1       2.745  -0.659  -4.847  1.00  0.00     0.042 A 
ATOM     15  C   UNL     1       4.152  -0.798  -6.519  1.00  0.00     0.197 A 
ATOM     16  N   UNL     1       3.075  -0.097  -6.044  1.00  0.00    -0.348 N 
ATOM     17  H   UNL     1       2.627   0.663  -6.482  1.00  0.00     0.167 HD
BRANCH   9  18
ATOM     18  C   UNL     1       2.897  -2.386  -1.139  1.00  0.00     0.229 C 
ATOM     19  O   UNL     1       4.048  -2.665  -0.778  1.00  0.00    -0.274 OA
BRANCH  18  20
ATOM     20  C   UNL     1       1.802  -2.412  -0.084  1.00  0.00     0.157 C 
BRANCH  20  21
ATOM     21  C   UNL     1       1.069  -1.137   0.143  1.00  0.00     0.061 A 
ATOM     22  C   UNL     1      -2.317   0.220   0.153  1.00  0.00     0.079 C 
ATOM     23  C   UNL     1      -0.853  -0.025   0.233  1.00  0.00     0.090 A 
ATOM     24  N   UNL     1      -0.314  -1.218   0.162  1.00  0.00    -0.246 NA
ATOM     25  S   UNL     1       0.266   1.268   0.378  1.00  0.00    -0.127 S 
ATOM     26  C   UNL     1       1.565   0.143   0.302  1.00  0.00     0.091 A 
ENDBRANCH  20  21
ENDBRANCH  18  20
ENDBRANCH   9  18
ENDBRANCH   5   8
ENDBRANCH   3   4
ENDBRANCH   2   3
ENDBRANCH   1   2
BRANCH   1  27
ATOM     27  C   UNL     1       0.905  -4.980  -8.376  1.00  0.00     0.002 C 
BRANCH  27  28
ATOM     28  C   UNL     1       2.199  -4.393  -8.957  1.00  0.00     0.021 C 
BRANCH  28  29
ATOM     29  C   UNL     1       3.282  -5.425  -9.245  1.00  0.00     0.116 C 
BRANCH  29  30
ATOM     30  N   UNL     1       2.826  -6.445 -10.187  1.00  0.00    -0.352 N 
ATOM     31  C   UNL     1       3.378  -7.667 -10.492  1.00  0.00     0.251 C 
ATOM     32  H   UNL     1       2.001  -6.224 -10.676  1.00  0.00     0.163 HD
ATOM     33  O   UNL     1       3.025  -8.275 -11.494  1.00  0.00    -0.269 OA
BRANCH  31  34
ATOM     34  C   UNL     1       4.425  -8.226  -9.620  1.00  0.00     0.039 A 
ATOM     35  C   UNL     1       5.579  -8.771 -10.189  1.00  0.00     0.014 A 
ATOM     36  C   UNL     1       4.273  -8.175  -8.236  1.00  0.00     0.014 A 
ATOM     37  C   UNL     1       6.620  -9.174  -9.355  1.00  0.00     0.010 A 
ATOM     38  C   UNL     1       5.345  -8.472  -7.418  1.00  0.00     0.010 A 
ATOM     39  C   UNL     1       6.517  -8.994  -7.966  1.00  0.00    -0.014 A 
BRANCH  39  40
ATOM     40  C   UNL     1       7.690  -9.245  -7.120  1.00  0.00     0.031 A 
ATOM     41  C   UNL     1       8.943  -8.547  -7.529  1.00  0.00     0.074 A 
ATOM     42  C   UNL     1       7.654  -9.874  -5.925  1.00  0.00     0.049 A 
ATOM     43  N   UNL     1      10.071  -9.074  -7.877  1.00  0.00    -0.248 NA
ATOM     44  C   UNL     1       8.921  -7.078  -7.617  1.00  0.00     0.031 C 
ATOM     45  C   UNL     1       6.467 -10.317  -5.187  1.00  0.00     0.029 A 
ATOM     46  N   UNL     1       8.676 -10.150  -5.057  1.00  0.00    -0.354 N 
ATOM     47  C   UNL     1      10.960  -8.012  -8.042  1.00  0.00     0.074 A 
ATOM     48  C   UNL     1      10.168  -6.811  -8.010  1.00  0.00     0.031 C 
ATOM     49  C   UNL     1       6.805 -10.577  -3.907  1.00  0.00     0.029 A 
ATOM     50  C   UNL     1       8.250 -10.509  -3.788  1.00  0.00     0.049 A 
ATOM     51  H   UNL     1       9.626 -10.098  -5.311  1.00  0.00     0.167 HD
ATOM     52  C   UNL     1      12.306  -8.200  -7.941  1.00  0.00     0.037 A 
ATOM     53  C   UNL     1       9.007 -10.749  -2.693  1.00  0.00     0.037 A 
ATOM     54  C   UNL     1      12.645  -9.598  -7.980  1.00  0.00     0.049 A 
ATOM     55  C   UNL     1      10.370 -11.114  -3.129  1.00  0.00     0.074 A 
ATOM     56  C   UNL     1      12.819 -10.579  -8.928  1.00  0.00     0.029 A 
ATOM     57  N   UNL     1      12.575 -10.212  -6.762  1.00  0.00    -0.354 N 
ATOM     58  N   UNL     1      10.655 -12.205  -3.785  1.00  0.00    -0.248 NA
ATOM     59  C   UNL     1      11.442 -10.126  -3.064  1.00  0.00     0.031 C 
ATOM     60  C   UNL     1      12.697 -11.826  -8.241  1.00  0.00     0.029 A 
ATOM     61  C   UNL     1      12.456 -11.568  -6.895  1.00  0.00     0.049 A 
ATOM     62  H   UNL     1      12.607  -9.739  -5.899  1.00  0.00     0.167 HD
ATOM     63  C   UNL     1      11.747 -11.861  -4.553  1.00  0.00     0.074 A 
ATOM     64  C   UNL     1      12.300 -10.667  -3.932  1.00  0.00     0.031 C 
ATOM     65  C   UNL     1      11.897 -12.349  -5.816  1.00  0.00     0.037 A 
BRANCH  52  66
ATOM     66  C   UNL     1      13.290  -7.212  -7.343  1.00  0.00     0.057 A 
ATOM     67  C   UNL     1      14.668  -7.513  -7.383  1.00  0.00     0.134 A 
ATOM     68  C   UNL     1      12.936  -6.178  -6.455  1.00  0.00     0.134 A 
ATOM     69  F   UNL     1      15.140  -8.482  -8.182  1.00  0.00    -0.206 F 
ATOM     70  C   UNL     1      15.603  -6.891  -6.544  1.00  0.00     0.040 A 
ATOM     71  C   UNL     1      13.870  -5.516  -5.649  1.00  0.00     0.040 A 
ATOM     72  F   UNL     1      11.664  -5.824  -6.240  1.00  0.00    -0.206 F 
ATOM     73  C   UNL     1      15.203  -5.894  -5.666  1.00  0.00     0.006 A 
ENDBRANCH  52  66
BRANCH  53  74
ATOM     74  C   UNL     1       8.653 -10.569  -1.272  1.00  0.00     0.057 A 
ATOM     75  C   UNL     1       9.336 -11.253  -0.259  1.00  0.00     0.134 A 
ATOM     76  C   UNL     1       7.806  -9.526  -0.860  1.00  0.00     0.134 A 
ATOM     77  F   UNL     1      10.188 -12.244  -0.559  1.00  0.00    -0.206 F 
ATOM     78  C   UNL     1       9.209 -10.899   1.089  1.00  0.00     0.040 A 
ATOM     79  C   UNL     1       7.664  -9.167   0.483  1.00  0.00     0.040 A 
ATOM     80  F   UNL     1       7.156  -8.769  -1.756  1.00  0.00    -0.206 F 
ATOM     81  C   UNL     1       8.381  -9.845   1.462  1.00  0.00     0.006 A 
ENDBRANCH  53  74
BRANCH  65  82
ATOM     82  C   UNL     1      11.249 -13.656  -6.138  1.00  0.00     0.057 A 
ATOM     83  C   UNL     1       9.865 -13.859  -6.204  1.00  0.00     0.134 A 
ATOM     84  C   UNL     1      12.071 -14.744  -6.455  1.00  0.00     0.134 A 
ATOM     85  F   UNL     1       9.006 -12.855  -5.989  1.00  0.00    -0.206 F 
ATOM     86  C   UNL     1       9.324 -15.106  -6.530  1.00  0.00     0.040 A 
ATOM     87  C   UNL     1      11.543 -15.985  -6.813  1.00  0.00     0.040 A 
ATOM     88  F   UNL     1      13.406 -14.606  -6.451  1.00  0.00    -0.206 F 
ATOM     89  C   UNL     1      10.165 -16.173  -6.839  1.00  0.00     0.006 A 
ENDBRANCH  65  82
ENDBRANCH  39  40
ENDBRANCH  31  34
ENDBRANCH  29  30
ENDBRANCH  28  29
ENDBRANCH  27  28
ENDBRANCH   1  27
TORSDOF 16
