REMARK SMILES O=C(CCNC(=O)C1CCCC1)NCCCCCCNC(=O)c1ccc(-c2c3nc(c(-c4c(F)cccc4F)c4ccc([nH]4)c(-c4c(F)cccc4F)c4nc(c(-c5c(F)cccc5F)c5ccc2[nH]5)C=C4)C=C3)cc1
REMARK SMILES IDX 16 1 15 2 14 3 13 4 1 5 2 6 3 8 4 9 5 10 6 11 7 13 8 14 9 15
REMARK SMILES IDX 12 16 10 17 11 18 17 19 18 20 19 21 20 22 21 23 22 25 23 26
REMARK SMILES IDX 24 27 76 28 25 29 75 30 26 31 27 32 28 33 69 34 29 35 74 36
REMARK SMILES IDX 68 37 70 38 30 39 73 40 67 41 66 42 31 44 57 45 40 46 56 47
REMARK SMILES IDX 41 48 44 49 55 50 71 51 42 52 43 53 54 55 72 56 45 57 32 58
REMARK SMILES IDX 33 59 38 60 34 61 35 62 37 63 39 64 36 65 58 66 59 67 64 68
REMARK SMILES IDX 60 69 61 70 63 71 65 72 62 73 46 74 47 75 52 76 48 77 49 78
REMARK SMILES IDX 51 79 53 80 50 81
REMARK H PARENT 13 7 5 12 20 24 70 43 44 54
REMARK Flexibility Score: inf
ROOT
ATOM      1  C   UNL     1       4.287   1.704  -3.310  1.00  0.00     0.002 C 
ENDROOT
BRANCH   1   2
ATOM      2  C   UNL     1       2.787   1.729  -2.984  1.00  0.00     0.021 C 
BRANCH   2   3
ATOM      3  C   UNL     1       2.264   0.472  -2.289  1.00  0.00     0.116 C 
BRANCH   3   4
ATOM      4  N   UNL     1       2.930   0.253  -1.022  1.00  0.00    -0.356 N 
ATOM      5  O   UNL     1       1.051  -0.250   0.203  1.00  0.00    -0.275 OA
ATOM      6  C   UNL     1       2.265  -0.103   0.128  1.00  0.00     0.221 C 
ATOM      7  H   UNL     1       3.907   0.364  -0.981  1.00  0.00     0.163 HD
BRANCH   6   8
ATOM      8  C   UNL     1       3.182  -0.327   1.312  1.00  0.00     0.121 C 
BRANCH   8   9
ATOM      9  C   UNL     1       3.921  -1.655   1.179  1.00  0.00     0.125 C 
BRANCH   9  10
ATOM     10  N   UNL     1       5.019  -1.570   0.223  1.00  0.00    -0.355 N 
ATOM     11  C   UNL     1       6.341  -1.308   0.430  1.00  0.00     0.223 C 
ATOM     12  H   UNL     1       4.767  -1.726  -0.716  1.00  0.00     0.163 HD
ATOM     13  O   UNL     1       7.039  -1.064  -0.554  1.00  0.00    -0.275 OA
BRANCH  11  14
ATOM     14  C   UNL     1       6.907  -1.408   1.836  1.00  0.00     0.078 C 
ATOM     15  C   UNL     1       7.449  -2.817   2.075  1.00  0.00     0.013 C 
ATOM     16  C   UNL     1       8.144  -0.545   2.072  1.00  0.00     0.013 C 
ATOM     17  C   UNL     1       8.383  -2.664   3.268  1.00  0.00     0.001 C 
ATOM     18  C   UNL     1       8.866  -1.215   3.238  1.00  0.00     0.001 C 
ENDBRANCH  11  14
ENDBRANCH   9  10
ENDBRANCH   8   9
ENDBRANCH   6   8
ENDBRANCH   3   4
ENDBRANCH   2   3
ENDBRANCH   1   2
BRANCH   1  19
ATOM     19  C   UNL     1       4.737   0.570  -4.236  1.00  0.00     0.002 C 
BRANCH  19  20
ATOM     20  C   UNL     1       4.057   0.545  -5.606  1.00  0.00     0.021 C 
BRANCH  20  21
ATOM     21  C   UNL     1       4.202   1.829  -6.417  1.00  0.00     0.116 C 
BRANCH  21  22
ATOM     22  N   UNL     1       5.586   2.120  -6.761  1.00  0.00    -0.352 N 
ATOM     23  C   UNL     1       6.130   2.430  -7.983  1.00  0.00     0.251 C 
ATOM     24  H   UNL     1       6.223   2.090  -6.011  1.00  0.00     0.163 HD
ATOM     25  O   UNL     1       7.349   2.491  -8.121  1.00  0.00    -0.269 OA
BRANCH  23  26
ATOM     26  C   UNL     1       5.247   2.665  -9.145  1.00  0.00     0.039 A 
ATOM     27  C   UNL     1       5.564   2.065 -10.366  1.00  0.00     0.014 A 
ATOM     28  C   UNL     1       4.108   3.467  -9.031  1.00  0.00     0.014 A 
ATOM     29  C   UNL     1       4.701   2.213 -11.454  1.00  0.00     0.010 A 
ATOM     30  C   UNL     1       3.212   3.551 -10.093  1.00  0.00     0.010 A 
ATOM     31  C   UNL     1       3.498   2.925 -11.316  1.00  0.00    -0.014 A 
BRANCH  31  32
ATOM     32  C   UNL     1       2.525   3.018 -12.434  1.00  0.00     0.031 A 
ATOM     33  C   UNL     1       2.194   4.352 -13.044  1.00  0.00     0.074 A 
ATOM     34  C   UNL     1       1.895   1.907 -12.863  1.00  0.00     0.049 A 
ATOM     35  N   UNL     1       1.326   4.641 -13.980  1.00  0.00    -0.248 NA
ATOM     36  C   UNL     1       2.917   5.519 -12.515  1.00  0.00     0.031 C 
ATOM     37  C   UNL     1       2.098   0.559 -12.328  1.00  0.00     0.029 A 
ATOM     38  N   UNL     1       0.948   1.736 -13.842  1.00  0.00    -0.354 N 
ATOM     39  C   UNL     1       1.393   6.018 -14.146  1.00  0.00     0.074 A 
ATOM     40  C   UNL     1       2.342   6.515 -13.174  1.00  0.00     0.031 C 
ATOM     41  C   UNL     1       1.321  -0.303 -13.004  1.00  0.00     0.029 A 
ATOM     42  C   UNL     1       0.535   0.434 -13.988  1.00  0.00     0.049 A 
ATOM     43  H   UNL     1       0.599   2.477 -14.389  1.00  0.00     0.167 HD
ATOM     44  C   UNL     1       0.743   6.796 -15.044  1.00  0.00     0.037 A 
ATOM     45  C   UNL     1      -0.382  -0.105 -14.814  1.00  0.00     0.037 A 
ATOM     46  C   UNL     1      -0.194   6.299 -16.018  1.00  0.00     0.049 A 
ATOM     47  C   UNL     1      -1.115   0.785 -15.780  1.00  0.00     0.074 A 
ATOM     48  C   UNL     1      -0.872   7.002 -16.998  1.00  0.00     0.029 A 
ATOM     49  N   UNL     1      -0.586   4.974 -16.133  1.00  0.00    -0.354 N 
ATOM     50  N   UNL     1      -0.999   2.078 -15.965  1.00  0.00    -0.248 NA
ATOM     51  C   UNL     1      -2.104   0.140 -16.654  1.00  0.00     0.031 C 
ATOM     52  C   UNL     1      -1.714   6.112 -17.673  1.00  0.00     0.029 A 
ATOM     53  C   UNL     1      -1.516   4.843 -17.152  1.00  0.00     0.049 A 
ATOM     54  H   UNL     1      -0.254   4.235 -15.573  1.00  0.00     0.167 HD
ATOM     55  C   UNL     1      -1.874   2.395 -16.996  1.00  0.00     0.074 A 
ATOM     56  C   UNL     1      -2.504   1.157 -17.405  1.00  0.00     0.031 C 
ATOM     57  C   UNL     1      -2.131   3.603 -17.555  1.00  0.00     0.037 A 
BRANCH  44  58
ATOM     58  C   UNL     1       1.025   8.272 -15.014  1.00  0.00     0.057 A 
ATOM     59  C   UNL     1       2.265   8.794 -15.407  1.00  0.00     0.134 A 
ATOM     60  C   UNL     1       0.037   9.184 -14.621  1.00  0.00     0.134 A 
ATOM     61  F   UNL     1       3.259   7.976 -15.785  1.00  0.00    -0.206 F 
ATOM     62  C   UNL     1       2.521  10.166 -15.383  1.00  0.00     0.040 A 
ATOM     63  C   UNL     1       0.272  10.560 -14.622  1.00  0.00     0.040 A 
ATOM     64  F   UNL     1      -1.175   8.754 -14.239  1.00  0.00    -0.206 F 
ATOM     65  C   UNL     1       1.519  11.054 -14.996  1.00  0.00     0.006 A 
ENDBRANCH  44  58
BRANCH  45  66
ATOM     66  C   UNL     1      -0.644  -1.567 -14.783  1.00  0.00     0.057 A 
ATOM     67  C   UNL     1      -0.271  -2.389 -15.853  1.00  0.00     0.134 A 
ATOM     68  C   UNL     1      -1.278  -2.175 -13.694  1.00  0.00     0.134 A 
ATOM     69  F   UNL     1       0.323  -1.862 -16.934  1.00  0.00    -0.206 F 
ATOM     70  C   UNL     1      -0.537  -3.759 -15.851  1.00  0.00     0.040 A 
ATOM     71  C   UNL     1      -1.526  -3.549 -13.666  1.00  0.00     0.040 A 
ATOM     72  F   UNL     1      -1.655  -1.445 -12.634  1.00  0.00    -0.206 F 
ATOM     73  C   UNL     1      -1.162  -4.343 -14.751  1.00  0.00     0.006 A 
ENDBRANCH  45  66
BRANCH  57  74
ATOM     74  C   UNL     1      -3.106   3.641 -18.697  1.00  0.00     0.057 A 
ATOM     75  C   UNL     1      -4.479   3.443 -18.508  1.00  0.00     0.134 A 
ATOM     76  C   UNL     1      -2.666   3.920 -19.997  1.00  0.00     0.134 A 
ATOM     77  F   UNL     1      -4.965   3.159 -17.290  1.00  0.00    -0.206 F 
ATOM     78  C   UNL     1      -5.377   3.497 -19.576  1.00  0.00     0.040 A 
ATOM     79  C   UNL     1      -3.557   4.006 -21.068  1.00  0.00     0.040 A 
ATOM     80  F   UNL     1      -1.364   4.130 -20.247  1.00  0.00    -0.206 F 
ATOM     81  C   UNL     1      -4.917   3.787 -20.859  1.00  0.00     0.006 A 
ENDBRANCH  57  74
ENDBRANCH  31  32
ENDBRANCH  23  26
ENDBRANCH  21  22
ENDBRANCH  20  21
ENDBRANCH  19  20
ENDBRANCH   1  19
TORSDOF 16
