REMARK SMILES C[C@@H](O)c1ccc(F)cc1OCC(C)(C)C(=O)NCCCCCCNC(=O)c1ccc(-c2c3nc(c(-c4c(F)cccc4F)c4ccc([nH]4)c(-c4c(F)cccc4F)c4nc(c(-c5c(F)cccc5F)c5ccc2[nH]5)C=C4)C=C3)cc1
REMARK SMILES IDX 20 1 19 2 18 3 16 4 17 5 13 7 14 8 15 9 12 10 11 11 10 12
REMARK SMILES IDX 4 13 5 14 6 15 9 16 7 17 8 18 2 19 1 20 3 21 21 23 22 24
REMARK SMILES IDX 23 25 24 26 25 27 26 28 27 30 28 31 29 32 81 33 30 34 80 35
REMARK SMILES IDX 31 36 32 37 33 38 74 39 34 40 79 41 73 42 75 43 35 44 78 45
REMARK SMILES IDX 72 46 71 47 36 49 62 50 45 51 61 52 46 53 49 54 60 55 76 56
REMARK SMILES IDX 47 57 48 58 59 60 77 61 50 62 37 63 38 64 43 65 39 66 40 67
REMARK SMILES IDX 42 68 44 69 41 70 63 71 64 72 69 73 65 74 66 75 68 76 70 77
REMARK SMILES IDX 67 78 51 79 52 80 57 81 53 82 54 83 56 84 58 85 55 86
REMARK H PARENT 18 6 3 22 25 29 75 48 49 59
REMARK Flexibility Score: inf
ROOT
ATOM      1  C   UNL     1       3.018  -5.027   1.407  1.00  0.00     0.021 C 
ENDROOT
BRANCH   1   2
ATOM      2  C   UNL     1       1.932  -3.966   1.399  1.00  0.00     0.116 C 
BRANCH   2   3
ATOM      3  N   UNL     1       1.232  -3.852   2.670  1.00  0.00    -0.356 N 
ATOM      4  C   UNL     1       0.668  -2.754   3.274  1.00  0.00     0.229 C 
ATOM      5  O   UNL     1       0.024  -2.951   4.305  1.00  0.00    -0.274 OA
ATOM      6  H   UNL     1       1.150  -4.693   3.177  1.00  0.00     0.163 HD
BRANCH   4   7
ATOM      7  C   UNL     1       0.894  -1.342   2.690  1.00  0.00     0.077 C 
ATOM      8  C   UNL     1       0.486  -1.370   1.204  1.00  0.00     0.025 C 
ATOM      9  C   UNL     1       2.393  -1.008   2.892  1.00  0.00     0.025 C 
BRANCH   7  10
ATOM     10  C   UNL     1       0.136  -0.251   3.520  1.00  0.00     0.245 C 
BRANCH  10  11
ATOM     11  O   UNL     1      -1.244  -0.103   3.240  1.00  0.00    -0.492 OA
BRANCH  11  12
ATOM     12  C   UNL     1      -1.816   0.678   2.278  1.00  0.00     0.128 A 
ATOM     13  C   UNL     1      -1.273   1.504   1.265  1.00  0.00     0.022 A 
ATOM     14  C   UNL     1      -2.172   2.024   0.294  1.00  0.00     0.013 A 
ATOM     15  C   UNL     1      -3.537   1.742   0.312  1.00  0.00     0.040 A 
ATOM     16  C   UNL     1      -3.209   0.464   2.314  1.00  0.00     0.086 A 
ATOM     17  C   UNL     1      -4.048   0.977   1.339  1.00  0.00     0.126 A 
ATOM     18  F   UNL     1      -5.358   0.703   1.379  1.00  0.00    -0.207 F 
BRANCH  13  19
ATOM     19  C   UNL     1       0.188   1.869   1.064  1.00  0.00     0.145 C 
ATOM     20  C   UNL     1       0.716   1.634  -0.359  1.00  0.00     0.044 C 
BRANCH  19  21
ATOM     21  O   UNL     1       0.362   3.245   1.392  1.00  0.00    -0.389 OA
ATOM     22  H   UNL     1      -0.164   3.791   0.787  1.00  0.00     0.211 HD
ENDBRANCH  19  21
ENDBRANCH  13  19
ENDBRANCH  11  12
ENDBRANCH  10  11
ENDBRANCH   7  10
ENDBRANCH   4   7
ENDBRANCH   2   3
ENDBRANCH   1   2
BRANCH   1  23
ATOM     23  C   UNL     1       2.481  -6.447   1.230  1.00  0.00     0.002 C 
BRANCH  23  24
ATOM     24  C   UNL     1       1.638  -6.680  -0.032  1.00  0.00     0.002 C 
BRANCH  24  25
ATOM     25  C   UNL     1       2.282  -6.240  -1.351  1.00  0.00     0.021 C 
BRANCH  25  26
ATOM     26  C   UNL     1       3.671  -6.811  -1.607  1.00  0.00     0.116 C 
BRANCH  26  27
ATOM     27  N   UNL     1       3.693  -8.262  -1.554  1.00  0.00    -0.352 N 
ATOM     28  C   UNL     1       4.300  -9.152  -2.406  1.00  0.00     0.251 C 
ATOM     29  H   UNL     1       3.203  -8.665  -0.800  1.00  0.00     0.163 HD
ATOM     30  O   UNL     1       4.104 -10.349  -2.303  1.00  0.00    -0.269 OA
BRANCH  28  31
ATOM     31  C   UNL     1       5.182  -8.629  -3.469  1.00  0.00     0.039 A 
ATOM     32  C   UNL     1       4.995  -9.077  -4.778  1.00  0.00     0.014 A 
ATOM     33  C   UNL     1       6.176  -7.693  -3.170  1.00  0.00     0.014 A 
ATOM     34  C   UNL     1       5.775  -8.544  -5.804  1.00  0.00     0.010 A 
ATOM     35  C   UNL     1       6.908  -7.117  -4.201  1.00  0.00     0.010 A 
ATOM     36  C   UNL     1       6.716  -7.540  -5.526  1.00  0.00    -0.014 A 
BRANCH  36  37
ATOM     37  C   UNL     1       7.530  -6.923  -6.599  1.00  0.00     0.031 A 
ATOM     38  C   UNL     1       9.019  -7.118  -6.606  1.00  0.00     0.074 A 
ATOM     39  C   UNL     1       6.942  -6.134  -7.517  1.00  0.00     0.049 A 
ATOM     40  N   UNL     1       9.921  -6.563  -7.372  1.00  0.00    -0.248 NA
ATOM     41  C   UNL     1       9.569  -8.040  -5.598  1.00  0.00     0.031 C 
ATOM     42  C   UNL     1       5.507  -5.856  -7.599  1.00  0.00     0.029 A 
ATOM     43  N   UNL     1       7.481  -5.411  -8.550  1.00  0.00    -0.354 N 
ATOM     44  C   UNL     1      11.142  -7.054  -6.931  1.00  0.00     0.074 A 
ATOM     45  C   UNL     1      10.872  -7.913  -5.799  1.00  0.00     0.031 C 
ATOM     46  C   UNL     1       5.277  -5.040  -8.640  1.00  0.00     0.029 A 
ATOM     47  C   UNL     1       6.550  -4.702  -9.270  1.00  0.00     0.049 A 
ATOM     48  H   UNL     1       8.443  -5.401  -8.757  1.00  0.00     0.167 HD
ATOM     49  C   UNL     1      12.375  -6.826  -7.439  1.00  0.00     0.037 A 
ATOM     50  C   UNL     1       6.708  -3.866 -10.314  1.00  0.00     0.037 A 
ATOM     51  C   UNL     1      12.632  -5.995  -8.584  1.00  0.00     0.049 A 
ATOM     52  C   UNL     1       8.090  -3.607 -10.846  1.00  0.00     0.074 A 
ATOM     53  C   UNL     1      13.842  -5.734  -9.202  1.00  0.00     0.029 A 
ATOM     54  N   UNL     1      11.662  -5.297  -9.287  1.00  0.00    -0.354 N 
ATOM     55  N   UNL     1       9.234  -4.097 -10.435  1.00  0.00    -0.248 NA
ATOM     56  C   UNL     1       8.205  -2.679 -11.980  1.00  0.00     0.031 C 
ATOM     57  C   UNL     1      13.609  -4.846 -10.256  1.00  0.00     0.029 A 
ATOM     58  C   UNL     1      12.248  -4.592 -10.323  1.00  0.00     0.049 A 
ATOM     59  H   UNL     1      10.699  -5.303  -9.079  1.00  0.00     0.167 HD
ATOM     60  C   UNL     1      10.201  -3.561 -11.275  1.00  0.00     0.074 A 
ATOM     61  C   UNL     1       9.510  -2.710 -12.221  1.00  0.00     0.031 C 
ATOM     62  C   UNL     1      11.541  -3.761 -11.264  1.00  0.00     0.037 A 
BRANCH  49  63
ATOM     63  C   UNL     1      13.539  -7.494  -6.770  1.00  0.00     0.057 A 
ATOM     64  C   UNL     1      14.483  -6.744  -6.057  1.00  0.00     0.134 A 
ATOM     65  C   UNL     1      13.755  -8.874  -6.876  1.00  0.00     0.134 A 
ATOM     66  F   UNL     1      14.338  -5.417  -5.922  1.00  0.00    -0.206 F 
ATOM     67  C   UNL     1      15.604  -7.342  -5.481  1.00  0.00     0.040 A 
ATOM     68  C   UNL     1      14.859  -9.488  -6.282  1.00  0.00     0.040 A 
ATOM     69  F   UNL     1      12.881  -9.650  -7.535  1.00  0.00    -0.206 F 
ATOM     70  C   UNL     1      15.792  -8.719  -5.589  1.00  0.00     0.006 A 
ENDBRANCH  49  63
BRANCH  50  71
ATOM     71  C   UNL     1       5.516  -3.241 -10.939  1.00  0.00     0.057 A 
ATOM     72  C   UNL     1       4.778  -2.246 -10.287  1.00  0.00     0.134 A 
ATOM     73  C   UNL     1       5.068  -3.657 -12.198  1.00  0.00     0.134 A 
ATOM     74  F   UNL     1       5.152  -1.811  -9.075  1.00  0.00    -0.206 F 
ATOM     75  C   UNL     1       3.627  -1.699 -10.856  1.00  0.00     0.040 A 
ATOM     76  C   UNL     1       3.931  -3.104 -12.788  1.00  0.00     0.040 A 
ATOM     77  F   UNL     1       5.743  -4.595 -12.878  1.00  0.00    -0.206 F 
ATOM     78  C   UNL     1       3.202  -2.127 -12.113  1.00  0.00     0.006 A 
ENDBRANCH  50  71
BRANCH  62  79
ATOM     79  C   UNL     1      12.359  -3.081 -12.320  1.00  0.00     0.057 A 
ATOM     80  C   UNL     1      12.938  -3.824 -13.357  1.00  0.00     0.134 A 
ATOM     81  C   UNL     1      12.665  -1.718 -12.247  1.00  0.00     0.134 A 
ATOM     82  F   UNL     1      12.691  -5.137 -13.474  1.00  0.00    -0.206 F 
ATOM     83  C   UNL     1      13.812  -3.238 -14.273  1.00  0.00     0.040 A 
ATOM     84  C   UNL     1      13.521  -1.115 -13.170  1.00  0.00     0.040 A 
ATOM     85  F   UNL     1      12.134  -0.952 -11.281  1.00  0.00    -0.206 F 
ATOM     86  C   UNL     1      14.107  -1.879 -14.178  1.00  0.00     0.006 A 
ENDBRANCH  62  79
ENDBRANCH  36  37
ENDBRANCH  28  31
ENDBRANCH  26  27
ENDBRANCH  25  26
ENDBRANCH  24  25
ENDBRANCH  23  24
ENDBRANCH   1  23
TORSDOF 18
