REMARK SMILES Cc1ccc(-c2cc(Cl)ccc2Cl)c(C(=O)NCCCCCCNC(=O)c2ccc(-c3c4nc(c(-c5c(F)cccc5F)c5ccc([nH]5)c(-c5c(F)cccc5F)c5nc(c(-c6c(F)cccc6F)c6ccc3[nH]6)C=C5)C=C4)cc2)c1
REMARK SMILES IDX 21 1 20 2 19 3 18 4 17 5 15 6 16 7 14 9 1 10 2 11 3 12 81 13
REMARK SMILES IDX 4 14 5 15 6 16 7 17 12 18 8 19 11 20 13 21 9 22 10 23 22 24
REMARK SMILES IDX 23 25 24 26 25 27 26 29 27 30 28 31 80 32 29 33 79 34 30 35
REMARK SMILES IDX 31 36 32 37 73 38 33 39 78 40 72 41 74 42 34 43 77 44 71 45
REMARK SMILES IDX 70 46 35 48 61 49 44 50 60 51 45 52 48 53 59 54 75 55 46 56
REMARK SMILES IDX 47 57 58 59 76 60 49 61 36 62 37 63 42 64 38 65 39 66 41 67
REMARK SMILES IDX 43 68 40 69 62 70 63 71 68 72 64 73 65 74 67 75 69 76 66 77
REMARK SMILES IDX 50 78 51 79 56 80 52 81 53 82 55 83 57 84 54 85
REMARK H PARENT 17 8 24 28 74 47 48 58
REMARK Flexibility Score: inf
ROOT
ATOM      1  C   UNL     1       0.445   7.064   0.259  1.00  0.00     0.002 C 
ENDROOT
BRANCH   1   2
ATOM      2  C   UNL     1       0.317   6.111  -0.943  1.00  0.00     0.002 C 
BRANCH   2   3
ATOM      3  C   UNL     1       0.798   4.665  -0.726  1.00  0.00     0.021 C 
BRANCH   3   4
ATOM      4  C   UNL     1       0.185   3.964   0.491  1.00  0.00     0.116 C 
BRANCH   4   5
ATOM      5  N   UNL     1      -1.175   3.555   0.216  1.00  0.00    -0.352 N 
ATOM      6  C   UNL     1      -1.812   2.372  -0.057  1.00  0.00     0.251 C 
ATOM      7  O   UNL     1      -3.030   2.494  -0.190  1.00  0.00    -0.269 OA
ATOM      8  H   UNL     1      -1.799   4.316   0.226  1.00  0.00     0.163 HD
BRANCH   6   9
ATOM      9  C   UNL     1      -1.147   1.019  -0.154  1.00  0.00     0.047 A 
ATOM     10  C   UNL     1       2.397  -0.429  -0.361  1.00  0.00     0.044 C 
ATOM     11  C   UNL     1       0.901  -0.342  -0.272  1.00  0.00    -0.050 A 
ATOM     12  C   UNL     1       0.149  -1.501  -0.118  1.00  0.00     0.004 A 
ATOM     13  C   UNL     1       0.241   0.896  -0.346  1.00  0.00     0.018 A 
ATOM     14  C   UNL     1      -1.239  -1.420  -0.046  1.00  0.00     0.010 A 
ATOM     15  C   UNL     1      -1.914  -0.178  -0.059  1.00  0.00    -0.004 A 
BRANCH  15  16
ATOM     16  C   UNL     1      -3.394  -0.221  -0.030  1.00  0.00     0.003 A 
ATOM     17  C   UNL     1      -4.107   0.117  -1.201  1.00  0.00     0.030 A 
ATOM     18  C   UNL     1      -4.138  -0.594   1.107  1.00  0.00     0.049 A 
ATOM     19  C   UNL     1      -5.501   0.145  -1.212  1.00  0.00     0.041 A 
ATOM     20  C   UNL     1      -5.539  -0.598   1.078  1.00  0.00     0.023 A 
ATOM     21  Cl  UNL     1      -3.377  -1.055   2.592  1.00  0.00    -0.084 Cl
ATOM     22  Cl  UNL     1      -6.335   0.645  -2.632  1.00  0.00    -0.084 Cl
ATOM     23  C   UNL     1      -6.221  -0.215  -0.078  1.00  0.00     0.022 A 
ENDBRANCH  15  16
ENDBRANCH   6   9
ENDBRANCH   4   5
ENDBRANCH   3   4
ENDBRANCH   2   3
ENDBRANCH   1   2
BRANCH   1  24
ATOM     24  C   UNL     1       1.780   7.026   1.010  1.00  0.00     0.021 C 
BRANCH  24  25
ATOM     25  C   UNL     1       2.946   7.615   0.227  1.00  0.00     0.116 C 
BRANCH  25  26
ATOM     26  N   UNL     1       3.370   8.927   0.705  1.00  0.00    -0.352 N 
ATOM     27  C   UNL     1       4.281   9.806   0.145  1.00  0.00     0.251 C 
ATOM     28  H   UNL     1       2.948   9.230   1.541  1.00  0.00     0.163 HD
ATOM     29  O   UNL     1       4.509  10.884   0.670  1.00  0.00    -0.269 OA
BRANCH  27  30
ATOM     30  C   UNL     1       4.874   9.476  -1.174  1.00  0.00     0.039 A 
ATOM     31  C   UNL     1       4.765  10.431  -2.188  1.00  0.00     0.014 A 
ATOM     32  C   UNL     1       5.301   8.182  -1.464  1.00  0.00     0.014 A 
ATOM     33  C   UNL     1       4.824  10.019  -3.516  1.00  0.00     0.010 A 
ATOM     34  C   UNL     1       5.281   7.754  -2.779  1.00  0.00     0.010 A 
ATOM     35  C   UNL     1       4.959   8.657  -3.797  1.00  0.00    -0.014 A 
BRANCH  35  36
ATOM     36  C   UNL     1       4.587   8.089  -5.090  1.00  0.00     0.031 A 
ATOM     37  C   UNL     1       5.601   7.637  -6.059  1.00  0.00     0.074 A 
ATOM     38  C   UNL     1       3.279   7.964  -5.411  1.00  0.00     0.049 A 
ATOM     39  N   UNL     1       5.412   7.645  -7.337  1.00  0.00    -0.248 NA
ATOM     40  C   UNL     1       6.922   7.160  -5.669  1.00  0.00     0.031 C 
ATOM     41  C   UNL     1       2.713   7.259  -6.559  1.00  0.00     0.029 A 
ATOM     42  N   UNL     1       2.196   8.664  -4.864  1.00  0.00    -0.354 N 
ATOM     43  C   UNL     1       6.450   6.960  -7.913  1.00  0.00     0.074 A 
ATOM     44  C   UNL     1       7.395   6.725  -6.843  1.00  0.00     0.031 C 
ATOM     45  C   UNL     1       1.503   7.773  -6.824  1.00  0.00     0.029 A 
ATOM     46  C   UNL     1       1.299   8.898  -5.930  1.00  0.00     0.049 A 
ATOM     47  H   UNL     1       2.082   8.937  -3.925  1.00  0.00     0.167 HD
ATOM     48  C   UNL     1       6.367   6.555  -9.211  1.00  0.00     0.037 A 
ATOM     49  C   UNL     1       0.980  10.168  -6.311  1.00  0.00     0.037 A 
ATOM     50  C   UNL     1       5.117   6.946  -9.849  1.00  0.00     0.049 A 
ATOM     51  C   UNL     1       1.381  10.527  -7.727  1.00  0.00     0.074 A 
ATOM     52  C   UNL     1       3.924   6.298 -10.125  1.00  0.00     0.029 A 
ATOM     53  N   UNL     1       4.873   8.290 -10.056  1.00  0.00    -0.354 N 
ATOM     54  N   UNL     1       1.991   9.723  -8.553  1.00  0.00    -0.248 NA
ATOM     55  C   UNL     1       1.216  11.872  -8.283  1.00  0.00     0.031 C 
ATOM     56  C   UNL     1       2.961   7.276 -10.504  1.00  0.00     0.029 A 
ATOM     57  C   UNL     1       3.572   8.514 -10.459  1.00  0.00     0.049 A 
ATOM     58  H   UNL     1       5.543   9.000  -9.931  1.00  0.00     0.167 HD
ATOM     59  C   UNL     1       2.368  10.424  -9.669  1.00  0.00     0.074 A 
ATOM     60  C   UNL     1       1.847  11.761  -9.463  1.00  0.00     0.031 C 
ATOM     61  C   UNL     1       3.129   9.881 -10.661  1.00  0.00     0.037 A 
BRANCH  48  62
ATOM     62  C   UNL     1       7.367   5.608  -9.805  1.00  0.00     0.057 A 
ATOM     63  C   UNL     1       6.968   4.543 -10.630  1.00  0.00     0.134 A 
ATOM     64  C   UNL     1       8.747   5.691  -9.558  1.00  0.00     0.134 A 
ATOM     65  F   UNL     1       5.691   4.380 -10.998  1.00  0.00    -0.206 F 
ATOM     66  C   UNL     1       7.864   3.575 -11.096  1.00  0.00     0.040 A 
ATOM     67  C   UNL     1       9.648   4.703  -9.975  1.00  0.00     0.040 A 
ATOM     68  F   UNL     1       9.271   6.739  -8.903  1.00  0.00    -0.206 F 
ATOM     69  C   UNL     1       9.204   3.632 -10.739  1.00  0.00     0.006 A 
ENDBRANCH  48  62
BRANCH  49  70
ATOM     70  C   UNL     1       0.930  11.120  -5.173  1.00  0.00     0.057 A 
ATOM     71  C   UNL     1      -0.042  10.929  -4.174  1.00  0.00     0.134 A 
ATOM     72  C   UNL     1       1.995  11.971  -4.873  1.00  0.00     0.134 A 
ATOM     73  F   UNL     1      -1.090  10.120  -4.398  1.00  0.00    -0.206 F 
ATOM     74  C   UNL     1       0.096  11.476  -2.897  1.00  0.00     0.040 A 
ATOM     75  C   UNL     1       2.136  12.537  -3.601  1.00  0.00     0.040 A 
ATOM     76  F   UNL     1       2.972  12.184  -5.766  1.00  0.00    -0.206 F 
ATOM     77  C   UNL     1       1.206  12.259  -2.599  1.00  0.00     0.006 A 
ENDBRANCH  49  70
BRANCH  61  78
ATOM     78  C   UNL     1       3.531  10.622 -11.904  1.00  0.00     0.057 A 
ATOM     79  C   UNL     1       2.621  11.376 -12.657  1.00  0.00     0.134 A 
ATOM     80  C   UNL     1       4.821  10.492 -12.455  1.00  0.00     0.134 A 
ATOM     81  F   UNL     1       1.347  11.518 -12.259  1.00  0.00    -0.206 F 
ATOM     82  C   UNL     1       2.981  11.994 -13.861  1.00  0.00     0.040 A 
ATOM     83  C   UNL     1       5.178  11.064 -13.679  1.00  0.00     0.040 A 
ATOM     84  F   UNL     1       5.793   9.822 -11.820  1.00  0.00    -0.206 F 
ATOM     85  C   UNL     1       4.259  11.828 -14.382  1.00  0.00     0.006 A 
ENDBRANCH  61  78
ENDBRANCH  35  36
ENDBRANCH  27  30
ENDBRANCH  25  26
ENDBRANCH  24  25
ENDBRANCH   1  24
TORSDOF 14
