REMARK SMILES C[N@@H+](CC(=O)NCCCCCCNC(=O)c1ccc(-c2c3nc(c(-c4c(F)cccc4F)c4ccc([nH]4)c(-c4c(F)cccc4F)c4nc(c(-c5c(F)cccc5F)c5ccc2[nH]5)C=C4)C=C3)cc1)Cc1csc(-c2ccco2)n1
REMARK SMILES IDX 8 1 7 2 6 3 4 4 5 5 3 7 2 8 1 9 70 11 71 12 72 13 80 14
REMARK SMILES IDX 73 15 74 16 75 17 76 18 79 19 77 20 78 21 9 22 10 23 11 24
REMARK SMILES IDX 12 25 13 26 14 27 15 29 16 30 17 31 69 32 18 33 68 34 19 35
REMARK SMILES IDX 20 36 21 37 62 38 22 39 67 40 61 41 63 42 23 43 66 44 60 45
REMARK SMILES IDX 59 46 24 48 50 49 33 50 49 51 34 52 37 53 48 54 64 55 35 56
REMARK SMILES IDX 36 57 47 59 65 60 38 61 25 62 26 63 31 64 27 65 28 66 30 67
REMARK SMILES IDX 32 68 29 69 51 70 52 71 57 72 53 73 54 74 56 75 58 76 55 77
REMARK SMILES IDX 39 78 40 79 45 80 41 81 42 82 44 83 46 84 43 85
REMARK H PARENT 6 6 2 10 13 28 63 47 37 58
REMARK Flexibility Score: inf
ROOT
ATOM      1  C   UNL     1       0.442   1.772  -1.512  1.00  0.00     0.021 C 
ENDROOT
BRANCH   1   2
ATOM      2  C   UNL     1      -0.737   1.413  -0.613  1.00  0.00     0.116 C 
BRANCH   2   3
ATOM      3  N   UNL     1      -1.525   0.328  -1.160  1.00  0.00    -0.351 N 
ATOM      4  C   UNL     1      -1.576  -0.983  -0.789  1.00  0.00     0.275 C 
ATOM      5  O   UNL     1      -2.354  -1.728  -1.393  1.00  0.00    -0.269 OA
ATOM      6  H   UNL     1      -2.112   0.574  -1.912  1.00  0.00     0.163 HD
BRANCH   4   7
ATOM      7  C   UNL     1      -0.750  -1.500   0.391  1.00  0.00     0.363 C 
BRANCH   7   8
ATOM      8  N   UNL     1       0.659  -1.711   0.096  1.00  0.00    -0.325 N 
ATOM      9  C   UNL     1       1.651  -0.800   0.600  1.00  0.00     0.333 C 
ATOM     10  H   UNL     1       0.356  -2.329   0.849  1.00  0.00     0.348 HD
BRANCH   8  11
ATOM     11  C   UNL     1       1.101  -2.766  -0.799  1.00  0.00     0.320 C 
BRANCH  11  12
ATOM     12  C   UNL     1       0.615  -2.618  -2.214  1.00  0.00     0.106 A 
ATOM     13  C   UNL     1      -0.087  -3.591  -2.907  1.00  0.00     0.097 A 
ATOM     14  N   UNL     1       0.855  -1.454  -2.948  1.00  0.00    -0.232 NA
ATOM     15  S   UNL     1      -0.582  -3.001  -4.432  1.00  0.00    -0.119 S 
ATOM     16  C   UNL     1       0.187  -1.508  -4.086  1.00  0.00     0.159 A 
BRANCH  16  17
ATOM     17  C   UNL     1       0.061  -0.400  -4.990  1.00  0.00     0.162 A 
ATOM     18  C   UNL     1       1.045   0.426  -5.512  1.00  0.00     0.053 A 
ATOM     19  O   UNL     1      -1.158   0.040  -5.453  1.00  0.00    -0.462 OA
ATOM     20  C   UNL     1       0.397   1.409  -6.304  1.00  0.00     0.043 A 
ATOM     21  C   UNL     1      -0.946   1.135  -6.223  1.00  0.00     0.196 A 
ENDBRANCH  16  17
ENDBRANCH  11  12
ENDBRANCH   8  11
ENDBRANCH   7   8
ENDBRANCH   4   7
ENDBRANCH   2   3
ENDBRANCH   1   2
BRANCH   1  22
ATOM     22  C   UNL     1       0.032   2.399  -2.844  1.00  0.00     0.002 C 
BRANCH  22  23
ATOM     23  C   UNL     1      -0.544   3.810  -2.771  1.00  0.00     0.002 C 
BRANCH  23  24
ATOM     24  C   UNL     1       0.382   4.843  -2.135  1.00  0.00     0.021 C 
BRANCH  24  25
ATOM     25  C   UNL     1       1.777   4.906  -2.746  1.00  0.00     0.116 C 
BRANCH  25  26
ATOM     26  N   UNL     1       1.748   5.297  -4.148  1.00  0.00    -0.352 N 
ATOM     27  C   UNL     1       2.333   6.383  -4.752  1.00  0.00     0.251 C 
ATOM     28  H   UNL     1       1.240   4.702  -4.745  1.00  0.00     0.163 HD
ATOM     29  O   UNL     1       2.053   6.686  -5.905  1.00  0.00    -0.269 OA
BRANCH  27  30
ATOM     30  C   UNL     1       3.301   7.193  -3.985  1.00  0.00     0.039 A 
ATOM     31  C   UNL     1       3.184   8.584  -3.988  1.00  0.00     0.014 A 
ATOM     32  C   UNL     1       4.315   6.569  -3.252  1.00  0.00     0.014 A 
ATOM     33  C   UNL     1       4.059   9.349  -3.214  1.00  0.00     0.010 A 
ATOM     34  C   UNL     1       5.125   7.325  -2.414  1.00  0.00     0.010 A 
ATOM     35  C   UNL     1       5.021   8.724  -2.402  1.00  0.00    -0.014 A 
BRANCH  35  36
ATOM     36  C   UNL     1       5.963   9.518  -1.574  1.00  0.00     0.031 A 
ATOM     37  C   UNL     1       7.440   9.450  -1.855  1.00  0.00     0.074 A 
ATOM     38  C   UNL     1       5.501  10.258  -0.548  1.00  0.00     0.049 A 
ATOM     39  N   UNL     1       8.432  10.021  -1.220  1.00  0.00    -0.248 NA
ATOM     40  C   UNL     1       7.862   8.602  -2.983  1.00  0.00     0.031 C 
ATOM     41  C   UNL     1       4.098  10.369  -0.145  1.00  0.00     0.029 A 
ATOM     42  N   UNL     1       6.167  11.056   0.348  1.00  0.00    -0.354 N 
ATOM     43  C   UNL     1       9.587   9.592  -1.861  1.00  0.00     0.074 A 
ATOM     44  C   UNL     1       9.182   8.661  -2.889  1.00  0.00     0.031 C 
ATOM     45  C   UNL     1       4.005  11.212   0.897  1.00  0.00     0.029 A 
ATOM     46  C   UNL     1       5.343  11.671   1.259  1.00  0.00     0.049 A 
ATOM     47  H   UNL     1       7.144  11.176   0.339  1.00  0.00     0.167 HD
ATOM     48  C   UNL     1      10.869   9.965  -1.638  1.00  0.00     0.037 A 
ATOM     49  C   UNL     1       5.636  12.511   2.269  1.00  0.00     0.037 A 
ATOM     50  C   UNL     1      11.268  10.913  -0.632  1.00  0.00     0.049 A 
ATOM     51  C   UNL     1       7.070  12.906   2.501  1.00  0.00     0.074 A 
ATOM     52  C   UNL     1      12.535  11.391  -0.351  1.00  0.00     0.029 A 
ATOM     53  N   UNL     1      10.400  11.531   0.255  1.00  0.00    -0.354 N 
ATOM     54  N   UNL     1       8.146  12.540   1.847  1.00  0.00    -0.248 NA
ATOM     55  C   UNL     1       7.328  13.843   3.603  1.00  0.00     0.031 C 
ATOM     56  C   UNL     1      12.440  12.268   0.735  1.00  0.00     0.029 A 
ATOM     57  C   UNL     1      11.106  12.378   1.093  1.00  0.00     0.049 A 
ATOM     58  H   UNL     1       9.426  11.389   0.285  1.00  0.00     0.167 HD
ATOM     59  C   UNL     1       9.200  13.231   2.431  1.00  0.00     0.074 A 
ATOM     60  C   UNL     1       8.632  14.046   3.484  1.00  0.00     0.031 C 
ATOM     61  C   UNL     1      10.520  13.198   2.122  1.00  0.00     0.037 A 
BRANCH  48  62
ATOM     62  C   UNL     1      11.930   9.353  -2.507  1.00  0.00     0.057 A 
ATOM     63  C   UNL     1      12.038   9.665  -3.870  1.00  0.00     0.134 A 
ATOM     64  C   UNL     1      12.872   8.465  -1.973  1.00  0.00     0.134 A 
ATOM     65  F   UNL     1      11.159  10.497  -4.449  1.00  0.00    -0.206 F 
ATOM     66  C   UNL     1      13.025   9.094  -4.675  1.00  0.00     0.040 A 
ATOM     67  C   UNL     1      13.883   7.912  -2.762  1.00  0.00     0.040 A 
ATOM     68  F   UNL     1      12.831   8.126  -0.676  1.00  0.00    -0.206 F 
ATOM     69  C   UNL     1      13.957   8.221  -4.118  1.00  0.00     0.006 A 
ENDBRANCH  48  62
BRANCH  49  70
ATOM     70  C   UNL     1       4.553  13.066   3.122  1.00  0.00     0.057 A 
ATOM     71  C   UNL     1       4.225  14.427   3.078  1.00  0.00     0.134 A 
ATOM     72  C   UNL     1       3.841  12.262   4.020  1.00  0.00     0.134 A 
ATOM     73  F   UNL     1       4.882  15.253   2.251  1.00  0.00    -0.206 F 
ATOM     74  C   UNL     1       3.251  14.973   3.915  1.00  0.00     0.040 A 
ATOM     75  C   UNL     1       2.845  12.790   4.844  1.00  0.00     0.040 A 
ATOM     76  F   UNL     1       4.100  10.949   4.106  1.00  0.00    -0.206 F 
ATOM     77  C   UNL     1       2.555  14.152   4.800  1.00  0.00     0.006 A 
ENDBRANCH  49  70
BRANCH  61  78
ATOM     78  C   UNL     1      11.429  14.112   2.890  1.00  0.00     0.057 A 
ATOM     79  C   UNL     1      11.745  13.892   4.236  1.00  0.00     0.134 A 
ATOM     80  C   UNL     1      12.024  15.212   2.257  1.00  0.00     0.134 A 
ATOM     81  F   UNL     1      11.201  12.863   4.903  1.00  0.00    -0.206 F 
ATOM     82  C   UNL     1      12.597  14.750   4.934  1.00  0.00     0.040 A 
ATOM     83  C   UNL     1      12.901  16.059   2.936  1.00  0.00     0.040 A 
ATOM     84  F   UNL     1      11.773  15.474   0.966  1.00  0.00    -0.206 F 
ATOM     85  C   UNL     1      13.182  15.833   4.281  1.00  0.00     0.006 A 
ENDBRANCH  61  78
ENDBRANCH  35  36
ENDBRANCH  27  30
ENDBRANCH  25  26
ENDBRANCH  24  25
ENDBRANCH  23  24
ENDBRANCH  22  23
ENDBRANCH   1  22
TORSDOF 17
