REMARK SMILES C[C@@]([NH2+]CCCO)(C(=O)NCCCCCCNC(=O)c1ccc(-c2c3nc(c(-c4c(F)cccc4F)c4ccc([nH]4)c(-c4c(F)cccc4F)c4nc(c(-c5c(F)cccc5F)c5ccc2[nH]5)C=C4)C=C3)cc1)C(F)(F)F
REMARK SMILES IDX 12 1 11 2 10 3 8 4 9 5 2 7 1 8 3 9 4 12 5 13 6 14 7 15 74 17
REMARK SMILES IDX 75 18 76 19 77 20 13 21 14 22 15 23 16 24 17 25 18 26 19 28
REMARK SMILES IDX 20 29 21 30 73 31 22 32 72 33 23 34 24 35 25 36 66 37 26 38
REMARK SMILES IDX 71 39 65 40 67 41 27 42 70 43 64 44 63 45 28 47 54 48 37 49
REMARK SMILES IDX 53 50 38 51 41 52 52 53 68 54 39 55 40 56 51 58 69 59 42 60
REMARK SMILES IDX 29 61 30 62 35 63 31 64 32 65 34 66 36 67 33 68 55 69 56 70
REMARK SMILES IDX 61 71 57 72 58 73 60 74 62 75 59 76 43 77 44 78 49 79 45 80
REMARK SMILES IDX 46 81 48 82 50 83 47 84
REMARK H PARENT 10 6 3 10 3 11 7 16 17 27 67 46 41 57
REMARK Flexibility Score: inf
ROOT
ATOM      1  C   UNL     1      -1.528  -0.292   2.416  1.00  0.00     0.021 C 
ENDROOT
BRANCH   1   2
ATOM      2  C   UNL     1      -1.105  -1.459   1.522  1.00  0.00     0.116 C 
BRANCH   2   3
ATOM      3  N   UNL     1      -1.620  -1.259   0.182  1.00  0.00    -0.350 N 
ATOM      4  C   UNL     1      -0.995  -0.918  -0.982  1.00  0.00     0.290 C 
ATOM      5  O   UNL     1      -1.743  -0.677  -1.933  1.00  0.00    -0.267 OA
ATOM      6  H   UNL     1      -2.592  -1.393   0.097  1.00  0.00     0.163 HD
BRANCH   4   7
ATOM      7  C   UNL     1       0.542  -0.878  -1.108  1.00  0.00     0.268 C 
ATOM      8  C   UNL     1       1.136   0.234  -0.211  1.00  0.00     0.101 C 
BRANCH   7   9
ATOM      9  N   UNL     1       1.163  -2.171  -0.623  1.00  0.00    -0.326 N 
ATOM     10  H   UNL     1       1.016  -2.222   0.385  1.00  0.00     0.347 HD
ATOM     11  H   UNL     1       2.139  -2.119  -0.916  1.00  0.00     0.347 HD
BRANCH   9  12
ATOM     12  C   UNL     1       0.660  -3.419  -1.205  1.00  0.00     0.264 C 
BRANCH  12  13
ATOM     13  C   UNL     1       1.209  -3.858  -2.568  1.00  0.00     0.089 C 
BRANCH  13  14
ATOM     14  C   UNL     1       2.727  -3.865  -2.696  1.00  0.00     0.162 C 
BRANCH  14  15
ATOM     15  O   UNL     1       3.299  -4.904  -1.915  1.00  0.00    -0.396 OA
ATOM     16  H   UNL     1       3.076  -4.768  -0.981  1.00  0.00     0.210 HD
ENDBRANCH  14  15
ENDBRANCH  13  14
ENDBRANCH  12  13
ENDBRANCH   9  12
ENDBRANCH   7   9
BRANCH   7  17
ATOM     17  C   UNL     1       0.868  -0.442  -2.566  1.00  0.00     0.453 C 
ATOM     18  F   UNL     1       0.538   0.848  -2.806  1.00  0.00    -0.164 F 
ATOM     19  F   UNL     1       2.215  -0.535  -2.767  1.00  0.00    -0.164 F 
ATOM     20  F   UNL     1       0.292  -1.199  -3.519  1.00  0.00    -0.164 F 
ENDBRANCH   7  17
ENDBRANCH   4   7
ENDBRANCH   2   3
ENDBRANCH   1   2
BRANCH   1  21
ATOM     21  C   UNL     1      -3.035  -0.267   2.708  1.00  0.00     0.002 C 
BRANCH  21  22
ATOM     22  C   UNL     1      -3.569  -1.519   3.413  1.00  0.00     0.002 C 
BRANCH  22  23
ATOM     23  C   UNL     1      -2.862  -1.861   4.725  1.00  0.00     0.021 C 
BRANCH  23  24
ATOM     24  C   UNL     1      -2.930  -0.758   5.775  1.00  0.00     0.116 C 
BRANCH  24  25
ATOM     25  N   UNL     1      -4.297  -0.492   6.192  1.00  0.00    -0.352 N 
ATOM     26  C   UNL     1      -4.834  -0.493   7.455  1.00  0.00     0.251 C 
ATOM     27  H   UNL     1      -4.927  -0.282   5.465  1.00  0.00     0.163 HD
ATOM     28  O   UNL     1      -6.049  -0.463   7.613  1.00  0.00    -0.269 OA
BRANCH  26  29
ATOM     29  C   UNL     1      -3.936  -0.547   8.627  1.00  0.00     0.039 A 
ATOM     30  C   UNL     1      -4.249  -1.410   9.679  1.00  0.00     0.014 A 
ATOM     31  C   UNL     1      -2.790   0.251   8.684  1.00  0.00     0.014 A 
ATOM     32  C   UNL     1      -3.380  -1.513  10.766  1.00  0.00     0.010 A 
ATOM     33  C   UNL     1      -1.886   0.087   9.727  1.00  0.00     0.010 A 
ATOM     34  C   UNL     1      -2.175  -0.791  10.783  1.00  0.00    -0.014 A 
BRANCH  34  35
ATOM     35  C   UNL     1      -1.206  -0.940  11.897  1.00  0.00     0.031 A 
ATOM     36  C   UNL     1      -0.879   0.234  12.778  1.00  0.00     0.074 A 
ATOM     37  C   UNL     1      -0.576  -2.116  12.078  1.00  0.00     0.049 A 
ATOM     38  N   UNL     1      -0.027   0.314  13.768  1.00  0.00    -0.248 NA
ATOM     39  C   UNL     1      -1.585   1.493  12.491  1.00  0.00     0.031 C 
ATOM     40  C   UNL     1      -0.775  -3.317  11.264  1.00  0.00     0.029 A 
ATOM     41  N   UNL     1       0.364  -2.494  13.003  1.00  0.00    -0.354 N 
ATOM     42  C   UNL     1      -0.085   1.629  14.211  1.00  0.00     0.074 A 
ATOM     43  C   UNL     1      -1.010   2.326  13.345  1.00  0.00     0.031 C 
ATOM     44  C   UNL     1      -0.008  -4.307  11.748  1.00  0.00     0.029 A 
ATOM     45  C   UNL     1       0.769  -3.801  12.874  1.00  0.00     0.049 A 
ATOM     46  H   UNL     1       0.716  -1.887  13.694  1.00  0.00     0.167 HD
ATOM     47  C   UNL     1       0.556   2.199  15.260  1.00  0.00     0.037 A 
ATOM     48  C   UNL     1       1.669  -4.509  13.583  1.00  0.00     0.037 A 
ATOM     49  C   UNL     1       1.465   1.497  16.128  1.00  0.00     0.049 A 
ATOM     50  C   UNL     1       2.391  -3.844  14.723  1.00  0.00     0.074 A 
ATOM     51  C   UNL     1       2.120   1.967  17.253  1.00  0.00     0.029 A 
ATOM     52  N   UNL     1       1.855   0.176  15.961  1.00  0.00    -0.354 N 
ATOM     53  N   UNL     1       2.270  -2.621  15.179  1.00  0.00    -0.248 NA
ATOM     54  C   UNL     1       3.373  -4.662  15.448  1.00  0.00     0.031 C 
ATOM     55  C   UNL     1       2.951   0.949  17.732  1.00  0.00     0.029 A 
ATOM     56  C   UNL     1       2.767  -0.176  16.943  1.00  0.00     0.049 A 
ATOM     57  H   UNL     1       1.532  -0.423  15.250  1.00  0.00     0.167 HD
ATOM     58  C   UNL     1       3.132  -2.533  16.265  1.00  0.00     0.074 A 
ATOM     59  C   UNL     1       3.760  -3.831  16.405  1.00  0.00     0.031 C 
ATOM     60  C   UNL     1       3.380  -1.474  17.074  1.00  0.00     0.037 A 
BRANCH  47  61
ATOM     61  C   UNL     1       0.300   3.658  15.516  1.00  0.00     0.057 A 
ATOM     62  C   UNL     1      -0.945   4.128  15.956  1.00  0.00     0.134 A 
ATOM     63  C   UNL     1       1.317   4.604  15.338  1.00  0.00     0.134 A 
ATOM     64  F   UNL     1      -1.968   3.278  16.138  1.00  0.00    -0.206 F 
ATOM     65  C   UNL     1      -1.180   5.487  16.173  1.00  0.00     0.040 A 
ATOM     66  C   UNL     1       1.105   5.962  15.583  1.00  0.00     0.040 A 
ATOM     67  F   UNL     1       2.537   4.225  14.926  1.00  0.00    -0.206 F 
ATOM     68  C   UNL     1      -0.150   6.408  15.992  1.00  0.00     0.006 A 
ENDBRANCH  47  61
BRANCH  48  69
ATOM     69  C   UNL     1       1.918  -5.936  13.258  1.00  0.00     0.057 A 
ATOM     70  C   UNL     1       1.529  -6.953  14.138  1.00  0.00     0.134 A 
ATOM     71  C   UNL     1       2.558  -6.321  12.073  1.00  0.00     0.134 A 
ATOM     72  F   UNL     1       0.927  -6.647  15.297  1.00  0.00    -0.206 F 
ATOM     73  C   UNL     1       1.786  -8.297  13.864  1.00  0.00     0.040 A 
ATOM     74  C   UNL     1       2.796  -7.663  11.773  1.00  0.00     0.040 A 
ATOM     75  F   UNL     1       2.948  -5.396  11.183  1.00  0.00    -0.206 F 
ATOM     76  C   UNL     1       2.417  -8.655  12.675  1.00  0.00     0.006 A 
ENDBRANCH  48  69
BRANCH  60  77
ATOM     77  C   UNL     1       4.339  -1.686  18.210  1.00  0.00     0.057 A 
ATOM     78  C   UNL     1       5.714  -1.853  18.002  1.00  0.00     0.134 A 
ATOM     79  C   UNL     1       3.882  -1.690  19.535  1.00  0.00     0.134 A 
ATOM     80  F   UNL     1       6.216  -1.874  16.758  1.00  0.00    -0.206 F 
ATOM     81  C   UNL     1       6.596  -2.042  19.068  1.00  0.00     0.040 A 
ATOM     82  C   UNL     1       4.757  -1.846  20.610  1.00  0.00     0.040 A 
ATOM     83  F   UNL     1       2.578  -1.526  19.807  1.00  0.00    -0.206 F 
ATOM     84  C   UNL     1       6.118  -2.030  20.378  1.00  0.00     0.006 A 
ENDBRANCH  60  77
ENDBRANCH  34  35
ENDBRANCH  26  29
ENDBRANCH  24  25
ENDBRANCH  23  24
ENDBRANCH  22  23
ENDBRANCH  21  22
ENDBRANCH   1  21
TORSDOF 19
