REMARK SMILES CC[NH2+][C@]1(C(=O)NCCCCCCNC(=O)c2ccc(-c3c4nc(c(-c5c(F)cccc5F)c5ccc([nH]5)c(-c5c(F)cccc5F)c5nc(c(-c6c(F)cccc6F)c6ccc3[nH]6)C=C5)C=C4)cc2)CCC[C@@H]1CCSc1ccc(C)cc1
REMARK SMILES IDX 9 1 8 2 7 3 5 4 6 5 4 7 71 8 74 9 72 10 73 11 3 12 2 15 1 16
REMARK SMILES IDX 75 17 76 18 77 19 78 20 79 21 84 22 80 23 83 24 81 25 82 26
REMARK SMILES IDX 10 27 11 28 12 29 13 30 14 31 15 32 16 34 17 35 18 36 70 37
REMARK SMILES IDX 19 38 69 39 20 40 21 41 22 42 63 43 23 44 68 45 62 46 64 47
REMARK SMILES IDX 24 48 67 49 61 50 60 51 25 53 51 54 34 55 50 56 35 57 38 58
REMARK SMILES IDX 49 59 65 60 36 61 37 62 48 64 66 65 39 66 26 67 27 68 32 69
REMARK SMILES IDX 28 70 29 71 31 72 33 73 30 74 52 75 53 76 58 77 54 78 55 79
REMARK SMILES IDX 57 80 59 81 56 82 40 83 41 84 46 85 42 86 43 87 45 88 47 89
REMARK SMILES IDX 44 90
REMARK H PARENT 7 6 3 13 3 14 14 33 64 52 38 63
REMARK Flexibility Score: inf
ROOT
ATOM      1  C   UNL     1      -1.520  -0.869  -0.617  1.00  0.00     0.021 C 
ENDROOT
BRANCH   1   2
ATOM      2  C   UNL     1      -0.940   0.407  -0.028  1.00  0.00     0.116 C 
BRANCH   2   3
ATOM      3  N   UNL     1       0.345   0.706  -0.608  1.00  0.00    -0.351 N 
ATOM      4  C   UNL     1       0.868   1.836  -1.137  1.00  0.00     0.281 C 
ATOM      5  O   UNL     1       1.930   1.674  -1.755  1.00  0.00    -0.268 OA
ATOM      6  H   UNL     1       0.962  -0.062  -0.623  1.00  0.00     0.163 HD
BRANCH   4   7
ATOM      7  C   UNL     1       0.284   3.255  -0.946  1.00  0.00     0.178 C 
ATOM      8  C   UNL     1       1.391   4.102  -0.257  1.00  0.00     0.079 C 
ATOM      9  C   UNL     1       0.190   4.033  -2.297  1.00  0.00     0.061 C 
ATOM     10  C   UNL     1       0.991   5.540  -0.528  1.00  0.00     0.008 C 
ATOM     11  C   UNL     1       0.106   5.457  -1.761  1.00  0.00     0.011 C 
BRANCH   7  12
ATOM     12  N   UNL     1      -1.003   3.392  -0.240  1.00  0.00    -0.334 N 
ATOM     13  H   UNL     1      -1.451   4.234  -0.600  1.00  0.00     0.347 HD
ATOM     14  H   UNL     1      -1.472   2.505  -0.423  1.00  0.00     0.347 HD
BRANCH  12  15
ATOM     15  C   UNL     1      -1.018   3.491   1.205  1.00  0.00     0.257 C 
ATOM     16  C   UNL     1      -2.439   3.402   1.741  1.00  0.00     0.071 C 
ENDBRANCH  12  15
ENDBRANCH   7  12
BRANCH   9  17
ATOM     17  C   UNL     1      -0.883   3.623  -3.335  1.00  0.00     0.022 C 
BRANCH  17  18
ATOM     18  C   UNL     1      -1.745   4.719  -4.007  1.00  0.00     0.075 C 
BRANCH  18  19
ATOM     19  S   UNL     1      -1.064   5.675  -5.441  1.00  0.00    -0.126 SA
BRANCH  19  20
ATOM     20  C   UNL     1       0.024   6.870  -4.681  1.00  0.00     0.007 A 
ATOM     21  C   UNL     1       1.403   6.662  -4.808  1.00  0.00     0.015 A 
ATOM     22  C   UNL     1      -0.436   7.911  -3.860  1.00  0.00     0.015 A 
ATOM     23  C   UNL     1       2.305   7.367  -4.002  1.00  0.00     0.004 A 
ATOM     24  C   UNL     1       0.472   8.624  -3.054  1.00  0.00     0.004 A 
ATOM     25  C   UNL     1       1.844   8.321  -3.084  1.00  0.00    -0.051 A 
ATOM     26  C   UNL     1       2.777   8.855  -2.033  1.00  0.00     0.044 C 
ENDBRANCH  19  20
ENDBRANCH  18  19
ENDBRANCH  17  18
ENDBRANCH   9  17
ENDBRANCH   4   7
ENDBRANCH   2   3
ENDBRANCH   1   2
BRANCH   1  27
ATOM     27  C   UNL     1      -0.766  -2.139  -0.231  1.00  0.00     0.002 C 
BRANCH  27  28
ATOM     28  C   UNL     1      -0.559  -2.331   1.274  1.00  0.00     0.002 C 
BRANCH  28  29
ATOM     29  C   UNL     1      -1.825  -2.192   2.121  1.00  0.00     0.021 C 
BRANCH  29  30
ATOM     30  C   UNL     1      -2.969  -3.092   1.680  1.00  0.00     0.116 C 
BRANCH  30  31
ATOM     31  N   UNL     1      -2.620  -4.498   1.782  1.00  0.00    -0.352 N 
ATOM     32  C   UNL     1      -3.308  -5.500   2.422  1.00  0.00     0.251 C 
ATOM     33  H   UNL     1      -1.785  -4.767   1.337  1.00  0.00     0.163 HD
ATOM     34  O   UNL     1      -2.801  -6.594   2.609  1.00  0.00    -0.269 OA
BRANCH  32  35
ATOM     35  C   UNL     1      -4.677  -5.216   2.895  1.00  0.00     0.039 A 
ATOM     36  C   UNL     1      -5.026  -5.531   4.208  1.00  0.00     0.014 A 
ATOM     37  C   UNL     1      -5.594  -4.599   2.039  1.00  0.00     0.014 A 
ATOM     38  C   UNL     1      -6.291  -5.183   4.683  1.00  0.00     0.010 A 
ATOM     39  C   UNL     1      -6.819  -4.181   2.537  1.00  0.00     0.010 A 
ATOM     40  C   UNL     1      -7.186  -4.482   3.858  1.00  0.00    -0.014 A 
BRANCH  40  41
ATOM     41  C   UNL     1      -8.537  -4.087   4.322  1.00  0.00     0.031 A 
ATOM     42  C   UNL     1      -9.743  -4.654   3.626  1.00  0.00     0.074 A 
ATOM     43  C   UNL     1      -8.679  -3.160   5.289  1.00  0.00     0.049 A 
ATOM     44  N   UNL     1     -11.002  -4.322   3.748  1.00  0.00    -0.248 NA
ATOM     45  C   UNL     1      -9.492  -5.711   2.632  1.00  0.00     0.031 C 
ATOM     46  C   UNL     1      -7.585  -2.522   6.021  1.00  0.00     0.029 A 
ATOM     47  N   UNL     1      -9.809  -2.577   5.804  1.00  0.00    -0.354 N 
ATOM     48  C   UNL     1     -11.686  -5.109   2.829  1.00  0.00     0.074 A 
ATOM     49  C   UNL     1     -10.699  -5.892   2.120  1.00  0.00     0.031 C 
ATOM     50  C   UNL     1      -8.098  -1.643   6.898  1.00  0.00     0.029 A 
ATOM     51  C   UNL     1      -9.550  -1.619   6.754  1.00  0.00     0.049 A 
ATOM     52  H   UNL     1     -10.720  -2.822   5.520  1.00  0.00     0.167 HD
ATOM     53  C   UNL     1     -13.019  -5.186   2.611  1.00  0.00     0.037 A 
ATOM     54  C   UNL     1     -10.390  -0.799   7.416  1.00  0.00     0.037 A 
ATOM     55  C   UNL     1     -13.995  -4.423   3.342  1.00  0.00     0.049 A 
ATOM     56  C   UNL     1     -11.867  -0.885   7.139  1.00  0.00     0.074 A 
ATOM     57  C   UNL     1     -15.373  -4.462   3.234  1.00  0.00     0.029 A 
ATOM     58  N   UNL     1     -13.693  -3.484   4.317  1.00  0.00    -0.354 N 
ATOM     59  N   UNL     1     -12.508  -1.665   6.301  1.00  0.00    -0.248 NA
ATOM     60  C   UNL     1     -12.741   0.021   7.900  1.00  0.00     0.031 C 
ATOM     61  C   UNL     1     -15.904  -3.509   4.108  1.00  0.00     0.029 A 
ATOM     62  C   UNL     1     -14.860  -2.923   4.805  1.00  0.00     0.049 A 
ATOM     63  H   UNL     1     -12.784  -3.252   4.617  1.00  0.00     0.167 HD
ATOM     64  C   UNL     1     -13.857  -1.378   6.468  1.00  0.00     0.074 A 
ATOM     65  C   UNL     1     -13.944  -0.349   7.482  1.00  0.00     0.031 C 
ATOM     66  C   UNL     1     -14.927  -1.923   5.841  1.00  0.00     0.037 A 
BRANCH  53  67
ATOM     67  C   UNL     1     -13.496  -6.122   1.540  1.00  0.00     0.057 A 
ATOM     68  C   UNL     1     -13.399  -7.514   1.673  1.00  0.00     0.134 A 
ATOM     69  C   UNL     1     -14.087  -5.627   0.370  1.00  0.00     0.134 A 
ATOM     70  F   UNL     1     -12.832  -8.055   2.763  1.00  0.00    -0.206 F 
ATOM     71  C   UNL     1     -13.845  -8.377   0.671  1.00  0.00     0.040 A 
ATOM     72  C   UNL     1     -14.567  -6.480  -0.624  1.00  0.00     0.040 A 
ATOM     73  F   UNL     1     -14.217  -4.305   0.179  1.00  0.00    -0.206 F 
ATOM     74  C   UNL     1     -14.438  -7.860  -0.478  1.00  0.00     0.006 A 
ENDBRANCH  53  67
BRANCH  54  75
ATOM     75  C   UNL     1      -9.860   0.166   8.412  1.00  0.00     0.057 A 
ATOM     76  C   UNL     1     -10.125   0.011   9.778  1.00  0.00     0.134 A 
ATOM     77  C   UNL     1      -9.090   1.271   8.028  1.00  0.00     0.134 A 
ATOM     78  F   UNL     1     -10.870  -1.018  10.208  1.00  0.00    -0.206 F 
ATOM     79  C   UNL     1      -9.666   0.931  10.723  1.00  0.00     0.040 A 
ATOM     80  C   UNL     1      -8.602   2.184   8.965  1.00  0.00     0.040 A 
ATOM     81  F   UNL     1      -8.791   1.474   6.737  1.00  0.00    -0.206 F 
ATOM     82  C   UNL     1      -8.898   2.020  10.317  1.00  0.00     0.006 A 
ENDBRANCH  54  75
BRANCH  66  83
ATOM     83  C   UNL     1     -16.293  -1.482   6.277  1.00  0.00     0.057 A 
ATOM     84  C   UNL     1     -16.815  -0.227   5.942  1.00  0.00     0.134 A 
ATOM     85  C   UNL     1     -17.131  -2.369   6.967  1.00  0.00     0.134 A 
ATOM     86  F   UNL     1     -16.060   0.671   5.291  1.00  0.00    -0.206 F 
ATOM     87  C   UNL     1     -18.119   0.133   6.284  1.00  0.00     0.040 A 
ATOM     88  C   UNL     1     -18.445  -2.031   7.290  1.00  0.00     0.040 A 
ATOM     89  F   UNL     1     -16.694  -3.591   7.310  1.00  0.00    -0.206 F 
ATOM     90  C   UNL     1     -18.942  -0.776   6.949  1.00  0.00     0.006 A 
ENDBRANCH  66  83
ENDBRANCH  40  41
ENDBRANCH  32  35
ENDBRANCH  30  31
ENDBRANCH  29  30
ENDBRANCH  28  29
ENDBRANCH  27  28
ENDBRANCH   1  27
TORSDOF 19
