REMARK SMILES CCCCc1ncc(C[N@H+]2C[C@@H]3c4ccccc4OC[C@]3(C(=O)NCCCCCCNC(=O)c3ccc(-c4c5nc(c(-c6c(F)cccc6F)c6ccc([nH]6)c(-c6c(F)cccc6F)c6nc(c(-c7c(F)cccc7F)c7ccc4[nH]7)C=C6)C=C5)cc3)C2)[nH]1
REMARK SMILES IDX 26 1 25 2 24 3 22 4 23 5 21 7 10 8 11 9 88 10 12 12 13 13
REMARK SMILES IDX 20 14 14 15 18 16 19 17 15 18 17 19 16 20 9 21 8 22 5 23
REMARK SMILES IDX 6 24 89 25 7 26 4 28 3 29 2 30 1 31 27 32 28 33 29 34 30 35
REMARK SMILES IDX 31 36 32 37 33 39 34 40 35 41 87 42 36 43 86 44 37 45 38 46
REMARK SMILES IDX 39 47 80 48 40 49 85 50 79 51 81 52 41 53 84 54 78 55 77 56
REMARK SMILES IDX 42 58 68 59 51 60 67 61 52 62 55 63 66 64 82 65 53 66 54 67
REMARK SMILES IDX 65 69 83 70 56 71 43 72 44 73 49 74 45 75 46 76 48 77 50 78
REMARK SMILES IDX 47 79 69 80 70 81 75 82 71 83 72 84 74 85 76 86 73 87 57 88
REMARK SMILES IDX 58 89 63 90 59 91 60 92 62 93 64 94 61 95
REMARK H PARENT 24 6 10 11 89 27 31 38 81 57 55 68
REMARK Flexibility Score: inf
ROOT
ATOM      1  C   UNL     1      -3.892  -4.024   0.395  1.00  0.00     0.021 C 
ENDROOT
BRANCH   1   2
ATOM      2  C   UNL     1      -2.905  -2.953   0.861  1.00  0.00     0.116 C 
BRANCH   2   3
ATOM      3  N   UNL     1      -1.953  -2.425  -0.128  1.00  0.00    -0.355 N 
ATOM      4  C   UNL     1      -1.897  -1.289  -0.910  1.00  0.00     0.236 C 
ATOM      5  O   UNL     1      -0.768  -0.899  -1.211  1.00  0.00    -0.274 OA
ATOM      6  H   UNL     1      -1.179  -3.018  -0.264  1.00  0.00     0.163 HD
BRANCH   4   7
ATOM      7  C   UNL     1      -3.138  -0.669  -1.583  1.00  0.00     0.144 C 
ATOM      8  N   UNL     1      -4.690   0.831  -0.379  1.00  0.00    -0.328 N 
ATOM      9  C   UNL     1      -4.258   1.538  -1.557  1.00  0.00     0.272 C 
ATOM     10  C   UNL     1      -4.208  -0.535  -0.503  1.00  0.00     0.284 C 
ATOM     11  H   UNL     1      -5.710   0.823  -0.346  1.00  0.00     0.348 HD
ATOM     12  C   UNL     1      -3.026   0.789  -2.119  1.00  0.00     0.103 C 
ATOM     13  C   UNL     1      -3.145   0.979  -3.615  1.00  0.00     0.004 A 
ATOM     14  C   UNL     1      -3.304  -1.663  -2.753  1.00  0.00     0.253 C 
ATOM     15  C   UNL     1      -3.057   2.271  -4.172  1.00  0.00     0.008 A 
ATOM     16  C   UNL     1      -3.598  -0.058  -4.423  1.00  0.00     0.123 A 
ATOM     17  O   UNL     1      -4.037  -1.239  -3.894  1.00  0.00    -0.492 OA
ATOM     18  C   UNL     1      -3.386   2.498  -5.509  1.00  0.00     0.001 A 
ATOM     19  C   UNL     1      -3.827   0.145  -5.785  1.00  0.00     0.047 A 
ATOM     20  C   UNL     1      -3.728   1.426  -6.328  1.00  0.00     0.004 A 
BRANCH   8  21
ATOM     21  C   UNL     1      -4.467   1.498   0.908  1.00  0.00     0.319 C 
BRANCH  21  22
ATOM     22  C   UNL     1      -3.217   2.298   1.052  1.00  0.00     0.090 A 
ATOM     23  C   UNL     1      -1.072   2.872   1.250  1.00  0.00     0.106 A 
ATOM     24  N   UNL     1      -1.749   4.001   1.313  1.00  0.00    -0.241 NA
ATOM     25  N   UNL     1      -1.933   1.806   1.108  1.00  0.00    -0.341 N 
ATOM     26  C   UNL     1      -3.064   3.661   1.189  1.00  0.00     0.140 A 
ATOM     27  H   UNL     1      -1.675   0.858   1.056  1.00  0.00     0.168 HD
BRANCH  23  28
ATOM     28  C   UNL     1       0.421   2.791   1.235  1.00  0.00     0.075 C 
BRANCH  28  29
ATOM     29  C   UNL     1       1.057   1.739   2.145  1.00  0.00     0.008 C 
BRANCH  29  30
ATOM     30  C   UNL     1       1.046   0.294   1.636  1.00  0.00    -0.003 C 
ATOM     31  C   UNL     1       1.601   0.140   0.229  1.00  0.00     0.004 C 
ENDBRANCH  29  30
ENDBRANCH  28  29
ENDBRANCH  23  28
ENDBRANCH  21  22
ENDBRANCH   8  21
ENDBRANCH   4   7
ENDBRANCH   2   3
ENDBRANCH   1   2
BRANCH   1  32
ATOM     32  C   UNL     1      -3.431  -5.470   0.621  1.00  0.00     0.002 C 
BRANCH  32  33
ATOM     33  C   UNL     1      -2.831  -5.785   1.999  1.00  0.00     0.002 C 
BRANCH  33  34
ATOM     34  C   UNL     1      -3.655  -5.338   3.208  1.00  0.00     0.021 C 
BRANCH  34  35
ATOM     35  C   UNL     1      -5.020  -6.001   3.328  1.00  0.00     0.116 C 
BRANCH  35  36
ATOM     36  N   UNL     1      -4.918  -7.438   3.534  1.00  0.00    -0.352 N 
ATOM     37  C   UNL     1      -5.397  -8.210   4.564  1.00  0.00     0.251 C 
ATOM     38  H   UNL     1      -4.434  -7.929   2.831  1.00  0.00     0.163 HD
ATOM     39  O   UNL     1      -5.043  -9.382   4.676  1.00  0.00    -0.269 OA
BRANCH  37  40
ATOM     40  C   UNL     1      -6.325  -7.620   5.551  1.00  0.00     0.039 A 
ATOM     41  C   UNL     1      -7.357  -6.781   5.130  1.00  0.00     0.014 A 
ATOM     42  C   UNL     1      -6.155  -7.894   6.911  1.00  0.00     0.014 A 
ATOM     43  C   UNL     1      -8.095  -6.076   6.070  1.00  0.00     0.010 A 
ATOM     44  C   UNL     1      -6.976  -7.266   7.854  1.00  0.00     0.010 A 
ATOM     45  C   UNL     1      -7.922  -6.315   7.444  1.00  0.00    -0.014 A 
BRANCH  45  46
ATOM     46  C   UNL     1      -8.767  -5.565   8.410  1.00  0.00     0.031 A 
ATOM     47  C   UNL     1      -8.161  -4.617   9.408  1.00  0.00     0.074 A 
ATOM     48  C   UNL     1     -10.106  -5.691   8.328  1.00  0.00     0.049 A 
ATOM     49  N   UNL     1      -8.761  -3.824  10.261  1.00  0.00    -0.248 NA
ATOM     50  C   UNL     1      -6.693  -4.553   9.464  1.00  0.00     0.031 C 
ATOM     51  C   UNL     1     -10.814  -6.587   7.409  1.00  0.00     0.029 A 
ATOM     52  N   UNL     1     -11.112  -5.042   8.997  1.00  0.00    -0.354 N 
ATOM     53  C   UNL     1      -7.749  -3.179  10.963  1.00  0.00     0.074 A 
ATOM     54  C   UNL     1      -6.495  -3.703  10.463  1.00  0.00     0.031 C 
ATOM     55  C   UNL     1     -12.133  -6.381   7.522  1.00  0.00     0.029 A 
ATOM     56  C   UNL     1     -12.368  -5.393   8.568  1.00  0.00     0.049 A 
ATOM     57  H   UNL     1     -10.949  -4.389   9.715  1.00  0.00     0.167 HD
ATOM     58  C   UNL     1      -7.853  -2.230  11.925  1.00  0.00     0.037 A 
ATOM     59  C   UNL     1     -13.579  -4.976   8.977  1.00  0.00     0.037 A 
ATOM     60  C   UNL     1      -9.103  -1.710  12.421  1.00  0.00     0.049 A 
ATOM     61  C   UNL     1     -13.664  -3.954  10.073  1.00  0.00     0.074 A 
ATOM     62  C   UNL     1      -9.315  -0.730  13.375  1.00  0.00     0.029 A 
ATOM     63  N   UNL     1     -10.357  -2.137  12.007  1.00  0.00    -0.354 N 
ATOM     64  N   UNL     1     -12.697  -3.330  10.701  1.00  0.00    -0.248 NA
ATOM     65  C   UNL     1     -15.012  -3.584  10.519  1.00  0.00     0.031 C 
ATOM     66  C   UNL     1     -10.695  -0.603  13.577  1.00  0.00     0.029 A 
ATOM     67  C   UNL     1     -11.346  -1.461  12.707  1.00  0.00     0.049 A 
ATOM     68  H   UNL     1     -10.521  -2.820  11.317  1.00  0.00     0.167 HD
ATOM     69  C   UNL     1     -13.319  -2.485  11.609  1.00  0.00     0.074 A 
ATOM     70  C   UNL     1     -14.747  -2.651  11.420  1.00  0.00     0.031 C 
ATOM     71  C   UNL     1     -12.762  -1.653  12.524  1.00  0.00     0.037 A 
BRANCH  58  72
ATOM     72  C   UNL     1      -6.574  -1.712  12.524  1.00  0.00     0.057 A 
ATOM     73  C   UNL     1      -6.238  -2.004  13.853  1.00  0.00     0.134 A 
ATOM     74  C   UNL     1      -5.680  -0.914  11.797  1.00  0.00     0.134 A 
ATOM     75  F   UNL     1      -7.050  -2.756  14.612  1.00  0.00    -0.206 F 
ATOM     76  C   UNL     1      -5.061  -1.528  14.433  1.00  0.00     0.040 A 
ATOM     77  C   UNL     1      -4.485  -0.456  12.357  1.00  0.00     0.040 A 
ATOM     78  F   UNL     1      -5.931  -0.606  10.515  1.00  0.00    -0.206 F 
ATOM     79  C   UNL     1      -4.176  -0.758  13.681  1.00  0.00     0.006 A 
ENDBRANCH  58  72
BRANCH  59  80
ATOM     80  C   UNL     1     -14.808  -5.534   8.359  1.00  0.00     0.057 A 
ATOM     81  C   UNL     1     -15.169  -6.875   8.539  1.00  0.00     0.134 A 
ATOM     82  C   UNL     1     -15.661  -4.734   7.589  1.00  0.00     0.134 A 
ATOM     83  F   UNL     1     -14.391  -7.695   9.260  1.00  0.00    -0.206 F 
ATOM     84  C   UNL     1     -16.328  -7.403   7.970  1.00  0.00     0.040 A 
ATOM     85  C   UNL     1     -16.840  -5.242   7.041  1.00  0.00     0.040 A 
ATOM     86  F   UNL     1     -15.378  -3.438   7.395  1.00  0.00    -0.206 F 
ATOM     87  C   UNL     1     -17.173  -6.582   7.227  1.00  0.00     0.006 A 
ENDBRANCH  59  80
BRANCH  71  88
ATOM     88  C   UNL     1     -13.714  -0.855  13.369  1.00  0.00     0.057 A 
ATOM     89  C   UNL     1     -13.841   0.528  13.193  1.00  0.00     0.134 A 
ATOM     90  C   UNL     1     -14.529  -1.460  14.337  1.00  0.00     0.134 A 
ATOM     91  F   UNL     1     -13.086   1.173  12.291  1.00  0.00    -0.206 F 
ATOM     92  C   UNL     1     -14.753   1.278  13.936  1.00  0.00     0.040 A 
ATOM     93  C   UNL     1     -15.469  -0.726  15.062  1.00  0.00     0.040 A 
ATOM     94  F   UNL     1     -14.470  -2.784  14.544  1.00  0.00    -0.206 F 
ATOM     95  C   UNL     1     -15.581   0.649  14.863  1.00  0.00     0.006 A 
ENDBRANCH  71  88
ENDBRANCH  45  46
ENDBRANCH  37  40
ENDBRANCH  35  36
ENDBRANCH  34  35
ENDBRANCH  33  34
ENDBRANCH  32  33
ENDBRANCH   1  32
TORSDOF 18
