REMARK SMILES CCOc1ccc(NC(=O)[C@@H]2[C@@H](C(=O)NCCCCCCNC(=O)c3ccc(-c4c5nc(c(-c6c(F)cccc6F)c6ccc([nH]6)c(-c6c(F)cccc6F)c6nc(c(-c7c(F)cccc7F)c7ccc4[nH]7)C=C6)C=C5)cc3)[C@H]3C=C[C@@H]2C3)cc1
REMARK SMILES IDX 17 1 16 2 15 3 13 4 14 5 12 7 11 8 82 9 79 10 81 11 83 12
REMARK SMILES IDX 80 13 9 14 8 15 10 17 7 18 4 19 5 20 85 21 6 22 84 23 3 24
REMARK SMILES IDX 2 25 1 26 18 27 19 28 20 29 21 30 22 31 23 32 24 34 25 35
REMARK SMILES IDX 26 36 78 37 27 38 77 39 28 40 29 41 30 42 71 43 31 44 76 45
REMARK SMILES IDX 70 46 72 47 32 48 75 49 69 50 68 51 33 53 59 54 42 55 58 56
REMARK SMILES IDX 43 57 46 58 57 59 73 60 44 61 45 62 56 64 74 65 47 66 34 67
REMARK SMILES IDX 35 68 40 69 36 70 37 71 39 72 41 73 38 74 60 75 61 76 66 77
REMARK SMILES IDX 62 78 63 79 65 80 67 81 64 82 48 83 49 84 54 85 50 86 51 87
REMARK SMILES IDX 53 88 55 89 52 90
REMARK H PARENT 15 6 8 16 22 33 72 52 46 63
REMARK Flexibility Score: inf
ROOT
ATOM      1  C   UNL     1       3.912  10.077   0.259  1.00  0.00     0.021 C 
ENDROOT
BRANCH   1   2
ATOM      2  C   UNL     1       3.909   8.604  -0.163  1.00  0.00     0.116 C 
BRANCH   2   3
ATOM      3  N   UNL     1       4.761   8.409  -1.314  1.00  0.00    -0.356 N 
ATOM      4  C   UNL     1       6.033   7.984  -1.473  1.00  0.00     0.224 C 
ATOM      5  O   UNL     1       6.481   8.102  -2.623  1.00  0.00    -0.275 OA
ATOM      6  H   UNL     1       4.320   8.634  -2.165  1.00  0.00     0.163 HD
BRANCH   4   7
ATOM      7  C   UNL     1       6.909   7.331  -0.411  1.00  0.00     0.098 C 
ATOM      8  C   UNL     1       6.338   6.024   0.211  1.00  0.00     0.099 C 
ATOM      9  C   UNL     1       6.833   6.128   1.683  1.00  0.00     0.025 C 
ATOM     10  C   UNL     1       7.420   8.120   0.820  1.00  0.00     0.025 C 
ATOM     11  C   UNL     1       6.010   7.173   2.389  1.00  0.00    -0.027 C 
ATOM     12  C   UNL     1       8.126   6.961   1.549  1.00  0.00     0.017 C 
ATOM     13  C   UNL     1       6.371   8.362   1.881  1.00  0.00    -0.027 C 
BRANCH   8  14
ATOM     14  C   UNL     1       6.925   4.761  -0.386  1.00  0.00     0.228 C 
ATOM     15  N   UNL     1       6.216   3.608  -0.528  1.00  0.00    -0.326 N 
ATOM     16  H   UNL     1       6.771   2.875  -0.881  1.00  0.00     0.169 HD
ATOM     17  O   UNL     1       8.107   4.717  -0.747  1.00  0.00    -0.274 OA
BRANCH  15  18
ATOM     18  C   UNL     1       4.891   3.202  -0.296  1.00  0.00     0.041 A 
ATOM     19  C   UNL     1       2.239   2.282  -0.207  1.00  0.00     0.119 A 
ATOM     20  C   UNL     1       2.596   3.448   0.460  1.00  0.00     0.048 A 
ATOM     21  C   UNL     1       3.199   1.544  -0.884  1.00  0.00     0.048 A 
ATOM     22  C   UNL     1       3.927   3.890   0.439  1.00  0.00     0.030 A 
ATOM     23  C   UNL     1       4.521   1.994  -0.911  1.00  0.00     0.030 A 
BRANCH  19  24
ATOM     24  O   UNL     1       0.922   1.939  -0.299  1.00  0.00    -0.494 OA
BRANCH  24  25
ATOM     25  C   UNL     1       0.531   0.985   0.694  1.00  0.00     0.226 C 
ATOM     26  C   UNL     1       0.623  -0.430   0.147  1.00  0.00     0.049 C 
ENDBRANCH  24  25
ENDBRANCH  19  24
ENDBRANCH  15  18
ENDBRANCH   8  14
ENDBRANCH   4   7
ENDBRANCH   2   3
ENDBRANCH   1   2
BRANCH   1  27
ATOM     27  C   UNL     1       2.630  10.817  -0.133  1.00  0.00     0.002 C 
BRANCH  27  28
ATOM     28  C   UNL     1       1.385  10.372   0.644  1.00  0.00     0.002 C 
BRANCH  28  29
ATOM     29  C   UNL     1       1.464  10.543   2.165  1.00  0.00     0.021 C 
BRANCH  29  30
ATOM     30  C   UNL     1       1.742  11.968   2.639  1.00  0.00     0.116 C 
BRANCH  30  31
ATOM     31  N   UNL     1       0.707  12.894   2.208  1.00  0.00    -0.352 N 
ATOM     32  C   UNL     1      -0.117  13.701   2.949  1.00  0.00     0.251 C 
ATOM     33  H   UNL     1       0.578  12.950   1.233  1.00  0.00     0.163 HD
ATOM     34  O   UNL     1      -1.082  14.242   2.419  1.00  0.00    -0.269 OA
BRANCH  32  35
ATOM     35  C   UNL     1       0.148  13.921   4.387  1.00  0.00     0.039 A 
ATOM     36  C   UNL     1      -0.931  13.936   5.276  1.00  0.00     0.014 A 
ATOM     37  C   UNL     1       1.443  14.162   4.854  1.00  0.00     0.014 A 
ATOM     38  C   UNL     1      -0.706  14.147   6.638  1.00  0.00     0.010 A 
ATOM     39  C   UNL     1       1.674  14.306   6.220  1.00  0.00     0.010 A 
ATOM     40  C   UNL     1       0.601  14.310   7.124  1.00  0.00    -0.014 A 
BRANCH  40  41
ATOM     41  C   UNL     1       0.861  14.500   8.573  1.00  0.00     0.031 A 
ATOM     42  C   UNL     1       1.430  15.798   9.076  1.00  0.00     0.074 A 
ATOM     43  C   UNL     1       0.636  13.483   9.427  1.00  0.00     0.049 A 
ATOM     44  N   UNL     1       1.772  16.133  10.295  1.00  0.00    -0.248 NA
ATOM     45  C   UNL     1       1.670  16.849   8.075  1.00  0.00     0.031 C 
ATOM     46  C   UNL     1       0.130  12.161   9.055  1.00  0.00     0.029 A 
ATOM     47  N   UNL     1       0.814  13.401  10.785  1.00  0.00    -0.354 N 
ATOM     48  C   UNL     1       2.282  17.422  10.203  1.00  0.00     0.074 A 
ATOM     49  C   UNL     1       2.249  17.791   8.805  1.00  0.00     0.031 C 
ATOM     50  C   UNL     1       0.015  11.407  10.160  1.00  0.00     0.029 A 
ATOM     51  C   UNL     1       0.471  12.179  11.312  1.00  0.00     0.049 A 
ATOM     52  H   UNL     1       1.154  14.146  11.331  1.00  0.00     0.167 HD
ATOM     53  C   UNL     1       2.719  18.232  11.197  1.00  0.00     0.037 A 
ATOM     54  C   UNL     1       0.523  11.732  12.581  1.00  0.00     0.037 A 
ATOM     55  C   UNL     1       2.719  17.874  12.591  1.00  0.00     0.049 A 
ATOM     56  C   UNL     1       1.006  12.653  13.665  1.00  0.00     0.074 A 
ATOM     57  C   UNL     1       3.074  18.650  13.681  1.00  0.00     0.029 A 
ATOM     58  N   UNL     1       2.347  16.634  13.087  1.00  0.00    -0.354 N 
ATOM     59  N   UNL     1       1.416  13.895  13.574  1.00  0.00    -0.248 NA
ATOM     60  C   UNL     1       1.029  12.112  15.032  1.00  0.00     0.031 C 
ATOM     61  C   UNL     1       2.956  17.866  14.833  1.00  0.00     0.029 A 
ATOM     62  C   UNL     1       2.484  16.616  14.465  1.00  0.00     0.049 A 
ATOM     63  H   UNL     1       2.031  15.878  12.540  1.00  0.00     0.167 HD
ATOM     64  C   UNL     1       1.715  14.293  14.870  1.00  0.00     0.074 A 
ATOM     65  C   UNL     1       1.429  13.165  15.731  1.00  0.00     0.031 C 
ATOM     66  C   UNL     1       2.184  15.487  15.308  1.00  0.00     0.037 A 
BRANCH  53  67
ATOM     67  C   UNL     1       3.230  19.590  10.812  1.00  0.00     0.057 A 
ATOM     68  C   UNL     1       2.372  20.602  10.362  1.00  0.00     0.134 A 
ATOM     69  C   UNL     1       4.590  19.901  10.929  1.00  0.00     0.134 A 
ATOM     70  F   UNL     1       1.059  20.366  10.217  1.00  0.00    -0.206 F 
ATOM     71  C   UNL     1       2.852  21.867  10.019  1.00  0.00     0.040 A 
ATOM     72  C   UNL     1       5.079  21.170  10.613  1.00  0.00     0.040 A 
ATOM     73  F   UNL     1       5.466  18.980  11.359  1.00  0.00    -0.206 F 
ATOM     74  C   UNL     1       4.209  22.156  10.151  1.00  0.00     0.006 A 
ENDBRANCH  53  67
BRANCH  54  75
ATOM     75  C   UNL     1       0.078  10.353  12.902  1.00  0.00     0.057 A 
ATOM     76  C   UNL     1      -1.102  10.126  13.621  1.00  0.00     0.134 A 
ATOM     77  C   UNL     1       0.820   9.233  12.511  1.00  0.00     0.134 A 
ATOM     78  F   UNL     1      -1.846  11.161  14.039  1.00  0.00    -0.206 F 
ATOM     79  C   UNL     1      -1.517   8.837  13.959  1.00  0.00     0.040 A 
ATOM     80  C   UNL     1       0.405   7.936  12.820  1.00  0.00     0.040 A 
ATOM     81  F   UNL     1       1.955   9.382  11.812  1.00  0.00    -0.206 F 
ATOM     82  C   UNL     1      -0.763   7.737  13.554  1.00  0.00     0.006 A 
ENDBRANCH  54  75
BRANCH  66  83
ATOM     83  C   UNL     1       2.381  15.645  16.786  1.00  0.00     0.057 A 
ATOM     84  C   UNL     1       3.436  15.021  17.463  1.00  0.00     0.134 A 
ATOM     85  C   UNL     1       1.525  16.464  17.534  1.00  0.00     0.134 A 
ATOM     86  F   UNL     1       4.282  14.213  16.806  1.00  0.00    -0.206 F 
ATOM     87  C   UNL     1       3.620  15.188  18.836  1.00  0.00     0.040 A 
ATOM     88  C   UNL     1       1.714  16.659  18.903  1.00  0.00     0.040 A 
ATOM     89  F   UNL     1       0.500  17.097  16.944  1.00  0.00    -0.206 F 
ATOM     90  C   UNL     1       2.761  16.015  19.559  1.00  0.00     0.006 A 
ENDBRANCH  66  83
ENDBRANCH  40  41
ENDBRANCH  32  35
ENDBRANCH  30  31
ENDBRANCH  29  30
ENDBRANCH  28  29
ENDBRANCH  27  28
ENDBRANCH   1  27
TORSDOF 17
