REMARK SMILES CC[NH+]1CC[NH+]([C@@H]2CC(=O)N(c3ccc(C(=O)NCCCCCCNC(=O)c4ccc(-c5c6nc(c(-c7c(F)cccc7F)c7ccc([nH]7)c(-c7c(F)cccc7F)c7nc(c(-c8c(F)cccc8F)c8ccc5[nH]8)C=C7)C=C6)cc4)cc3)C2=O)CC1
REMARK SMILES IDX 21 1 20 2 19 3 18 4 16 5 17 6 15 8 12 9 13 10 83 11 14 12
REMARK SMILES IDX 82 13 11 14 7 15 8 16 84 17 9 18 85 19 10 20 6 21 3 22 4 23
REMARK SMILES IDX 87 24 5 26 86 27 2 29 1 30 22 31 23 32 24 33 25 34 26 35
REMARK SMILES IDX 27 37 28 38 29 39 81 40 30 41 80 42 31 43 32 44 33 45 74 46
REMARK SMILES IDX 34 47 79 48 73 49 75 50 35 51 78 52 72 53 71 54 36 56 62 57
REMARK SMILES IDX 45 58 61 59 46 60 49 61 60 62 76 63 47 64 48 65 59 67 77 68
REMARK SMILES IDX 50 69 37 70 38 71 43 72 39 73 40 74 42 75 44 76 41 77 63 78
REMARK SMILES IDX 64 79 69 80 65 81 66 82 68 83 70 84 67 85 51 86 52 87 57 88
REMARK SMILES IDX 53 89 54 90 56 91 58 92 55 93
REMARK H PARENT 18 7 3 25 6 28 25 36 75 55 49 66
REMARK Flexibility Score: inf
ROOT
ATOM      1  C   UNL     1      12.839   7.823  -1.686  1.00  0.00     0.002 C 
ENDROOT
BRANCH   1   2
ATOM      2  C   UNL     1      11.356   7.491  -1.494  1.00  0.00     0.021 C 
BRANCH   2   3
ATOM      3  C   UNL     1      11.027   6.042  -1.869  1.00  0.00     0.116 C 
BRANCH   3   4
ATOM      4  N   UNL     1      11.372   5.163  -0.769  1.00  0.00    -0.352 N 
ATOM      5  C   UNL     1      10.628   4.618   0.244  1.00  0.00     0.251 C 
ATOM      6  O   UNL     1      11.212   3.915   1.069  1.00  0.00    -0.269 OA
ATOM      7  H   UNL     1      12.323   4.909  -0.746  1.00  0.00     0.163 HD
BRANCH   5   8
ATOM      8  C   UNL     1       9.152   4.788   0.350  1.00  0.00     0.039 A 
ATOM      9  C   UNL     1       6.347   4.884   0.485  1.00  0.00     0.052 A 
ATOM     10  C   UNL     1       7.042   3.870   1.149  1.00  0.00     0.027 A 
ATOM     11  C   UNL     1       7.055   5.873  -0.195  1.00  0.00     0.027 A 
ATOM     12  C   UNL     1       8.436   3.804   1.048  1.00  0.00     0.016 A 
ATOM     13  C   UNL     1       8.446   5.862  -0.194  1.00  0.00     0.016 A 
BRANCH   9  14
ATOM     14  N   UNL     1       4.947   4.960   0.523  1.00  0.00    -0.245 N 
ATOM     15  C   UNL     1       2.748   5.028   1.331  1.00  0.00     0.285 C 
ATOM     16  C   UNL     1       2.752   5.347  -0.161  1.00  0.00     0.176 C 
ATOM     17  C   UNL     1       4.227   4.945   1.692  1.00  0.00     0.292 C 
ATOM     18  C   UNL     1       4.175   5.188  -0.584  1.00  0.00     0.240 C 
ATOM     19  O   UNL     1       4.668   4.901   2.832  1.00  0.00    -0.267 OA
ATOM     20  O   UNL     1       4.534   5.260  -1.754  1.00  0.00    -0.274 OA
BRANCH  15  21
ATOM     21  N   UNL     1       2.018   3.856   1.845  1.00  0.00    -0.315 N 
ATOM     22  N   UNL     1       0.744   1.921  -0.085  1.00  0.00    -0.326 N 
ATOM     23  C   UNL     1       0.102   3.205   0.274  1.00  0.00     0.324 C 
ATOM     24  C   UNL     1       2.196   1.976   0.166  1.00  0.00     0.324 C 
ATOM     25  H   UNL     1       0.622   1.762  -1.085  1.00  0.00     0.348 HD
ATOM     26  C   UNL     1       0.570   3.867   1.594  1.00  0.00     0.325 C 
ATOM     27  C   UNL     1       2.583   2.534   1.547  1.00  0.00     0.325 C 
ATOM     28  H   UNL     1       2.162   3.991   2.846  1.00  0.00     0.349 HD
BRANCH  22  29
ATOM     29  C   UNL     1       0.091   0.797   0.602  1.00  0.00     0.259 C 
ATOM     30  C   UNL     1       0.502  -0.553   0.019  1.00  0.00     0.071 C 
ENDBRANCH  22  29
ENDBRANCH  15  21
ENDBRANCH   9  14
ENDBRANCH   5   8
ENDBRANCH   3   4
ENDBRANCH   2   3
ENDBRANCH   1   2
BRANCH   1  31
ATOM     31  C   UNL     1      13.318   7.728  -3.140  1.00  0.00     0.002 C 
BRANCH  31  32
ATOM     32  C   UNL     1      12.537   8.603  -4.123  1.00  0.00     0.021 C 
BRANCH  32  33
ATOM     33  C   UNL     1      12.632  10.095  -3.824  1.00  0.00     0.116 C 
BRANCH  33  34
ATOM     34  N   UNL     1      14.003  10.571  -3.938  1.00  0.00    -0.352 N 
ATOM     35  C   UNL     1      14.531  11.500  -4.796  1.00  0.00     0.251 C 
ATOM     36  H   UNL     1      14.643  10.167  -3.308  1.00  0.00     0.163 HD
ATOM     37  O   UNL     1      15.744  11.585  -4.951  1.00  0.00    -0.269 OA
BRANCH  35  38
ATOM     38  C   UNL     1      13.624  12.394  -5.543  1.00  0.00     0.039 A 
ATOM     39  C   UNL     1      13.859  12.618  -6.901  1.00  0.00     0.014 A 
ATOM     40  C   UNL     1      12.545  13.006  -4.899  1.00  0.00     0.014 A 
ATOM     41  C   UNL     1      12.969  13.406  -7.630  1.00  0.00     0.010 A 
ATOM     42  C   UNL     1      11.618  13.727  -5.643  1.00  0.00     0.010 A 
ATOM     43  C   UNL     1      11.820  13.932  -7.015  1.00  0.00    -0.014 A 
BRANCH  43  44
ATOM     44  C   UNL     1      10.800  14.667  -7.801  1.00  0.00     0.031 A 
ATOM     45  C   UNL     1      10.506  16.109  -7.510  1.00  0.00     0.074 A 
ATOM     46  C   UNL     1      10.081  14.004  -8.726  1.00  0.00     0.049 A 
ATOM     47  N   UNL     1       9.605  16.893  -8.045  1.00  0.00    -0.248 NA
ATOM     48  C   UNL     1      11.310  16.747  -6.456  1.00  0.00     0.031 C 
ATOM     49  C   UNL     1      10.232  12.585  -9.055  1.00  0.00     0.029 A 
ATOM     50  N   UNL     1       9.066  14.429  -9.545  1.00  0.00    -0.354 N 
ATOM     51  C   UNL     1       9.729  18.112  -7.390  1.00  0.00     0.074 A 
ATOM     52  C   UNL     1      10.749  17.944  -6.377  1.00  0.00     0.031 C 
ATOM     53  C   UNL     1       9.352  12.260 -10.014  1.00  0.00     0.029 A 
ATOM     54  C   UNL     1       8.546  13.434 -10.336  1.00  0.00     0.049 A 
ATOM     55  H   UNL     1       8.741  15.358  -9.564  1.00  0.00     0.167 HD
ATOM     56  C   UNL     1       9.067  19.270  -7.626  1.00  0.00     0.037 A 
ATOM     57  C   UNL     1       7.522  13.456 -11.209  1.00  0.00     0.037 A 
ATOM     58  C   UNL     1       8.052  19.427  -8.637  1.00  0.00     0.049 A 
ATOM     59  C   UNL     1       6.788  14.745 -11.445  1.00  0.00     0.074 A 
ATOM     60  C   UNL     1       7.370  20.573  -9.003  1.00  0.00     0.029 A 
ATOM     61  N   UNL     1       7.562  18.399  -9.431  1.00  0.00    -0.354 N 
ATOM     62  N   UNL     1       6.974  15.915 -10.883  1.00  0.00    -0.248 NA
ATOM     63  C   UNL     1       5.707  14.719 -12.439  1.00  0.00     0.031 C 
ATOM     64  C   UNL     1       6.423  20.227  -9.973  1.00  0.00     0.029 A 
ATOM     65  C   UNL     1       6.556  18.877 -10.257  1.00  0.00     0.049 A 
ATOM     66  H   UNL     1       7.881  17.468  -9.411  1.00  0.00     0.167 HD
ATOM     67  C   UNL     1       6.045  16.768 -11.462  1.00  0.00     0.074 A 
ATOM     68  C   UNL     1       5.311  15.985 -12.435  1.00  0.00     0.031 C 
ATOM     69  C   UNL     1       5.820  18.081 -11.210  1.00  0.00     0.037 A 
BRANCH  56  70
ATOM     70  C   UNL     1       9.414  20.449  -6.761  1.00  0.00     0.057 A 
ATOM     71  C   UNL     1      10.668  21.073  -6.822  1.00  0.00     0.134 A 
ATOM     72  C   UNL     1       8.482  20.969  -5.854  1.00  0.00     0.134 A 
ATOM     73  F   UNL     1      11.612  20.622  -7.662  1.00  0.00    -0.206 F 
ATOM     74  C   UNL     1      10.997  22.140  -5.984  1.00  0.00     0.040 A 
ATOM     75  C   UNL     1       8.787  22.057  -5.034  1.00  0.00     0.040 A 
ATOM     76  F   UNL     1       7.259  20.428  -5.747  1.00  0.00    -0.206 F 
ATOM     77  C   UNL     1      10.052  22.638  -5.089  1.00  0.00     0.006 A 
ENDBRANCH  56  70
BRANCH  57  78
ATOM     78  C   UNL     1       7.143  12.209 -11.919  1.00  0.00     0.057 A 
ATOM     79  C   UNL     1       7.393  12.047 -13.286  1.00  0.00     0.134 A 
ATOM     80  C   UNL     1       6.557  11.135 -11.238  1.00  0.00     0.134 A 
ATOM     81  F   UNL     1       7.938  13.045 -13.996  1.00  0.00    -0.206 F 
ATOM     82  C   UNL     1       7.068  10.864 -13.952  1.00  0.00     0.040 A 
ATOM     83  C   UNL     1       6.252   9.937 -11.885  1.00  0.00     0.040 A 
ATOM     84  F   UNL     1       6.303  11.224  -9.924  1.00  0.00    -0.206 F 
ATOM     85  C   UNL     1       6.504   9.801 -13.248  1.00  0.00     0.006 A 
ENDBRANCH  57  78
BRANCH  69  86
ATOM     86  C   UNL     1       4.738  18.757 -12.002  1.00  0.00     0.057 A 
ATOM     87  C   UNL     1       3.382  18.483 -11.786  1.00  0.00     0.134 A 
ATOM     88  C   UNL     1       5.055  19.725 -12.965  1.00  0.00     0.134 A 
ATOM     89  F   UNL     1       3.010  17.556 -10.889  1.00  0.00    -0.206 F 
ATOM     90  C   UNL     1       2.381  19.130 -12.512  1.00  0.00     0.040 A 
ATOM     91  C   UNL     1       4.062  20.401 -13.676  1.00  0.00     0.040 A 
ATOM     92  F   UNL     1       6.333  20.042 -13.217  1.00  0.00    -0.206 F 
ATOM     93  C   UNL     1       2.720  20.099 -13.454  1.00  0.00     0.006 A 
ENDBRANCH  69  86
ENDBRANCH  43  44
ENDBRANCH  35  38
ENDBRANCH  33  34
ENDBRANCH  32  33
ENDBRANCH  31  32
ENDBRANCH   1  31
TORSDOF 16
