REMARK SMILES O=C(Cn1cc(C(=O)C(F)(F)F)c2ccccc21)NCCCCCCNC(=O)c1ccc(-c2c3nc(c(-c4c(F)cccc4F)c4ccc([nH]4)c(-c4c(F)cccc4F)c4nc(c(-c5c(F)cccc5F)c5ccc2[nH]5)C=C4)C=C3)cc1
REMARK SMILES IDX 22 1 21 2 20 3 19 4 1 5 2 6 3 8 4 9 5 10 18 11 6 12 13 13
REMARK SMILES IDX 17 14 14 15 16 16 15 17 7 18 8 19 9 20 10 21 11 22 12 23
REMARK SMILES IDX 23 24 24 25 25 26 26 27 27 28 28 30 29 31 30 32 82 33 31 34
REMARK SMILES IDX 81 35 32 36 33 37 34 38 75 39 35 40 80 41 74 42 76 43 36 44
REMARK SMILES IDX 79 45 73 46 72 47 37 49 63 50 46 51 62 52 47 53 50 54 61 55
REMARK SMILES IDX 77 56 48 57 49 58 60 60 78 61 51 62 38 63 39 64 44 65 40 66
REMARK SMILES IDX 41 67 43 68 45 69 42 70 64 71 65 72 70 73 66 74 67 75 69 76
REMARK SMILES IDX 71 77 68 78 52 79 53 80 58 81 54 82 55 83 57 84 59 85 56 86
REMARK H PARENT 19 7 26 29 76 48 50 59
REMARK Flexibility Score: inf
ROOT
ATOM      1  C   UNL     1       4.082   1.398  -3.595  1.00  0.00     0.002 C 
ENDROOT
BRANCH   1   2
ATOM      2  C   UNL     1       2.607   1.392  -3.172  1.00  0.00     0.021 C 
BRANCH   2   3
ATOM      3  C   UNL     1       2.154   0.153  -2.398  1.00  0.00     0.116 C 
BRANCH   3   4
ATOM      4  N   UNL     1       2.815   0.031  -1.110  1.00  0.00    -0.355 N 
ATOM      5  O   UNL     1       0.912   0.247   0.152  1.00  0.00    -0.273 OA
ATOM      6  C   UNL     1       2.116   0.060   0.085  1.00  0.00     0.239 C 
ATOM      7  H   UNL     1       3.793  -0.075  -1.086  1.00  0.00     0.163 HD
BRANCH   6   8
ATOM      8  C   UNL     1       2.966  -0.067   1.338  1.00  0.00     0.222 C 
BRANCH   8   9
ATOM      9  N   UNL     1       3.817  -1.250   1.352  1.00  0.00    -0.337 N 
ATOM     10  C   UNL     1       5.189  -1.214   1.402  1.00  0.00     0.099 A 
ATOM     11  C   UNL     1       3.377  -2.555   1.367  1.00  0.00     0.049 A 
ATOM     12  C   UNL     1       5.668  -2.514   1.433  1.00  0.00     0.053 A 
ATOM     13  C   UNL     1       4.514  -3.369   1.405  1.00  0.00     0.011 A 
ATOM     14  C   UNL     1       2.077  -3.088   1.350  1.00  0.00     0.027 A 
ATOM     15  C   UNL     1       4.335  -4.770   1.417  1.00  0.00     0.011 A 
ATOM     16  C   UNL     1       1.933  -4.478   1.361  1.00  0.00     0.002 A 
ATOM     17  C   UNL     1       3.046  -5.311   1.393  1.00  0.00     0.001 A 
BRANCH  12  18
ATOM     18  C   UNL     1       7.080  -2.924   1.494  1.00  0.00     0.268 C 
ATOM     19  O   UNL     1       7.386  -4.119   1.514  1.00  0.00    -0.284 OA
BRANCH  18  20
ATOM     20  C   UNL     1       8.139  -1.823   1.528  1.00  0.00     0.454 C 
ATOM     21  F   UNL     1       8.075  -1.004   0.437  1.00  0.00    -0.163 F 
ATOM     22  F   UNL     1       8.012  -1.007   2.615  1.00  0.00    -0.163 F 
ATOM     23  F   UNL     1       9.415  -2.300   1.563  1.00  0.00    -0.163 F 
ENDBRANCH  18  20
ENDBRANCH  12  18
ENDBRANCH   8   9
ENDBRANCH   6   8
ENDBRANCH   3   4
ENDBRANCH   2   3
ENDBRANCH   1   2
BRANCH   1  24
ATOM     24  C   UNL     1       4.522   0.262  -4.526  1.00  0.00     0.002 C 
BRANCH  24  25
ATOM     25  C   UNL     1       3.813   0.175  -5.887  1.00  0.00     0.021 C 
BRANCH  25  26
ATOM     26  C   UNL     1       3.958   1.404  -6.789  1.00  0.00     0.116 C 
BRANCH  26  27
ATOM     27  N   UNL     1       5.333   1.782  -7.053  1.00  0.00    -0.352 N 
ATOM     28  C   UNL     1       6.253   1.536  -8.036  1.00  0.00     0.251 C 
ATOM     29  H   UNL     1       5.697   2.362  -6.346  1.00  0.00     0.163 HD
ATOM     30  O   UNL     1       7.289   2.206  -7.969  1.00  0.00    -0.269 OA
BRANCH  28  31
ATOM     31  C   UNL     1       6.138   0.529  -9.130  1.00  0.00     0.039 A 
ATOM     32  C   UNL     1       5.071  -0.342  -9.331  1.00  0.00     0.014 A 
ATOM     33  C   UNL     1       7.247   0.428 -10.003  1.00  0.00     0.014 A 
ATOM     34  C   UNL     1       5.133  -1.305 -10.343  1.00  0.00     0.010 A 
ATOM     35  C   UNL     1       7.312  -0.532 -11.016  1.00  0.00     0.010 A 
ATOM     36  C   UNL     1       6.260  -1.421 -11.178  1.00  0.00    -0.014 A 
BRANCH  36  37
ATOM     37  C   UNL     1       6.196  -2.384 -12.285  1.00  0.00     0.031 A 
ATOM     38  C   UNL     1       5.037  -2.174 -13.192  1.00  0.00     0.074 A 
ATOM     39  C   UNL     1       7.075  -3.365 -12.584  1.00  0.00     0.049 A 
ATOM     40  N   UNL     1       3.963  -2.889 -13.256  1.00  0.00    -0.248 NA
ATOM     41  C   UNL     1       5.013  -0.972 -14.036  1.00  0.00     0.031 C 
ATOM     42  C   UNL     1       8.408  -3.587 -12.027  1.00  0.00     0.029 A 
ATOM     43  N   UNL     1       6.960  -4.367 -13.519  1.00  0.00    -0.354 N 
ATOM     44  C   UNL     1       3.207  -2.351 -14.293  1.00  0.00     0.074 A 
ATOM     45  C   UNL     1       3.824  -1.096 -14.633  1.00  0.00     0.031 C 
ATOM     46  C   UNL     1       9.050  -4.532 -12.754  1.00  0.00     0.029 A 
ATOM     47  C   UNL     1       8.128  -5.091 -13.732  1.00  0.00     0.049 A 
ATOM     48  H   UNL     1       6.121  -4.555 -13.999  1.00  0.00     0.167 HD
ATOM     49  C   UNL     1       2.295  -3.120 -14.947  1.00  0.00     0.037 A 
ATOM     50  C   UNL     1       8.332  -6.084 -14.635  1.00  0.00     0.037 A 
ATOM     51  C   UNL     1       1.993  -4.316 -14.197  1.00  0.00     0.049 A 
ATOM     52  C   UNL     1       7.021  -6.684 -14.960  1.00  0.00     0.074 A 
ATOM     53  C   UNL     1       1.385  -4.636 -13.002  1.00  0.00     0.029 A 
ATOM     54  N   UNL     1       2.691  -5.422 -14.594  1.00  0.00    -0.354 N 
ATOM     55  N   UNL     1       6.340  -7.432 -14.139  1.00  0.00    -0.248 NA
ATOM     56  C   UNL     1       6.303  -6.257 -16.153  1.00  0.00     0.031 C 
ATOM     57  C   UNL     1       1.991  -5.857 -12.571  1.00  0.00     0.029 A 
ATOM     58  C   UNL     1       2.923  -6.248 -13.531  1.00  0.00     0.049 A 
ATOM     59  H   UNL     1       2.986  -5.599 -15.517  1.00  0.00     0.167 HD
ATOM     60  C   UNL     1       5.024  -7.180 -14.465  1.00  0.00     0.074 A 
ATOM     61  C   UNL     1       5.069  -6.638 -15.816  1.00  0.00     0.031 C 
ATOM     62  C   UNL     1       4.072  -7.125 -13.488  1.00  0.00     0.037 A 
BRANCH  49  63
ATOM     63  C   UNL     1       2.076  -3.087 -16.452  1.00  0.00     0.057 A 
ATOM     64  C   UNL     1       2.999  -2.561 -17.377  1.00  0.00     0.134 A 
ATOM     65  C   UNL     1       1.102  -3.943 -17.008  1.00  0.00     0.134 A 
ATOM     66  F   UNL     1       4.013  -1.768 -17.014  1.00  0.00    -0.206 F 
ATOM     67  C   UNL     1       2.998  -2.910 -18.732  1.00  0.00     0.040 A 
ATOM     68  C   UNL     1       1.123  -4.336 -18.352  1.00  0.00     0.040 A 
ATOM     69  F   UNL     1       0.162  -4.509 -16.236  1.00  0.00    -0.206 F 
ATOM     70  C   UNL     1       2.085  -3.832 -19.216  1.00  0.00     0.006 A 
ENDBRANCH  49  63
BRANCH  50  71
ATOM     71  C   UNL     1       9.560  -6.524 -15.338  1.00  0.00     0.057 A 
ATOM     72  C   UNL     1      10.584  -5.616 -15.646  1.00  0.00     0.134 A 
ATOM     73  C   UNL     1       9.626  -7.768 -15.991  1.00  0.00     0.134 A 
ATOM     74  F   UNL     1      10.588  -4.381 -15.124  1.00  0.00    -0.206 F 
ATOM     75  C   UNL     1      11.588  -5.907 -16.576  1.00  0.00     0.040 A 
ATOM     76  C   UNL     1      10.622  -8.070 -16.929  1.00  0.00     0.040 A 
ATOM     77  F   UNL     1       8.682  -8.699 -15.790  1.00  0.00    -0.206 F 
ATOM     78  C   UNL     1      11.598  -7.130 -17.237  1.00  0.00     0.006 A 
ENDBRANCH  50  71
BRANCH  62  79
ATOM     79  C   UNL     1       4.357  -7.872 -12.220  1.00  0.00     0.057 A 
ATOM     80  C   UNL     1       3.481  -8.900 -11.851  1.00  0.00     0.134 A 
ATOM     81  C   UNL     1       5.425  -7.604 -11.353  1.00  0.00     0.134 A 
ATOM     82  F   UNL     1       2.409  -9.181 -12.610  1.00  0.00    -0.206 F 
ATOM     83  C   UNL     1       3.671  -9.650 -10.690  1.00  0.00     0.040 A 
ATOM     84  C   UNL     1       5.650  -8.376 -10.209  1.00  0.00     0.040 A 
ATOM     85  F   UNL     1       6.262  -6.580 -11.572  1.00  0.00    -0.206 F 
ATOM     86  C   UNL     1       4.771  -9.402  -9.875  1.00  0.00     0.006 A 
ENDBRANCH  62  79
ENDBRANCH  36  37
ENDBRANCH  28  31
ENDBRANCH  26  27
ENDBRANCH  25  26
ENDBRANCH  24  25
ENDBRANCH   1  24
TORSDOF 16
