REMARK SMILES Nc1nccc(N2CCC[C@@](Cc3ccc(F)cc3F)(C(=O)NCCCCCCNC(=O)c3ccc(-c4c5nc(c(-c6c(F)cccc6F)c6ccc([nH]6)c(-c6c(F)cccc6F)c6nc(c(-c7c(F)cccc7F)c7ccc4[nH]7)C=C6)C=C5)cc3)C2)n1
REMARK SMILES IDX 26 1 25 2 24 3 23 4 21 5 22 6 11 8 7 9 8 10 87 11 9 12 10 13
REMARK SMILES IDX 6 14 2 15 3 16 88 17 4 18 5 19 1 20 12 23 13 24 14 25 19 26
REMARK SMILES IDX 15 27 18 28 20 29 16 30 17 31 27 32 28 33 29 34 30 35 31 36
REMARK SMILES IDX 32 38 33 39 34 40 86 41 35 42 85 43 36 44 37 45 38 46 79 47
REMARK SMILES IDX 39 48 84 49 78 50 80 51 40 52 83 53 77 54 76 55 41 57 67 58
REMARK SMILES IDX 50 59 66 60 51 61 54 62 65 63 81 64 52 65 53 66 64 68 82 69
REMARK SMILES IDX 55 70 42 71 43 72 48 73 44 74 45 75 47 76 49 77 46 78 68 79
REMARK SMILES IDX 69 80 74 81 70 82 71 83 73 84 75 85 72 86 56 87 57 88 62 89
REMARK SMILES IDX 58 90 59 91 61 92 63 93 60 94
REMARK H PARENT 23 7 1 21 1 22 30 37 80 56 54 67
REMARK Flexibility Score: inf
ROOT
ATOM      1  C   UNL     1       5.317  -8.139  -4.246  1.00  0.00     0.002 C 
ENDROOT
BRANCH   1   2
ATOM      2  C   UNL     1       5.331  -7.352  -2.932  1.00  0.00     0.021 C 
BRANCH   2   3
ATOM      3  C   UNL     1       4.850  -5.914  -3.058  1.00  0.00     0.116 C 
BRANCH   3   4
ATOM      4  N   UNL     1       3.415  -5.782  -3.161  1.00  0.00    -0.356 N 
ATOM      5  C   UNL     1       2.554  -4.833  -2.701  1.00  0.00     0.228 C 
ATOM      6  O   UNL     1       1.429  -4.863  -3.212  1.00  0.00    -0.274 OA
ATOM      7  H   UNL     1       2.979  -6.513  -3.655  1.00  0.00     0.163 HD
BRANCH   5   8
ATOM      8  C   UNL     1       2.920  -3.771  -1.638  1.00  0.00     0.071 C 
ATOM      9  N   UNL     1       1.798  -2.298  -0.019  1.00  0.00    -0.355 N 
ATOM     10  C   UNL     1       2.320  -2.890   1.196  1.00  0.00     0.118 C 
ATOM     11  C   UNL     1       1.539  -3.211  -1.129  1.00  0.00     0.135 C 
ATOM     12  C   UNL     1       3.664  -3.515   0.857  1.00  0.00     0.023 C 
ATOM     13  C   UNL     1       3.612  -4.404  -0.394  1.00  0.00     0.021 C 
BRANCH   9  14
ATOM     14  C   UNL     1       1.064  -1.134   0.076  1.00  0.00     0.134 A 
ATOM     15  C   UNL     1      -0.922  -0.007  -0.007  1.00  0.00     0.221 A 
ATOM     16  N   UNL     1      -0.351   1.190   0.156  1.00  0.00    -0.222 NA
ATOM     17  N   UNL     1      -0.268  -1.171  -0.072  1.00  0.00    -0.196 NA
ATOM     18  C   UNL     1       0.984   1.196   0.280  1.00  0.00     0.119 A 
ATOM     19  C   UNL     1       1.742   0.054   0.267  1.00  0.00     0.067 A 
BRANCH  15  20
ATOM     20  N   UNL     1      -2.283  -0.041  -0.095  1.00  0.00    -0.368 N 
ATOM     21  H   UNL     1      -2.799   0.796  -0.051  1.00  0.00     0.159 HD
ATOM     22  H   UNL     1      -2.748  -0.902  -0.203  1.00  0.00     0.159 HD
ENDBRANCH  15  20
ENDBRANCH   9  14
BRANCH   8  23
ATOM     23  C   UNL     1       3.651  -2.542  -2.272  1.00  0.00     0.057 C 
BRANCH  23  24
ATOM     24  C   UNL     1       4.984  -2.703  -2.958  1.00  0.00    -0.011 A 
ATOM     25  C   UNL     1       5.051  -2.874  -4.351  1.00  0.00     0.010 A 
ATOM     26  C   UNL     1       6.182  -2.645  -2.235  1.00  0.00     0.129 A 
ATOM     27  C   UNL     1       6.287  -3.046  -4.980  1.00  0.00     0.040 A 
ATOM     28  C   UNL     1       7.415  -2.812  -2.854  1.00  0.00     0.078 A 
ATOM     29  F   UNL     1       6.155  -2.439  -0.912  1.00  0.00    -0.207 F 
ATOM     30  C   UNL     1       7.454  -3.024  -4.223  1.00  0.00     0.126 A 
ATOM     31  F   UNL     1       8.632  -3.230  -4.825  1.00  0.00    -0.207 F 
ENDBRANCH  23  24
ENDBRANCH   8  23
ENDBRANCH   5   8
ENDBRANCH   3   4
ENDBRANCH   2   3
ENDBRANCH   1   2
BRANCH   1  32
ATOM     32  C   UNL     1       6.005  -7.466  -5.443  1.00  0.00     0.002 C 
BRANCH  32  33
ATOM     33  C   UNL     1       7.422  -6.940  -5.195  1.00  0.00     0.021 C 
BRANCH  33  34
ATOM     34  C   UNL     1       8.427  -7.981  -4.720  1.00  0.00     0.116 C 
BRANCH  34  35
ATOM     35  N   UNL     1       8.597  -9.063  -5.674  1.00  0.00    -0.352 N 
ATOM     36  C   UNL     1       9.748  -9.618  -6.164  1.00  0.00     0.251 C 
ATOM     37  H   UNL     1       7.762  -9.454  -6.019  1.00  0.00     0.163 HD
ATOM     38  O   UNL     1       9.692 -10.422  -7.097  1.00  0.00    -0.269 OA
BRANCH  36  39
ATOM     39  C   UNL     1      11.061  -9.247  -5.597  1.00  0.00     0.039 A 
ATOM     40  C   UNL     1      12.134  -9.038  -6.468  1.00  0.00     0.014 A 
ATOM     41  C   UNL     1      11.248  -9.130  -4.216  1.00  0.00     0.014 A 
ATOM     42  C   UNL     1      13.380  -8.668  -5.958  1.00  0.00     0.010 A 
ATOM     43  C   UNL     1      12.469  -8.690  -3.715  1.00  0.00     0.010 A 
ATOM     44  C   UNL     1      13.550  -8.465  -4.580  1.00  0.00    -0.014 A 
BRANCH  44  45
ATOM     45  C   UNL     1      14.857  -8.032  -4.025  1.00  0.00     0.031 A 
ATOM     46  C   UNL     1      15.626  -8.940  -3.107  1.00  0.00     0.074 A 
ATOM     47  C   UNL     1      15.327  -6.804  -4.313  1.00  0.00     0.049 A 
ATOM     48  N   UNL     1      16.758  -8.721  -2.487  1.00  0.00    -0.248 NA
ATOM     49  C   UNL     1      15.034 -10.258  -2.829  1.00  0.00     0.031 C 
ATOM     50  C   UNL     1      14.653  -5.819  -5.161  1.00  0.00     0.029 A 
ATOM     51  N   UNL     1      16.481  -6.173  -3.922  1.00  0.00    -0.354 N 
ATOM     52  C   UNL     1      17.006  -9.865  -1.740  1.00  0.00     0.074 A 
ATOM     53  C   UNL     1      15.881 -10.752  -1.938  1.00  0.00     0.031 C 
ATOM     54  C   UNL     1      15.422  -4.723  -5.255  1.00  0.00     0.029 A 
ATOM     55  C   UNL     1      16.622  -4.911  -4.445  1.00  0.00     0.049 A 
ATOM     56  H   UNL     1      17.144  -6.586  -3.323  1.00  0.00     0.167 HD
ATOM     57  C   UNL     1      18.087 -10.161  -0.980  1.00  0.00     0.037 A 
ATOM     58  C   UNL     1      17.608  -4.008  -4.290  1.00  0.00     0.037 A 
ATOM     59  C   UNL     1      19.215  -9.284  -0.806  1.00  0.00     0.049 A 
ATOM     60  C   UNL     1      18.791  -4.351  -3.430  1.00  0.00     0.074 A 
ATOM     61  C   UNL     1      20.381  -9.512  -0.097  1.00  0.00     0.029 A 
ATOM     62  N   UNL     1      19.317  -8.011  -1.347  1.00  0.00    -0.354 N 
ATOM     63  N   UNL     1      19.036  -5.455  -2.768  1.00  0.00    -0.248 NA
ATOM     64  C   UNL     1      19.833  -3.324  -3.294  1.00  0.00     0.031 C 
ATOM     65  C   UNL     1      21.169  -8.359  -0.171  1.00  0.00     0.029 A 
ATOM     66  C   UNL     1      20.517  -7.432  -0.969  1.00  0.00     0.049 A 
ATOM     67  H   UNL     1      18.637  -7.583  -1.916  1.00  0.00     0.167 HD
ATOM     68  C   UNL     1      20.269  -5.268  -2.157  1.00  0.00     0.074 A 
ATOM     69  C   UNL     1      20.726  -3.946  -2.536  1.00  0.00     0.031 C 
ATOM     70  C   UNL     1      20.958  -6.115  -1.354  1.00  0.00     0.037 A 
BRANCH  57  71
ATOM     71  C   UNL     1      18.103 -11.492  -0.285  1.00  0.00     0.057 A 
ATOM     72  C   UNL     1      18.015 -11.575   1.110  1.00  0.00     0.134 A 
ATOM     73  C   UNL     1      18.242 -12.693  -0.995  1.00  0.00     0.134 A 
ATOM     74  F   UNL     1      17.887 -10.465   1.852  1.00  0.00    -0.206 F 
ATOM     75  C   UNL     1      18.066 -12.802   1.774  1.00  0.00     0.040 A 
ATOM     76  C   UNL     1      18.265 -13.928  -0.344  1.00  0.00     0.040 A 
ATOM     77  F   UNL     1      18.320 -12.686  -2.334  1.00  0.00    -0.206 F 
ATOM     78  C   UNL     1      18.185 -13.984   1.046  1.00  0.00     0.006 A 
ENDBRANCH  57  71
BRANCH  58  79
ATOM     79  C   UNL     1      17.530  -2.711  -5.008  1.00  0.00     0.057 A 
ATOM     80  C   UNL     1      16.600  -1.728  -4.651  1.00  0.00     0.134 A 
ATOM     81  C   UNL     1      18.363  -2.446  -6.100  1.00  0.00     0.134 A 
ATOM     82  F   UNL     1      15.768  -1.925  -3.618  1.00  0.00    -0.206 F 
ATOM     83  C   UNL     1      16.487  -0.535  -5.367  1.00  0.00     0.040 A 
ATOM     84  C   UNL     1      18.277  -1.248  -6.812  1.00  0.00     0.040 A 
ATOM     85  F   UNL     1      19.285  -3.343  -6.479  1.00  0.00    -0.206 F 
ATOM     86  C   UNL     1      17.329  -0.292  -6.451  1.00  0.00     0.006 A 
ENDBRANCH  58  79
BRANCH  70  87
ATOM     87  C   UNL     1      22.291  -5.654  -0.842  1.00  0.00     0.057 A 
ATOM     88  C   UNL     1      23.476  -6.239  -1.307  1.00  0.00     0.134 A 
ATOM     89  C   UNL     1      22.399  -4.684   0.162  1.00  0.00     0.134 A 
ATOM     90  F   UNL     1      23.441  -7.182  -2.262  1.00  0.00    -0.206 F 
ATOM     91  C   UNL     1      24.719  -5.887  -0.781  1.00  0.00     0.040 A 
ATOM     92  C   UNL     1      23.639  -4.305   0.678  1.00  0.00     0.040 A 
ATOM     93  F   UNL     1      21.302  -4.078   0.642  1.00  0.00    -0.206 F 
ATOM     94  C   UNL     1      24.803  -4.915   0.213  1.00  0.00     0.006 A 
ENDBRANCH  70  87
ENDBRANCH  44  45
ENDBRANCH  36  39
ENDBRANCH  34  35
ENDBRANCH  33  34
ENDBRANCH  32  33
ENDBRANCH   1  32
TORSDOF 17
