REMARK SMILES CC(C)(CNC(=O)NCc1cccs1)C(=O)NCCCCCCNC(=O)c1ccc(-c2c3nc(c(-c4c(F)cccc4F)c4ccc([nH]4)c(-c4c(F)cccc4F)c4nc(c(-c5c(F)cccc5F)c5ccc2[nH]5)C=C4)C=C3)cc1
REMARK SMILES IDX 19 1 18 2 17 3 15 4 16 5 2 7 1 8 3 9 4 10 5 11 6 12 7 14
REMARK SMILES IDX 8 15 9 17 10 18 11 19 14 20 12 21 13 22 20 23 21 24 22 25
REMARK SMILES IDX 23 26 24 27 25 28 26 30 27 31 28 32 80 33 29 34 79 35 30 36
REMARK SMILES IDX 31 37 32 38 73 39 33 40 78 41 72 42 74 43 34 44 77 45 71 46
REMARK SMILES IDX 70 47 35 49 61 50 44 51 60 52 45 53 48 54 59 55 75 56 46 57
REMARK SMILES IDX 47 58 58 60 76 61 49 62 36 63 37 64 42 65 38 66 39 67 41 68
REMARK SMILES IDX 43 69 40 70 62 71 63 72 68 73 64 74 65 75 67 76 69 77 66 78
REMARK SMILES IDX 50 79 51 80 56 81 52 82 53 83 55 84 57 85 54 86
REMARK H PARENT 17 6 5 13 8 16 24 29 74 48 48 59
REMARK Flexibility Score: inf
ROOT
ATOM      1  C   UNL     1      -0.919  -5.038   0.985  1.00  0.00     0.021 C 
ENDROOT
BRANCH   1   2
ATOM      2  C   UNL     1       0.175  -4.088   1.472  1.00  0.00     0.116 C 
BRANCH   2   3
ATOM      3  N   UNL     1       0.983  -3.592   0.376  1.00  0.00    -0.356 N 
ATOM      4  C   UNL     1       1.257  -2.341  -0.081  1.00  0.00     0.227 C 
ATOM      5  O   UNL     1       1.986  -2.287  -1.078  1.00  0.00    -0.274 OA
ATOM      6  H   UNL     1       1.422  -4.304  -0.142  1.00  0.00     0.163 HD
BRANCH   4   7
ATOM      7  C   UNL     1       0.735  -1.050   0.584  1.00  0.00     0.061 C 
ATOM      8  C   UNL     1       1.280   0.166  -0.203  1.00  0.00     0.023 C 
ATOM      9  C   UNL     1       1.296  -0.930   2.016  1.00  0.00     0.023 C 
BRANCH   7  10
ATOM     10  C   UNL     1      -0.805  -0.951   0.609  1.00  0.00     0.134 C 
BRANCH  10  11
ATOM     11  N   UNL     1      -1.476  -1.423  -0.595  1.00  0.00    -0.337 N 
ATOM     12  C   UNL     1      -2.592  -2.133  -0.837  1.00  0.00     0.315 C 
ATOM     13  H   UNL     1      -1.005  -1.162  -1.419  1.00  0.00     0.165 HD
ATOM     14  O   UNL     1      -2.866  -2.405  -2.007  1.00  0.00    -0.249 OA
ATOM     15  N   UNL     1      -3.419  -2.566   0.130  1.00  0.00    -0.333 N 
ATOM     16  H   UNL     1      -4.145  -3.157  -0.175  1.00  0.00     0.165 HD
BRANCH  15  17
ATOM     17  C   UNL     1      -3.404  -2.300   1.540  1.00  0.00     0.164 C 
BRANCH  17  18
ATOM     18  C   UNL     1      -4.545  -2.919   2.272  1.00  0.00     0.024 A 
ATOM     19  C   UNL     1      -4.793  -4.258   2.513  1.00  0.00     0.017 A 
ATOM     20  S   UNL     1      -5.650  -1.915   3.112  1.00  0.00    -0.147 S 
ATOM     21  C   UNL     1      -5.819  -4.447   3.484  1.00  0.00     0.012 A 
ATOM     22  C   UNL     1      -6.357  -3.252   3.905  1.00  0.00     0.065 A 
ENDBRANCH  17  18
ENDBRANCH  15  17
ENDBRANCH  10  11
ENDBRANCH   7  10
ENDBRANCH   4   7
ENDBRANCH   2   3
ENDBRANCH   1   2
BRANCH   1  23
ATOM     23  C   UNL     1      -0.450  -6.462   0.676  1.00  0.00     0.002 C 
BRANCH  23  24
ATOM     24  C   UNL     1       0.082  -7.255   1.875  1.00  0.00     0.002 C 
BRANCH  24  25
ATOM     25  C   UNL     1      -0.839  -7.317   3.098  1.00  0.00     0.021 C 
BRANCH  25  26
ATOM     26  C   UNL     1      -2.250  -7.834   2.830  1.00  0.00     0.116 C 
BRANCH  26  27
ATOM     27  N   UNL     1      -2.258  -9.197   2.326  1.00  0.00    -0.352 N 
ATOM     28  C   UNL     1      -2.814 -10.331   2.857  1.00  0.00     0.251 C 
ATOM     29  H   UNL     1      -1.791  -9.326   1.468  1.00  0.00     0.163 HD
ATOM     30  O   UNL     1      -2.553 -11.430   2.362  1.00  0.00    -0.269 OA
BRANCH  28  31
ATOM     31  C   UNL     1      -3.709 -10.257   4.030  1.00  0.00     0.039 A 
ATOM     32  C   UNL     1      -3.549 -11.194   5.056  1.00  0.00     0.014 A 
ATOM     33  C   UNL     1      -4.723  -9.299   4.112  1.00  0.00     0.014 A 
ATOM     34  C   UNL     1      -4.364 -11.131   6.189  1.00  0.00     0.010 A 
ATOM     35  C   UNL     1      -5.489  -9.194   5.272  1.00  0.00     0.010 A 
ATOM     36  C   UNL     1      -5.319 -10.110   6.322  1.00  0.00    -0.014 A 
BRANCH  36  37
ATOM     37  C   UNL     1      -6.141  -9.988   7.554  1.00  0.00     0.031 A 
ATOM     38  C   UNL     1      -7.634 -10.167   7.496  1.00  0.00     0.074 A 
ATOM     39  C   UNL     1      -5.548  -9.664   8.720  1.00  0.00     0.049 A 
ATOM     40  N   UNL     1      -8.519 -10.044   8.453  1.00  0.00    -0.248 NA
ATOM     41  C   UNL     1      -8.210 -10.504   6.185  1.00  0.00     0.031 C 
ATOM     42  C   UNL     1      -4.116  -9.424   8.902  1.00  0.00     0.029 A 
ATOM     43  N   UNL     1      -6.078  -9.473   9.972  1.00  0.00    -0.354 N 
ATOM     44  C   UNL     1      -9.753 -10.278   7.860  1.00  0.00     0.074 A 
ATOM     45  C   UNL     1      -9.509 -10.498   6.451  1.00  0.00     0.031 C 
ATOM     46  C   UNL     1      -3.878  -9.139  10.193  1.00  0.00     0.029 A 
ATOM     47  C   UNL     1      -5.143  -9.138  10.921  1.00  0.00     0.049 A 
ATOM     48  H   UNL     1      -7.038  -9.566  10.171  1.00  0.00     0.167 HD
ATOM     49  C   UNL     1     -10.976 -10.328   8.440  1.00  0.00     0.037 A 
ATOM     50  C   UNL     1      -5.287  -8.854  12.230  1.00  0.00     0.037 A 
ATOM     51  C   UNL     1     -11.216 -10.132   9.847  1.00  0.00     0.049 A 
ATOM     52  C   UNL     1      -6.658  -8.903  12.846  1.00  0.00     0.074 A 
ATOM     53  C   UNL     1     -12.412 -10.219  10.537  1.00  0.00     0.029 A 
ATOM     54  N   UNL     1     -10.241  -9.805  10.777  1.00  0.00    -0.354 N 
ATOM     55  N   UNL     1      -7.807  -9.190  12.285  1.00  0.00    -0.248 NA
ATOM     56  C   UNL     1      -6.751  -8.594  14.280  1.00  0.00     0.031 C 
ATOM     57  C   UNL     1     -12.169  -9.897  11.877  1.00  0.00     0.029 A 
ATOM     58  C   UNL     1     -10.813  -9.662  12.031  1.00  0.00     0.049 A 
ATOM     59  H   UNL     1      -9.284  -9.692  10.576  1.00  0.00     0.167 HD
ATOM     60  C   UNL     1      -8.753  -9.126  13.301  1.00  0.00     0.074 A 
ATOM     61  C   UNL     1      -8.041  -8.787  14.515  1.00  0.00     0.031 C 
ATOM     62  C   UNL     1     -10.091  -9.331  13.233  1.00  0.00     0.037 A 
BRANCH  49  63
ATOM     63  C   UNL     1     -12.155 -10.609   7.553  1.00  0.00     0.057 A 
ATOM     64  C   UNL     1     -12.362 -11.868   6.973  1.00  0.00     0.134 A 
ATOM     65  C   UNL     1     -13.118  -9.621   7.308  1.00  0.00     0.134 A 
ATOM     66  F   UNL     1     -11.473 -12.856   7.159  1.00  0.00    -0.206 F 
ATOM     67  C   UNL     1     -13.469 -12.127   6.163  1.00  0.00     0.040 A 
ATOM     68  C   UNL     1     -14.244  -9.876   6.523  1.00  0.00     0.040 A 
ATOM     69  F   UNL     1     -12.987  -8.395   7.837  1.00  0.00    -0.206 F 
ATOM     70  C   UNL     1     -14.418 -11.131   5.942  1.00  0.00     0.006 A 
ENDBRANCH  49  63
BRANCH  50  71
ATOM     71  C   UNL     1      -4.099  -8.512  13.053  1.00  0.00     0.057 A 
ATOM     72  C   UNL     1      -3.635  -9.382  14.048  1.00  0.00     0.134 A 
ATOM     73  C   UNL     1      -3.409  -7.307  12.878  1.00  0.00     0.134 A 
ATOM     74  F   UNL     1      -4.266 -10.543  14.277  1.00  0.00    -0.206 F 
ATOM     75  C   UNL     1      -2.543  -9.056  14.853  1.00  0.00     0.040 A 
ATOM     76  C   UNL     1      -2.298  -6.980  13.657  1.00  0.00     0.040 A 
ATOM     77  F   UNL     1      -3.798  -6.434  11.936  1.00  0.00    -0.206 F 
ATOM     78  C   UNL     1      -1.868  -7.853  14.655  1.00  0.00     0.006 A 
ENDBRANCH  50  71
BRANCH  62  79
ATOM     79  C   UNL     1     -10.868  -9.231  14.514  1.00  0.00     0.057 A 
ATOM     80  C   UNL     1     -11.100  -8.003  15.147  1.00  0.00     0.134 A 
ATOM     81  C   UNL     1     -11.422 -10.376  15.102  1.00  0.00     0.134 A 
ATOM     82  F   UNL     1     -10.586  -6.871  14.643  1.00  0.00    -0.206 F 
ATOM     83  C   UNL     1     -11.834  -7.920  16.331  1.00  0.00     0.040 A 
ATOM     84  C   UNL     1     -12.182 -10.302  16.270  1.00  0.00     0.040 A 
ATOM     85  F   UNL     1     -11.245 -11.582  14.542  1.00  0.00    -0.206 F 
ATOM     86  C   UNL     1     -12.384  -9.072  16.891  1.00  0.00     0.006 A 
ENDBRANCH  62  79
ENDBRANCH  36  37
ENDBRANCH  28  31
ENDBRANCH  26  27
ENDBRANCH  25  26
ENDBRANCH  24  25
ENDBRANCH  23  24
ENDBRANCH   1  23
TORSDOF 17
