REMARK SMILES COc1cc(OC)cc(-c2ccc(C(=O)NCCCCCCNC(=O)c3ccc(-c4c5nc(c(-c6c(F)cccc6F)c6ccc([nH]6)c(-c6c(F)cccc6F)c6nc(c(-c7c(F)cccc7F)c7ccc4[nH]7)C=C6)C=C5)cc3)o2)c1
REMARK SMILES IDX 19 1 18 2 17 3 16 4 14 5 15 6 13 8 10 9 11 10 80 11 12 12
REMARK SMILES IDX 9 13 3 14 4 15 81 16 5 17 8 18 2 19 1 20 6 21 7 22 20 23
REMARK SMILES IDX 21 24 22 25 23 26 24 27 25 29 26 30 27 31 79 32 28 33 78 34
REMARK SMILES IDX 29 35 30 36 31 37 72 38 32 39 77 40 71 41 73 42 33 43 76 44
REMARK SMILES IDX 70 45 69 46 34 48 60 49 43 50 59 51 44 52 47 53 58 54 74 55
REMARK SMILES IDX 45 56 46 57 57 59 75 60 48 61 35 62 36 63 41 64 37 65 38 66
REMARK SMILES IDX 40 67 42 68 39 69 61 70 62 71 67 72 63 73 64 74 66 75 68 76
REMARK SMILES IDX 65 77 49 78 50 79 55 80 51 81 52 82 54 83 56 84 53 85
REMARK H PARENT 16 7 23 28 73 47 47 58
REMARK Flexibility Score: inf
ROOT
ATOM      1  C   UNL     1      10.741   3.382   5.580  1.00  0.00     0.002 C 
ENDROOT
BRANCH   1   2
ATOM      2  C   UNL     1       9.566   3.538   4.606  1.00  0.00     0.021 C 
BRANCH   2   3
ATOM      3  C   UNL     1       8.831   2.223   4.349  1.00  0.00     0.116 C 
BRANCH   3   4
ATOM      4  N   UNL     1       7.880   1.957   5.405  1.00  0.00    -0.349 N 
ATOM      5  C   UNL     1       6.508   2.048   5.446  1.00  0.00     0.287 C 
ATOM      6  O   UNL     1       5.986   1.716   6.512  1.00  0.00    -0.266 OA
ATOM      7  H   UNL     1       8.289   1.656   6.249  1.00  0.00     0.163 HD
BRANCH   5   8
ATOM      8  C   UNL     1       5.744   2.483   4.290  1.00  0.00     0.192 A 
ATOM      9  C   UNL     1       3.870   2.657   3.135  1.00  0.00     0.135 A 
ATOM     10  C   UNL     1       4.853   3.199   2.344  1.00  0.00     0.052 A 
ATOM     11  O   UNL     1       4.388   2.224   4.311  1.00  0.00    -0.451 OA
ATOM     12  C   UNL     1       6.036   3.151   3.111  1.00  0.00     0.057 A 
BRANCH   9  13
ATOM     13  C   UNL     1       2.441   2.550   2.948  1.00  0.00     0.025 A 
ATOM     14  C   UNL     1       0.588   1.838   1.565  1.00  0.00     0.123 A 
ATOM     15  C   UNL     1      -0.239   2.733   2.250  1.00  0.00     0.092 A 
ATOM     16  C   UNL     1       1.933   1.750   1.916  1.00  0.00     0.058 A 
ATOM     17  C   UNL     1       0.254   3.519   3.296  1.00  0.00     0.123 A 
ATOM     18  C   UNL     1       1.592   3.401   3.665  1.00  0.00     0.058 A 
BRANCH  14  19
ATOM     19  O   UNL     1      -0.010   1.164   0.535  1.00  0.00    -0.497 OA
ATOM     20  C   UNL     1       0.706   0.064  -0.014  1.00  0.00     0.278 C 
ENDBRANCH  14  19
BRANCH  17  21
ATOM     21  O   UNL     1      -0.648   4.383   3.853  1.00  0.00    -0.497 OA
ATOM     22  C   UNL     1      -0.109   5.411   4.680  1.00  0.00     0.278 C 
ENDBRANCH  17  21
ENDBRANCH   9  13
ENDBRANCH   5   8
ENDBRANCH   3   4
ENDBRANCH   2   3
ENDBRANCH   1   2
BRANCH   1  23
ATOM     23  C   UNL     1      11.828   2.401   5.120  1.00  0.00     0.002 C 
BRANCH  23  24
ATOM     24  C   UNL     1      12.389   2.676   3.723  1.00  0.00     0.021 C 
BRANCH  24  25
ATOM     25  C   UNL     1      13.071   4.032   3.591  1.00  0.00     0.116 C 
BRANCH  25  26
ATOM     26  N   UNL     1      14.253   4.120   4.435  1.00  0.00    -0.352 N 
ATOM     27  C   UNL     1      15.553   4.375   4.076  1.00  0.00     0.251 C 
ATOM     28  H   UNL     1      14.100   3.976   5.397  1.00  0.00     0.163 HD
ATOM     29  O   UNL     1      16.470   4.181   4.864  1.00  0.00    -0.269 OA
BRANCH  27  30
ATOM     30  C   UNL     1      15.835   4.875   2.716  1.00  0.00     0.039 A 
ATOM     31  C   UNL     1      16.858   4.287   1.970  1.00  0.00     0.014 A 
ATOM     32  C   UNL     1      15.068   5.912   2.178  1.00  0.00     0.014 A 
ATOM     33  C   UNL     1      17.068   4.695   0.652  1.00  0.00     0.010 A 
ATOM     34  C   UNL     1      15.227   6.261   0.843  1.00  0.00     0.010 A 
ATOM     35  C   UNL     1      16.229   5.657   0.067  1.00  0.00    -0.014 A 
BRANCH  35  36
ATOM     36  C   UNL     1      16.368   6.046  -1.357  1.00  0.00     0.031 A 
ATOM     37  C   UNL     1      16.710   7.464  -1.718  1.00  0.00     0.074 A 
ATOM     38  C   UNL     1      16.091   5.150  -2.323  1.00  0.00     0.049 A 
ATOM     39  N   UNL     1      16.759   8.030  -2.896  1.00  0.00    -0.248 NA
ATOM     40  C   UNL     1      17.004   8.375  -0.600  1.00  0.00     0.031 C 
ATOM     41  C   UNL     1      15.699   3.757  -2.098  1.00  0.00     0.029 A 
ATOM     42  N   UNL     1      16.072   5.284  -3.689  1.00  0.00    -0.354 N 
ATOM     43  C   UNL     1      17.067   9.363  -2.661  1.00  0.00     0.074 A 
ATOM     44  C   UNL     1      17.141   9.534  -1.226  1.00  0.00     0.031 C 
ATOM     45  C   UNL     1      15.486   3.164  -3.283  1.00  0.00     0.029 A 
ATOM     46  C   UNL     1      15.680   4.144  -4.348  1.00  0.00     0.049 A 
ATOM     47  H   UNL     1      16.316   6.118  -4.152  1.00  0.00     0.167 HD
ATOM     48  C   UNL     1      17.287  10.351  -3.560  1.00  0.00     0.037 A 
ATOM     49  C   UNL     1      15.479   3.919  -5.660  1.00  0.00     0.037 A 
ATOM     50  C   UNL     1      17.228  10.169  -4.987  1.00  0.00     0.049 A 
ATOM     51  C   UNL     1      15.721   5.032  -6.641  1.00  0.00     0.074 A 
ATOM     52  C   UNL     1      17.501  11.088  -5.985  1.00  0.00     0.029 A 
ATOM     53  N   UNL     1      16.859   8.990  -5.619  1.00  0.00    -0.354 N 
ATOM     54  N   UNL     1      16.086   6.270  -6.411  1.00  0.00    -0.248 NA
ATOM     55  C   UNL     1      15.529   4.717  -8.063  1.00  0.00     0.031 C 
ATOM     56  C   UNL     1      17.240  10.483  -7.218  1.00  0.00     0.029 A 
ATOM     57  C   UNL     1      16.867   9.167  -6.992  1.00  0.00     0.049 A 
ATOM     58  H   UNL     1      16.626   8.151  -5.158  1.00  0.00     0.167 HD
ATOM     59  C   UNL     1      16.196   6.873  -7.658  1.00  0.00     0.074 A 
ATOM     60  C   UNL     1      15.868   5.861  -8.640  1.00  0.00     0.031 C 
ATOM     61  C   UNL     1      16.542   8.149  -7.960  1.00  0.00     0.037 A 
BRANCH  48  62
ATOM     62  C   UNL     1      17.598  11.720  -3.023  1.00  0.00     0.057 A 
ATOM     63  C   UNL     1      18.793  11.999  -2.345  1.00  0.00     0.134 A 
ATOM     64  C   UNL     1      16.697  12.777  -3.199  1.00  0.00     0.134 A 
ATOM     65  F   UNL     1      19.697  11.030  -2.131  1.00  0.00    -0.206 F 
ATOM     66  C   UNL     1      19.062  13.268  -1.830  1.00  0.00     0.040 A 
ATOM     67  C   UNL     1      16.970  14.059  -2.718  1.00  0.00     0.040 A 
ATOM     68  F   UNL     1      15.537  12.584  -3.845  1.00  0.00    -0.206 F 
ATOM     69  C   UNL     1      18.151  14.305  -2.022  1.00  0.00     0.006 A 
ENDBRANCH  48  62
BRANCH  49  70
ATOM     70  C   UNL     1      15.029   2.579  -6.117  1.00  0.00     0.057 A 
ATOM     71  C   UNL     1      15.880   1.735  -6.838  1.00  0.00     0.134 A 
ATOM     72  C   UNL     1      13.741   2.107  -5.834  1.00  0.00     0.134 A 
ATOM     73  F   UNL     1      17.120   2.137  -7.154  1.00  0.00    -0.206 F 
ATOM     74  C   UNL     1      15.464   0.476  -7.275  1.00  0.00     0.040 A 
ATOM     75  C   UNL     1      13.320   0.840  -6.241  1.00  0.00     0.040 A 
ATOM     76  F   UNL     1      12.880   2.863  -5.137  1.00  0.00    -0.206 F 
ATOM     77  C   UNL     1      14.182   0.023  -6.970  1.00  0.00     0.006 A 
ENDBRANCH  49  70
BRANCH  61  78
ATOM     78  C   UNL     1      16.623   8.517  -9.414  1.00  0.00     0.057 A 
ATOM     79  C   UNL     1      15.481   8.656 -10.211  1.00  0.00     0.134 A 
ATOM     80  C   UNL     1      17.863   8.790 -10.007  1.00  0.00     0.134 A 
ATOM     81  F   UNL     1      14.264   8.397  -9.708  1.00  0.00    -0.206 F 
ATOM     82  C   UNL     1      15.569   9.035 -11.552  1.00  0.00     0.040 A 
ATOM     83  C   UNL     1      17.962   9.198 -11.338  1.00  0.00     0.040 A 
ATOM     84  F   UNL     1      18.997   8.684  -9.297  1.00  0.00    -0.206 F 
ATOM     85  C   UNL     1      16.813   9.316 -12.116  1.00  0.00     0.006 A 
ENDBRANCH  61  78
ENDBRANCH  35  36
ENDBRANCH  27  30
ENDBRANCH  25  26
ENDBRANCH  24  25
ENDBRANCH  23  24
ENDBRANCH   1  23
TORSDOF 16
