REMARK SMILES O=C(C[C@H]1CN(S(=O)(=O)N2CCCCC2)CCO1)NCCCCCCNC(=O)c1ccc(-c2c3nc(c(-c4c(F)cccc4F)c4ccc([nH]4)c(-c4c(F)cccc4F)c4nc(c(-c5c(F)cccc5F)c5ccc2[nH]5)C=C4)C=C3)cc1
REMARK SMILES IDX 22 1 21 2 20 3 19 4 1 5 2 6 3 8 4 9 5 10 18 11 6 12 17 13
REMARK SMILES IDX 16 14 7 15 8 16 9 17 10 18 11 19 15 20 12 21 14 22 13 23
REMARK SMILES IDX 23 24 24 25 25 26 26 27 27 28 28 30 29 31 30 32 82 33 31 34
REMARK SMILES IDX 81 35 32 36 33 37 34 38 75 39 35 40 80 41 74 42 76 43 36 44
REMARK SMILES IDX 79 45 73 46 72 47 37 49 63 50 46 51 62 52 47 53 50 54 61 55
REMARK SMILES IDX 77 56 48 57 49 58 60 60 78 61 51 62 38 63 39 64 44 65 40 66
REMARK SMILES IDX 41 67 43 68 45 69 42 70 64 71 65 72 70 73 66 74 67 75 69 76
REMARK SMILES IDX 71 77 68 78 52 79 53 80 58 81 54 82 55 83 57 84 59 85 56 86
REMARK H PARENT 19 7 26 29 76 48 50 59
REMARK Flexibility Score: inf
ROOT
ATOM      1  C   UNL     1       6.863   6.704   2.210  1.00  0.00     0.002 C 
ENDROOT
BRANCH   1   2
ATOM      2  C   UNL     1       7.876   5.714   1.627  1.00  0.00     0.021 C 
BRANCH   2   3
ATOM      3  C   UNL     1       7.299   4.381   1.177  1.00  0.00     0.116 C 
BRANCH   3   4
ATOM      4  N   UNL     1       6.300   4.471   0.131  1.00  0.00    -0.356 N 
ATOM      5  O   UNL     1       7.083   2.729  -1.151  1.00  0.00    -0.275 OA
ATOM      6  C   UNL     1       6.168   3.466  -0.799  1.00  0.00     0.222 C 
ATOM      7  H   UNL     1       5.710   5.258   0.086  1.00  0.00     0.163 HD
BRANCH   6   8
ATOM      8  C   UNL     1       4.766   3.271  -1.330  1.00  0.00     0.133 C 
BRANCH   8   9
ATOM      9  C   UNL     1       3.899   2.325  -0.477  1.00  0.00     0.142 C 
ATOM     10  C   UNL     1       4.648   1.187   0.249  1.00  0.00     0.136 C 
ATOM     11  O   UNL     1       2.975   3.020   0.388  1.00  0.00    -0.375 OA
ATOM     12  N   UNL     1       5.254   1.686   1.499  1.00  0.00    -0.184 NA
ATOM     13  C   UNL     1       3.521   3.415   1.651  1.00  0.00     0.177 C 
ATOM     14  C   UNL     1       4.238   2.278   2.397  1.00  0.00     0.132 C 
BRANCH  12  15
ATOM     15  S   UNL     1       6.615   0.952   2.150  1.00  0.00     0.282 S 
ATOM     16  O   UNL     1       7.593   0.752   1.103  1.00  0.00    -0.195 OA
ATOM     17  O   UNL     1       6.950   1.686   3.345  1.00  0.00    -0.195 OA
BRANCH  15  18
ATOM     18  N   UNL     1       6.031  -0.565   2.580  1.00  0.00    -0.189 NA
ATOM     19  C   UNL     1       6.418  -1.099   3.910  1.00  0.00     0.103 C 
ATOM     20  C   UNL     1       5.906  -1.592   1.512  1.00  0.00     0.103 C 
ATOM     21  C   UNL     1       7.599  -2.061   3.837  1.00  0.00     0.017 C 
ATOM     22  C   UNL     1       7.076  -2.568   1.474  1.00  0.00     0.017 C 
ATOM     23  C   UNL     1       7.326  -3.178   2.842  1.00  0.00     0.003 C 
ENDBRANCH  15  18
ENDBRANCH  12  15
ENDBRANCH   8   9
ENDBRANCH   6   8
ENDBRANCH   3   4
ENDBRANCH   2   3
ENDBRANCH   1   2
BRANCH   1  24
ATOM     24  C   UNL     1       6.075   6.234   3.439  1.00  0.00     0.002 C 
BRANCH  24  25
ATOM     25  C   UNL     1       6.887   5.925   4.700  1.00  0.00     0.021 C 
BRANCH  25  26
ATOM     26  C   UNL     1       7.860   7.010   5.155  1.00  0.00     0.116 C 
BRANCH  26  27
ATOM     27  N   UNL     1       7.258   8.330   5.243  1.00  0.00    -0.352 N 
ATOM     28  C   UNL     1       7.518   9.360   6.110  1.00  0.00     0.251 C 
ATOM     29  H   UNL     1       6.556   8.513   4.578  1.00  0.00     0.163 HD
ATOM     30  O   UNL     1       6.846  10.387   6.054  1.00  0.00    -0.269 OA
BRANCH  28  31
ATOM     31  C   UNL     1       8.581   9.239   7.131  1.00  0.00     0.039 A 
ATOM     32  C   UNL     1       8.322   9.720   8.419  1.00  0.00     0.014 A 
ATOM     33  C   UNL     1       9.834   8.702   6.825  1.00  0.00     0.014 A 
ATOM     34  C   UNL     1       9.302   9.628   9.408  1.00  0.00     0.010 A 
ATOM     35  C   UNL     1      10.790   8.553   7.827  1.00  0.00     0.010 A 
ATOM     36  C   UNL     1      10.537   9.028   9.123  1.00  0.00    -0.014 A 
BRANCH  36  37
ATOM     37  C   UNL     1      11.600   8.943  10.153  1.00  0.00     0.031 A 
ATOM     38  C   UNL     1      12.863   9.742   9.985  1.00  0.00     0.074 A 
ATOM     39  C   UNL     1      11.448   8.121  11.207  1.00  0.00     0.049 A 
ATOM     40  N   UNL     1      13.942   9.752  10.726  1.00  0.00    -0.248 NA
ATOM     41  C   UNL     1      12.933  10.626   8.810  1.00  0.00     0.031 C 
ATOM     42  C   UNL     1      10.286   7.265  11.454  1.00  0.00     0.029 A 
ATOM     43  N   UNL     1      12.282   7.863  12.265  1.00  0.00    -0.354 N 
ATOM     44  C   UNL     1      14.819  10.630  10.101  1.00  0.00     0.074 A 
ATOM     45  C   UNL     1      14.171  11.092   8.894  1.00  0.00     0.031 C 
ATOM     46  C   UNL     1      10.476   6.585  12.598  1.00  0.00     0.029 A 
ATOM     47  C   UNL     1      11.779   6.940  13.150  1.00  0.00     0.049 A 
ATOM     48  H   UNL     1      13.158   8.297  12.380  1.00  0.00     0.167 HD
ATOM     49  C   UNL     1      16.045  11.035  10.510  1.00  0.00     0.037 A 
ATOM     50  C   UNL     1      12.314   6.440  14.280  1.00  0.00     0.037 A 
ATOM     51  C   UNL     1      16.675  10.594  11.725  1.00  0.00     0.049 A 
ATOM     52  C   UNL     1      13.660   6.937  14.732  1.00  0.00     0.074 A 
ATOM     53  C   UNL     1      17.911  10.946  12.238  1.00  0.00     0.029 A 
ATOM     54  N   UNL     1      16.102   9.711  12.629  1.00  0.00    -0.354 N 
ATOM     55  N   UNL     1      14.465   7.790  14.147  1.00  0.00    -0.248 NA
ATOM     56  C   UNL     1      14.163   6.416  16.011  1.00  0.00     0.031 C 
ATOM     57  C   UNL     1      18.091  10.268  13.448  1.00  0.00     0.029 A 
ATOM     58  C   UNL     1      16.953   9.518  13.703  1.00  0.00     0.049 A 
ATOM     59  H   UNL     1      15.221   9.285  12.522  1.00  0.00     0.167 HD
ATOM     60  C   UNL     1      15.552   7.933  14.999  1.00  0.00     0.074 A 
ATOM     61  C   UNL     1      15.297   7.088  16.148  1.00  0.00     0.031 C 
ATOM     62  C   UNL     1      16.662   8.694  14.846  1.00  0.00     0.037 A 
BRANCH  49  63
ATOM     63  C   UNL     1      16.769  12.020   9.641  1.00  0.00     0.057 A 
ATOM     64  C   UNL     1      16.358  13.356   9.551  1.00  0.00     0.134 A 
ATOM     65  C   UNL     1      17.898  11.640   8.905  1.00  0.00     0.134 A 
ATOM     66  F   UNL     1      15.274  13.780  10.219  1.00  0.00    -0.206 F 
ATOM     67  C   UNL     1      17.028  14.274   8.741  1.00  0.00     0.040 A 
ATOM     68  C   UNL     1      18.592  12.555   8.111  1.00  0.00     0.040 A 
ATOM     69  F   UNL     1      18.348  10.377   8.949  1.00  0.00    -0.206 F 
ATOM     70  C   UNL     1      18.153  13.875   8.023  1.00  0.00     0.006 A 
ENDBRANCH  49  63
BRANCH  50  71
ATOM     71  C   UNL     1      11.566   5.442  15.083  1.00  0.00     0.057 A 
ATOM     72  C   UNL     1      11.013   5.780  16.324  1.00  0.00     0.134 A 
ATOM     73  C   UNL     1      11.403   4.124  14.643  1.00  0.00     0.134 A 
ATOM     74  F   UNL     1      11.150   7.024  16.807  1.00  0.00    -0.206 F 
ATOM     75  C   UNL     1      10.348   4.838  17.111  1.00  0.00     0.040 A 
ATOM     76  C   UNL     1      10.720   3.177  15.408  1.00  0.00     0.040 A 
ATOM     77  F   UNL     1      11.901   3.739  13.459  1.00  0.00    -0.206 F 
ATOM     78  C   UNL     1      10.199   3.531  16.651  1.00  0.00     0.006 A 
ENDBRANCH  50  71
BRANCH  62  79
ATOM     79  C   UNL     1      17.652   8.690  15.971  1.00  0.00     0.057 A 
ATOM     80  C   UNL     1      18.501   7.601  16.205  1.00  0.00     0.134 A 
ATOM     81  C   UNL     1      17.777   9.805  16.809  1.00  0.00     0.134 A 
ATOM     82  F   UNL     1      18.420   6.500  15.444  1.00  0.00    -0.206 F 
ATOM     83  C   UNL     1      19.425   7.613  17.250  1.00  0.00     0.040 A 
ATOM     84  C   UNL     1      18.712   9.837  17.843  1.00  0.00     0.040 A 
ATOM     85  F   UNL     1      16.997  10.882  16.631  1.00  0.00    -0.206 F 
ATOM     86  C   UNL     1      19.536   8.736  18.069  1.00  0.00     0.006 A 
ENDBRANCH  62  79
ENDBRANCH  36  37
ENDBRANCH  28  31
ENDBRANCH  26  27
ENDBRANCH  25  26
ENDBRANCH  24  25
ENDBRANCH   1  24
TORSDOF 16
