REMARK SMILES O=C(NCCCCCCNC(=O)[C@H]1Cc2c([nH]c3ccccc23)[C@@H](c2ccc(OC(F)(F)F)cc2)[NH2+]1)c1ccc(-c2c3nc(c(-c4c(F)cccc4F)c4ccc([nH]4)c(-c4c(F)cccc4F)c4nc(c(-c5c(F)cccc5F)c5ccc2[nH]5)C=C4)C=C3)cc1
REMARK SMILES IDX 7 1 6 2 5 3 4 4 3 5 1 6 2 7 37 9 38 10 90 11 39 12 89 13
REMARK SMILES IDX 40 14 41 15 42 16 83 17 43 18 88 19 82 20 84 21 44 22 87 23
REMARK SMILES IDX 81 24 80 25 45 27 71 28 54 29 70 30 55 31 58 32 69 33 85 34
REMARK SMILES IDX 56 35 57 36 68 38 86 39 59 40 46 41 47 42 52 43 48 44 49 45
REMARK SMILES IDX 51 46 53 47 50 48 72 49 73 50 78 51 74 52 75 53 77 54 79 55
REMARK SMILES IDX 76 56 60 57 61 58 66 59 62 60 63 61 65 62 67 63 64 64 8 65
REMARK SMILES IDX 9 66 10 67 11 68 12 70 13 71 14 72 36 73 15 74 24 75 16 78
REMARK SMILES IDX 23 79 17 80 18 81 22 82 19 84 21 85 20 86 25 87 26 88 35 89
REMARK SMILES IDX 27 90 34 91 28 92 29 93 30 94 31 95 32 96 33 97
REMARK H PARENT 3 8 84 26 58 37 10 69 36 76 36 77 17 83
REMARK Flexibility Score: inf
ROOT
ATOM      1  C   UNL     1       4.437   4.112   1.457  1.00  0.00     0.002 C 
ENDROOT
BRANCH   1   2
ATOM      2  C   UNL     1       3.872   3.832   0.059  1.00  0.00     0.002 C 
BRANCH   2   3
ATOM      3  C   UNL     1       4.455   2.609  -0.653  1.00  0.00     0.021 C 
BRANCH   3   4
ATOM      4  C   UNL     1       4.314   1.306   0.121  1.00  0.00     0.116 C 
BRANCH   4   5
ATOM      5  N   UNL     1       2.921   0.944   0.321  1.00  0.00    -0.352 N 
ATOM      6  O   UNL     1       1.048  -0.274   0.004  1.00  0.00    -0.269 OA
ATOM      7  C   UNL     1       2.273  -0.207  -0.045  1.00  0.00     0.251 C 
ATOM      8  H   UNL     1       2.368   1.616   0.780  1.00  0.00     0.163 HD
BRANCH   7   9
ATOM      9  C   UNL     1       3.061  -1.368  -0.503  1.00  0.00     0.039 A 
ATOM     10  C   UNL     1       4.208  -1.758   0.194  1.00  0.00     0.014 A 
ATOM     11  C   UNL     1       2.634  -2.089  -1.621  1.00  0.00     0.014 A 
ATOM     12  C   UNL     1       4.986  -2.803  -0.288  1.00  0.00     0.010 A 
ATOM     13  C   UNL     1       3.370  -3.194  -2.053  1.00  0.00     0.010 A 
ATOM     14  C   UNL     1       4.555  -3.554  -1.392  1.00  0.00    -0.014 A 
BRANCH  14  15
ATOM     15  C   UNL     1       5.295  -4.786  -1.755  1.00  0.00     0.031 A 
ATOM     16  C   UNL     1       6.013  -4.914  -3.066  1.00  0.00     0.074 A 
ATOM     17  C   UNL     1       5.314  -5.795  -0.861  1.00  0.00     0.049 A 
ATOM     18  N   UNL     1       6.702  -5.927  -3.527  1.00  0.00    -0.248 NA
ATOM     19  C   UNL     1       5.947  -3.766  -3.983  1.00  0.00     0.031 C 
ATOM     20  C   UNL     1       4.631  -5.783   0.437  1.00  0.00     0.029 A 
ATOM     21  N   UNL     1       5.933  -7.017  -0.896  1.00  0.00    -0.354 N 
ATOM     22  C   UNL     1       7.137  -5.550  -4.790  1.00  0.00     0.074 A 
ATOM     23  C   UNL     1       6.620  -4.219  -5.034  1.00  0.00     0.031 C 
ATOM     24  C   UNL     1       4.900  -6.922   1.088  1.00  0.00     0.029 A 
ATOM     25  C   UNL     1       5.714  -7.773   0.230  1.00  0.00     0.049 A 
ATOM     26  H   UNL     1       6.481  -7.324  -1.654  1.00  0.00     0.167 HD
ATOM     27  C   UNL     1       7.900  -6.253  -5.660  1.00  0.00     0.037 A 
ATOM     28  C   UNL     1       6.102  -9.025   0.529  1.00  0.00     0.037 A 
ATOM     29  C   UNL     1       8.421  -7.572  -5.398  1.00  0.00     0.049 A 
ATOM     30  C   UNL     1       6.924  -9.784  -0.469  1.00  0.00     0.074 A 
ATOM     31  C   UNL     1       9.247  -8.345  -6.196  1.00  0.00     0.029 A 
ATOM     32  N   UNL     1       8.159  -8.315  -4.257  1.00  0.00    -0.354 N 
ATOM     33  N   UNL     1       7.372  -9.393  -1.637  1.00  0.00    -0.248 NA
ATOM     34  C   UNL     1       7.291 -11.160  -0.111  1.00  0.00     0.031 C 
ATOM     35  C   UNL     1       9.443  -9.575  -5.561  1.00  0.00     0.029 A 
ATOM     36  C   UNL     1       8.783  -9.550  -4.344  1.00  0.00     0.049 A 
ATOM     37  H   UNL     1       7.612  -8.011  -3.497  1.00  0.00     0.167 HD
ATOM     38  C   UNL     1       8.085 -10.467  -2.147  1.00  0.00     0.074 A 
ATOM     39  C   UNL     1       8.034 -11.516  -1.149  1.00  0.00     0.031 C 
ATOM     40  C   UNL     1       8.720 -10.580  -3.339  1.00  0.00     0.037 A 
BRANCH  27  41
ATOM     41  C   UNL     1       8.216  -5.629  -6.988  1.00  0.00     0.057 A 
ATOM     42  C   UNL     1       9.140  -4.585  -7.115  1.00  0.00     0.134 A 
ATOM     43  C   UNL     1       7.655  -6.143  -8.165  1.00  0.00     0.134 A 
ATOM     44  F   UNL     1       9.707  -4.043  -6.027  1.00  0.00    -0.206 F 
ATOM     45  C   UNL     1       9.490  -4.069  -8.365  1.00  0.00     0.040 A 
ATOM     46  C   UNL     1       8.013  -5.650  -9.421  1.00  0.00     0.040 A 
ATOM     47  F   UNL     1       6.769  -7.149  -8.115  1.00  0.00    -0.206 F 
ATOM     48  C   UNL     1       8.934  -4.610  -9.523  1.00  0.00     0.006 A 
ENDBRANCH  27  41
BRANCH  28  49
ATOM     49  C   UNL     1       5.691  -9.645   1.814  1.00  0.00     0.057 A 
ATOM     50  C   UNL     1       6.629  -9.954   2.805  1.00  0.00     0.134 A 
ATOM     51  C   UNL     1       4.350  -9.956   2.075  1.00  0.00     0.134 A 
ATOM     52  F   UNL     1       7.930  -9.694   2.608  1.00  0.00    -0.206 F 
ATOM     53  C   UNL     1       6.253 -10.572   3.998  1.00  0.00     0.040 A 
ATOM     54  C   UNL     1       3.956 -10.545   3.276  1.00  0.00     0.040 A 
ATOM     55  F   UNL     1       3.401  -9.677   1.170  1.00  0.00    -0.206 F 
ATOM     56  C   UNL     1       4.912 -10.865   4.238  1.00  0.00     0.006 A 
ENDBRANCH  28  49
BRANCH  40  57
ATOM     57  C   UNL     1       9.429 -11.874  -3.609  1.00  0.00     0.057 A 
ATOM     58  C   UNL     1       8.728 -13.056  -3.877  1.00  0.00     0.134 A 
ATOM     59  C   UNL     1      10.828 -11.933  -3.616  1.00  0.00     0.134 A 
ATOM     60  F   UNL     1       7.386 -13.068  -3.867  1.00  0.00    -0.206 F 
ATOM     61  C   UNL     1       9.393 -14.258  -4.117  1.00  0.00     0.040 A 
ATOM     62  C   UNL     1      11.505 -13.123  -3.883  1.00  0.00     0.040 A 
ATOM     63  F   UNL     1      11.558 -10.834  -3.373  1.00  0.00    -0.206 F 
ATOM     64  C   UNL     1      10.787 -14.292  -4.126  1.00  0.00     0.006 A 
ENDBRANCH  40  57
ENDBRANCH  14  15
ENDBRANCH   7   9
ENDBRANCH   4   5
ENDBRANCH   3   4
ENDBRANCH   2   3
ENDBRANCH   1   2
BRANCH   1  65
ATOM     65  C   UNL     1       5.961   4.092   1.556  1.00  0.00     0.021 C 
BRANCH  65  66
ATOM     66  C   UNL     1       6.654   5.039   0.585  1.00  0.00     0.116 C 
BRANCH  66  67
ATOM     67  N   UNL     1       6.740   6.386   1.115  1.00  0.00    -0.351 N 
ATOM     68  C   UNL     1       7.756   7.241   1.396  1.00  0.00     0.278 C 
ATOM     69  H   UNL     1       5.857   6.770   1.319  1.00  0.00     0.163 HD
ATOM     70  O   UNL     1       7.409   8.340   1.860  1.00  0.00    -0.268 OA
BRANCH  68  71
ATOM     71  C   UNL     1       9.267   6.985   1.160  1.00  0.00     0.277 C 
ATOM     72  C   UNL     1       9.653   5.608   0.631  1.00  0.00     0.114 C 
ATOM     73  N   UNL     1       9.745   8.050   0.237  1.00  0.00    -0.325 N 
ATOM     74  C   UNL     1      11.085   5.549   0.292  1.00  0.00    -0.006 A 
ATOM     75  C   UNL     1      11.204   8.092  -0.007  1.00  0.00     0.262 C 
ATOM     76  H   UNL     1       9.467   8.950   0.629  1.00  0.00     0.347 HD
ATOM     77  H   UNL     1       9.321   7.840  -0.667  1.00  0.00     0.347 HD
ATOM     78  C   UNL     1      11.781   6.698  -0.001  1.00  0.00     0.083 A 
ATOM     79  C   UNL     1      11.908   4.432   0.046  1.00  0.00     0.003 A 
ATOM     80  N   UNL     1      13.066   6.319  -0.304  1.00  0.00    -0.353 N 
ATOM     81  C   UNL     1      13.145   4.936  -0.356  1.00  0.00     0.046 A 
ATOM     82  C   UNL     1      11.696   3.041   0.075  1.00  0.00     0.010 A 
ATOM     83  H   UNL     1      13.818   6.935  -0.461  1.00  0.00     0.166 HD
ATOM     84  C   UNL     1      14.191   4.090  -0.747  1.00  0.00     0.026 A 
ATOM     85  C   UNL     1      12.726   2.188  -0.322  1.00  0.00     0.001 A 
ATOM     86  C   UNL     1      13.952   2.708  -0.730  1.00  0.00     0.002 A 
BRANCH  75  87
ATOM     87  C   UNL     1      11.399   8.861  -1.315  1.00  0.00     0.016 A 
ATOM     88  C   UNL     1      11.664   8.228  -2.539  1.00  0.00     0.014 A 
ATOM     89  C   UNL     1      11.168  10.248  -1.335  1.00  0.00     0.014 A 
ATOM     90  C   UNL     1      11.728   8.961  -3.728  1.00  0.00     0.047 A 
ATOM     91  C   UNL     1      11.198  10.976  -2.533  1.00  0.00     0.047 A 
ATOM     92  C   UNL     1      11.481  10.334  -3.736  1.00  0.00     0.129 A 
BRANCH  92  93
ATOM     93  O   UNL     1      11.542  10.909  -4.973  1.00  0.00    -0.406 OA
BRANCH  93  94
ATOM     94  C   UNL     1      11.095  12.246  -5.099  1.00  0.00     0.573 C 
ATOM     95  F   UNL     1       9.809  12.374  -4.709  1.00  0.00    -0.132 F 
ATOM     96  F   UNL     1      11.870  13.090  -4.384  1.00  0.00    -0.132 F 
ATOM     97  F   UNL     1      11.177  12.607  -6.399  1.00  0.00    -0.132 F 
ENDBRANCH  93  94
ENDBRANCH  92  93
ENDBRANCH  75  87
ENDBRANCH  68  71
ENDBRANCH  66  67
ENDBRANCH  65  66
ENDBRANCH   1  65
TORSDOF 16
