REMARK SMILES Cc1[nH]c(=O)sc1S(=O)(=O)N[C@@H]1CCCCC[C@@H]1C(=O)NCCCCCCNC(=O)c1ccc(-c2c3nc(c(-c4c(F)cccc4F)c4ccc([nH]4)c(-c4c(F)cccc4F)c4nc(c(-c5c(F)cccc5F)c5ccc2[nH]5)C=C4)C=C3)cc1
REMARK SMILES IDX 23 1 22 2 21 3 19 4 20 5 18 7 12 8 11 9 8 11 9 12 10 13 7 14
REMARK SMILES IDX 1 15 2 16 3 17 4 18 6 20 5 21 13 22 14 23 17 25 16 26 15 27
REMARK SMILES IDX 24 29 25 30 26 31 27 32 28 33 29 34 30 36 31 37 32 38 84 39
REMARK SMILES IDX 33 40 83 41 34 42 35 43 36 44 77 45 37 46 82 47 76 48 78 49
REMARK SMILES IDX 38 50 81 51 75 52 74 53 39 55 65 56 48 57 64 58 49 59 52 60
REMARK SMILES IDX 63 61 79 62 50 63 51 64 62 66 80 67 53 68 40 69 41 70 46 71
REMARK SMILES IDX 42 72 43 73 45 74 47 75 44 76 66 77 67 78 72 79 68 80 69 81
REMARK SMILES IDX 71 82 73 83 70 84 54 85 55 86 60 87 56 88 57 89 59 90 61 91
REMARK SMILES IDX 58 92
REMARK H PARENT 21 6 11 10 3 19 28 35 78 54 52 65
REMARK Flexibility Score: 90.00
ROOT
ATOM      1  C   UNL     1       6.389   5.427  -0.149  1.00  0.00     0.021 C 
ENDROOT
BRANCH   1   2
ATOM      2  C   UNL     1       5.929   4.667   1.091  1.00  0.00     0.116 C 
BRANCH   2   3
ATOM      3  N   UNL     1       4.503   4.782   1.334  1.00  0.00    -0.356 N 
ATOM      4  C   UNL     1       3.596   3.832   1.686  1.00  0.00     0.224 C 
ATOM      5  O   UNL     1       2.507   4.191   2.139  1.00  0.00    -0.275 OA
ATOM      6  H   UNL     1       4.135   5.689   1.228  1.00  0.00     0.163 HD
BRANCH   4   7
ATOM      7  C   UNL     1       3.978   2.361   1.623  1.00  0.00     0.096 C 
BRANCH   7   8
ATOM      8  C   UNL     1       2.855   1.421   1.082  1.00  0.00     0.082 C 
BRANCH   8   9
ATOM      9  N   UNL     1       1.501   2.046   0.941  1.00  0.00    -0.207 NA
ATOM     10  H   UNL     1       0.815   1.294   1.006  1.00  0.00     0.141 HD
BRANCH   9  11
ATOM     11  S   UNL     1       1.148   2.930  -0.484  1.00  0.00     0.252 S 
ATOM     12  O   UNL     1       2.425   3.428  -0.961  1.00  0.00    -0.206 OA
ATOM     13  O   UNL     1       0.117   3.858  -0.062  1.00  0.00    -0.206 OA
BRANCH  11  14
ATOM     14  C   UNL     1       0.466   1.948  -1.745  1.00  0.00     0.158 A 
ATOM     15  C   UNL     1       0.280  -0.333  -0.561  1.00  0.00     0.067 C 
ATOM     16  C   UNL     1       0.167   0.640  -1.677  1.00  0.00     0.046 A 
ATOM     17  N   UNL     1      -0.339   0.150  -2.865  1.00  0.00    -0.315 N 
ATOM     18  C   UNL     1      -0.474   1.036  -3.893  1.00  0.00     0.305 A 
ATOM     19  H   UNL     1      -0.592  -0.796  -2.965  1.00  0.00     0.170 HD
ATOM     20  S   UNL     1       0.081   2.600  -3.342  1.00  0.00    -0.061 S 
ATOM     21  O   UNL     1      -0.900   0.787  -5.017  1.00  0.00    -0.257 OA
ENDBRANCH  11  14
ENDBRANCH   9  11
ENDBRANCH   8   9
BRANCH   8  22
ATOM     22  C   UNL     1       2.675   0.143   1.923  1.00  0.00     0.021 C 
BRANCH  22  23
ATOM     23  C   UNL     1       3.909  -0.757   1.905  1.00  0.00     0.002 CG0
ATOM     24  G   UNL     1       4.835  -0.505   3.084  1.00  0.00     0.000 G0
ENDBRANCH  22  23
ENDBRANCH   8  22
ENDBRANCH   7   8
BRANCH   7  25
ATOM     25  C   UNL     1       4.545   2.045   3.029  1.00  0.00     0.015 C 
BRANCH  25  26
ATOM     26  C   UNL     1       5.506   0.861   3.074  1.00  0.00     0.001 C 
BRANCH  26  27
ATOM     27  C   UNL     1       4.835  -0.505   3.084  1.00  0.00     0.000 CG0
ATOM     28  G   UNL     1       3.909  -0.757   1.905  1.00  0.00     0.000 G0
ENDBRANCH  26  27
ENDBRANCH  25  26
ENDBRANCH   7  25
ENDBRANCH   4   7
ENDBRANCH   2   3
ENDBRANCH   1   2
BRANCH   1  29
ATOM     29  C   UNL     1       5.944   6.892  -0.233  1.00  0.00     0.002 C 
BRANCH  29  30
ATOM     30  C   UNL     1       6.141   7.758   1.022  1.00  0.00     0.002 C 
BRANCH  30  31
ATOM     31  C   UNL     1       7.550   7.826   1.626  1.00  0.00     0.021 C 
BRANCH  31  32
ATOM     32  C   UNL     1       8.599   8.431   0.712  1.00  0.00     0.116 C 
BRANCH  32  33
ATOM     33  N   UNL     1       8.376   9.853   0.417  1.00  0.00    -0.352 N 
ATOM     34  C   UNL     1       9.081  10.671  -0.456  1.00  0.00     0.251 C 
ATOM     35  H   UNL     1       7.632  10.280   0.900  1.00  0.00     0.163 HD
ATOM     36  O   UNL     1       9.066  11.891  -0.349  1.00  0.00    -0.269 OA
BRANCH  34  37
ATOM     37  C   UNL     1       9.837  10.027  -1.542  1.00  0.00     0.039 A 
ATOM     38  C   UNL     1      11.091  10.454  -1.987  1.00  0.00     0.014 A 
ATOM     39  C   UNL     1       9.248   8.893  -2.075  1.00  0.00     0.014 A 
ATOM     40  C   UNL     1      11.753   9.678  -2.938  1.00  0.00     0.010 A 
ATOM     41  C   UNL     1      10.029   7.988  -2.716  1.00  0.00     0.010 A 
ATOM     42  C   UNL     1      11.201   8.438  -3.293  1.00  0.00    -0.014 A 
BRANCH  42  43
ATOM     43  C   UNL     1      11.796   7.528  -4.254  1.00  0.00     0.031 A 
ATOM     44  C   UNL     1      13.147   7.044  -3.894  1.00  0.00     0.074 A 
ATOM     45  C   UNL     1      11.050   6.949  -5.223  1.00  0.00     0.049 A 
ATOM     46  N   UNL     1      14.263   7.307  -4.484  1.00  0.00    -0.248 NA
ATOM     47  C   UNL     1      13.296   6.288  -2.639  1.00  0.00     0.031 C 
ATOM     48  C   UNL     1       9.602   7.063  -5.477  1.00  0.00     0.029 A 
ATOM     49  N   UNL     1      11.431   6.027  -6.144  1.00  0.00    -0.354 N 
ATOM     50  C   UNL     1      15.230   6.572  -3.806  1.00  0.00     0.074 A 
ATOM     51  C   UNL     1      14.621   6.144  -2.575  1.00  0.00     0.031 C 
ATOM     52  C   UNL     1       9.204   6.084  -6.318  1.00  0.00     0.029 A 
ATOM     53  C   UNL     1      10.382   5.396  -6.805  1.00  0.00     0.049 A 
ATOM     54  H   UNL     1      12.375   5.821  -6.329  1.00  0.00     0.167 HD
ATOM     55  C   UNL     1      16.363   6.156  -4.437  1.00  0.00     0.037 A 
ATOM     56  C   UNL     1      10.493   4.361  -7.672  1.00  0.00     0.037 A 
ATOM     57  C   UNL     1      16.553   6.863  -5.681  1.00  0.00     0.049 A 
ATOM     58  C   UNL     1      11.903   4.345  -8.143  1.00  0.00     0.074 A 
ATOM     59  C   UNL     1      16.701   8.192  -6.028  1.00  0.00     0.029 A 
ATOM     60  N   UNL     1      16.202   6.217  -6.843  1.00  0.00    -0.354 N 
ATOM     61  N   UNL     1      12.430   5.295  -8.868  1.00  0.00    -0.248 NA
ATOM     62  C   UNL     1      12.849   3.539  -7.385  1.00  0.00     0.031 C 
ATOM     63  C   UNL     1      15.942   8.344  -7.227  1.00  0.00     0.029 A 
ATOM     64  C   UNL     1      15.443   7.089  -7.581  1.00  0.00     0.049 A 
ATOM     65  H   UNL     1      16.450   5.299  -7.098  1.00  0.00     0.167 HD
ATOM     66  C   UNL     1      13.704   5.478  -8.348  1.00  0.00     0.074 A 
ATOM     67  C   UNL     1      13.927   4.324  -7.476  1.00  0.00     0.031 C 
ATOM     68  C   UNL     1      14.341   6.685  -8.427  1.00  0.00     0.037 A 
BRANCH  55  69
ATOM     69  C   UNL     1      17.087   4.868  -4.132  1.00  0.00     0.057 A 
ATOM     70  C   UNL     1      18.327   4.622  -4.748  1.00  0.00     0.134 A 
ATOM     71  C   UNL     1      16.503   3.750  -3.501  1.00  0.00     0.134 A 
ATOM     72  F   UNL     1      18.984   5.602  -5.388  1.00  0.00    -0.206 F 
ATOM     73  C   UNL     1      18.899   3.346  -4.803  1.00  0.00     0.040 A 
ATOM     74  C   UNL     1      17.092   2.483  -3.503  1.00  0.00     0.040 A 
ATOM     75  F   UNL     1      15.290   3.790  -2.938  1.00  0.00    -0.206 F 
ATOM     76  C   UNL     1      18.277   2.269  -4.186  1.00  0.00     0.006 A 
ENDBRANCH  55  69
BRANCH  56  77
ATOM     77  C   UNL     1       9.569   3.215  -7.837  1.00  0.00     0.057 A 
ATOM     78  C   UNL     1       9.615   2.392  -8.970  1.00  0.00     0.134 A 
ATOM     79  C   UNL     1       8.794   2.739  -6.763  1.00  0.00     0.134 A 
ATOM     80  F   UNL     1      10.365   2.735 -10.028  1.00  0.00    -0.206 F 
ATOM     81  C   UNL     1       8.941   1.163  -9.028  1.00  0.00     0.040 A 
ATOM     82  C   UNL     1       8.113   1.518  -6.809  1.00  0.00     0.040 A 
ATOM     83  F   UNL     1       8.745   3.402  -5.598  1.00  0.00    -0.206 F 
ATOM     84  C   UNL     1       8.194   0.718  -7.941  1.00  0.00     0.006 A 
ENDBRANCH  56  77
BRANCH  68  85
ATOM     85  C   UNL     1      13.713   7.768  -9.268  1.00  0.00     0.057 A 
ATOM     86  C   UNL     1      12.489   8.386  -8.963  1.00  0.00     0.134 A 
ATOM     87  C   UNL     1      14.457   8.336 -10.306  1.00  0.00     0.134 A 
ATOM     88  F   UNL     1      11.748   7.979  -7.929  1.00  0.00    -0.206 F 
ATOM     89  C   UNL     1      12.017   9.495  -9.673  1.00  0.00     0.040 A 
ATOM     90  C   UNL     1      14.012   9.462 -11.005  1.00  0.00     0.040 A 
ATOM     91  F   UNL     1      15.664   7.839 -10.619  1.00  0.00    -0.206 F 
ATOM     92  C   UNL     1      12.786  10.043 -10.693  1.00  0.00     0.006 A 
ENDBRANCH  68  85
ENDBRANCH  42  43
ENDBRANCH  34  37
ENDBRANCH  32  33
ENDBRANCH  31  32
ENDBRANCH  30  31
ENDBRANCH  29  30
ENDBRANCH   1  29
TORSDOF 16
