REMARK SMILES O=C(COCCNC(=O)Nc1cccc(F)c1)NCCCCCCNC(=O)c1ccc(-c2c3nc(c(-c4c(F)cccc4F)c4ccc([nH]4)c(-c4c(F)cccc4F)c4nc(c(-c5c(F)cccc5F)c5ccc2[nH]5)C=C4)C=C3)cc1
REMARK SMILES IDX 20 1 19 2 18 3 1 4 2 5 3 7 4 8 5 9 6 10 7 11 8 12 9 14 10 15
REMARK SMILES IDX 11 17 12 18 17 19 13 20 15 21 14 22 16 23 21 24 22 25 23 26
REMARK SMILES IDX 24 27 25 28 26 29 27 31 28 32 29 33 81 34 30 35 80 36 31 37
REMARK SMILES IDX 32 38 33 39 74 40 34 41 79 42 73 43 75 44 35 45 78 46 72 47
REMARK SMILES IDX 71 48 36 50 62 51 45 52 61 53 46 54 49 55 60 56 76 57 47 58
REMARK SMILES IDX 48 59 59 61 77 62 50 63 37 64 38 65 43 66 39 67 40 68 42 69
REMARK SMILES IDX 44 70 41 71 63 72 64 73 69 74 65 75 66 76 68 77 70 78 67 79
REMARK SMILES IDX 51 80 52 81 57 82 53 83 54 84 56 85 58 86 55 87
REMARK H PARENT 18 6 7 13 10 16 25 30 75 49 49 60
REMARK Flexibility Score: inf
ROOT
ATOM      1  C   UNL     1       2.614   0.630   3.487  1.00  0.00     0.021 C 
ENDROOT
BRANCH   1   2
ATOM      2  C   UNL     1       2.062   1.132   2.156  1.00  0.00     0.116 C 
BRANCH   2   3
ATOM      3  N   UNL     1       2.730   0.506   1.043  1.00  0.00    -0.354 N 
ATOM      4  O   UNL     1       1.312  -1.298   0.860  1.00  0.00    -0.272 OA
ATOM      5  C   UNL     1       2.292  -0.669   0.473  1.00  0.00     0.245 C 
ATOM      6  H   UNL     1       3.535   0.937   0.674  1.00  0.00     0.163 HD
BRANCH   5   7
ATOM      7  C   UNL     1       3.192  -1.150  -0.665  1.00  0.00     0.260 C 
BRANCH   7   8
ATOM      8  O   UNL     1       3.851  -0.125  -1.398  1.00  0.00    -0.370 OA
BRANCH   8   9
ATOM      9  C   UNL     1       2.983   0.786  -2.080  1.00  0.00     0.182 C 
BRANCH   9  10
ATOM     10  C   UNL     1       2.325   0.200  -3.330  1.00  0.00     0.146 C 
BRANCH  10  11
ATOM     11  N   UNL     1       1.056  -0.488  -3.095  1.00  0.00    -0.336 N 
ATOM     12  C   UNL     1      -0.229  -0.080  -3.031  1.00  0.00     0.319 C 
ATOM     13  H   UNL     1       1.162  -1.456  -2.952  1.00  0.00     0.165 HD
ATOM     14  O   UNL     1      -1.050  -0.840  -2.515  1.00  0.00    -0.249 OA
ATOM     15  N   UNL     1      -0.626   1.153  -3.406  1.00  0.00    -0.308 N 
ATOM     16  H   UNL     1      -1.414   1.490  -2.921  1.00  0.00     0.171 HD
BRANCH  15  17
ATOM     17  C   UNL     1      -0.118   2.037  -4.362  1.00  0.00     0.045 A 
ATOM     18  C   UNL     1       0.522   1.597  -5.527  1.00  0.00     0.026 A 
ATOM     19  C   UNL     1      -0.255   3.402  -4.121  1.00  0.00     0.065 A 
ATOM     20  C   UNL     1       1.162   2.513  -6.364  1.00  0.00     0.005 A 
ATOM     21  C   UNL     1       0.391   4.304  -4.957  1.00  0.00     0.125 A 
ATOM     22  C   UNL     1       1.120   3.872  -6.059  1.00  0.00     0.039 A 
ATOM     23  F   UNL     1       0.347   5.611  -4.668  1.00  0.00    -0.207 F 
ENDBRANCH  15  17
ENDBRANCH  10  11
ENDBRANCH   9  10
ENDBRANCH   8   9
ENDBRANCH   7   8
ENDBRANCH   5   7
ENDBRANCH   2   3
ENDBRANCH   1   2
BRANCH   1  24
ATOM     24  C   UNL     1       4.125   0.834   3.656  1.00  0.00     0.002 C 
BRANCH  24  25
ATOM     25  C   UNL     1       4.610   2.282   3.539  1.00  0.00     0.002 C 
BRANCH  25  26
ATOM     26  C   UNL     1       3.955   3.270   4.506  1.00  0.00     0.021 C 
BRANCH  26  27
ATOM     27  C   UNL     1       4.051   2.893   5.981  1.00  0.00     0.116 C 
BRANCH  27  28
ATOM     28  N   UNL     1       5.424   2.809   6.450  1.00  0.00    -0.352 N 
ATOM     29  C   UNL     1       5.982   3.292   7.607  1.00  0.00     0.251 C 
ATOM     30  H   UNL     1       6.045   2.336   5.850  1.00  0.00     0.163 HD
ATOM     31  O   UNL     1       7.198   3.244   7.769  1.00  0.00    -0.269 OA
BRANCH  29  32
ATOM     32  C   UNL     1       5.126   3.900   8.651  1.00  0.00     0.039 A 
ATOM     33  C   UNL     1       5.553   5.086   9.255  1.00  0.00     0.014 A 
ATOM     34  C   UNL     1       3.924   3.306   9.046  1.00  0.00     0.014 A 
ATOM     35  C   UNL     1       4.746   5.707  10.210  1.00  0.00     0.010 A 
ATOM     36  C   UNL     1       3.090   3.959   9.952  1.00  0.00     0.010 A 
ATOM     37  C   UNL     1       3.493   5.165  10.543  1.00  0.00    -0.014 A 
BRANCH  37  38
ATOM     38  C   UNL     1       2.595   5.867  11.493  1.00  0.00     0.031 A 
ATOM     39  C   UNL     1       2.264   5.260  12.826  1.00  0.00     0.074 A 
ATOM     40  C   UNL     1       2.046   7.044  11.136  1.00  0.00     0.049 A 
ATOM     41  N   UNL     1       1.500   5.731  13.780  1.00  0.00    -0.248 NA
ATOM     42  C   UNL     1       2.849   3.942  13.119  1.00  0.00     0.031 C 
ATOM     43  C   UNL     1       2.249   7.713   9.850  1.00  0.00     0.029 A 
ATOM     44  N   UNL     1       1.211   7.887  11.824  1.00  0.00    -0.354 N 
ATOM     45  C   UNL     1       1.511   4.770  14.782  1.00  0.00     0.074 A 
ATOM     46  C   UNL     1       2.311   3.665  14.298  1.00  0.00     0.031 C 
ATOM     47  C   UNL     1       1.589   8.882   9.856  1.00  0.00     0.029 A 
ATOM     48  C   UNL     1       0.894   9.030  11.132  1.00  0.00     0.049 A 
ATOM     49  H   UNL     1       0.871   7.691  12.727  1.00  0.00     0.167 HD
ATOM     50  C   UNL     1       0.928   4.814  16.004  1.00  0.00     0.037 A 
ATOM     51  C   UNL     1       0.137  10.085  11.487  1.00  0.00     0.037 A 
ATOM     52  C   UNL     1       0.145   5.920  16.491  1.00  0.00     0.049 A 
ATOM     53  C   UNL     1      -0.499  10.114  12.846  1.00  0.00     0.074 A 
ATOM     54  C   UNL     1      -0.442   6.078  17.734  1.00  0.00     0.029 A 
ATOM     55  N   UNL     1      -0.162   7.056  15.756  1.00  0.00    -0.354 N 
ATOM     56  N   UNL     1      -0.437   9.222  13.805  1.00  0.00    -0.248 NA
ATOM     57  C   UNL     1      -1.307  11.297  13.175  1.00  0.00     0.031 C 
ATOM     58  C   UNL     1      -1.137   7.293  17.739  1.00  0.00     0.029 A 
ATOM     59  C   UNL     1      -0.947   7.911  16.513  1.00  0.00     0.049 A 
ATOM     60  H   UNL     1       0.135   7.229  14.833  1.00  0.00     0.167 HD
ATOM     61  C   UNL     1      -1.187   9.737  14.853  1.00  0.00     0.074 A 
ATOM     62  C   UNL     1      -1.678  11.030  14.420  1.00  0.00     0.031 C 
ATOM     63  C   UNL     1      -1.444   9.187  16.065  1.00  0.00     0.037 A 
BRANCH  50  64
ATOM     64  C   UNL     1       1.130   3.632  16.906  1.00  0.00     0.057 A 
ATOM     65  C   UNL     1       0.068   2.772  17.212  1.00  0.00     0.134 A 
ATOM     66  C   UNL     1       2.370   3.364  17.500  1.00  0.00     0.134 A 
ATOM     67  F   UNL     1      -1.148   2.974  16.682  1.00  0.00    -0.206 F 
ATOM     68  C   UNL     1       0.233   1.688  18.076  1.00  0.00     0.040 A 
ATOM     69  C   UNL     1       2.554   2.269  18.346  1.00  0.00     0.040 A 
ATOM     70  F   UNL     1       3.431   4.143  17.238  1.00  0.00    -0.206 F 
ATOM     71  C   UNL     1       1.481   1.431  18.641  1.00  0.00     0.006 A 
ENDBRANCH  50  64
BRANCH  51  72
ATOM     72  C   UNL     1      -0.012  11.221  10.546  1.00  0.00     0.057 A 
ATOM     73  C   UNL     1      -0.789  11.117   9.387  1.00  0.00     0.134 A 
ATOM     74  C   UNL     1       0.667  12.425  10.766  1.00  0.00     0.134 A 
ATOM     75  F   UNL     1      -1.455   9.984   9.119  1.00  0.00    -0.206 F 
ATOM     76  C   UNL     1      -0.870  12.163   8.468  1.00  0.00     0.040 A 
ATOM     77  C   UNL     1       0.579  13.486   9.865  1.00  0.00     0.040 A 
ATOM     78  F   UNL     1       1.413  12.587  11.868  1.00  0.00    -0.206 F 
ATOM     79  C   UNL     1      -0.185  13.353   8.707  1.00  0.00     0.006 A 
ENDBRANCH  51  72
BRANCH  63  80
ATOM     80  C   UNL     1      -2.299   9.977  17.011  1.00  0.00     0.057 A 
ATOM     81  C   UNL     1      -1.744  10.575  18.149  1.00  0.00     0.134 A 
ATOM     82  C   UNL     1      -3.680  10.102  16.820  1.00  0.00     0.134 A 
ATOM     83  F   UNL     1      -0.429  10.485  18.395  1.00  0.00    -0.206 F 
ATOM     84  C   UNL     1      -2.536  11.264  19.069  1.00  0.00     0.040 A 
ATOM     85  C   UNL     1      -4.479  10.809  17.721  1.00  0.00     0.040 A 
ATOM     86  F   UNL     1      -4.270   9.563  15.742  1.00  0.00    -0.206 F 
ATOM     87  C   UNL     1      -3.908  11.385  18.854  1.00  0.00     0.006 A 
ENDBRANCH  63  80
ENDBRANCH  37  38
ENDBRANCH  29  32
ENDBRANCH  27  28
ENDBRANCH  26  27
ENDBRANCH  25  26
ENDBRANCH  24  25
ENDBRANCH   1  24
TORSDOF 18
