REMARK SMILES CN(C)Nc1ncnc(Nc2ccc(C(=O)NCCCCCCNC(=O)c3ccc(-c4c5nc(c(-c6c(F)cccc6F)c6ccc([nH]6)c(-c6c(F)cccc6F)c6nc(c(-c7c(F)cccc7F)c7ccc4[nH]7)C=C6)C=C5)cc3)cc2)c1[N+](=O)[O-]
REMARK SMILES IDX 19 1 18 2 17 3 15 4 16 5 14 7 11 8 12 9 82 10 13 11 81 12
REMARK SMILES IDX 10 13 9 15 5 16 6 17 83 18 7 19 8 20 4 21 2 23 1 24 3 25
REMARK SMILES IDX 84 26 85 27 86 28 20 29 21 30 22 31 23 32 24 33 25 34 26 36
REMARK SMILES IDX 27 37 28 38 80 39 29 40 79 41 30 42 31 43 32 44 73 45 33 46
REMARK SMILES IDX 78 47 72 48 74 49 34 50 77 51 71 52 70 53 35 55 61 56 44 57
REMARK SMILES IDX 60 58 45 59 48 60 59 61 75 62 46 63 47 64 58 66 76 67 49 68
REMARK SMILES IDX 36 69 37 70 42 71 38 72 39 73 41 74 43 75 40 76 62 77 63 78
REMARK SMILES IDX 68 79 64 80 65 81 67 82 69 83 66 84 50 85 51 86 56 87 52 88
REMARK SMILES IDX 53 89 55 90 57 91 54 92
REMARK H PARENT 17 6 10 14 4 22 24 35 74 54 48 65
REMARK Flexibility Score: inf
ROOT
ATOM      1  C   UNL     1       5.606  -8.501  -3.867  1.00  0.00     0.021 C 
ENDROOT
BRANCH   1   2
ATOM      2  C   UNL     1       5.978  -8.312  -2.394  1.00  0.00     0.116 C 
BRANCH   2   3
ATOM      3  N   UNL     1       7.341  -7.828  -2.302  1.00  0.00    -0.352 N 
ATOM      4  C   UNL     1       7.879  -6.593  -2.057  1.00  0.00     0.251 C 
ATOM      5  O   UNL     1       9.104  -6.486  -2.123  1.00  0.00    -0.269 OA
ATOM      6  H   UNL     1       8.017  -8.530  -2.443  1.00  0.00     0.163 HD
BRANCH   4   7
ATOM      7  C   UNL     1       7.072  -5.415  -1.637  1.00  0.00     0.039 A 
ATOM      8  C   UNL     1       5.653  -3.248  -0.519  1.00  0.00     0.040 A 
ATOM      9  C   UNL     1       7.015  -3.400  -0.267  1.00  0.00     0.027 A 
ATOM     10  C   UNL     1       5.041  -4.109  -1.438  1.00  0.00     0.027 A 
ATOM     11  C   UNL     1       7.712  -4.488  -0.800  1.00  0.00     0.016 A 
ATOM     12  C   UNL     1       5.752  -5.169  -2.014  1.00  0.00     0.016 A 
BRANCH   8  13
ATOM     13  N   UNL     1       4.955  -2.173   0.058  1.00  0.00    -0.334 N 
ATOM     14  H   UNL     1       5.334  -1.272  -0.063  1.00  0.00     0.168 HD
BRANCH  13  15
ATOM     15  C   UNL     1       3.758  -2.276   0.795  1.00  0.00     0.215 A 
ATOM     16  C   UNL     1       1.806  -1.389   1.818  1.00  0.00     0.225 A 
ATOM     17  N   UNL     1       1.473  -2.618   2.270  1.00  0.00    -0.212 NA
ATOM     18  C   UNL     1       2.998  -1.175   1.157  1.00  0.00     0.354 A 
ATOM     19  C   UNL     1       2.292  -3.621   1.954  1.00  0.00     0.227 A 
ATOM     20  N   UNL     1       3.392  -3.513   1.206  1.00  0.00    -0.212 NA
BRANCH  16  21
ATOM     21  N   UNL     1       0.769  -0.469   1.996  1.00  0.00    -0.298 N 
ATOM     22  H   UNL     1       0.318  -0.464   2.871  1.00  0.00     0.184 HD
BRANCH  21  23
ATOM     23  N   UNL     1       0.309   0.464   1.024  1.00  0.00    -0.228 NA
ATOM     24  C   UNL     1       0.284  -0.098  -0.339  1.00  0.00     0.130 C 
ATOM     25  C   UNL     1      -1.085   0.797   1.386  1.00  0.00     0.130 C 
ENDBRANCH  21  23
ENDBRANCH  16  21
BRANCH  18  26
ATOM     26  N   UNL     1       3.476   0.150   0.898  1.00  0.00     0.070 N 
ATOM     27  O   UNL     1       3.866   0.390  -0.258  1.00  0.00    -0.258 OA
ATOM     28  O   UNL     1       3.574   0.928   1.855  1.00  0.00    -0.258 OA
ENDBRANCH  18  26
ENDBRANCH  13  15
ENDBRANCH   8  13
ENDBRANCH   4   7
ENDBRANCH   2   3
ENDBRANCH   1   2
BRANCH   1  29
ATOM     29  C   UNL     1       6.222  -9.767  -4.481  1.00  0.00     0.002 C 
BRANCH  29  30
ATOM     30  C   UNL     1       5.738 -11.081  -3.855  1.00  0.00     0.002 C 
BRANCH  30  31
ATOM     31  C   UNL     1       4.220 -11.272  -3.866  1.00  0.00     0.021 C 
BRANCH  31  32
ATOM     32  C   UNL     1       3.607 -11.293  -5.262  1.00  0.00     0.116 C 
BRANCH  32  33
ATOM     33  N   UNL     1       4.066 -12.440  -6.029  1.00  0.00    -0.352 N 
ATOM     34  C   UNL     1       3.331 -13.432  -6.628  1.00  0.00     0.251 C 
ATOM     35  H   UNL     1       5.042 -12.516  -6.134  1.00  0.00     0.163 HD
ATOM     36  O   UNL     1       3.877 -14.453  -7.029  1.00  0.00    -0.269 OA
BRANCH  34  37
ATOM     37  C   UNL     1       1.871 -13.266  -6.780  1.00  0.00     0.039 A 
ATOM     38  C   UNL     1       1.032 -14.342  -6.484  1.00  0.00     0.014 A 
ATOM     39  C   UNL     1       1.335 -12.055  -7.226  1.00  0.00     0.014 A 
ATOM     40  C   UNL     1      -0.351 -14.187  -6.586  1.00  0.00     0.010 A 
ATOM     41  C   UNL     1      -0.045 -11.878  -7.257  1.00  0.00     0.010 A 
ATOM     42  C   UNL     1      -0.901 -12.944  -6.944  1.00  0.00    -0.014 A 
BRANCH  42  43
ATOM     43  C   UNL     1      -2.370 -12.743  -7.001  1.00  0.00     0.031 A 
ATOM     44  C   UNL     1      -3.037 -12.416  -8.309  1.00  0.00     0.074 A 
ATOM     45  C   UNL     1      -3.094 -12.794  -5.866  1.00  0.00     0.049 A 
ATOM     46  N   UNL     1      -4.293 -12.140  -8.550  1.00  0.00    -0.248 NA
ATOM     47  C   UNL     1      -2.173 -12.367  -9.500  1.00  0.00     0.031 C 
ATOM     48  C   UNL     1      -2.556 -13.059  -4.530  1.00  0.00     0.029 A 
ATOM     49  N   UNL     1      -4.438 -12.616  -5.653  1.00  0.00    -0.354 N 
ATOM     50  C   UNL     1      -4.367 -11.873  -9.912  1.00  0.00     0.074 A 
ATOM     51  C   UNL     1      -3.022 -11.967 -10.435  1.00  0.00     0.031 C 
ATOM     52  C   UNL     1      -3.562 -13.049  -3.641  1.00  0.00     0.029 A 
ATOM     53  C   UNL     1      -4.807 -12.738  -4.335  1.00  0.00     0.049 A 
ATOM     54  H   UNL     1      -5.077 -12.420  -6.376  1.00  0.00     0.167 HD
ATOM     55  C   UNL     1      -5.460 -11.597 -10.661  1.00  0.00     0.037 A 
ATOM     56  C   UNL     1      -6.014 -12.604  -3.752  1.00  0.00     0.037 A 
ATOM     57  C   UNL     1      -6.801 -11.530 -10.140  1.00  0.00     0.049 A 
ATOM     58  C   UNL     1      -7.209 -12.286  -4.607  1.00  0.00     0.074 A 
ATOM     59  C   UNL     1      -7.982 -11.316 -10.829  1.00  0.00     0.029 A 
ATOM     60  N   UNL     1      -7.136 -11.673  -8.803  1.00  0.00    -0.354 N 
ATOM     61  N   UNL     1      -7.274 -12.104  -5.904  1.00  0.00    -0.248 NA
ATOM     62  C   UNL     1      -8.501 -12.159  -3.918  1.00  0.00     0.031 C 
ATOM     63  C   UNL     1      -9.028 -11.282  -9.901  1.00  0.00     0.029 A 
ATOM     64  C   UNL     1      -8.504 -11.528  -8.642  1.00  0.00     0.049 A 
ATOM     65  H   UNL     1      -6.497 -11.851  -8.075  1.00  0.00     0.167 HD
ATOM     66  C   UNL     1      -8.614 -11.875  -6.189  1.00  0.00     0.074 A 
ATOM     67  C   UNL     1      -9.329 -11.955  -4.933  1.00  0.00     0.031 C 
ATOM     68  C   UNL     1      -9.201 -11.622  -7.385  1.00  0.00     0.037 A 
BRANCH  55  69
ATOM     69  C   UNL     1      -5.256 -11.351 -12.128  1.00  0.00     0.057 A 
ATOM     70  C   UNL     1      -4.899 -12.382 -13.008  1.00  0.00     0.134 A 
ATOM     71  C   UNL     1      -5.466 -10.079 -12.676  1.00  0.00     0.134 A 
ATOM     72  F   UNL     1      -4.671 -13.621 -12.547  1.00  0.00    -0.206 F 
ATOM     73  C   UNL     1      -4.736 -12.152 -14.375  1.00  0.00     0.040 A 
ATOM     74  C   UNL     1      -5.334  -9.843 -14.046  1.00  0.00     0.040 A 
ATOM     75  F   UNL     1      -5.815  -9.048 -11.892  1.00  0.00    -0.206 F 
ATOM     76  C   UNL     1      -4.963 -10.880 -14.899  1.00  0.00     0.006 A 
ENDBRANCH  55  69
BRANCH  56  77
ATOM     77  C   UNL     1      -6.160 -12.786  -2.285  1.00  0.00     0.057 A 
ATOM     78  C   UNL     1      -6.860 -13.879  -1.759  1.00  0.00     0.134 A 
ATOM     79  C   UNL     1      -5.628 -11.864  -1.376  1.00  0.00     0.134 A 
ATOM     80  F   UNL     1      -7.408 -14.787  -2.580  1.00  0.00    -0.206 F 
ATOM     81  C   UNL     1      -7.050 -14.034  -0.385  1.00  0.00     0.040 A 
ATOM     82  C   UNL     1      -5.786 -12.022   0.002  1.00  0.00     0.040 A 
ATOM     83  F   UNL     1      -4.939 -10.800  -1.814  1.00  0.00    -0.206 F 
ATOM     84  C   UNL     1      -6.508 -13.105   0.500  1.00  0.00     0.006 A 
ENDBRANCH  56  77
BRANCH  68  85
ATOM     85  C   UNL     1     -10.693 -11.456  -7.397  1.00  0.00     0.057 A 
ATOM     86  C   UNL     1     -11.317 -10.321  -6.864  1.00  0.00     0.134 A 
ATOM     87  C   UNL     1     -11.512 -12.428  -7.985  1.00  0.00     0.134 A 
ATOM     88  F   UNL     1     -10.591  -9.359  -6.274  1.00  0.00    -0.206 F 
ATOM     89  C   UNL     1     -12.704 -10.171  -6.893  1.00  0.00     0.040 A 
ATOM     90  C   UNL     1     -12.897 -12.276  -8.047  1.00  0.00     0.040 A 
ATOM     91  F   UNL     1     -10.977 -13.535  -8.523  1.00  0.00    -0.206 F 
ATOM     92  C   UNL     1     -13.498 -11.147  -7.494  1.00  0.00     0.006 A 
ENDBRANCH  68  85
ENDBRANCH  42  43
ENDBRANCH  34  37
ENDBRANCH  32  33
ENDBRANCH  31  32
ENDBRANCH  30  31
ENDBRANCH  29  30
ENDBRANCH   1  29
TORSDOF 18
