REMARK SMILES Cc1cc(S(F)(F)(F)(F)F)cc2c1O[C@H](C(F)(F)F)C(C(=O)NCCCCCCNC(=O)c1ccc(-c3c4nc(c(-c5c(F)cccc5F)c5ccc([nH]5)c(-c5c(F)cccc5F)c5nc(c(-c6c(F)cccc6F)c6ccc3[nH]6)C=C5)C=C4)cc1)=C2
REMARK SMILES IDX 27 1 26 2 25 3 24 4 23 5 21 6 22 7 20 9 1 10 2 11 3 12 13 13
REMARK SMILES IDX 4 14 12 15 14 16 11 17 87 18 15 19 5 20 6 21 7 22 8 23 9 24
REMARK SMILES IDX 10 25 16 26 17 27 18 28 19 29 28 30 29 31 30 32 31 33 32 35
REMARK SMILES IDX 33 36 34 37 86 38 35 39 85 40 36 41 37 42 38 43 79 44 39 45
REMARK SMILES IDX 84 46 78 47 80 48 40 49 83 50 77 51 76 52 41 54 67 55 50 56
REMARK SMILES IDX 66 57 51 58 54 59 65 60 81 61 52 62 53 63 64 65 82 66 55 67
REMARK SMILES IDX 42 68 43 69 48 70 44 71 45 72 47 73 49 74 46 75 68 76 69 77
REMARK SMILES IDX 74 78 70 79 71 80 73 81 75 82 72 83 56 84 57 85 62 86 58 87
REMARK SMILES IDX 59 88 61 89 63 90 60 91
REMARK H PARENT 23 8 30 34 80 53 54 64
REMARK Flexibility Score: inf
ROOT
ATOM      1  C   UNL     1      -1.009  -8.511  -2.886  1.00  0.00     0.002 C 
ENDROOT
BRANCH   1   2
ATOM      2  C   UNL     1      -2.218  -7.589  -2.864  1.00  0.00     0.002 C 
BRANCH   2   3
ATOM      3  C   UNL     1      -1.842  -6.278  -2.193  1.00  0.00     0.021 C 
BRANCH   3   4
ATOM      4  C   UNL     1      -0.715  -5.617  -2.969  1.00  0.00     0.116 C 
BRANCH   4   5
ATOM      5  N   UNL     1      -1.156  -5.353  -4.346  1.00  0.00    -0.352 N 
ATOM      6  C   UNL     1      -1.179  -3.977  -4.861  1.00  0.00     0.251 C 
ATOM      7  O   UNL     1      -1.561  -3.749  -6.051  1.00  0.00    -0.270 OA
ATOM      8  H   UNL     1      -1.437  -6.099  -4.924  1.00  0.00     0.163 HD
BRANCH   6   9
ATOM      9  C   UNL     1      -0.745  -2.825  -3.968  1.00  0.00     0.067 C 
ATOM     10  C   UNL     1       0.963   0.062  -0.069  1.00  0.00     0.048 C 
ATOM     11  C   UNL     1       0.456   0.318  -1.479  1.00  0.00    -0.007 A 
ATOM     12  C   UNL     1       0.427   1.601  -1.978  1.00  0.00     0.031 A 
ATOM     13  C   UNL     1       0.060  -0.742  -2.294  1.00  0.00     0.130 A 
ATOM     14  C   UNL     1       0.005   1.848  -3.278  1.00  0.00     0.108 A 
ATOM     15  C   UNL     1      -0.364  -0.487  -3.617  1.00  0.00     0.019 A 
ATOM     16  O   UNL     1       0.067  -2.132  -1.821  1.00  0.00    -0.475 OA
ATOM     17  C   UNL     1      -0.382   0.824  -4.096  1.00  0.00     0.036 A 
ATOM     18  C   UNL     1      -0.775  -1.618  -4.450  1.00  0.00     0.025 C 
ATOM     19  C   UNL     1      -0.331  -3.107  -2.666  1.00  0.00     0.314 C 
BRANCH  14  20
ATOM     20  S   UNL     1      -0.034   3.549  -3.896  1.00  0.00     0.310 S 
ATOM     21  F   UNL     1      -1.069   3.195  -5.045  1.00  0.00    -0.094 F 
ATOM     22  F   UNL     1       1.113   3.156  -4.903  1.00  0.00    -0.094 F 
ATOM     23  F   UNL     1      -0.038   5.010  -4.428  1.00  0.00    -0.094 F 
ATOM     24  F   UNL     1      -1.276   3.887  -2.982  1.00  0.00    -0.094 F 
ATOM     25  F   UNL     1      -0.118   2.042  -3.428  1.00  0.00    -0.094 F 
ENDBRANCH  14  20
BRANCH  19  26
ATOM     26  C   UNL     1       0.957  -3.880  -2.897  1.00  0.00     0.429 C 
ATOM     27  F   UNL     1       1.444  -4.289  -1.729  1.00  0.00    -0.167 F 
ATOM     28  F   UNL     1       0.709  -4.935  -3.668  1.00  0.00    -0.167 F 
ATOM     29  F   UNL     1       1.846  -3.092  -3.497  1.00  0.00    -0.167 F 
ENDBRANCH  19  26
ENDBRANCH   6   9
ENDBRANCH   4   5
ENDBRANCH   3   4
ENDBRANCH   2   3
ENDBRANCH   1   2
BRANCH   1  30
ATOM     30  C   UNL     1      -0.552  -8.783  -1.462  1.00  0.00     0.021 C 
BRANCH  30  31
ATOM     31  C   UNL     1      -1.680  -9.444  -0.686  1.00  0.00     0.116 C 
BRANCH  31  32
ATOM     32  N   UNL     1      -2.043 -10.712  -1.335  1.00  0.00    -0.352 N 
ATOM     33  C   UNL     1      -1.930 -11.976  -0.593  1.00  0.00     0.251 C 
ATOM     34  H   UNL     1      -2.362 -10.715  -2.267  1.00  0.00     0.163 HD
ATOM     35  O   UNL     1      -2.244 -13.073  -1.154  1.00  0.00    -0.269 OA
BRANCH  33  36
ATOM     36  C   UNL     1      -1.438 -11.972   0.845  1.00  0.00     0.039 A 
ATOM     37  C   UNL     1      -0.496 -12.898   1.278  1.00  0.00     0.014 A 
ATOM     38  C   UNL     1      -1.893 -11.092   1.711  1.00  0.00     0.014 A 
ATOM     39  C   UNL     1       0.268 -12.539   2.411  1.00  0.00     0.010 A 
ATOM     40  C   UNL     1      -1.446 -11.095   3.037  1.00  0.00     0.010 A 
ATOM     41  C   UNL     1      -0.390 -11.797   3.390  1.00  0.00    -0.014 A 
BRANCH  41  42
ATOM     42  C   UNL     1       0.099 -11.797   4.829  1.00  0.00     0.031 A 
ATOM     43  C   UNL     1      -0.774 -12.252   5.819  1.00  0.00     0.074 A 
ATOM     44  C   UNL     1       1.384 -11.347   5.078  1.00  0.00     0.049 A 
ATOM     45  N   UNL     1      -0.534 -12.365   7.126  1.00  0.00    -0.248 NA
ATOM     46  C   UNL     1      -2.151 -12.698   5.561  1.00  0.00     0.031 C 
ATOM     47  C   UNL     1       2.274 -10.896   4.084  1.00  0.00     0.029 A 
ATOM     48  N   UNL     1       2.026 -11.253   6.293  1.00  0.00    -0.354 N 
ATOM     49  C   UNL     1      -1.607 -12.855   7.751  1.00  0.00     0.074 A 
ATOM     50  C   UNL     1      -2.664 -13.071   6.754  1.00  0.00     0.031 C 
ATOM     51  C   UNL     1       3.431 -10.523   4.691  1.00  0.00     0.029 A 
ATOM     52  C   UNL     1       3.285 -10.737   6.075  1.00  0.00     0.049 A 
ATOM     53  H   UNL     1       1.651 -11.509   7.166  1.00  0.00     0.167 HD
ATOM     54  C   UNL     1      -1.743 -13.133   9.112  1.00  0.00     0.037 A 
ATOM     55  C   UNL     1       4.262 -10.459   7.017  1.00  0.00     0.037 A 
ATOM     56  C   UNL     1      -0.750 -12.896  10.048  1.00  0.00     0.049 A 
ATOM     57  C   UNL     1       4.105 -10.682   8.387  1.00  0.00     0.074 A 
ATOM     58  C   UNL     1      -0.868 -13.177  11.423  1.00  0.00     0.029 A 
ATOM     59  N   UNL     1       0.500 -12.356   9.834  1.00  0.00    -0.354 N 
ATOM     60  N   UNL     1       3.047 -11.209   9.006  1.00  0.00    -0.248 NA
ATOM     61  C   UNL     1       5.121 -10.361   9.398  1.00  0.00     0.031 C 
ATOM     62  C   UNL     1       0.290 -12.804  12.031  1.00  0.00     0.029 A 
ATOM     63  C   UNL     1       1.150 -12.283  11.046  1.00  0.00     0.049 A 
ATOM     64  H   UNL     1       0.865 -12.073   8.965  1.00  0.00     0.167 HD
ATOM     65  C   UNL     1       3.273 -11.283  10.319  1.00  0.00     0.074 A 
ATOM     66  C   UNL     1       4.607 -10.732  10.591  1.00  0.00     0.031 C 
ATOM     67  C   UNL     1       2.421 -11.792  11.301  1.00  0.00     0.037 A 
BRANCH  54  68
ATOM     68  C   UNL     1      -3.055 -13.730   9.594  1.00  0.00     0.057 A 
ATOM     69  C   UNL     1      -3.766 -13.074  10.486  1.00  0.00     0.134 A 
ATOM     70  C   UNL     1      -3.501 -14.954   9.083  1.00  0.00     0.134 A 
ATOM     71  F   UNL     1      -3.340 -11.914  10.979  1.00  0.00    -0.206 F 
ATOM     72  C   UNL     1      -4.975 -13.622  10.900  1.00  0.00     0.040 A 
ATOM     73  C   UNL     1      -4.738 -15.356   9.281  1.00  0.00     0.040 A 
ATOM     74  F   UNL     1      -2.663 -15.720   8.390  1.00  0.00    -0.206 F 
ATOM     75  C   UNL     1      -5.592 -14.533  10.014  1.00  0.00     0.006 A 
ENDBRANCH  54  68
BRANCH  55  76
ATOM     76  C   UNL     1       5.581  -9.878   6.532  1.00  0.00     0.057 A 
ATOM     77  C   UNL     1       5.576  -8.727   5.895  1.00  0.00     0.134 A 
ATOM     78  C   UNL     1       6.777 -10.569   6.755  1.00  0.00     0.134 A 
ATOM     79  F   UNL     1       4.439  -8.073   5.676  1.00  0.00    -0.206 F 
ATOM     80  C   UNL     1       6.791  -8.210   5.457  1.00  0.00     0.040 A 
ATOM     81  C   UNL     1       7.939  -9.981   6.564  1.00  0.00     0.040 A 
ATOM     82  F   UNL     1       6.739 -11.834   7.162  1.00  0.00    -0.206 F 
ATOM     83  C   UNL     1       7.948  -8.656   6.133  1.00  0.00     0.006 A 
ENDBRANCH  55  76
BRANCH  67  84
ATOM     84  C   UNL     1       2.917 -11.808  12.738  1.00  0.00     0.057 A 
ATOM     85  C   UNL     1       3.013 -12.952  13.380  1.00  0.00     0.134 A 
ATOM     86  C   UNL     1       3.267 -10.605  13.362  1.00  0.00     0.134 A 
ATOM     87  F   UNL     1       2.672 -14.095  12.790  1.00  0.00    -0.206 F 
ATOM     88  C   UNL     1       3.479 -12.938  14.690  1.00  0.00     0.040 A 
ATOM     89  C   UNL     1       3.931 -10.605  14.498  1.00  0.00     0.040 A 
ATOM     90  F   UNL     1       2.925  -9.449  12.801  1.00  0.00    -0.206 F 
ATOM     91  C   UNL     1       4.273 -11.832  15.065  1.00  0.00     0.006 A 
ENDBRANCH  67  84
ENDBRANCH  41  42
ENDBRANCH  33  36
ENDBRANCH  31  32
ENDBRANCH  30  31
ENDBRANCH   1  30
TORSDOF 15
