REMARK SMILES O=C(NCCCCCCNC(=O)c1nccnc1C(=O)Nc1n[nH]c2ncccc12)c1ccc(-c2c3nc(c(-c4c(F)cccc4F)c4ccc([nH]4)c(-c4c(F)cccc4F)c4nc(c(-c5c(F)cccc5F)c5ccc2[nH]5)C=C4)C=C3)cc1
REMARK SMILES IDX 6 1 5 2 4 3 3 4 1 5 2 6 31 8 32 9 84 10 33 11 83 12 34 13
REMARK SMILES IDX 35 14 36 15 77 16 37 17 82 18 76 19 78 20 38 21 81 22 75 23
REMARK SMILES IDX 74 24 39 26 65 27 48 28 64 29 49 30 52 31 63 32 79 33 50 34
REMARK SMILES IDX 51 35 62 37 80 38 53 39 40 40 41 41 46 42 42 43 43 44 45 45
REMARK SMILES IDX 47 46 44 47 66 48 67 49 72 50 68 51 69 52 71 53 73 54 70 55
REMARK SMILES IDX 54 56 55 57 60 58 56 59 57 60 59 61 61 62 58 63 7 64 8 65
REMARK SMILES IDX 9 66 10 67 11 68 12 70 13 71 14 72 18 73 15 74 17 75 16 76
REMARK SMILES IDX 19 77 20 78 21 79 22 81 23 82 30 83 24 84 25 85 29 86 26 88
REMARK SMILES IDX 28 89 27 90
REMARK H PARENT 3 7 78 25 52 36 10 69 21 80 24 87
REMARK Flexibility Score: inf
ROOT
ATOM      1  C   UNL     1       3.838   3.013  -1.922  1.00  0.00     0.002 C 
ENDROOT
BRANCH   1   2
ATOM      2  C   UNL     1       4.364   1.631  -1.554  1.00  0.00     0.021 C 
BRANCH   2   3
ATOM      3  C   UNL     1       4.215   1.298  -0.086  1.00  0.00     0.116 C 
BRANCH   3   4
ATOM      4  N   UNL     1       2.825   1.024   0.240  1.00  0.00    -0.352 N 
ATOM      5  O   UNL     1       0.955  -0.243   0.211  1.00  0.00    -0.269 OA
ATOM      6  C   UNL     1       2.178  -0.189   0.267  1.00  0.00     0.251 C 
ATOM      7  H   UNL     1       2.276   1.808   0.471  1.00  0.00     0.163 HD
BRANCH   6   8
ATOM      8  C   UNL     1       2.976  -1.430   0.362  1.00  0.00     0.039 A 
ATOM      9  C   UNL     1       4.106  -1.466   1.179  1.00  0.00     0.014 A 
ATOM     10  C   UNL     1       2.586  -2.572  -0.342  1.00  0.00     0.014 A 
ATOM     11  C   UNL     1       4.938  -2.572   1.164  1.00  0.00     0.010 A 
ATOM     12  C   UNL     1       3.345  -3.741  -0.235  1.00  0.00     0.010 A 
ATOM     13  C   UNL     1       4.534  -3.745   0.512  1.00  0.00    -0.014 A 
BRANCH  13  14
ATOM     14  C   UNL     1       5.307  -4.987   0.758  1.00  0.00     0.031 A 
ATOM     15  C   UNL     1       5.971  -5.737  -0.357  1.00  0.00     0.074 A 
ATOM     16  C   UNL     1       5.418  -5.415   2.033  1.00  0.00     0.049 A 
ATOM     17  N   UNL     1       6.682  -6.834  -0.295  1.00  0.00    -0.248 NA
ATOM     18  C   UNL     1       5.813  -5.199  -1.716  1.00  0.00     0.031 C 
ATOM     19  C   UNL     1       4.802  -4.767   3.197  1.00  0.00     0.029 A 
ATOM     20  N   UNL     1       6.097  -6.475   2.572  1.00  0.00    -0.354 N 
ATOM     21  C   UNL     1       7.043  -7.129  -1.602  1.00  0.00     0.074 A 
ATOM     22  C   UNL     1       6.447  -6.111  -2.442  1.00  0.00     0.031 C 
ATOM     23  C   UNL     1       5.178  -5.405   4.311  1.00  0.00     0.029 A 
ATOM     24  C   UNL     1       5.978  -6.562   3.938  1.00  0.00     0.049 A 
ATOM     25  H   UNL     1       6.619  -7.113   2.034  1.00  0.00     0.167 HD
ATOM     26  C   UNL     1       7.806  -8.154  -2.053  1.00  0.00     0.037 A 
ATOM     27  C   UNL     1       6.429  -7.490   4.799  1.00  0.00     0.037 A 
ATOM     28  C   UNL     1       8.386  -9.164  -1.202  1.00  0.00     0.049 A 
ATOM     29  C   UNL     1       7.218  -8.645   4.259  1.00  0.00     0.074 A 
ATOM     30  C   UNL     1       9.196 -10.229  -1.559  1.00  0.00     0.029 A 
ATOM     31  N   UNL     1       8.206  -9.245   0.172  1.00  0.00    -0.354 N 
ATOM     32  N   UNL     1       7.588  -8.887   3.025  1.00  0.00    -0.248 NA
ATOM     33  C   UNL     1       7.652  -9.656   5.229  1.00  0.00     0.031 C 
ATOM     34  C   UNL     1       9.448 -10.991  -0.415  1.00  0.00     0.029 A 
ATOM     35  C   UNL     1       8.862 -10.361   0.671  1.00  0.00     0.049 A 
ATOM     36  H   UNL     1       7.689  -8.605   0.713  1.00  0.00     0.167 HD
ATOM     37  C   UNL     1       8.318 -10.066   3.074  1.00  0.00     0.074 A 
ATOM     38  C   UNL     1       8.361 -10.471   4.464  1.00  0.00     0.031 C 
ATOM     39  C   UNL     1       8.899 -10.751   2.058  1.00  0.00     0.037 A 
BRANCH  26  40
ATOM     40  C   UNL     1       8.038  -8.256  -3.535  1.00  0.00     0.057 A 
ATOM     41  C   UNL     1       8.830  -7.332  -4.230  1.00  0.00     0.134 A 
ATOM     42  C   UNL     1       7.505  -9.325  -4.267  1.00  0.00     0.134 A 
ATOM     43  F   UNL     1       9.365  -6.279  -3.594  1.00  0.00    -0.206 F 
ATOM     44  C   UNL     1       9.064  -7.456  -5.602  1.00  0.00     0.040 A 
ATOM     45  C   UNL     1       7.757  -9.477  -5.632  1.00  0.00     0.040 A 
ATOM     46  F   UNL     1       6.745 -10.252  -3.665  1.00  0.00    -0.206 F 
ATOM     47  C   UNL     1       8.534  -8.536  -6.305  1.00  0.00     0.006 A 
ENDBRANCH  26  40
BRANCH  27  48
ATOM     48  C   UNL     1       6.117  -7.380   6.247  1.00  0.00     0.057 A 
ATOM     49  C   UNL     1       7.127  -7.183   7.195  1.00  0.00     0.134 A 
ATOM     50  C   UNL     1       4.802  -7.483   6.720  1.00  0.00     0.134 A 
ATOM     51  F   UNL     1       8.408  -7.087   6.807  1.00  0.00    -0.206 F 
ATOM     52  C   UNL     1       6.846  -7.124   8.560  1.00  0.00     0.040 A 
ATOM     53  C   UNL     1       4.502  -7.388   8.078  1.00  0.00     0.040 A 
ATOM     54  F   UNL     1       3.785  -7.658   5.863  1.00  0.00    -0.206 F 
ATOM     55  C   UNL     1       5.529  -7.222   9.005  1.00  0.00     0.006 A 
ENDBRANCH  27  48
BRANCH  39  56
ATOM     56  C   UNL     1       9.669 -11.987   2.426  1.00  0.00     0.057 A 
ATOM     57  C   UNL     1       9.040 -13.145   2.901  1.00  0.00     0.134 A 
ATOM     58  C   UNL     1      11.063 -12.022   2.286  1.00  0.00     0.134 A 
ATOM     59  F   UNL     1       7.710 -13.175   3.075  1.00  0.00    -0.206 F 
ATOM     60  C   UNL     1       9.772 -14.279   3.257  1.00  0.00     0.040 A 
ATOM     61  C   UNL     1      11.802 -13.162   2.602  1.00  0.00     0.040 A 
ATOM     62  F   UNL     1      11.730 -10.951   1.828  1.00  0.00    -0.206 F 
ATOM     63  C   UNL     1      11.156 -14.292   3.100  1.00  0.00     0.006 A 
ENDBRANCH  39  56
ENDBRANCH  13  14
ENDBRANCH   6   8
ENDBRANCH   3   4
ENDBRANCH   2   3
ENDBRANCH   1   2
BRANCH   1  64
ATOM     64  C   UNL     1       4.463   4.226  -1.194  1.00  0.00     0.002 C 
BRANCH  64  65
ATOM     65  C   UNL     1       6.188   4.580  -1.214  1.00  0.00     0.021 C 
BRANCH  65  66
ATOM     66  C   UNL     1       7.570   5.142  -2.834  1.00  0.00     0.116 C 
BRANCH  66  67
ATOM     67  N   UNL     1       7.573   6.378  -3.857  1.00  0.00    -0.351 N 
ATOM     68  C   UNL     1       8.480   7.410  -3.964  1.00  0.00     0.272 C 
ATOM     69  H   UNL     1       6.824   6.402  -4.495  1.00  0.00     0.163 HD
ATOM     70  O   UNL     1       8.280   8.389  -4.671  1.00  0.00    -0.267 OA
BRANCH  68  71
ATOM     71  C   UNL     1       9.736   7.239  -3.221  1.00  0.00     0.159 A 
ATOM     72  N   UNL     1      10.556   6.292  -3.795  1.00  0.00    -0.247 NA
ATOM     73  C   UNL     1       9.979   7.800  -1.976  1.00  0.00     0.159 A 
ATOM     74  C   UNL     1      11.648   5.952  -3.093  1.00  0.00     0.132 A 
ATOM     75  N   UNL     1      11.098   7.424  -1.274  1.00  0.00    -0.247 NA
ATOM     76  C   UNL     1      11.914   6.509  -1.858  1.00  0.00     0.132 A 
BRANCH  73  77
ATOM     77  C   UNL     1       9.186   8.892  -1.326  1.00  0.00     0.277 C 
ATOM     78  O   UNL     1       9.816   9.864  -0.895  1.00  0.00    -0.267 OA
ATOM     79  N   UNL     1       7.812   8.925  -1.219  1.00  0.00    -0.303 N 
ATOM     80  H   UNL     1       7.442   9.794  -0.941  1.00  0.00     0.172 HD
BRANCH  79  81
ATOM     81  C   UNL     1       6.875   7.949  -1.437  1.00  0.00     0.164 A 
ATOM     82  N   UNL     1       5.671   8.317  -1.914  1.00  0.00    -0.155 NA
ATOM     83  C   UNL     1       7.038   6.553  -1.350  1.00  0.00     0.063 A 
ATOM     84  N   UNL     1       5.125   7.265  -2.596  1.00  0.00    -0.259 N 
ATOM     85  C   UNL     1       5.796   6.083  -2.459  1.00  0.00     0.157 A 
ATOM     86  C   UNL     1       8.165   5.307  -0.757  1.00  0.00     0.017 A 
ATOM     87  H   UNL     1       4.311   7.353  -3.144  1.00  0.00     0.192 HD
ATOM     88  N   UNL     1       5.706   4.501  -3.191  1.00  0.00    -0.237 NA
ATOM     89  C   UNL     1       8.114   3.653  -1.399  1.00  0.00     0.021 A 
ATOM     90  C   UNL     1       6.864   3.278  -2.573  1.00  0.00     0.113 A 
ENDBRANCH  79  81
ENDBRANCH  73  77
ENDBRANCH  68  71
ENDBRANCH  66  67
ENDBRANCH  65  66
ENDBRANCH  64  65
ENDBRANCH   1  64
TORSDOF 15
