REMARK SMILES CSc1ccc(CNc2ccc(N3CCOCC3)c(C(=O)NCCCCCCNC(=O)c3ccc(-c4c5nc(c(-c6c(F)cccc6F)c6ccc([nH]6)c(-c6c(F)cccc6F)c6nc(c(-c7c(F)cccc7F)c7ccc4[nH]7)C=C6)C=C5)cc3)c2)cc1
REMARK SMILES IDX 24 1 23 2 22 3 20 4 21 5 19 7 9 8 10 9 86 10 11 11 12 12
REMARK SMILES IDX 8 13 7 15 6 16 3 17 4 18 88 19 5 20 87 21 2 22 1 23 13 24
REMARK SMILES IDX 14 25 18 26 15 27 17 28 16 29 25 30 26 31 27 32 28 33 29 34
REMARK SMILES IDX 30 35 31 37 32 38 33 39 85 40 34 41 84 42 35 43 36 44 37 45
REMARK SMILES IDX 78 46 38 47 83 48 77 49 79 50 39 51 82 52 76 53 75 54 40 56
REMARK SMILES IDX 66 57 49 58 65 59 50 60 53 61 64 62 80 63 51 64 52 65 63 67
REMARK SMILES IDX 81 68 54 69 41 70 42 71 47 72 43 73 44 74 46 75 48 76 45 77
REMARK SMILES IDX 67 78 68 79 73 80 69 81 70 82 72 83 74 84 71 85 55 86 56 87
REMARK SMILES IDX 61 88 57 89 58 90 60 91 62 92 59 93
REMARK H PARENT 22 6 8 14 29 36 79 55 53 66
REMARK Flexibility Score: inf
ROOT
ATOM      1  C   UNL     1       2.451  -6.607  -9.680  1.00  0.00     0.021 C 
ENDROOT
BRANCH   1   2
ATOM      2  C   UNL     1       1.710  -6.918  -8.386  1.00  0.00     0.116 C 
BRANCH   2   3
ATOM      3  N   UNL     1       0.902  -8.126  -8.403  1.00  0.00    -0.352 N 
ATOM      4  C   UNL     1       0.599  -9.034  -7.400  1.00  0.00     0.253 C 
ATOM      5  O   UNL     1      -0.240  -9.894  -7.663  1.00  0.00    -0.269 OA
ATOM      6  H   UNL     1       0.501  -8.336  -9.277  1.00  0.00     0.163 HD
BRANCH   4   7
ATOM      7  C   UNL     1       1.279  -8.980  -6.065  1.00  0.00     0.065 A 
ATOM      8  C   UNL     1       2.288  -7.520  -4.362  1.00  0.00     0.035 A 
ATOM      9  C   UNL     1       2.749  -8.662  -3.713  1.00  0.00     0.028 A 
ATOM     10  C   UNL     1       1.497  -7.715  -5.492  1.00  0.00     0.041 A 
ATOM     11  C   UNL     1       2.401  -9.938  -4.169  1.00  0.00     0.029 A 
ATOM     12  C   UNL     1       1.646 -10.132  -5.339  1.00  0.00     0.050 A 
BRANCH   8  13
ATOM     13  N   UNL     1       2.610  -6.279  -3.864  1.00  0.00    -0.381 N 
ATOM     14  H   UNL     1       3.183  -6.258  -3.064  1.00  0.00     0.160 HD
BRANCH  13  15
ATOM     15  C   UNL     1       2.188  -5.000  -4.402  1.00  0.00     0.148 C 
BRANCH  15  16
ATOM     16  C   UNL     1       1.733  -4.103  -3.278  1.00  0.00    -0.029 A 
ATOM     17  C   UNL     1       0.817  -2.414  -1.205  1.00  0.00     0.007 A 
ATOM     18  C   UNL     1       0.433  -3.759  -1.255  1.00  0.00     0.015 A 
ATOM     19  C   UNL     1       1.647  -1.919  -2.216  1.00  0.00     0.015 A 
ATOM     20  C   UNL     1       0.875  -4.591  -2.283  1.00  0.00     0.007 A 
ATOM     21  C   UNL     1       2.100  -2.754  -3.245  1.00  0.00     0.007 A 
BRANCH  17  22
ATOM     22  S   UNL     1       0.184  -1.457   0.166  1.00  0.00    -0.130 SA
ATOM     23  C   UNL     1       0.963   0.161  -0.061  1.00  0.00     0.091 C 
ENDBRANCH  17  22
ENDBRANCH  15  16
ENDBRANCH  13  15
ENDBRANCH   8  13
BRANCH  12  24
ATOM     24  N   UNL     1       1.240 -11.411  -5.657  1.00  0.00    -0.366 N 
ATOM     25  C   UNL     1       1.736 -12.133  -6.829  1.00  0.00     0.145 C 
ATOM     26  C   UNL     1       0.523 -12.217  -4.664  1.00  0.00     0.145 C 
ATOM     27  C   UNL     1       0.628 -13.036  -7.406  1.00  0.00     0.181 C 
ATOM     28  C   UNL     1      -0.555 -13.048  -5.372  1.00  0.00     0.181 C 
ATOM     29  O   UNL     1       0.026 -13.872  -6.398  1.00  0.00    -0.378 OA
ENDBRANCH  12  24
ENDBRANCH   4   7
ENDBRANCH   2   3
ENDBRANCH   1   2
BRANCH   1  30
ATOM     30  C   UNL     1       1.617  -6.507 -10.956  1.00  0.00     0.002 C 
BRANCH  30  31
ATOM     31  C   UNL     1       0.393  -5.590 -10.919  1.00  0.00     0.002 C 
BRANCH  31  32
ATOM     32  C   UNL     1       0.620  -4.150 -10.455  1.00  0.00     0.021 C 
BRANCH  32  33
ATOM     33  C   UNL     1       1.731  -3.381 -11.161  1.00  0.00     0.116 C 
BRANCH  33  34
ATOM     34  N   UNL     1       1.514  -3.244 -12.589  1.00  0.00    -0.352 N 
ATOM     35  C   UNL     1       1.620  -2.135 -13.391  1.00  0.00     0.251 C 
ATOM     36  H   UNL     1       1.251  -4.072 -13.053  1.00  0.00     0.163 HD
ATOM     37  O   UNL     1       1.276  -2.200 -14.567  1.00  0.00    -0.269 OA
BRANCH  35  38
ATOM     38  C   UNL     1       2.128  -0.851 -12.850  1.00  0.00     0.039 A 
ATOM     39  C   UNL     1       1.507   0.335 -13.257  1.00  0.00     0.014 A 
ATOM     40  C   UNL     1       3.234  -0.798 -11.997  1.00  0.00     0.014 A 
ATOM     41  C   UNL     1       1.974   1.566 -12.787  1.00  0.00     0.010 A 
ATOM     42  C   UNL     1       3.653   0.424 -11.472  1.00  0.00     0.010 A 
ATOM     43  C   UNL     1       3.043   1.620 -11.879  1.00  0.00    -0.014 A 
BRANCH  43  44
ATOM     44  C   UNL     1       3.572   2.922 -11.397  1.00  0.00     0.031 A 
ATOM     45  C   UNL     1       4.966   3.350 -11.772  1.00  0.00     0.074 A 
ATOM     46  C   UNL     1       2.821   3.704 -10.599  1.00  0.00     0.049 A 
ATOM     47  N   UNL     1       5.628   4.423 -11.418  1.00  0.00    -0.248 NA
ATOM     48  C   UNL     1       5.728   2.436 -12.639  1.00  0.00     0.031 C 
ATOM     49  C   UNL     1       1.470   3.389 -10.132  1.00  0.00     0.029 A 
ATOM     50  N   UNL     1       3.090   4.926 -10.035  1.00  0.00    -0.354 N 
ATOM     51  C   UNL     1       6.883   4.303 -12.003  1.00  0.00     0.074 A 
ATOM     52  C   UNL     1       6.911   3.030 -12.688  1.00  0.00     0.031 C 
ATOM     53  C   UNL     1       1.020   4.401  -9.373  1.00  0.00     0.029 A 
ATOM     54  C   UNL     1       2.059   5.422  -9.275  1.00  0.00     0.049 A 
ATOM     55  H   UNL     1       3.943   5.402 -10.163  1.00  0.00     0.167 HD
ATOM     56  C   UNL     1       7.911   5.185 -11.995  1.00  0.00     0.037 A 
ATOM     57  C   UNL     1       1.963   6.572  -8.579  1.00  0.00     0.037 A 
ATOM     58  C   UNL     1       7.871   6.468 -11.344  1.00  0.00     0.049 A 
ATOM     59  C   UNL     1       3.114   7.541  -8.596  1.00  0.00     0.074 A 
ATOM     60  C   UNL     1       8.842   7.454 -11.319  1.00  0.00     0.029 A 
ATOM     61  N   UNL     1       6.797   6.945 -10.609  1.00  0.00    -0.354 N 
ATOM     62  N   UNL     1       4.274   7.438  -9.198  1.00  0.00    -0.248 NA
ATOM     63  C   UNL     1       2.937   8.792  -7.844  1.00  0.00     0.031 C 
ATOM     64  C   UNL     1       8.369   8.514 -10.539  1.00  0.00     0.029 A 
ATOM     65  C   UNL     1       7.086   8.206 -10.115  1.00  0.00     0.049 A 
ATOM     66  H   UNL     1       5.954   6.459 -10.459  1.00  0.00     0.167 HD
ATOM     67  C   UNL     1       4.949   8.622  -8.929  1.00  0.00     0.074 A 
ATOM     68  C   UNL     1       4.065   9.432  -8.117  1.00  0.00     0.031 C 
ATOM     69  C   UNL     1       6.188   9.005  -9.322  1.00  0.00     0.037 A 
BRANCH  56  70
ATOM     70  C   UNL     1       9.165   4.791 -12.721  1.00  0.00     0.057 A 
ATOM     71  C   UNL     1       9.217   4.720 -14.120  1.00  0.00     0.134 A 
ATOM     72  C   UNL     1      10.341   4.504 -12.016  1.00  0.00     0.134 A 
ATOM     73  F   UNL     1       8.123   4.970 -14.854  1.00  0.00    -0.206 F 
ATOM     74  C   UNL     1      10.385   4.349 -14.790  1.00  0.00     0.040 A 
ATOM     75  C   UNL     1      11.522   4.160 -12.676  1.00  0.00     0.040 A 
ATOM     76  F   UNL     1      10.363   4.559 -10.676  1.00  0.00    -0.206 F 
ATOM     77  C   UNL     1      11.544   4.074 -14.067  1.00  0.00     0.006 A 
ENDBRANCH  56  70
BRANCH  57  78
ATOM     78  C   UNL     1       0.718   6.891  -7.836  1.00  0.00     0.057 A 
ATOM     79  C   UNL     1      -0.140   7.909  -8.270  1.00  0.00     0.134 A 
ATOM     80  C   UNL     1       0.362   6.199  -6.673  1.00  0.00     0.134 A 
ATOM     81  F   UNL     1       0.158   8.619  -9.368  1.00  0.00    -0.206 F 
ATOM     82  C   UNL     1      -1.295   8.244  -7.561  1.00  0.00     0.040 A 
ATOM     83  C   UNL     1      -0.803   6.507  -5.968  1.00  0.00     0.040 A 
ATOM     84  F   UNL     1       1.138   5.208  -6.209  1.00  0.00    -0.206 F 
ATOM     85  C   UNL     1      -1.631   7.538  -6.408  1.00  0.00     0.006 A 
ENDBRANCH  57  78
BRANCH  69  86
ATOM     86  C   UNL     1       6.643  10.377  -8.920  1.00  0.00     0.057 A 
ATOM     87  C   UNL     1       7.001  10.684  -7.602  1.00  0.00     0.134 A 
ATOM     88  C   UNL     1       6.759  11.395  -9.877  1.00  0.00     0.134 A 
ATOM     89  F   UNL     1       6.900   9.757  -6.637  1.00  0.00    -0.206 F 
ATOM     90  C   UNL     1       7.436  11.961  -7.244  1.00  0.00     0.040 A 
ATOM     91  C   UNL     1       7.218  12.667  -9.536  1.00  0.00     0.040 A 
ATOM     92  F   UNL     1       6.441  11.164 -11.159  1.00  0.00    -0.206 F 
ATOM     93  C   UNL     1       7.552  12.955  -8.214  1.00  0.00     0.006 A 
ENDBRANCH  69  86
ENDBRANCH  43  44
ENDBRANCH  35  38
ENDBRANCH  33  34
ENDBRANCH  32  33
ENDBRANCH  31  32
ENDBRANCH  30  31
ENDBRANCH   1  30
TORSDOF 18
