REMARK SMILES C[C@H]1OCC[C@@H]1C(=O)Nc1sc2c(c1C(=O)NCCCCCCNC(=O)c1ccc(-c3c4nc(c(-c5c(F)cccc5F)c5ccc([nH]5)c(-c5c(F)cccc5F)c5nc(c(-c6c(F)cccc6F)c6ccc3[nH]6)C=C5)C=C4)cc1)CCC2
REMARK SMILES IDX 20 1 19 2 18 3 17 4 15 5 16 6 14 8 10 9 11 10 12 11 13 12
REMARK SMILES IDX 83 13 81 14 82 15 9 16 7 17 8 18 6 20 1 21 2 22 3 23 4 24
REMARK SMILES IDX 5 25 21 26 22 27 23 28 24 29 25 30 26 32 27 33 28 34 80 35
REMARK SMILES IDX 29 36 79 37 30 38 31 39 32 40 73 41 33 42 78 43 72 44 74 45
REMARK SMILES IDX 34 46 77 47 71 48 70 49 35 51 61 52 44 53 60 54 45 55 48 56
REMARK SMILES IDX 59 57 75 58 46 59 47 60 58 62 76 63 49 64 36 65 37 66 42 67
REMARK SMILES IDX 38 68 39 69 41 70 43 71 40 72 62 73 63 74 68 75 64 76 65 77
REMARK SMILES IDX 67 78 69 79 66 80 50 81 51 82 56 83 52 84 53 85 55 86 57 87
REMARK SMILES IDX 54 88
REMARK H PARENT 17 7 9 19 24 31 74 50 48 61
REMARK Flexibility Score: inf
ROOT
ATOM      1  C   UNL     1      -4.544   2.788  -1.224  1.00  0.00     0.002 C 
ENDROOT
BRANCH   1   2
ATOM      2  C   UNL     1      -3.821   2.808   0.129  1.00  0.00     0.021 C 
BRANCH   2   3
ATOM      3  C   UNL     1      -4.350   1.779   1.123  1.00  0.00     0.116 C 
BRANCH   3   4
ATOM      4  N   UNL     1      -3.896   0.437   0.888  1.00  0.00    -0.352 N 
ATOM      5  C   UNL     1      -3.058  -0.403   1.572  1.00  0.00     0.254 C 
ATOM      6  O   UNL     1      -3.250  -1.598   1.319  1.00  0.00    -0.269 OA
ATOM      7  H   UNL     1      -4.262   0.039   0.066  1.00  0.00     0.163 HD
BRANCH   5   8
ATOM      8  C   UNL     1      -2.003   0.000   2.517  1.00  0.00     0.078 A 
ATOM      9  C   UNL     1      -0.978  -0.907   2.829  1.00  0.00     0.108 A 
ATOM     10  S   UNL     1      -0.178  -0.572   4.308  1.00  0.00    -0.122 S 
ATOM     11  C   UNL     1      -0.898   0.923   4.356  1.00  0.00     0.011 A 
ATOM     12  C   UNL     1      -1.807   1.161   3.353  1.00  0.00    -0.019 A 
ATOM     13  C   UNL     1      -0.761   2.003   5.361  1.00  0.00     0.047 C 
ATOM     14  C   UNL     1      -2.386   2.520   3.569  1.00  0.00     0.038 C 
ATOM     15  C   UNL     1      -1.439   3.173   4.616  1.00  0.00     0.010 C 
BRANCH   9  16
ATOM     16  N   UNL     1      -0.569  -2.116   2.322  1.00  0.00    -0.317 N 
ATOM     17  C   UNL     1      -0.097  -2.458   1.095  1.00  0.00     0.230 C 
ATOM     18  O   UNL     1       0.153  -3.662   0.923  1.00  0.00    -0.274 OA
ATOM     19  H   UNL     1      -0.629  -2.865   2.958  1.00  0.00     0.170 HD
BRANCH  17  20
ATOM     20  C   UNL     1       0.281  -1.493  -0.026  1.00  0.00     0.110 C 
ATOM     21  C   UNL     1       2.377  -0.135  -0.424  1.00  0.00     0.039 C 
ATOM     22  C   UNL     1       1.108  -0.294   0.414  1.00  0.00     0.127 C 
ATOM     23  O   UNL     1       0.285   0.864   0.213  1.00  0.00    -0.378 OA
ATOM     24  C   UNL     1      -0.654   0.563  -0.819  1.00  0.00     0.161 C 
ATOM     25  C   UNL     1      -0.847  -0.934  -0.854  1.00  0.00     0.044 C 
ENDBRANCH  17  20
ENDBRANCH   9  16
ENDBRANCH   5   8
ENDBRANCH   3   4
ENDBRANCH   2   3
ENDBRANCH   1   2
BRANCH   1  26
ATOM     26  C   UNL     1      -6.074   2.925  -1.145  1.00  0.00     0.002 C 
BRANCH  26  27
ATOM     27  C   UNL     1      -6.597   4.042  -0.226  1.00  0.00     0.021 C 
BRANCH  27  28
ATOM     28  C   UNL     1      -6.262   5.438  -0.726  1.00  0.00     0.116 C 
BRANCH  28  29
ATOM     29  N   UNL     1      -6.991   5.746  -1.947  1.00  0.00    -0.352 N 
ATOM     30  C   UNL     1      -6.955   6.886  -2.715  1.00  0.00     0.251 C 
ATOM     31  H   UNL     1      -7.594   5.038  -2.269  1.00  0.00     0.163 HD
ATOM     32  O   UNL     1      -7.864   7.138  -3.490  1.00  0.00    -0.269 OA
BRANCH  30  33
ATOM     33  C   UNL     1      -5.814   7.809  -2.587  1.00  0.00     0.039 A 
ATOM     34  C   UNL     1      -6.039   9.188  -2.617  1.00  0.00     0.014 A 
ATOM     35  C   UNL     1      -4.521   7.299  -2.465  1.00  0.00     0.014 A 
ATOM     36  C   UNL     1      -4.964  10.053  -2.452  1.00  0.00     0.010 A 
ATOM     37  C   UNL     1      -3.470   8.152  -2.207  1.00  0.00     0.010 A 
ATOM     38  C   UNL     1      -3.683   9.529  -2.227  1.00  0.00    -0.014 A 
BRANCH  38  39
ATOM     39  C   UNL     1      -2.590  10.424  -1.858  1.00  0.00     0.031 A 
ATOM     40  C   UNL     1      -2.845  11.255  -0.648  1.00  0.00     0.074 A 
ATOM     41  C   UNL     1      -1.361  10.359  -2.413  1.00  0.00     0.049 A 
ATOM     42  N   UNL     1      -2.876  12.544  -0.567  1.00  0.00    -0.248 NA
ATOM     43  C   UNL     1      -3.223  10.574   0.602  1.00  0.00     0.031 C 
ATOM     44  C   UNL     1      -0.872   9.403  -3.410  1.00  0.00     0.029 A 
ATOM     45  N   UNL     1      -0.242  11.071  -2.104  1.00  0.00    -0.354 N 
ATOM     46  C   UNL     1      -3.089  12.847   0.776  1.00  0.00     0.074 A 
ATOM     47  C   UNL     1      -3.454  11.609   1.412  1.00  0.00     0.031 C 
ATOM     48  C   UNL     1       0.477   9.443  -3.446  1.00  0.00     0.029 A 
ATOM     49  C   UNL     1       0.939  10.519  -2.586  1.00  0.00     0.049 A 
ATOM     50  H   UNL     1      -0.268  11.907  -1.584  1.00  0.00     0.167 HD
ATOM     51  C   UNL     1      -2.725  14.055   1.291  1.00  0.00     0.037 A 
ATOM     52  C   UNL     1       2.204  10.894  -2.270  1.00  0.00     0.037 A 
ATOM     53  C   UNL     1      -2.512  15.020   0.241  1.00  0.00     0.049 A 
ATOM     54  C   UNL     1       2.130  12.272  -1.725  1.00  0.00     0.074 A 
ATOM     55  C   UNL     1      -3.289  15.533  -0.781  1.00  0.00     0.029 A 
ATOM     56  N   UNL     1      -1.216  15.338  -0.084  1.00  0.00    -0.354 N 
ATOM     57  N   UNL     1       1.846  13.321  -2.444  1.00  0.00    -0.248 NA
ATOM     58  C   UNL     1       1.946  12.432  -0.290  1.00  0.00     0.031 C 
ATOM     59  C   UNL     1      -2.397  15.676  -1.883  1.00  0.00     0.029 A 
ATOM     60  C   UNL     1      -1.122  15.312  -1.449  1.00  0.00     0.049 A 
ATOM     61  H   UNL     1      -0.490  15.546   0.548  1.00  0.00     0.167 HD
ATOM     62  C   UNL     1       1.030  14.090  -1.629  1.00  0.00     0.074 A 
ATOM     63  C   UNL     1       1.220  13.554  -0.283  1.00  0.00     0.031 C 
ATOM     64  C   UNL     1       0.058  14.887  -2.162  1.00  0.00     0.037 A 
BRANCH  51  65
ATOM     65  C   UNL     1      -2.186  14.272   2.688  1.00  0.00     0.057 A 
ATOM     66  C   UNL     1      -1.893  15.585   3.108  1.00  0.00     0.134 A 
ATOM     67  C   UNL     1      -1.652  13.256   3.505  1.00  0.00     0.134 A 
ATOM     68  F   UNL     1      -2.347  16.646   2.424  1.00  0.00    -0.206 F 
ATOM     69  C   UNL     1      -1.042  15.860   4.185  1.00  0.00     0.040 A 
ATOM     70  C   UNL     1      -0.843  13.521   4.615  1.00  0.00     0.040 A 
ATOM     71  F   UNL     1      -1.793  11.955   3.227  1.00  0.00    -0.206 F 
ATOM     72  C   UNL     1      -0.501  14.825   4.934  1.00  0.00     0.006 A 
ENDBRANCH  51  65
BRANCH  52  73
ATOM     73  C   UNL     1       3.446  10.087  -2.209  1.00  0.00     0.057 A 
ATOM     74  C   UNL     1       4.701  10.703  -2.080  1.00  0.00     0.134 A 
ATOM     75  C   UNL     1       3.425   8.696  -2.006  1.00  0.00     0.134 A 
ATOM     76  F   UNL     1       4.829  12.030  -2.223  1.00  0.00    -0.206 F 
ATOM     77  C   UNL     1       5.855   9.987  -1.730  1.00  0.00     0.040 A 
ATOM     78  C   UNL     1       4.572   7.967  -1.669  1.00  0.00     0.040 A 
ATOM     79  F   UNL     1       2.278   8.004  -2.038  1.00  0.00    -0.206 F 
ATOM     80  C   UNL     1       5.789   8.616  -1.511  1.00  0.00     0.006 A 
ENDBRANCH  52  73
BRANCH  64  81
ATOM     81  C   UNL     1       0.071  15.125  -3.646  1.00  0.00     0.057 A 
ATOM     82  C   UNL     1      -0.095  14.117  -4.608  1.00  0.00     0.134 A 
ATOM     83  C   UNL     1       0.093  16.444  -4.111  1.00  0.00     0.134 A 
ATOM     84  F   UNL     1      -0.230  12.833  -4.255  1.00  0.00    -0.206 F 
ATOM     85  C   UNL     1      -0.192  14.408  -5.971  1.00  0.00     0.040 A 
ATOM     86  C   UNL     1      -0.038  16.750  -5.467  1.00  0.00     0.040 A 
ATOM     87  F   UNL     1       0.192  17.465  -3.244  1.00  0.00    -0.206 F 
ATOM     88  C   UNL     1      -0.171  15.729  -6.404  1.00  0.00     0.006 A 
ENDBRANCH  64  81
ENDBRANCH  38  39
ENDBRANCH  30  33
ENDBRANCH  28  29
ENDBRANCH  27  28
ENDBRANCH  26  27
ENDBRANCH   1  26
TORSDOF 15
