REMARK SMILES O=C(NCCCCCCNC(=O)c1cc(Br)ccc1OC(=O)c1ccc(F)cc1)c1ccc(-c2c3nc(c(-c4c(F)cccc4F)c4ccc([nH]4)c(-c4c(F)cccc4F)c4nc(c(-c5c(F)cccc5F)c5ccc2[nH]5)C=C4)C=C3)cc1
REMARK SMILES IDX 7 1 6 2 5 3 4 4 3 5 1 6 2 7 30 9 31 10 83 11 32 12 82 13
REMARK SMILES IDX 33 14 34 15 35 16 76 17 36 18 81 19 75 20 77 21 37 22 80 23
REMARK SMILES IDX 74 24 73 25 38 27 64 28 47 29 63 30 48 31 51 32 62 33 78 34
REMARK SMILES IDX 49 35 50 36 61 38 79 39 52 40 39 41 40 42 45 43 41 44 42 45
REMARK SMILES IDX 44 46 46 47 43 48 65 49 66 50 71 51 67 52 68 53 70 54 72 55
REMARK SMILES IDX 69 56 53 57 54 58 59 59 55 60 56 61 58 62 60 63 57 64 8 65
REMARK SMILES IDX 9 66 10 67 11 68 12 70 13 71 14 72 19 73 15 74 18 75 16 76
REMARK SMILES IDX 17 77 20 78 21 79 22 80 23 81 24 82 29 83 25 84 28 85 26 86
REMARK SMILES IDX 27 87
REMARK H PARENT 3 8 77 26 51 37 10 69
REMARK Flexibility Score: inf
ROOT
ATOM      1  C   UNL     1       4.814   2.751   3.480  1.00  0.00     0.002 C 
ENDROOT
BRANCH   1   2
ATOM      2  C   UNL     1       4.275   3.241   2.133  1.00  0.00     0.002 C 
BRANCH   2   3
ATOM      3  C   UNL     1       4.769   2.476   0.904  1.00  0.00     0.021 C 
BRANCH   3   4
ATOM      4  C   UNL     1       4.502   0.977   0.930  1.00  0.00     0.116 C 
BRANCH   4   5
ATOM      5  N   UNL     1       3.084   0.670   0.883  1.00  0.00    -0.352 N 
ATOM      6  O   UNL     1       1.171  -0.121  -0.014  1.00  0.00    -0.269 OA
ATOM      7  C   UNL     1       2.398  -0.112  -0.013  1.00  0.00     0.251 C 
ATOM      8  H   UNL     1       2.538   1.079   1.592  1.00  0.00     0.163 HD
BRANCH   7   9
ATOM      9  C   UNL     1       3.141  -0.941  -0.988  1.00  0.00     0.039 A 
ATOM     10  C   UNL     1       4.239  -1.707  -0.585  1.00  0.00     0.014 A 
ATOM     11  C   UNL     1       2.699  -0.990  -2.313  1.00  0.00     0.014 A 
ATOM     12  C   UNL     1       4.949  -2.450  -1.523  1.00  0.00     0.010 A 
ATOM     13  C   UNL     1       3.368  -1.794  -3.240  1.00  0.00     0.010 A 
ATOM     14  C   UNL     1       4.499  -2.527  -2.851  1.00  0.00    -0.014 A 
BRANCH  14  15
ATOM     15  C   UNL     1       5.134  -3.492  -3.781  1.00  0.00     0.031 A 
ATOM     16  C   UNL     1       5.903  -3.032  -4.984  1.00  0.00     0.074 A 
ATOM     17  C   UNL     1       4.986  -4.807  -3.526  1.00  0.00     0.049 A 
ATOM     18  N   UNL     1       6.475  -3.755  -5.913  1.00  0.00    -0.248 NA
ATOM     19  C   UNL     1       6.050  -1.581  -5.176  1.00  0.00     0.031 C 
ATOM     20  C   UNL     1       4.243  -5.364  -2.392  1.00  0.00     0.029 A 
ATOM     21  N   UNL     1       5.443  -5.913  -4.196  1.00  0.00    -0.354 N 
ATOM     22  C   UNL     1       7.037  -2.852  -6.806  1.00  0.00     0.074 A 
ATOM     23  C   UNL     1       6.727  -1.526  -6.317  1.00  0.00     0.031 C 
ATOM     24  C   UNL     1       4.310  -6.701  -2.434  1.00  0.00     0.029 A 
ATOM     25  C   UNL     1       5.043  -7.099  -3.629  1.00  0.00     0.049 A 
ATOM     26  H   UNL     1       6.003  -5.862  -5.004  1.00  0.00     0.167 HD
ATOM     27  C   UNL     1       7.749  -3.118  -7.925  1.00  0.00     0.037 A 
ATOM     28  C   UNL     1       5.213  -8.369  -4.042  1.00  0.00     0.037 A 
ATOM     29  C   UNL     1       8.070  -4.445  -8.386  1.00  0.00     0.049 A 
ATOM     30  C   UNL     1       5.969  -8.627  -5.311  1.00  0.00     0.074 A 
ATOM     31  C   UNL     1       8.853  -4.809  -9.469  1.00  0.00     0.029 A 
ATOM     32  N   UNL     1       7.621  -5.619  -7.803  1.00  0.00    -0.354 N 
ATOM     33  N   UNL     1       6.544  -7.764  -6.112  1.00  0.00    -0.248 NA
ATOM     34  C   UNL     1       6.092 -10.026  -5.742  1.00  0.00     0.031 C 
ATOM     35  C   UNL     1       8.833  -6.201  -9.572  1.00  0.00     0.029 A 
ATOM     36  C   UNL     1       8.076  -6.707  -8.528  1.00  0.00     0.049 A 
ATOM     37  H   UNL     1       7.062  -5.671  -6.994  1.00  0.00     0.167 HD
ATOM     38  C   UNL     1       7.097  -8.513  -7.141  1.00  0.00     0.074 A 
ATOM     39  C   UNL     1       6.811  -9.902  -6.850  1.00  0.00     0.031 C 
ATOM     40  C   UNL     1       7.776  -8.083  -8.230  1.00  0.00     0.037 A 
BRANCH  27  41
ATOM     41  C   UNL     1       8.244  -1.970  -8.752  1.00  0.00     0.057 A 
ATOM     42  C   UNL     1       7.685  -1.710 -10.011  1.00  0.00     0.134 A 
ATOM     43  C   UNL     1       9.362  -1.220  -8.372  1.00  0.00     0.134 A 
ATOM     44  F   UNL     1       6.619  -2.404 -10.438  1.00  0.00    -0.206 F 
ATOM     45  C   UNL     1       8.239  -0.763 -10.873  1.00  0.00     0.040 A 
ATOM     46  C   UNL     1       9.915  -0.257  -9.219  1.00  0.00     0.040 A 
ATOM     47  F   UNL     1       9.941  -1.420  -7.178  1.00  0.00    -0.206 F 
ATOM     48  C   UNL     1       9.361  -0.036 -10.479  1.00  0.00     0.006 A 
ENDBRANCH  27  41
BRANCH  28  49
ATOM     49  C   UNL     1       4.617  -9.478  -3.258  1.00  0.00     0.057 A 
ATOM     50  C   UNL     1       3.227  -9.646  -3.181  1.00  0.00     0.134 A 
ATOM     51  C   UNL     1       5.416 -10.374  -2.542  1.00  0.00     0.134 A 
ATOM     52  F   UNL     1       2.407  -8.814  -3.839  1.00  0.00    -0.206 F 
ATOM     53  C   UNL     1       2.654 -10.651  -2.401  1.00  0.00     0.040 A 
ATOM     54  C   UNL     1       4.856 -11.401  -1.780  1.00  0.00     0.040 A 
ATOM     55  F   UNL     1       6.752 -10.274  -2.590  1.00  0.00    -0.206 F 
ATOM     56  C   UNL     1       3.471 -11.536  -1.701  1.00  0.00     0.006 A 
ENDBRANCH  28  49
BRANCH  40  57
ATOM     57  C   UNL     1       8.253  -9.118  -9.202  1.00  0.00     0.057 A 
ATOM     58  C   UNL     1       9.614  -9.431  -9.306  1.00  0.00     0.134 A 
ATOM     59  C   UNL     1       7.372  -9.733 -10.099  1.00  0.00     0.134 A 
ATOM     60  F   UNL     1      10.508  -8.867  -8.481  1.00  0.00    -0.206 F 
ATOM     61  C   UNL     1      10.085 -10.303 -10.287  1.00  0.00     0.040 A 
ATOM     62  C   UNL     1       7.829 -10.624 -11.070  1.00  0.00     0.040 A 
ATOM     63  F   UNL     1       6.055  -9.483 -10.039  1.00  0.00    -0.206 F 
ATOM     64  C   UNL     1       9.192 -10.902 -11.173  1.00  0.00     0.006 A 
ENDBRANCH  40  57
ENDBRANCH  14  15
ENDBRANCH   7   9
ENDBRANCH   4   5
ENDBRANCH   3   4
ENDBRANCH   2   3
ENDBRANCH   1   2
BRANCH   1  65
ATOM     65  C   UNL     1       6.336   2.639   3.587  1.00  0.00     0.021 C 
BRANCH  65  66
ATOM     66  C   UNL     1       7.120   3.884   3.179  1.00  0.00     0.116 C 
BRANCH  66  67
ATOM     67  N   UNL     1       6.766   5.062   3.954  1.00  0.00    -0.352 N 
ATOM     68  C   UNL     1       7.569   5.846   4.745  1.00  0.00     0.255 C 
ATOM     69  H   UNL     1       5.821   5.335   3.905  1.00  0.00     0.163 HD
ATOM     70  O   UNL     1       7.091   6.741   5.434  1.00  0.00    -0.269 OA
BRANCH  68  71
ATOM     71  C   UNL     1       9.023   5.597   4.765  1.00  0.00     0.083 A 
ATOM     72  C   UNL     1       9.739   5.656   3.562  1.00  0.00     0.033 A 
ATOM     73  C   UNL     1       9.696   5.323   5.960  1.00  0.00     0.144 A 
ATOM     74  C   UNL     1      11.103   5.370   3.558  1.00  0.00     0.019 A 
ATOM     75  C   UNL     1      11.067   5.059   5.954  1.00  0.00     0.049 A 
ATOM     76  Br  UNL     1      12.055   5.392   1.926  1.00  0.00    -0.051 Br
ATOM     77  C   UNL     1      11.768   5.062   4.746  1.00  0.00     0.019 A 
BRANCH  73  78
ATOM     78  O   UNL     1       9.083   5.406   7.219  1.00  0.00    -0.422 OA
BRANCH  78  79
ATOM     79  C   UNL     1       8.112   4.465   7.496  1.00  0.00     0.343 C 
ATOM     80  O   UNL     1       7.780   3.519   6.787  1.00  0.00    -0.246 OA
BRANCH  79  81
ATOM     81  C   UNL     1       7.505   4.753   8.823  1.00  0.00     0.060 A 
ATOM     82  C   UNL     1       8.145   5.565   9.774  1.00  0.00     0.019 A 
ATOM     83  C   UNL     1       6.272   4.162   9.137  1.00  0.00     0.019 A 
ATOM     84  C   UNL     1       7.558   5.773  11.026  1.00  0.00     0.040 A 
ATOM     85  C   UNL     1       5.687   4.378  10.387  1.00  0.00     0.040 A 
ATOM     86  C   UNL     1       6.337   5.177  11.321  1.00  0.00     0.123 A 
ATOM     87  F   UNL     1       5.783   5.372  12.524  1.00  0.00    -0.207 F 
ENDBRANCH  79  81
ENDBRANCH  78  79
ENDBRANCH  73  78
ENDBRANCH  68  71
ENDBRANCH  66  67
ENDBRANCH  65  66
ENDBRANCH   1  65
TORSDOF 16
