REMARK SMILES O=C(CCC(=O)N1CCN(S(=O)(=O)c2cccs2)CC1)NCCCCCCNC(=O)c1ccc(-c2c3nc(c(-c4c(F)cccc4F)c4ccc([nH]4)c(-c4c(F)cccc4F)c4nc(c(-c5c(F)cccc5F)c5ccc2[nH]5)C=C4)C=C3)cc1
REMARK SMILES IDX 23 1 22 2 21 3 1 4 2 5 3 7 4 8 5 9 6 10 7 11 8 12 20 13 9 14
REMARK SMILES IDX 19 15 10 16 11 17 12 18 13 19 14 20 15 21 18 22 16 23 17 24
REMARK SMILES IDX 24 25 25 26 26 27 27 28 28 29 29 30 30 32 31 33 32 34 84 35
REMARK SMILES IDX 33 36 83 37 34 38 35 39 36 40 77 41 37 42 82 43 76 44 78 45
REMARK SMILES IDX 38 46 81 47 75 48 74 49 39 51 65 52 48 53 64 54 49 55 52 56
REMARK SMILES IDX 63 57 79 58 50 59 51 60 62 62 80 63 53 64 40 65 41 66 46 67
REMARK SMILES IDX 42 68 43 69 45 70 47 71 44 72 66 73 67 74 72 75 68 76 69 77
REMARK SMILES IDX 71 78 73 79 70 80 54 81 55 82 60 83 56 84 57 85 59 86 61 87
REMARK SMILES IDX 58 88
REMARK H PARENT 21 6 28 31 78 50 52 61
REMARK Flexibility Score: inf
ROOT
ATOM      1  C   UNL     1       3.638  -1.071  -4.201  1.00  0.00     0.021 C 
ENDROOT
BRANCH   1   2
ATOM      2  C   UNL     1       2.926  -1.007  -2.854  1.00  0.00     0.116 C 
BRANCH   2   3
ATOM      3  N   UNL     1       3.595  -0.187  -1.868  1.00  0.00    -0.356 N 
ATOM      4  O   UNL     1       1.681   0.313  -0.705  1.00  0.00    -0.275 OA
ATOM      5  C   UNL     1       2.902   0.372  -0.819  1.00  0.00     0.220 C 
ATOM      6  H   UNL     1       4.562  -0.025  -1.950  1.00  0.00     0.163 HD
BRANCH   5   7
ATOM      7  C   UNL     1       3.775   1.025   0.228  1.00  0.00     0.110 C 
BRANCH   7   8
ATOM      8  C   UNL     1       3.518   0.420   1.604  1.00  0.00     0.110 C 
BRANCH   8   9
ATOM      9  C   UNL     1       4.244  -0.905   1.773  1.00  0.00     0.223 C 
ATOM     10  O   UNL     1       5.464  -0.893   1.963  1.00  0.00    -0.275 OA
ATOM     11  N   UNL     1       3.529  -2.097   1.708  1.00  0.00    -0.340 N 
ATOM     12  C   UNL     1       4.312  -3.340   1.836  1.00  0.00     0.136 C 
ATOM     13  C   UNL     1       2.198  -2.207   1.095  1.00  0.00     0.136 C 
ATOM     14  C   UNL     1       3.485  -4.612   2.112  1.00  0.00     0.124 C 
ATOM     15  C   UNL     1       1.445  -3.494   1.436  1.00  0.00     0.124 C 
ATOM     16  N   UNL     1       2.273  -4.708   1.225  1.00  0.00    -0.194 NA
BRANCH  16  17
ATOM     17  S   UNL     1       2.663  -5.176  -0.370  1.00  0.00     0.252 S 
ATOM     18  O   UNL     1       3.505  -4.142  -0.928  1.00  0.00    -0.206 OA
ATOM     19  O   UNL     1       3.128  -6.545  -0.306  1.00  0.00    -0.206 OA
BRANCH  17  20
ATOM     20  C   UNL     1       1.232  -5.136  -1.440  1.00  0.00     0.135 A 
ATOM     21  C   UNL     1       0.405  -4.096  -1.833  1.00  0.00     0.033 A 
ATOM     22  S   UNL     1       0.861  -6.570  -2.300  1.00  0.00    -0.131 S 
ATOM     23  C   UNL     1      -0.533  -4.483  -2.833  1.00  0.00     0.013 A 
ATOM     24  C   UNL     1      -0.384  -5.804  -3.188  1.00  0.00     0.066 A 
ENDBRANCH  17  20
ENDBRANCH  16  17
ENDBRANCH   8   9
ENDBRANCH   7   8
ENDBRANCH   5   7
ENDBRANCH   2   3
ENDBRANCH   1   2
BRANCH   1  25
ATOM     25  C   UNL     1       5.098  -1.539  -4.188  1.00  0.00     0.002 C 
BRANCH  25  26
ATOM     26  C   UNL     1       5.406  -2.828  -3.422  1.00  0.00     0.002 C 
BRANCH  26  27
ATOM     27  C   UNL     1       4.551  -4.047  -3.770  1.00  0.00     0.021 C 
BRANCH  27  28
ATOM     28  C   UNL     1       4.581  -4.502  -5.221  1.00  0.00     0.116 C 
BRANCH  28  29
ATOM     29  N   UNL     1       5.870  -5.039  -5.613  1.00  0.00    -0.352 N 
ATOM     30  C   UNL     1       6.190  -6.247  -6.181  1.00  0.00     0.251 C 
ATOM     31  H   UNL     1       6.636  -4.443  -5.445  1.00  0.00     0.163 HD
ATOM     32  O   UNL     1       7.373  -6.561  -6.300  1.00  0.00    -0.269 OA
BRANCH  30  33
ATOM     33  C   UNL     1       5.141  -7.188  -6.648  1.00  0.00     0.039 A 
ATOM     34  C   UNL     1       5.358  -8.562  -6.486  1.00  0.00     0.014 A 
ATOM     35  C   UNL     1       3.990  -6.749  -7.309  1.00  0.00     0.014 A 
ATOM     36  C   UNL     1       4.416  -9.487  -6.950  1.00  0.00     0.010 A 
ATOM     37  C   UNL     1       3.021  -7.667  -7.714  1.00  0.00     0.010 A 
ATOM     38  C   UNL     1       3.232  -9.046  -7.556  1.00  0.00    -0.014 A 
BRANCH  38  39
ATOM     39  C   UNL     1       2.232  -9.999  -8.102  1.00  0.00     0.031 A 
ATOM     40  C   UNL     1       1.974 -10.036  -9.584  1.00  0.00     0.074 A 
ATOM     41  C   UNL     1       1.507 -10.782  -7.281  1.00  0.00     0.049 A 
ATOM     42  N   UNL     1       1.016 -10.635 -10.244  1.00  0.00    -0.248 NA
ATOM     43  C   UNL     1       2.900  -9.267 -10.432  1.00  0.00     0.031 C 
ATOM     44  C   UNL     1       1.636 -10.841  -5.825  1.00  0.00     0.029 A 
ATOM     45  N   UNL     1       0.503 -11.674  -7.564  1.00  0.00    -0.354 N 
ATOM     46  C   UNL     1       1.181 -10.258 -11.571  1.00  0.00     0.074 A 
ATOM     47  C   UNL     1       2.338  -9.392 -11.626  1.00  0.00     0.031 C 
ATOM     48  C   UNL     1       0.755 -11.734  -5.344  1.00  0.00     0.029 A 
ATOM     49  C   UNL     1      -0.022 -12.283  -6.452  1.00  0.00     0.049 A 
ATOM     50  H   UNL     1       0.189 -11.859  -8.479  1.00  0.00     0.167 HD
ATOM     51  C   UNL     1       0.430 -10.598 -12.645  1.00  0.00     0.037 A 
ATOM     52  C   UNL     1      -1.025 -13.174  -6.338  1.00  0.00     0.037 A 
ATOM     53  C   UNL     1      -0.669 -11.523 -12.614  1.00  0.00     0.049 A 
ATOM     54  C   UNL     1      -1.764 -13.630  -7.564  1.00  0.00     0.074 A 
ATOM     55  C   UNL     1      -1.469 -11.950 -13.660  1.00  0.00     0.029 A 
ATOM     56  N   UNL     1      -1.099 -12.191 -11.480  1.00  0.00    -0.354 N 
ATOM     57  N   UNL     1      -1.620 -13.239  -8.805  1.00  0.00    -0.248 NA
ATOM     58  C   UNL     1      -2.807 -14.648  -7.370  1.00  0.00     0.031 C 
ATOM     59  C   UNL     1      -2.382 -12.885 -13.158  1.00  0.00     0.029 A 
ATOM     60  C   UNL     1      -2.141 -13.043 -11.803  1.00  0.00     0.049 A 
ATOM     61  H   UNL     1      -0.720 -12.077 -10.579  1.00  0.00     0.167 HD
ATOM     62  C   UNL     1      -2.545 -13.966  -9.541  1.00  0.00     0.074 A 
ATOM     63  C   UNL     1      -3.240 -14.831  -8.611  1.00  0.00     0.031 C 
ATOM     64  C   UNL     1      -2.802 -13.912 -10.869  1.00  0.00     0.037 A 
BRANCH  51  65
ATOM     65  C   UNL     1       0.768  -9.945 -13.947  1.00  0.00     0.057 A 
ATOM     66  C   UNL     1       1.832 -10.387 -14.741  1.00  0.00     0.134 A 
ATOM     67  C   UNL     1       0.003  -8.872 -14.420  1.00  0.00     0.134 A 
ATOM     68  F   UNL     1       2.611 -11.399 -14.331  1.00  0.00    -0.206 F 
ATOM     69  C   UNL     1       2.132  -9.774 -15.958  1.00  0.00     0.040 A 
ATOM     70  C   UNL     1       0.283  -8.260 -15.642  1.00  0.00     0.040 A 
ATOM     71  F   UNL     1      -1.029  -8.403 -13.701  1.00  0.00    -0.206 F 
ATOM     72  C   UNL     1       1.353  -8.710 -16.414  1.00  0.00     0.006 A 
ENDBRANCH  51  65
BRANCH  52  73
ATOM     73  C   UNL     1      -1.385 -13.710  -5.006  1.00  0.00     0.057 A 
ATOM     74  C   UNL     1      -0.965 -14.985  -4.611  1.00  0.00     0.134 A 
ATOM     75  C   UNL     1      -2.158 -12.970  -4.107  1.00  0.00     0.134 A 
ATOM     76  F   UNL     1      -0.240 -15.745  -5.445  1.00  0.00    -0.206 F 
ATOM     77  C   UNL     1      -1.311 -15.511  -3.367  1.00  0.00     0.040 A 
ATOM     78  C   UNL     1      -2.501 -13.479  -2.854  1.00  0.00     0.040 A 
ATOM     79  F   UNL     1      -2.589 -11.743  -4.434  1.00  0.00    -0.206 F 
ATOM     80  C   UNL     1      -2.079 -14.755  -2.482  1.00  0.00     0.006 A 
ENDBRANCH  52  73
BRANCH  64  81
ATOM     81  C   UNL     1      -3.854 -14.834 -11.398  1.00  0.00     0.057 A 
ATOM     82  C   UNL     1      -5.212 -14.505 -11.331  1.00  0.00     0.134 A 
ATOM     83  C   UNL     1      -3.502 -16.039 -12.015  1.00  0.00     0.134 A 
ATOM     84  F   UNL     1      -5.607 -13.366 -10.741  1.00  0.00    -0.206 F 
ATOM     85  C   UNL     1      -6.190 -15.350 -11.857  1.00  0.00     0.040 A 
ATOM     86  C   UNL     1      -4.470 -16.889 -12.552  1.00  0.00     0.040 A 
ATOM     87  F   UNL     1      -2.215 -16.406 -12.108  1.00  0.00    -0.206 F 
ATOM     88  C   UNL     1      -5.818 -16.544 -12.473  1.00  0.00     0.006 A 
ENDBRANCH  64  81
ENDBRANCH  38  39
ENDBRANCH  30  33
ENDBRANCH  28  29
ENDBRANCH  27  28
ENDBRANCH  26  27
ENDBRANCH  25  26
ENDBRANCH   1  25
TORSDOF 17
