REMARK SMILES O=C(NCCCCCCNC(=O)[C@@H](CCO)NC(=O)c1c(F)ccc([N+](=O)[O-])c1F)c1ccc(-c2c3nc(c(-c4c(F)cccc4F)c4ccc([nH]4)c(-c4c(F)cccc4F)c4nc(c(-c5c(F)cccc5F)c5ccc2[nH]5)C=C4)C=C3)cc1
REMARK SMILES IDX 7 1 6 2 5 3 4 4 3 5 1 6 2 7 31 9 32 10 84 11 33 12 83 13
REMARK SMILES IDX 34 14 35 15 36 16 77 17 37 18 82 19 76 20 78 21 38 22 81 23
REMARK SMILES IDX 75 24 74 25 39 27 65 28 48 29 64 30 49 31 52 32 63 33 79 34
REMARK SMILES IDX 50 35 51 36 62 38 80 39 53 40 40 41 41 42 46 43 42 44 43 45
REMARK SMILES IDX 45 46 47 47 44 48 66 49 67 50 72 51 68 52 69 53 71 54 73 55
REMARK SMILES IDX 70 56 54 57 55 58 60 59 56 60 57 61 59 62 61 63 58 64 8 65
REMARK SMILES IDX 9 66 10 67 11 68 12 70 13 71 14 72 15 73 16 74 17 76 18 77
REMARK SMILES IDX 19 79 20 80 21 81 29 82 22 83 23 84 25 85 30 86 24 87 26 88
REMARK SMILES IDX 27 89 28 90
REMARK H PARENT 3 8 78 26 52 37 10 69 16 75 17 78
REMARK Flexibility Score: inf
ROOT
ATOM      1  C   UNL     1       4.497   4.008  -1.661  1.00  0.00     0.002 C 
ENDROOT
BRANCH   1   2
ATOM      2  C   UNL     1       3.919   2.848  -2.477  1.00  0.00     0.002 C 
BRANCH   2   3
ATOM      3  C   UNL     1       4.499   1.474  -2.143  1.00  0.00     0.021 C 
BRANCH   3   4
ATOM      4  C   UNL     1       4.383   1.088  -0.675  1.00  0.00     0.116 C 
BRANCH   4   5
ATOM      5  N   UNL     1       2.997   0.961  -0.254  1.00  0.00    -0.352 N 
ATOM      6  O   UNL     1       1.112  -0.150   0.306  1.00  0.00    -0.269 OA
ATOM      7  C   UNL     1       2.330  -0.152   0.198  1.00  0.00     0.251 C 
ATOM      8  H   UNL     1       2.463   1.786  -0.299  1.00  0.00     0.163 HD
BRANCH   7   9
ATOM      9  C   UNL     1       3.107  -1.359   0.550  1.00  0.00     0.039 A 
ATOM     10  C   UNL     1       4.273  -1.240   1.309  1.00  0.00     0.014 A 
ATOM     11  C   UNL     1       2.664  -2.614   0.126  1.00  0.00     0.014 A 
ATOM     12  C   UNL     1       5.066  -2.356   1.530  1.00  0.00     0.010 A 
ATOM     13  C   UNL     1       3.413  -3.752   0.437  1.00  0.00     0.010 A 
ATOM     14  C   UNL     1       4.627  -3.629   1.129  1.00  0.00    -0.014 A 
BRANCH  14  15
ATOM     15  C   UNL     1       5.410  -4.815   1.554  1.00  0.00     0.031 A 
ATOM     16  C   UNL     1       6.090  -5.708   0.559  1.00  0.00     0.074 A 
ATOM     17  C   UNL     1       5.535  -5.043   2.877  1.00  0.00     0.049 A 
ATOM     18  N   UNL     1       6.837  -6.760   0.782  1.00  0.00    -0.248 NA
ATOM     19  C   UNL     1       5.910  -5.392  -0.866  1.00  0.00     0.031 C 
ATOM     20  C   UNL     1       4.906  -4.239   3.931  1.00  0.00     0.029 A 
ATOM     21  N   UNL     1       6.249  -5.987   3.567  1.00  0.00    -0.354 N 
ATOM     22  C   UNL     1       7.210  -7.235  -0.469  1.00  0.00     0.074 A 
ATOM     23  C   UNL     1       6.585  -6.375  -1.450  1.00  0.00     0.031 C 
ATOM     24  C   UNL     1       5.315  -4.681   5.127  1.00  0.00     0.029 A 
ATOM     25  C   UNL     1       6.168  -5.845   4.931  1.00  0.00     0.049 A 
ATOM     26  H   UNL     1       6.769  -6.699   3.127  1.00  0.00     0.167 HD
ATOM     27  C   UNL     1       8.011  -8.287  -0.762  1.00  0.00     0.037 A 
ATOM     28  C   UNL     1       6.707  -6.581   5.920  1.00  0.00     0.037 A 
ATOM     29  C   UNL     1       8.637  -9.129   0.227  1.00  0.00     0.049 A 
ATOM     30  C   UNL     1       7.555  -7.763   5.558  1.00  0.00     0.074 A 
ATOM     31  C   UNL     1       9.481 -10.208   0.027  1.00  0.00     0.029 A 
ATOM     32  N   UNL     1       8.489  -8.988   1.599  1.00  0.00    -0.354 N 
ATOM     33  N   UNL     1       7.915  -8.187   4.371  1.00  0.00    -0.248 NA
ATOM     34  C   UNL     1       8.062  -8.577   6.670  1.00  0.00     0.031 C 
ATOM     35  C   UNL     1       9.805 -10.748   1.275  1.00  0.00     0.029 A 
ATOM     36  C   UNL     1       9.206  -9.975   2.256  1.00  0.00     0.049 A 
ATOM     37  H   UNL     1       7.953  -8.290   2.040  1.00  0.00     0.167 HD
ATOM     38  C   UNL     1       8.697  -9.310   4.591  1.00  0.00     0.074 A 
ATOM     39  C   UNL     1       8.786  -9.482   6.027  1.00  0.00     0.031 C 
ATOM     40  C   UNL     1       9.281 -10.132   3.686  1.00  0.00     0.037 A 
BRANCH  27  41
ATOM     41  C   UNL     1       8.268  -8.602  -2.208  1.00  0.00     0.057 A 
ATOM     42  C   UNL     1       7.748  -9.765  -2.789  1.00  0.00     0.134 A 
ATOM     43  C   UNL     1       9.115  -7.811  -2.993  1.00  0.00     0.134 A 
ATOM     44  F   UNL     1       6.936 -10.573  -2.090  1.00  0.00    -0.206 F 
ATOM     45  C   UNL     1       8.078 -10.142  -4.093  1.00  0.00     0.040 A 
ATOM     46  C   UNL     1       9.435  -8.165  -4.306  1.00  0.00     0.040 A 
ATOM     47  F   UNL     1       9.640  -6.679  -2.500  1.00  0.00    -0.206 F 
ATOM     48  C   UNL     1       8.926  -9.341  -4.854  1.00  0.00     0.006 A 
ENDBRANCH  27  41
BRANCH  28  49
ATOM     49  C   UNL     1       6.447  -6.222   7.337  1.00  0.00     0.057 A 
ATOM     50  C   UNL     1       5.164  -6.316   7.891  1.00  0.00     0.134 A 
ATOM     51  C   UNL     1       7.474  -5.762   8.168  1.00  0.00     0.134 A 
ATOM     52  F   UNL     1       4.133  -6.741   7.145  1.00  0.00    -0.206 F 
ATOM     53  C   UNL     1       4.908  -5.949   9.212  1.00  0.00     0.040 A 
ATOM     54  C   UNL     1       7.239  -5.423   9.501  1.00  0.00     0.040 A 
ATOM     55  F   UNL     1       8.728  -5.664   7.701  1.00  0.00    -0.206 F 
ATOM     56  C   UNL     1       5.950  -5.508  10.024  1.00  0.00     0.006 A 
ENDBRANCH  28  49
BRANCH  40  57
ATOM     57  C   UNL     1      10.074 -11.285   4.225  1.00  0.00     0.057 A 
ATOM     58  C   UNL     1      11.470 -11.310   4.111  1.00  0.00     0.134 A 
ATOM     59  C   UNL     1       9.452 -12.389   4.822  1.00  0.00     0.134 A 
ATOM     60  F   UNL     1      12.126 -10.287   3.542  1.00  0.00    -0.206 F 
ATOM     61  C   UNL     1      12.218 -12.396   4.566  1.00  0.00     0.040 A 
ATOM     62  C   UNL     1      10.192 -13.468   5.307  1.00  0.00     0.040 A 
ATOM     63  F   UNL     1       8.119 -12.419   4.973  1.00  0.00    -0.206 F 
ATOM     64  C   UNL     1      11.579 -13.476   5.172  1.00  0.00     0.006 A 
ENDBRANCH  40  57
ENDBRANCH  14  15
ENDBRANCH   7   9
ENDBRANCH   4   5
ENDBRANCH   3   4
ENDBRANCH   2   3
ENDBRANCH   1   2
BRANCH   1  65
ATOM     65  C   UNL     1       6.027   4.079  -1.634  1.00  0.00     0.021 C 
BRANCH  65  66
ATOM     66  C   UNL     1       6.670   4.286  -3.006  1.00  0.00     0.116 C 
BRANCH  66  67
ATOM     67  N   UNL     1       6.631   5.684  -3.371  1.00  0.00    -0.354 N 
ATOM     68  C   UNL     1       7.605   6.626  -3.426  1.00  0.00     0.242 C 
ATOM     69  H   UNL     1       5.738   6.011  -3.624  1.00  0.00     0.163 HD
ATOM     70  O   UNL     1       7.229   7.798  -3.555  1.00  0.00    -0.273 OA
BRANCH  68  71
ATOM     71  C   UNL     1       9.115   6.328  -3.278  1.00  0.00     0.173 C 
BRANCH  71  72
ATOM     72  C   UNL     1       9.625   6.138  -1.839  1.00  0.00     0.063 C 
BRANCH  72  73
ATOM     73  C   UNL     1       9.482   4.787  -1.153  1.00  0.00     0.158 C 
BRANCH  73  74
ATOM     74  O   UNL     1       9.807   3.695  -1.995  1.00  0.00    -0.396 OA
ATOM     75  H   UNL     1       9.200   3.678  -2.752  1.00  0.00     0.210 HD
ENDBRANCH  73  74
ENDBRANCH  72  73
ENDBRANCH  71  72
BRANCH  71  76
ATOM     76  N   UNL     1       9.645   5.351  -4.233  1.00  0.00    -0.340 N 
ATOM     77  C   UNL     1      10.490   5.526  -5.303  1.00  0.00     0.258 C 
ATOM     78  H   UNL     1       9.350   4.423  -4.084  1.00  0.00     0.164 HD
ATOM     79  O   UNL     1      10.747   4.577  -6.037  1.00  0.00    -0.269 OA
BRANCH  77  80
ATOM     80  C   UNL     1      11.120   6.828  -5.580  1.00  0.00     0.118 A 
ATOM     81  C   UNL     1      11.900   7.464  -4.615  1.00  0.00     0.139 A 
ATOM     82  C   UNL     1      11.005   7.394  -6.852  1.00  0.00     0.216 A 
ATOM     83  F   UNL     1      12.129   6.891  -3.428  1.00  0.00    -0.206 F 
ATOM     84  C   UNL     1      12.476   8.708  -4.860  1.00  0.00     0.047 A 
ATOM     85  C   UNL     1      11.626   8.618  -7.123  1.00  0.00     0.305 A 
ATOM     86  F   UNL     1      10.278   6.764  -7.785  1.00  0.00    -0.198 F 
ATOM     87  C   UNL     1      12.338   9.295  -6.116  1.00  0.00     0.092 A 
BRANCH  85  88
ATOM     88  N   UNL     1      11.566   9.208  -8.461  1.00  0.00     0.065 N 
ATOM     89  O   UNL     1      11.126   8.527  -9.393  1.00  0.00    -0.258 OA
ATOM     90  O   UNL     1      11.993  10.366  -8.585  1.00  0.00    -0.258 OA
ENDBRANCH  85  88
ENDBRANCH  77  80
ENDBRANCH  71  76
ENDBRANCH  68  71
ENDBRANCH  66  67
ENDBRANCH  65  66
ENDBRANCH   1  65
TORSDOF 19
