REMARK SMILES O=C(NCCCCCCNC(=O)[C@H]1Cc2cc(O)ccc2C[NH2+]1)c1ccc(-c2c3nc(c(-c4c(F)cccc4F)c4ccc([nH]4)c(-c4c(F)cccc4F)c4nc(c(-c5c(F)cccc5F)c5ccc2[nH]5)C=C4)C=C3)cc1
REMARK SMILES IDX 6 1 5 2 4 3 3 4 1 5 2 6 24 8 25 9 77 10 26 11 76 12 27 13
REMARK SMILES IDX 28 14 29 15 70 16 30 17 75 18 69 19 71 20 31 21 74 22 68 23
REMARK SMILES IDX 67 24 32 26 58 27 41 28 57 29 42 30 45 31 56 32 72 33 43 34
REMARK SMILES IDX 44 35 55 37 73 38 46 39 33 40 34 41 39 42 35 43 36 44 38 45
REMARK SMILES IDX 40 46 37 47 59 48 60 49 65 50 61 51 62 52 64 53 66 54 63 55
REMARK SMILES IDX 47 56 48 57 53 58 49 59 50 60 52 61 54 62 51 63 7 64 8 65
REMARK SMILES IDX 9 66 10 67 11 68 12 70 13 71 14 72 23 73 15 74 22 75 16 78
REMARK SMILES IDX 21 79 17 80 20 81 19 82 18 83
REMARK H PARENT 3 7 71 25 45 36 10 69 23 76 23 77 18 84
REMARK Flexibility Score: inf
ROOT
ATOM      1  C   UNL     1       4.186   3.004   2.439  1.00  0.00     0.002 C 
ENDROOT
BRANCH   1   2
ATOM      2  C   UNL     1       4.633   2.463   1.077  1.00  0.00     0.021 C 
BRANCH   2   3
ATOM      3  C   UNL     1       4.335   0.987   0.830  1.00  0.00     0.116 C 
BRANCH   3   4
ATOM      4  N   UNL     1       2.913   0.696   0.864  1.00  0.00    -0.352 N 
ATOM      5  O   UNL     1       0.926  -0.043   0.109  1.00  0.00    -0.269 OA
ATOM      6  C   UNL     1       2.151  -0.042  -0.004  1.00  0.00     0.251 C 
ATOM      7  H   UNL     1       2.423   1.086   1.623  1.00  0.00     0.163 HD
BRANCH   6   8
ATOM      8  C   UNL     1       2.781  -0.835  -1.082  1.00  0.00     0.039 A 
ATOM      9  C   UNL     1       2.183  -0.841  -2.346  1.00  0.00     0.014 A 
ATOM     10  C   UNL     1       3.905  -1.630  -0.837  1.00  0.00     0.014 A 
ATOM     11  C   UNL     1       2.719  -1.625  -3.371  1.00  0.00     0.010 A 
ATOM     12  C   UNL     1       4.468  -2.376  -1.872  1.00  0.00     0.010 A 
ATOM     13  C   UNL     1       3.867  -2.395  -3.141  1.00  0.00    -0.014 A 
BRANCH  13  14
ATOM     14  C   UNL     1       4.416  -3.290  -4.188  1.00  0.00     0.031 A 
ATOM     15  C   UNL     1       4.315  -4.780  -4.015  1.00  0.00     0.074 A 
ATOM     16  C   UNL     1       5.054  -2.777  -5.255  1.00  0.00     0.049 A 
ATOM     17  N   UNL     1       4.837  -5.736  -4.739  1.00  0.00    -0.248 NA
ATOM     18  C   UNL     1       3.542  -5.253  -2.856  1.00  0.00     0.031 C 
ATOM     19  C   UNL     1       5.233  -1.352  -5.530  1.00  0.00     0.029 A 
ATOM     20  N   UNL     1       5.690  -3.404  -6.296  1.00  0.00    -0.354 N 
ATOM     21  C   UNL     1       4.477  -6.922  -4.111  1.00  0.00     0.074 A 
ATOM     22  C   UNL     1       3.723  -6.563  -2.929  1.00  0.00     0.031 C 
ATOM     23  C   UNL     1       5.940  -1.212  -6.664  1.00  0.00     0.029 A 
ATOM     24  C   UNL     1       6.289  -2.535  -7.174  1.00  0.00     0.049 A 
ATOM     25  H   UNL     1       5.715  -4.382  -6.404  1.00  0.00     0.167 HD
ATOM     26  C   UNL     1       4.738  -8.195  -4.493  1.00  0.00     0.037 A 
ATOM     27  C   UNL     1       7.055  -2.780  -8.254  1.00  0.00     0.037 A 
ATOM     28  C   UNL     1       5.457  -8.552  -5.686  1.00  0.00     0.049 A 
ATOM     29  C   UNL     1       7.355  -4.199  -8.645  1.00  0.00     0.074 A 
ATOM     30  C   UNL     1       5.694  -9.812  -6.208  1.00  0.00     0.029 A 
ATOM     31  N   UNL     1       6.058  -7.644  -6.543  1.00  0.00    -0.354 N 
ATOM     32  N   UNL     1       6.969  -5.312  -8.071  1.00  0.00    -0.248 NA
ATOM     33  C   UNL     1       8.206  -4.394  -9.828  1.00  0.00     0.031 C 
ATOM     34  C   UNL     1       6.473  -9.666  -7.362  1.00  0.00     0.029 A 
ATOM     35  C   UNL     1       6.696  -8.315  -7.572  1.00  0.00     0.049 A 
ATOM     36  H   UNL     1       6.035  -6.665  -6.435  1.00  0.00     0.167 HD
ATOM     37  C   UNL     1       7.528  -6.340  -8.819  1.00  0.00     0.074 A 
ATOM     38  C   UNL     1       8.262  -5.717  -9.902  1.00  0.00     0.031 C 
ATOM     39  C   UNL     1       7.444  -7.678  -8.625  1.00  0.00     0.037 A 
BRANCH  26  40
ATOM     40  C   UNL     1       4.245  -9.289  -3.595  1.00  0.00     0.057 A 
ATOM     41  C   UNL     1       5.140 -10.018  -2.802  1.00  0.00     0.134 A 
ATOM     42  C   UNL     1       2.886  -9.616  -3.507  1.00  0.00     0.134 A 
ATOM     43  F   UNL     1       6.455  -9.755  -2.841  1.00  0.00    -0.206 F 
ATOM     44  C   UNL     1       4.699 -11.028  -1.946  1.00  0.00     0.040 A 
ATOM     45  C   UNL     1       2.430 -10.609  -2.638  1.00  0.00     0.040 A 
ATOM     46  F   UNL     1       1.977  -8.944  -4.229  1.00  0.00    -0.206 F 
ATOM     47  C   UNL     1       3.339 -11.319  -1.856  1.00  0.00     0.006 A 
ENDBRANCH  26  40
BRANCH  27  48
ATOM     48  C   UNL     1       7.612  -1.647  -9.031  1.00  0.00     0.057 A 
ATOM     49  C   UNL     1       8.668  -0.874  -8.534  1.00  0.00     0.134 A 
ATOM     50  C   UNL     1       7.094  -1.309 -10.285  1.00  0.00     0.134 A 
ATOM     51  F   UNL     1       9.204  -1.150  -7.337  1.00  0.00    -0.206 F 
ATOM     52  C   UNL     1       9.183   0.204  -9.255  1.00  0.00     0.040 A 
ATOM     53  C   UNL     1       7.611  -0.244 -11.024  1.00  0.00     0.040 A 
ATOM     54  F   UNL     1       6.097  -2.029 -10.819  1.00  0.00    -0.206 F 
ATOM     55  C   UNL     1       8.656   0.520 -10.505  1.00  0.00     0.006 A 
ENDBRANCH  27  48
BRANCH  39  56
ATOM     56  C   UNL     1       8.181  -8.552  -9.594  1.00  0.00     0.057 A 
ATOM     57  C   UNL     1       7.498  -9.265 -10.585  1.00  0.00     0.134 A 
ATOM     58  C   UNL     1       9.572  -8.705  -9.522  1.00  0.00     0.134 A 
ATOM     59  F   UNL     1       6.166  -9.163 -10.703  1.00  0.00    -0.206 F 
ATOM     60  C   UNL     1       8.173 -10.106 -11.472  1.00  0.00     0.040 A 
ATOM     61  C   UNL     1      10.260  -9.529 -10.414  1.00  0.00     0.040 A 
ATOM     62  F   UNL     1      10.283  -8.035  -8.603  1.00  0.00    -0.206 F 
ATOM     63  C   UNL     1       9.559 -10.237 -11.389  1.00  0.00     0.006 A 
ENDBRANCH  39  56
ENDBRANCH  13  14
ENDBRANCH   6   8
ENDBRANCH   3   4
ENDBRANCH   2   3
ENDBRANCH   1   2
BRANCH   1  64
ATOM     64  C   UNL     1       4.742   2.266   3.660  1.00  0.00     0.002 C 
BRANCH  64  65
ATOM     65  C   UNL     1       6.270   2.164   3.733  1.00  0.00     0.021 C 
BRANCH  65  66
ATOM     66  C   UNL     1       7.013   3.496   3.671  1.00  0.00     0.116 C 
BRANCH  66  67
ATOM     67  N   UNL     1       6.673   4.363   4.783  1.00  0.00    -0.351 N 
ATOM     68  C   UNL     1       7.494   5.119   5.578  1.00  0.00     0.278 C 
ATOM     69  H   UNL     1       5.714   4.415   4.998  1.00  0.00     0.163 HD
ATOM     70  O   UNL     1       6.966   5.885   6.385  1.00  0.00    -0.268 OA
BRANCH  68  71
ATOM     71  C   UNL     1       9.015   4.967   5.421  1.00  0.00     0.277 C 
ATOM     72  C   UNL     1       9.747   6.160   6.049  1.00  0.00     0.111 C 
ATOM     73  N   UNL     1       9.460   3.721   6.085  1.00  0.00    -0.332 N 
ATOM     74  C   UNL     1      11.242   5.965   5.970  1.00  0.00    -0.029 A 
ATOM     75  C   UNL     1      10.867   3.454   5.774  1.00  0.00     0.298 C 
ATOM     76  H   UNL     1       8.890   2.942   5.755  1.00  0.00     0.347 HD
ATOM     77  H   UNL     1       9.357   3.827   7.094  1.00  0.00     0.347 HD
ATOM     78  C   UNL     1      12.101   7.069   6.026  1.00  0.00     0.050 A 
ATOM     79  C   UNL     1      11.772   4.663   5.884  1.00  0.00     0.010 A 
ATOM     80  C   UNL     1      13.476   6.878   5.965  1.00  0.00     0.115 A 
ATOM     81  C   UNL     1      13.164   4.495   5.826  1.00  0.00     0.013 A 
ATOM     82  C   UNL     1      14.016   5.601   5.867  1.00  0.00     0.046 A 
BRANCH  80  83
ATOM     83  O   UNL     1      14.271   7.985   6.001  1.00  0.00    -0.508 OA
ATOM     84  H   UNL     1      13.887   8.837   6.068  1.00  0.00     0.293 HD
ENDBRANCH  80  83
ENDBRANCH  68  71
ENDBRANCH  66  67
ENDBRANCH  65  66
ENDBRANCH  64  65
ENDBRANCH   1  64
TORSDOF 14
