REMARK SMILES O=C(CCCNC(=O)N1CC[C@@H](C(=O)NCCCCCCNC(=O)c2ccc(-c3c4nc(c(-c5c(F)cccc5F)c5ccc([nH]5)c(-c5c(F)cccc5F)c5nc(c(-c6c(F)cccc6F)c6ccc3[nH]6)C=C5)C=C4)cc2)C1)NC1CC1
REMARK SMILES IDX 16 1 15 2 13 3 14 4 12 6 9 7 10 8 79 9 11 10 7 11 6 12 8 14
REMARK SMILES IDX 5 15 4 16 3 17 2 18 1 19 80 20 81 22 82 23 83 24 17 25 18 26
REMARK SMILES IDX 19 27 20 28 21 29 22 30 23 31 24 33 25 34 26 35 78 36 27 37
REMARK SMILES IDX 77 38 28 39 29 40 30 41 71 42 31 43 76 44 70 45 72 46 32 47
REMARK SMILES IDX 75 48 69 49 68 50 33 52 59 53 42 54 58 55 43 56 46 57 57 58
REMARK SMILES IDX 73 59 44 60 45 61 56 63 74 64 47 65 34 66 35 67 40 68 36 69
REMARK SMILES IDX 37 70 39 71 41 72 38 73 60 74 61 75 66 76 62 77 63 78 65 79
REMARK SMILES IDX 67 80 64 81 48 82 49 83 54 84 50 85 51 86 53 87 55 88 52 89
REMARK H PARENT 15 5 6 13 80 21 22 32 72 51 46 62
REMARK Flexibility Score: inf
ROOT
ATOM      1  C   UNL     1      11.409  -1.557  -2.720  1.00  0.00     0.116 C 
ENDROOT
BRANCH   1   2
ATOM      2  N   UNL     1      11.290  -0.285  -3.405  1.00  0.00    -0.356 N 
ATOM      3  C   UNL     1      10.152   0.402  -3.719  1.00  0.00     0.224 C 
ATOM      4  O   UNL     1      10.260   1.525  -4.208  1.00  0.00    -0.275 OA
ATOM      5  H   UNL     1      12.136   0.137  -3.679  1.00  0.00     0.163 HD
BRANCH   3   6
ATOM      6  C   UNL     1       8.811  -0.276  -3.506  1.00  0.00     0.100 C 
ATOM      7  N   UNL     1       7.413   0.120  -1.642  1.00  0.00    -0.324 N 
ATOM      8  C   UNL     1       7.206   1.230  -2.552  1.00  0.00     0.122 C 
ATOM      9  C   UNL     1       8.584  -0.618  -2.032  1.00  0.00     0.134 C 
ATOM     10  C   UNL     1       7.618   0.625  -3.881  1.00  0.00     0.037 C 
BRANCH   7  11
ATOM     11  C   UNL     1       6.798  -0.153  -0.468  1.00  0.00     0.317 C 
ATOM     12  N   UNL     1       5.465   0.054  -0.368  1.00  0.00    -0.338 N 
ATOM     13  H   UNL     1       5.117   0.247   0.532  1.00  0.00     0.165 HD
ATOM     14  O   UNL     1       7.378  -0.667   0.487  1.00  0.00    -0.249 OA
BRANCH  12  15
ATOM     15  C   UNL     1       4.494   0.021  -1.448  1.00  0.00     0.118 C 
BRANCH  15  16
ATOM     16  C   UNL     1       3.503  -1.135  -1.308  1.00  0.00     0.031 C 
BRANCH  16  17
ATOM     17  C   UNL     1       2.733  -1.189   0.009  1.00  0.00     0.102 C 
BRANCH  17  18
ATOM     18  C   UNL     1       1.810  -0.005   0.193  1.00  0.00     0.220 C 
ATOM     19  O   UNL     1       0.606  -0.087  -0.032  1.00  0.00    -0.275 OA
ATOM     20  N   UNL     1       2.446   1.150   0.601  1.00  0.00    -0.353 N 
ATOM     21  H   UNL     1       3.413   1.116   0.786  1.00  0.00     0.163 HD
BRANCH  20  22
ATOM     22  C   UNL     1       1.761   2.390   0.765  1.00  0.00     0.082 C 
ATOM     23  C   UNL     1       2.324   3.651   0.166  1.00  0.00     0.027 C 
ATOM     24  C   UNL     1       1.065   3.055  -0.389  1.00  0.00     0.027 C 
ENDBRANCH  20  22
ENDBRANCH  17  18
ENDBRANCH  16  17
ENDBRANCH  15  16
ENDBRANCH  12  15
ENDBRANCH   7  11
ENDBRANCH   3   6
ENDBRANCH   1   2
BRANCH   1  25
ATOM     25  C   UNL     1      12.650  -2.338  -3.121  1.00  0.00     0.021 C 
BRANCH  25  26
ATOM     26  C   UNL     1      13.979  -1.633  -2.840  1.00  0.00     0.002 C 
BRANCH  26  27
ATOM     27  C   UNL     1      14.182  -1.131  -1.407  1.00  0.00     0.002 C 
BRANCH  27  28
ATOM     28  C   UNL     1      13.999  -2.173  -0.302  1.00  0.00     0.021 C 
BRANCH  28  29
ATOM     29  C   UNL     1      14.783  -3.466  -0.487  1.00  0.00     0.116 C 
BRANCH  29  30
ATOM     30  N   UNL     1      16.215  -3.247  -0.589  1.00  0.00    -0.352 N 
ATOM     31  C   UNL     1      17.240  -3.897   0.049  1.00  0.00     0.251 C 
ATOM     32  H   UNL     1      16.489  -2.529  -1.204  1.00  0.00     0.163 HD
ATOM     33  O   UNL     1      18.393  -3.484  -0.057  1.00  0.00    -0.269 OA
BRANCH  31  34
ATOM     34  C   UNL     1      16.955  -5.078   0.890  1.00  0.00     0.039 A 
ATOM     35  C   UNL     1      17.563  -5.168   2.145  1.00  0.00     0.014 A 
ATOM     36  C   UNL     1      16.098  -6.091   0.450  1.00  0.00     0.014 A 
ATOM     37  C   UNL     1      17.266  -6.246   2.981  1.00  0.00     0.010 A 
ATOM     38  C   UNL     1      15.745  -7.124   1.315  1.00  0.00     0.010 A 
ATOM     39  C   UNL     1      16.329  -7.215   2.587  1.00  0.00    -0.014 A 
BRANCH  39  40
ATOM     40  C   UNL     1      15.955  -8.329   3.495  1.00  0.00     0.031 A 
ATOM     41  C   UNL     1      16.264  -9.752   3.117  1.00  0.00     0.074 A 
ATOM     42  C   UNL     1      15.298  -8.062   4.641  1.00  0.00     0.049 A 
ATOM     43  N   UNL     1      15.978 -10.858   3.756  1.00  0.00    -0.248 NA
ATOM     44  C   UNL     1      16.968  -9.962   1.841  1.00  0.00     0.031 C 
ATOM     45  C   UNL     1      14.904  -6.729   5.100  1.00  0.00     0.029 A 
ATOM     46  N   UNL     1      14.842  -8.900   5.627  1.00  0.00    -0.354 N 
ATOM     47  C   UNL     1      16.460 -11.890   2.961  1.00  0.00     0.074 A 
ATOM     48  C   UNL     1      17.003 -11.285   1.765  1.00  0.00     0.031 C 
ATOM     49  C   UNL     1      14.290  -6.837   6.289  1.00  0.00     0.029 A 
ATOM     50  C   UNL     1      14.211  -8.246   6.658  1.00  0.00     0.049 A 
ATOM     51  H   UNL     1      14.955  -9.878   5.599  1.00  0.00     0.167 HD
ATOM     52  C   UNL     1      16.474 -13.220   3.216  1.00  0.00     0.037 A 
ATOM     53  C   UNL     1      13.629  -8.730   7.772  1.00  0.00     0.037 A 
ATOM     54  C   UNL     1      15.948 -13.820   4.415  1.00  0.00     0.049 A 
ATOM     55  C   UNL     1      13.636 -10.214   8.017  1.00  0.00     0.074 A 
ATOM     56  C   UNL     1      15.952 -15.153   4.785  1.00  0.00     0.029 A 
ATOM     57  N   UNL     1      15.322 -13.123   5.438  1.00  0.00    -0.354 N 
ATOM     58  N   UNL     1      14.152 -11.172   7.286  1.00  0.00    -0.248 NA
ATOM     59  C   UNL     1      12.984 -10.684   9.248  1.00  0.00     0.031 C 
ATOM     60  C   UNL     1      15.289 -15.270   6.010  1.00  0.00     0.029 A 
ATOM     61  C   UNL     1      14.918 -14.002   6.429  1.00  0.00     0.049 A 
ATOM     62  H   UNL     1      15.185 -12.148   5.456  1.00  0.00     0.167 HD
ATOM     63  C   UNL     1      13.919 -12.351   7.983  1.00  0.00     0.074 A 
ATOM     64  C   UNL     1      13.229 -11.985   9.203  1.00  0.00     0.031 C 
ATOM     65  C   UNL     1      14.245 -13.622   7.644  1.00  0.00     0.037 A 
BRANCH  52  66
ATOM     66  C   UNL     1      17.087 -14.120   2.183  1.00  0.00     0.057 A 
ATOM     67  C   UNL     1      18.468 -14.134   1.945  1.00  0.00     0.134 A 
ATOM     68  C   UNL     1      16.298 -15.017   1.452  1.00  0.00     0.134 A 
ATOM     69  F   UNL     1      19.280 -13.292   2.602  1.00  0.00    -0.206 F 
ATOM     70  C   UNL     1      19.039 -14.992   1.002  1.00  0.00     0.040 A 
ATOM     71  C   UNL     1      16.861 -15.899   0.528  1.00  0.00     0.040 A 
ATOM     72  F   UNL     1      14.970 -15.062   1.635  1.00  0.00    -0.206 F 
ATOM     73  C   UNL     1      18.235 -15.884   0.297  1.00  0.00     0.006 A 
ENDBRANCH  52  66
BRANCH  53  74
ATOM     74  C   UNL     1      13.002  -7.807   8.753  1.00  0.00     0.057 A 
ATOM     75  C   UNL     1      13.545  -7.634  10.032  1.00  0.00     0.134 A 
ATOM     76  C   UNL     1      11.830  -7.103   8.451  1.00  0.00     0.134 A 
ATOM     77  F   UNL     1      14.656  -8.295  10.388  1.00  0.00    -0.206 F 
ATOM     78  C   UNL     1      12.930  -6.820  10.985  1.00  0.00     0.040 A 
ATOM     79  C   UNL     1      11.220  -6.263   9.384  1.00  0.00     0.040 A 
ATOM     80  F   UNL     1      11.262  -7.219   7.242  1.00  0.00    -0.206 F 
ATOM     81  C   UNL     1      11.765  -6.129  10.660  1.00  0.00     0.006 A 
ENDBRANCH  53  74
BRANCH  65  82
ATOM     82  C   UNL     1      13.901 -14.704   8.626  1.00  0.00     0.057 A 
ATOM     83  C   UNL     1      12.580 -15.107   8.855  1.00  0.00     0.134 A 
ATOM     84  C   UNL     1      14.912 -15.374   9.329  1.00  0.00     0.134 A 
ATOM     85  F   UNL     1      11.564 -14.498   8.225  1.00  0.00    -0.206 F 
ATOM     86  C   UNL     1      12.274 -16.118   9.769  1.00  0.00     0.040 A 
ATOM     87  C   UNL     1      14.621 -16.406  10.221  1.00  0.00     0.040 A 
ATOM     88  F   UNL     1      16.200 -15.044   9.149  1.00  0.00    -0.206 F 
ATOM     89  C   UNL     1      13.297 -16.775  10.449  1.00  0.00     0.006 A 
ENDBRANCH  65  82
ENDBRANCH  39  40
ENDBRANCH  31  34
ENDBRANCH  29  30
ENDBRANCH  28  29
ENDBRANCH  27  28
ENDBRANCH  26  27
ENDBRANCH  25  26
ENDBRANCH   1  25
TORSDOF 19
