REMARK SMILES C=CCN(CC(=O)NCCCCCCNC(=O)c1ccc(-c2c3nc(c(-c4c(F)cccc4F)c4ccc([nH]4)c(-c4c(F)cccc4F)c4nc(c(-c5c(F)cccc5F)c5ccc2[nH]5)C=C4)C=C3)cc1)c1ccc([N+](=O)[O-])cc1Br
REMARK SMILES IDX 11 1 10 2 9 3 8 4 6 5 7 6 5 8 4 9 3 10 2 11 1 12 72 13 73 14
REMARK SMILES IDX 80 15 74 16 79 17 81 18 75 19 76 20 77 21 78 22 12 23 13 24
REMARK SMILES IDX 14 25 15 26 16 27 17 29 18 30 19 31 71 32 20 33 70 34 21 35
REMARK SMILES IDX 22 36 23 37 64 38 24 39 69 40 63 41 65 42 25 43 68 44 62 45
REMARK SMILES IDX 61 46 26 48 52 49 35 50 51 51 36 52 39 53 50 54 66 55 37 56
REMARK SMILES IDX 38 57 49 59 67 60 40 61 27 62 28 63 33 64 29 65 30 66 32 67
REMARK SMILES IDX 34 68 31 69 53 70 54 71 59 72 55 73 56 74 58 75 60 76 57 77
REMARK SMILES IDX 41 78 42 79 47 80 43 81 44 82 46 83 48 84 45 85
REMARK H PARENT 8 7 15 28 65 47 39 58
REMARK Flexibility Score: inf
ROOT
ATOM      1  C   UNL     1      -5.713   0.644   1.331  1.00  0.00     0.002 C 
ENDROOT
BRANCH   1   2
ATOM      2  C   UNL     1      -4.379   0.403   0.610  1.00  0.00     0.021 C 
BRANCH   2   3
ATOM      3  C   UNL     1      -4.468   0.498  -0.915  1.00  0.00     0.116 C 
BRANCH   3   4
ATOM      4  N   UNL     1      -4.574   1.866  -1.366  1.00  0.00    -0.355 N 
ATOM      5  C   UNL     1      -3.648   2.701  -1.922  1.00  0.00     0.239 C 
ATOM      6  O   UNL     1      -4.044   3.836  -2.214  1.00  0.00    -0.273 OA
ATOM      7  H   UNL     1      -5.468   2.264  -1.254  1.00  0.00     0.163 HD
BRANCH   5   8
ATOM      8  C   UNL     1      -2.197   2.273  -2.218  1.00  0.00     0.216 C 
BRANCH   8   9
ATOM      9  N   UNL     1      -1.316   1.991  -1.057  1.00  0.00    -0.358 N 
BRANCH   9  10
ATOM     10  C   UNL     1      -1.106   0.592  -0.679  1.00  0.00     0.144 C 
BRANCH  10  11
ATOM     11  C   UNL     1       0.281   0.100  -0.920  1.00  0.00    -0.014 C 
ATOM     12  C   UNL     1       1.000  -0.589  -0.023  1.00  0.00     0.006 C 
ENDBRANCH  10  11
ENDBRANCH   9  10
BRANCH   9  13
ATOM     13  C   UNL     1      -0.994   3.016  -0.164  1.00  0.00     0.052 A 
ATOM     14  C   UNL     1      -2.023   3.699   0.518  1.00  0.00     0.034 A 
ATOM     15  C   UNL     1       0.324   3.448   0.120  1.00  0.00     0.048 A 
ATOM     16  C   UNL     1      -1.778   4.737   1.426  1.00  0.00     0.088 A 
ATOM     17  C   UNL     1       0.591   4.437   1.085  1.00  0.00     0.103 A 
ATOM     18  Br  UNL     1       1.853   2.915  -0.884  1.00  0.00    -0.048 Br
ATOM     19  C   UNL     1      -0.465   5.086   1.721  1.00  0.00     0.270 A 
BRANCH  19  20
ATOM     20  N   UNL     1      -0.191   6.162   2.677  1.00  0.00     0.062 N 
ATOM     21  O   UNL     1      -1.130   6.909   2.987  1.00  0.00    -0.258 OA
ATOM     22  O   UNL     1       0.963   6.257   3.119  1.00  0.00    -0.258 OA
ENDBRANCH  19  20
ENDBRANCH   9  13
ENDBRANCH   8   9
ENDBRANCH   5   8
ENDBRANCH   3   4
ENDBRANCH   2   3
ENDBRANCH   1   2
BRANCH   1  23
ATOM     23  C   UNL     1      -6.847  -0.312   0.943  1.00  0.00     0.002 C 
BRANCH  23  24
ATOM     24  C   UNL     1      -6.523  -1.801   1.089  1.00  0.00     0.021 C 
BRANCH  24  25
ATOM     25  C   UNL     1      -6.207  -2.244   2.514  1.00  0.00     0.116 C 
BRANCH  25  26
ATOM     26  N   UNL     1      -7.353  -2.100   3.397  1.00  0.00    -0.352 N 
ATOM     27  C   UNL     1      -7.972  -3.037   4.188  1.00  0.00     0.251 C 
ATOM     28  H   UNL     1      -7.742  -1.197   3.435  1.00  0.00     0.163 HD
ATOM     29  O   UNL     1      -9.052  -2.785   4.709  1.00  0.00    -0.269 OA
BRANCH  27  30
ATOM     30  C   UNL     1      -7.344  -4.359   4.396  1.00  0.00     0.039 A 
ATOM     31  C   UNL     1      -8.143  -5.504   4.335  1.00  0.00     0.014 A 
ATOM     32  C   UNL     1      -5.977  -4.471   4.666  1.00  0.00     0.014 A 
ATOM     33  C   UNL     1      -7.560  -6.764   4.482  1.00  0.00     0.010 A 
ATOM     34  C   UNL     1      -5.386  -5.729   4.738  1.00  0.00     0.010 A 
ATOM     35  C   UNL     1      -6.171  -6.888   4.650  1.00  0.00    -0.014 A 
BRANCH  35  36
ATOM     36  C   UNL     1      -5.522  -8.222   4.727  1.00  0.00     0.031 A 
ATOM     37  C   UNL     1      -4.806  -8.648   5.978  1.00  0.00     0.074 A 
ATOM     38  C   UNL     1      -5.521  -9.024   3.644  1.00  0.00     0.049 A 
ATOM     39  N   UNL     1      -4.130  -9.744   6.212  1.00  0.00    -0.248 NA
ATOM     40  C   UNL     1      -4.828  -7.704   7.106  1.00  0.00     0.031 C 
ATOM     41  C   UNL     1      -6.139  -8.705   2.356  1.00  0.00     0.029 A 
ATOM     42  N   UNL     1      -4.973 -10.267   3.451  1.00  0.00    -0.354 N 
ATOM     43  C   UNL     1      -3.637  -9.616   7.504  1.00  0.00     0.074 A 
ATOM     44  C   UNL     1      -4.043  -8.313   7.983  1.00  0.00     0.031 C 
ATOM     45  C   UNL     1      -5.956  -9.735   1.515  1.00  0.00     0.029 A 
ATOM     46  C   UNL     1      -5.175 -10.767   2.188  1.00  0.00     0.049 A 
ATOM     47  H   UNL     1      -4.482 -10.753   4.152  1.00  0.00     0.167 HD
ATOM     48  C   UNL     1      -2.930 -10.512   8.234  1.00  0.00     0.037 A 
ATOM     49  C   UNL     1      -4.770 -11.924   1.632  1.00  0.00     0.037 A 
ATOM     50  C   UNL     1      -2.542 -11.815   7.759  1.00  0.00     0.049 A 
ATOM     51  C   UNL     1      -3.977 -12.899   2.457  1.00  0.00     0.074 A 
ATOM     52  C   UNL     1      -1.878 -12.819   8.442  1.00  0.00     0.029 A 
ATOM     53  N   UNL     1      -2.776 -12.291   6.477  1.00  0.00    -0.354 N 
ATOM     54  N   UNL     1      -3.580 -12.796   3.702  1.00  0.00    -0.248 NA
ATOM     55  C   UNL     1      -3.581 -14.153   1.802  1.00  0.00     0.031 C 
ATOM     56  C   UNL     1      -1.664 -13.882   7.558  1.00  0.00     0.029 A 
ATOM     57  C   UNL     1      -2.245 -13.564   6.341  1.00  0.00     0.049 A 
ATOM     58  H   UNL     1      -3.249 -11.798   5.769  1.00  0.00     0.167 HD
ATOM     59  C   UNL     1      -2.913 -13.980   3.989  1.00  0.00     0.074 A 
ATOM     60  C   UNL     1      -2.971 -14.792   2.791  1.00  0.00     0.031 C 
ATOM     61  C   UNL     1      -2.310 -14.362   5.142  1.00  0.00     0.037 A 
BRANCH  48  62
ATOM     62  C   UNL     1      -2.527 -10.107   9.624  1.00  0.00     0.057 A 
ATOM     63  C   UNL     1      -3.467  -9.948  10.652  1.00  0.00     0.134 A 
ATOM     64  C   UNL     1      -1.181  -9.893   9.944  1.00  0.00     0.134 A 
ATOM     65  F   UNL     1      -4.775 -10.127  10.411  1.00  0.00    -0.206 F 
ATOM     66  C   UNL     1      -3.087  -9.557  11.937  1.00  0.00     0.040 A 
ATOM     67  C   UNL     1      -0.785  -9.532  11.234  1.00  0.00     0.040 A 
ATOM     68  F   UNL     1      -0.227 -10.034   9.012  1.00  0.00    -0.206 F 
ATOM     69  C   UNL     1      -1.740  -9.354  12.232  1.00  0.00     0.006 A 
ENDBRANCH  48  62
BRANCH  49  70
ATOM     70  C   UNL     1      -5.130 -12.233   0.225  1.00  0.00     0.057 A 
ATOM     71  C   UNL     1      -6.060 -13.235  -0.078  1.00  0.00     0.134 A 
ATOM     72  C   UNL     1      -4.565 -11.532  -0.846  1.00  0.00     0.134 A 
ATOM     73  F   UNL     1      -6.623 -13.953   0.904  1.00  0.00    -0.206 F 
ATOM     74  C   UNL     1      -6.402 -13.539  -1.397  1.00  0.00     0.040 A 
ATOM     75  C   UNL     1      -4.918 -11.808  -2.168  1.00  0.00     0.040 A 
ATOM     76  F   UNL     1      -3.676 -10.553  -0.622  1.00  0.00    -0.206 F 
ATOM     77  C   UNL     1      -5.835 -12.819  -2.446  1.00  0.00     0.006 A 
ENDBRANCH  49  70
BRANCH  61  78
ATOM     78  C   UNL     1      -1.693 -15.730   5.175  1.00  0.00     0.057 A 
ATOM     79  C   UNL     1      -0.519 -16.032   4.473  1.00  0.00     0.134 A 
ATOM     80  C   UNL     1      -2.260 -16.747   5.954  1.00  0.00     0.134 A 
ATOM     81  F   UNL     1       0.068 -15.107   3.699  1.00  0.00    -0.206 F 
ATOM     82  C   UNL     1       0.055 -17.303   4.526  1.00  0.00     0.040 A 
ATOM     83  C   UNL     1      -1.679 -18.014   6.037  1.00  0.00     0.040 A 
ATOM     84  F   UNL     1      -3.379 -16.523   6.658  1.00  0.00    -0.206 F 
ATOM     85  C   UNL     1      -0.521 -18.296   5.316  1.00  0.00     0.006 A 
ENDBRANCH  61  78
ENDBRANCH  35  36
ENDBRANCH  27  30
ENDBRANCH  25  26
ENDBRANCH  24  25
ENDBRANCH  23  24
ENDBRANCH   1  23
TORSDOF 18
