REMARK SMILES O=C(COc1ccccc1/C=C1/SC(=S)N(c2ccc(F)c(Cl)c2)C1=O)NCCCCCCNC(=O)c1ccc(-c2c3nc(c(-c4c(F)cccc4F)c4ccc([nH]4)c(-c4c(F)cccc4F)c4nc(c(-c5c(F)cccc5F)c5ccc2[nH]5)C=C4)C=C3)cc1
REMARK SMILES IDX 29 1 28 2 27 3 1 4 2 5 3 7 4 8 5 9 6 10 10 11 7 12 9 13 8 14
REMARK SMILES IDX 11 15 12 16 13 17 25 18 14 19 16 20 26 21 15 22 17 23 18 24
REMARK SMILES IDX 24 25 19 26 22 27 20 28 23 29 21 30 30 31 31 32 32 33 33 34
REMARK SMILES IDX 34 35 35 36 36 38 37 39 38 40 90 41 39 42 89 43 40 44 41 45
REMARK SMILES IDX 42 46 83 47 43 48 88 49 82 50 84 51 44 52 87 53 81 54 80 55
REMARK SMILES IDX 45 57 71 58 54 59 70 60 55 61 58 62 69 63 85 64 56 65 57 66
REMARK SMILES IDX 68 68 86 69 59 70 46 71 47 72 52 73 48 74 49 75 51 76 53 77
REMARK SMILES IDX 50 78 72 79 73 80 78 81 74 82 75 83 77 84 79 85 76 86 60 87
REMARK SMILES IDX 61 88 66 89 62 90 63 91 65 92 67 93 64 94
REMARK H PARENT 27 6 34 37 84 56 58 67
REMARK Flexibility Score: inf
ROOT
ATOM      1  C   UNL     1       1.324   2.297   2.956  1.00  0.00     0.021 C 
ENDROOT
BRANCH   1   2
ATOM      2  C   UNL     1       0.884   1.691   1.611  1.00  0.00     0.116 C 
BRANCH   2   3
ATOM      3  N   UNL     1       1.572   0.487   1.146  1.00  0.00    -0.353 N 
ATOM      4  O   UNL     1       0.092   0.126  -0.570  1.00  0.00    -0.271 OA
ATOM      5  C   UNL     1       1.154  -0.161  -0.018  1.00  0.00     0.257 C 
ATOM      6  H   UNL     1       2.334   0.131   1.657  1.00  0.00     0.163 HD
BRANCH   5   7
ATOM      7  C   UNL     1       2.119  -1.222  -0.630  1.00  0.00     0.329 C 
BRANCH   7   8
ATOM      8  O   UNL     1       3.266  -0.833  -1.393  1.00  0.00    -0.483 OA
BRANCH   8   9
ATOM      9  C   UNL     1       2.986  -0.243  -2.606  1.00  0.00     0.127 A 
ATOM     10  C   UNL     1       3.010  -1.025  -3.758  1.00  0.00     0.047 A 
ATOM     11  C   UNL     1       2.862   1.160  -2.716  1.00  0.00     0.018 A 
ATOM     12  C   UNL     1       2.773  -0.430  -5.001  1.00  0.00     0.004 A 
ATOM     13  C   UNL     1       2.547   1.738  -3.946  1.00  0.00     0.012 A 
ATOM     14  C   UNL     1       2.498   0.938  -5.088  1.00  0.00     0.001 A 
BRANCH  11  15
ATOM     15  C   UNL     1       3.044   1.990  -1.514  1.00  0.00     0.033 C 
ATOM     16  C   UNL     1       4.249   1.962  -0.924  1.00  0.00     0.081 C 
ATOM     17  S   UNL     1       4.502   1.265   0.624  1.00  0.00    -0.054 SA
ATOM     18  C   UNL     1       5.557   2.351  -1.508  1.00  0.00     0.270 C 
ATOM     19  C   UNL     1       6.154   1.787   0.721  1.00  0.00     0.152 C 
ATOM     20  N   UNL     1       6.550   2.275  -0.519  1.00  0.00    -0.261 N 
ATOM     21  O   UNL     1       5.676   2.757  -2.658  1.00  0.00    -0.268 OA
ATOM     22  S   UNL     1       6.917   1.762   2.212  1.00  0.00    -0.051 S 
BRANCH  20  23
ATOM     23  C   UNL     1       7.855   2.793  -0.755  1.00  0.00     0.052 A 
ATOM     24  C   UNL     1       8.026   4.007  -1.437  1.00  0.00     0.030 A 
ATOM     25  C   UNL     1       8.985   2.141  -0.240  1.00  0.00     0.050 A 
ATOM     26  C   UNL     1       9.291   4.591  -1.528  1.00  0.00     0.043 A 
ATOM     27  C   UNL     1      10.243   2.732  -0.318  1.00  0.00     0.078 A 
ATOM     28  C   UNL     1      10.389   3.960  -0.952  1.00  0.00     0.141 A 
ATOM     29  Cl  UNL     1      11.587   1.935   0.400  1.00  0.00    -0.081 Cl
ATOM     30  F   UNL     1      11.586   4.557  -1.019  1.00  0.00    -0.205 F 
ENDBRANCH  20  23
ENDBRANCH  11  15
ENDBRANCH   8   9
ENDBRANCH   7   8
ENDBRANCH   5   7
ENDBRANCH   2   3
ENDBRANCH   1   2
BRANCH   1  31
ATOM     31  C   UNL     1       2.764   2.809   3.134  1.00  0.00     0.002 C 
BRANCH  31  32
ATOM     32  C   UNL     1       3.271   3.886   2.159  1.00  0.00     0.002 C 
BRANCH  32  33
ATOM     33  C   UNL     1       2.984   5.344   2.502  1.00  0.00     0.021 C 
BRANCH  33  34
ATOM     34  C   UNL     1       3.587   5.858   3.805  1.00  0.00     0.116 C 
BRANCH  34  35
ATOM     35  N   UNL     1       5.044   5.926   3.849  1.00  0.00    -0.352 N 
ATOM     36  C   UNL     1       5.832   6.851   4.511  1.00  0.00     0.251 C 
ATOM     37  H   UNL     1       5.525   5.229   3.347  1.00  0.00     0.163 HD
ATOM     38  O   UNL     1       7.055   6.810   4.425  1.00  0.00    -0.269 OA
BRANCH  36  39
ATOM     39  C   UNL     1       5.181   7.943   5.277  1.00  0.00     0.039 A 
ATOM     40  C   UNL     1       5.590   9.262   5.067  1.00  0.00     0.014 A 
ATOM     41  C   UNL     1       4.101   7.674   6.120  1.00  0.00     0.014 A 
ATOM     42  C   UNL     1       4.833  10.313   5.596  1.00  0.00     0.010 A 
ATOM     43  C   UNL     1       3.291   8.717   6.556  1.00  0.00     0.010 A 
ATOM     44  C   UNL     1       3.635  10.049   6.283  1.00  0.00    -0.014 A 
BRANCH  44  45
ATOM     45  C   UNL     1       2.707  11.144   6.677  1.00  0.00     0.031 A 
ATOM     46  C   UNL     1       2.338  11.355   8.120  1.00  0.00     0.074 A 
ATOM     47  C   UNL     1       2.120  11.895   5.722  1.00  0.00     0.049 A 
ATOM     48  N   UNL     1       1.506  12.220   8.643  1.00  0.00    -0.248 NA
ATOM     49  C   UNL     1       2.955  10.450   9.101  1.00  0.00     0.031 C 
ATOM     50  C   UNL     1       2.324  11.745   4.279  1.00  0.00     0.029 A 
ATOM     51  N   UNL     1       1.224  12.931   5.821  1.00  0.00    -0.354 N 
ATOM     52  C   UNL     1       1.488  11.952  10.005  1.00  0.00     0.074 A 
ATOM     53  C   UNL     1       2.340  10.803  10.219  1.00  0.00     0.031 C 
ATOM     54  C   UNL     1       1.612  12.682   3.633  1.00  0.00     0.029 A 
ATOM     55  C   UNL     1       0.871  13.474   4.609  1.00  0.00     0.049 A 
ATOM     56  H   UNL     1       0.869  13.256   6.680  1.00  0.00     0.167 HD
ATOM     57  C   UNL     1       0.844  12.617  10.995  1.00  0.00     0.037 A 
ATOM     58  C   UNL     1       0.047  14.497   4.314  1.00  0.00     0.037 A 
ATOM     59  C   UNL     1       0.019  13.779  10.787  1.00  0.00     0.049 A 
ATOM     60  C   UNL     1      -0.645  15.231   5.428  1.00  0.00     0.074 A 
ATOM     61  C   UNL     1      -0.606  14.573  11.732  1.00  0.00     0.029 A 
ATOM     62  N   UNL     1      -0.299  14.309   9.545  1.00  0.00    -0.354 N 
ATOM     63  N   UNL     1      -0.579  15.023   6.721  1.00  0.00    -0.248 NA
ATOM     64  C   UNL     1      -1.522  16.345   5.042  1.00  0.00     0.031 C 
ATOM     65  C   UNL     1      -1.341  15.556  11.060  1.00  0.00     0.029 A 
ATOM     66  C   UNL     1      -1.135  15.404   9.698  1.00  0.00     0.049 A 
ATOM     67  H   UNL     1       0.021  13.959   8.683  1.00  0.00     0.167 HD
ATOM     68  C   UNL     1      -1.385  15.993   7.303  1.00  0.00     0.074 A 
ATOM     69  C   UNL     1      -1.915  16.799   6.223  1.00  0.00     0.031 C 
ATOM     70  C   UNL     1      -1.660  16.196   8.615  1.00  0.00     0.037 A 
BRANCH  57  71
ATOM     71  C   UNL     1       1.017  12.102  12.395  1.00  0.00     0.057 A 
ATOM     72  C   UNL     1       2.243  12.190  13.070  1.00  0.00     0.134 A 
ATOM     73  C   UNL     1      -0.055  11.520  13.082  1.00  0.00     0.134 A 
ATOM     74  F   UNL     1       3.315  12.725  12.466  1.00  0.00    -0.206 F 
ATOM     75  C   UNL     1       2.406  11.684  14.361  1.00  0.00     0.040 A 
ATOM     76  C   UNL     1       0.087  11.038  14.385  1.00  0.00     0.040 A 
ATOM     77  F   UNL     1      -1.259  11.410  12.500  1.00  0.00    -0.206 F 
ATOM     78  C   UNL     1       1.323  11.110  15.024  1.00  0.00     0.006 A 
ENDBRANCH  57  71
BRANCH  58  79
ATOM     79  C   UNL     1      -0.135  14.921   2.902  1.00  0.00     0.057 A 
ATOM     80  C   UNL     1       0.406  16.126   2.440  1.00  0.00     0.134 A 
ATOM     81  C   UNL     1      -0.844  14.138   1.983  1.00  0.00     0.134 A 
ATOM     82  F   UNL     1       1.079  16.928   3.278  1.00  0.00    -0.206 F 
ATOM     83  C   UNL     1       0.237  16.547   1.120  1.00  0.00     0.040 A 
ATOM     84  C   UNL     1      -1.001  14.535   0.654  1.00  0.00     0.040 A 
ATOM     85  F   UNL     1      -1.381  12.969   2.361  1.00  0.00    -0.206 F 
ATOM     86  C   UNL     1      -0.464  15.746   0.221  1.00  0.00     0.006 A 
ENDBRANCH  58  79
BRANCH  70  87
ATOM     87  C   UNL     1      -2.559  17.349   8.955  1.00  0.00     0.057 A 
ATOM     88  C   UNL     1      -3.933  17.321   8.680  1.00  0.00     0.134 A 
ATOM     89  C   UNL     1      -2.050  18.488   9.590  1.00  0.00     0.134 A 
ATOM     90  F   UNL     1      -4.481  16.265   8.061  1.00  0.00    -0.206 F 
ATOM     91  C   UNL     1      -4.762  18.397   9.001  1.00  0.00     0.040 A 
ATOM     92  C   UNL     1      -2.874  19.558   9.941  1.00  0.00     0.040 A 
ATOM     93  F   UNL     1      -0.745  18.576   9.889  1.00  0.00    -0.206 F 
ATOM     94  C   UNL     1      -4.234  19.517   9.640  1.00  0.00     0.006 A 
ENDBRANCH  70  87
ENDBRANCH  44  45
ENDBRANCH  36  39
ENDBRANCH  34  35
ENDBRANCH  33  34
ENDBRANCH  32  33
ENDBRANCH  31  32
ENDBRANCH   1  31
TORSDOF 17
