REMARK SMILES CCSc1ccc(-c2cc(Cl)cc3c2O[C@H](C(F)(F)F)C(C(=O)NCCCCCCNC(=O)c2ccc(-c4c5nc(c(-c6c(F)cccc6F)c6ccc([nH]6)c(-c6c(F)cccc6F)c6nc(c(-c7c(F)cccc7F)c7ccc4[nH]7)C=C6)C=C5)cc2)=C3)cc1
REMARK SMILES IDX 27 1 26 2 25 3 24 4 22 5 23 6 21 8 8 9 9 10 14 11 10 12
REMARK SMILES IDX 13 13 15 14 11 15 12 16 88 17 16 18 7 19 4 20 5 21 90 22
REMARK SMILES IDX 6 23 89 24 3 25 2 26 1 27 17 28 18 29 19 30 20 31 28 32
REMARK SMILES IDX 29 33 30 34 31 35 32 36 33 38 34 39 35 40 87 41 36 42 86 43
REMARK SMILES IDX 37 44 38 45 39 46 80 47 40 48 85 49 79 50 81 51 41 52 84 53
REMARK SMILES IDX 78 54 77 55 42 57 68 58 51 59 67 60 52 61 55 62 66 63 82 64
REMARK SMILES IDX 53 65 54 66 65 68 83 69 56 70 43 71 44 72 49 73 45 74 46 75
REMARK SMILES IDX 48 76 50 77 47 78 69 79 70 80 75 81 71 82 72 83 74 84 76 85
REMARK SMILES IDX 73 86 57 87 58 88 63 89 59 90 60 91 62 92 64 93 61 94
REMARK H PARENT 24 7 31 37 81 56 55 67
REMARK Flexibility Score: inf
ROOT
ATOM      1  C   UNL     1      16.107  -3.618   3.408  1.00  0.00     0.002 C 
ENDROOT
BRANCH   1   2
ATOM      2  C   UNL     1      15.040  -3.025   4.343  1.00  0.00     0.021 C 
BRANCH   2   3
ATOM      3  C   UNL     1      14.194  -1.903   3.723  1.00  0.00     0.116 C 
BRANCH   3   4
ATOM      4  N   UNL     1      13.523  -2.392   2.536  1.00  0.00    -0.352 N 
ATOM      5  C   UNL     1      12.177  -2.484   2.394  1.00  0.00     0.251 C 
ATOM      6  O   UNL     1      11.665  -3.539   2.043  1.00  0.00    -0.270 OA
ATOM      7  H   UNL     1      14.083  -2.677   1.778  1.00  0.00     0.163 HD
BRANCH   5   8
ATOM      8  C   UNL     1      11.417  -1.206   2.518  1.00  0.00     0.067 C 
ATOM      9  C   UNL     1       7.758  -2.515   1.329  1.00  0.00     0.026 A 
ATOM     10  C   UNL     1       7.995  -3.346   0.203  1.00  0.00     0.033 A 
ATOM     11  C   UNL     1       8.841  -1.716   1.744  1.00  0.00     0.135 A 
ATOM     12  C   UNL     1       9.140  -3.241  -0.583  1.00  0.00     0.042 A 
ATOM     13  C   UNL     1       9.937  -1.532   0.863  1.00  0.00     0.019 A 
ATOM     14  O   UNL     1       8.940  -1.143   3.010  1.00  0.00    -0.475 OA
ATOM     15  Cl  UNL     1       9.360  -4.299  -1.919  1.00  0.00    -0.084 Cl
ATOM     16  C   UNL     1      10.080  -2.271  -0.307  1.00  0.00     0.032 A 
ATOM     17  C   UNL     1      11.062  -0.692   1.325  1.00  0.00     0.025 C 
ATOM     18  C   UNL     1      10.327  -1.199   3.578  1.00  0.00     0.314 C 
BRANCH   9  19
ATOM     19  C   UNL     1       6.329  -2.434   1.750  1.00  0.00    -0.015 A 
ATOM     20  C   UNL     1       3.473  -2.326   1.512  1.00  0.00     0.007 A 
ATOM     21  C   UNL     1       4.135  -3.544   1.694  1.00  0.00     0.015 A 
ATOM     22  C   UNL     1       4.236  -1.159   1.552  1.00  0.00     0.015 A 
ATOM     23  C   UNL     1       5.534  -3.596   1.832  1.00  0.00     0.010 A 
ATOM     24  C   UNL     1       5.642  -1.211   1.669  1.00  0.00     0.010 A 
BRANCH  20  25
ATOM     25  S   UNL     1       1.689  -2.337   1.403  1.00  0.00    -0.126 SA
BRANCH  25  26
ATOM     26  C   UNL     1       1.307  -1.479  -0.174  1.00  0.00     0.071 C 
ATOM     27  C   UNL     1       1.263   0.033  -0.032  1.00  0.00     0.016 C 
ENDBRANCH  25  26
ENDBRANCH  20  25
ENDBRANCH   9  19
BRANCH  18  28
ATOM     28  C   UNL     1      10.625  -0.024   4.540  1.00  0.00     0.429 C 
ATOM     29  F   UNL     1       9.732   0.983   4.431  1.00  0.00    -0.167 F 
ATOM     30  F   UNL     1      10.633  -0.434   5.831  1.00  0.00    -0.167 F 
ATOM     31  F   UNL     1      11.852   0.526   4.319  1.00  0.00    -0.167 F 
ENDBRANCH  18  28
ENDBRANCH   5   8
ENDBRANCH   3   4
ENDBRANCH   2   3
ENDBRANCH   1   2
BRANCH   1  32
ATOM     32  C   UNL     1      17.058  -2.592   2.786  1.00  0.00     0.002 C 
BRANCH  32  33
ATOM     33  C   UNL     1      17.846  -1.766   3.801  1.00  0.00     0.021 C 
BRANCH  33  34
ATOM     34  C   UNL     1      18.651  -2.592   4.796  1.00  0.00     0.116 C 
BRANCH  34  35
ATOM     35  N   UNL     1      19.642  -3.432   4.143  1.00  0.00    -0.352 N 
ATOM     36  C   UNL     1      20.956  -3.628   4.471  1.00  0.00     0.251 C 
ATOM     37  H   UNL     1      19.323  -3.929   3.355  1.00  0.00     0.163 HD
ATOM     38  O   UNL     1      21.700  -4.240   3.700  1.00  0.00    -0.269 OA
BRANCH  36  39
ATOM     39  C   UNL     1      21.491  -3.091   5.737  1.00  0.00     0.039 A 
ATOM     40  C   UNL     1      22.755  -2.497   5.735  1.00  0.00     0.014 A 
ATOM     41  C   UNL     1      20.763  -3.189   6.928  1.00  0.00     0.014 A 
ATOM     42  C   UNL     1      23.275  -1.976   6.920  1.00  0.00     0.010 A 
ATOM     43  C   UNL     1      21.245  -2.591   8.088  1.00  0.00     0.010 A 
ATOM     44  C   UNL     1      22.517  -2.002   8.102  1.00  0.00    -0.014 A 
BRANCH  44  45
ATOM     45  C   UNL     1      23.067  -1.454   9.367  1.00  0.00     0.031 A 
ATOM     46  C   UNL     1      23.314  -2.363  10.540  1.00  0.00     0.074 A 
ATOM     47  C   UNL     1      23.322  -0.135   9.467  1.00  0.00     0.049 A 
ATOM     48  N   UNL     1      23.788  -2.073  11.726  1.00  0.00    -0.248 NA
ATOM     49  C   UNL     1      22.955  -3.780  10.370  1.00  0.00     0.031 C 
ATOM     50  C   UNL     1      23.075   0.857   8.419  1.00  0.00     0.029 A 
ATOM     51  N   UNL     1      23.848   0.597  10.501  1.00  0.00    -0.354 N 
ATOM     52  C   UNL     1      23.780  -3.266  12.438  1.00  0.00     0.074 A 
ATOM     53  C   UNL     1      23.188  -4.267  11.580  1.00  0.00     0.031 C 
ATOM     54  C   UNL     1      23.479   2.062   8.851  1.00  0.00     0.029 A 
ATOM     55  C   UNL     1      23.981   1.934  10.216  1.00  0.00     0.049 A 
ATOM     56  H   UNL     1      24.107   0.202  11.365  1.00  0.00     0.167 HD
ATOM     57  C   UNL     1      24.254  -3.514  13.682  1.00  0.00     0.037 A 
ATOM     58  C   UNL     1      24.455   2.943  10.971  1.00  0.00     0.037 A 
ATOM     59  C   UNL     1      24.856  -2.518  14.529  1.00  0.00     0.049 A 
ATOM     60  C   UNL     1      24.971   2.644  12.351  1.00  0.00     0.074 A 
ATOM     61  C   UNL     1      25.405  -2.674  15.789  1.00  0.00     0.029 A 
ATOM     62  N   UNL     1      24.985  -1.177  14.200  1.00  0.00    -0.354 N 
ATOM     63  N   UNL     1      25.021   1.498  12.987  1.00  0.00    -0.248 NA
ATOM     64  C   UNL     1      25.513   3.777  13.114  1.00  0.00     0.031 C 
ATOM     65  C   UNL     1      25.821  -1.418  16.243  1.00  0.00     0.029 A 
ATOM     66  C   UNL     1      25.588  -0.490  15.241  1.00  0.00     0.049 A 
ATOM     67  H   UNL     1      24.692  -0.772  13.351  1.00  0.00     0.167 HD
ATOM     68  C   UNL     1      25.627   1.765  14.208  1.00  0.00     0.074 A 
ATOM     69  C   UNL     1      25.942   3.179  14.215  1.00  0.00     0.031 C 
ATOM     70  C   UNL     1      25.899   0.917  15.231  1.00  0.00     0.037 A 
BRANCH  57  71
ATOM     71  C   UNL     1      24.140  -4.922  14.196  1.00  0.00     0.057 A 
ATOM     72  C   UNL     1      24.885  -5.974  13.645  1.00  0.00     0.134 A 
ATOM     73  C   UNL     1      23.291  -5.229  15.268  1.00  0.00     0.134 A 
ATOM     74  F   UNL     1      25.708  -5.755  12.608  1.00  0.00    -0.206 F 
ATOM     75  C   UNL     1      24.767  -7.282  14.118  1.00  0.00     0.040 A 
ATOM     76  C   UNL     1      23.188  -6.527  15.771  1.00  0.00     0.040 A 
ATOM     77  F   UNL     1      22.552  -4.271  15.848  1.00  0.00    -0.206 F 
ATOM     78  C   UNL     1      23.921  -7.560  15.189  1.00  0.00     0.006 A 
ENDBRANCH  57  71
BRANCH  58  79
ATOM     79  C   UNL     1      24.488   4.325  10.427  1.00  0.00     0.057 A 
ATOM     80  C   UNL     1      25.700   4.960  10.130  1.00  0.00     0.134 A 
ATOM     81  C   UNL     1      23.311   5.046  10.197  1.00  0.00     0.134 A 
ATOM     82  F   UNL     1      26.863   4.327  10.343  1.00  0.00    -0.206 F 
ATOM     83  C   UNL     1      25.742   6.269   9.649  1.00  0.00     0.040 A 
ATOM     84  C   UNL     1      23.336   6.346   9.689  1.00  0.00     0.040 A 
ATOM     85  F   UNL     1      22.116   4.492  10.451  1.00  0.00    -0.206 F 
ATOM     86  C   UNL     1      24.556   6.965   9.422  1.00  0.00     0.006 A 
ENDBRANCH  58  79
BRANCH  70  87
ATOM     87  C   UNL     1      26.611   1.489  16.424  1.00  0.00     0.057 A 
ATOM     88  C   UNL     1      25.989   2.383  17.306  1.00  0.00     0.134 A 
ATOM     89  C   UNL     1      27.933   1.120  16.705  1.00  0.00     0.134 A 
ATOM     90  F   UNL     1      24.728   2.786  17.089  1.00  0.00    -0.206 F 
ATOM     91  C   UNL     1      26.668   2.916  18.403  1.00  0.00     0.040 A 
ATOM     92  C   UNL     1      28.611   1.621  17.817  1.00  0.00     0.040 A 
ATOM     93  F   UNL     1      28.585   0.259  15.910  1.00  0.00    -0.206 F 
ATOM     94  C   UNL     1      27.981   2.530  18.664  1.00  0.00     0.006 A 
ENDBRANCH  70  87
ENDBRANCH  44  45
ENDBRANCH  36  39
ENDBRANCH  34  35
ENDBRANCH  33  34
ENDBRANCH  32  33
ENDBRANCH   1  32
TORSDOF 17
