REMARK SMILES C[C@H]1[C@@H](C(=O)NCCCCCCNC(=O)c2ccc(-c3c4nc(c(-c5c(F)cccc5F)c5ccc([nH]5)c(-c5c(F)cccc5F)c5nc(c(-c6c(F)cccc6F)c6ccc3[nH]6)C=C5)C=C4)cc2)CC[N@@H+]1CC(=O)NNC(=O)c1cccs1
REMARK SMILES IDX 8 1 7 2 6 3 4 4 5 5 3 7 1 8 2 9 72 10 70 11 71 12 73 14
REMARK SMILES IDX 74 15 75 16 76 17 77 19 78 20 79 22 80 23 81 24 84 25 82 26
REMARK SMILES IDX 83 27 9 28 10 29 11 30 12 31 13 32 14 33 15 35 16 36 17 37
REMARK SMILES IDX 69 38 18 39 68 40 19 41 20 42 21 43 62 44 22 45 67 46 61 47
REMARK SMILES IDX 63 48 23 49 66 50 60 51 59 52 24 54 50 55 33 56 49 57 34 58
REMARK SMILES IDX 37 59 48 60 64 61 35 62 36 63 47 65 65 66 38 67 25 68 26 69
REMARK SMILES IDX 31 70 27 71 28 72 30 73 32 74 29 75 51 76 52 77 57 78 53 79
REMARK SMILES IDX 54 80 56 81 58 82 55 83 39 84 40 85 45 86 41 87 42 88 44 89
REMARK SMILES IDX 46 90 43 91
REMARK H PARENT 6 6 72 13 76 18 77 21 13 34 63 53 37 64
REMARK Flexibility Score: inf
ROOT
ATOM      1  C   UNL     1       3.563   0.649  -2.101  1.00  0.00     0.021 C 
ENDROOT
BRANCH   1   2
ATOM      2  C   UNL     1       2.832   1.664  -1.216  1.00  0.00     0.116 C 
BRANCH   2   3
ATOM      3  N   UNL     1       1.571   1.994  -1.841  1.00  0.00    -0.356 N 
ATOM      4  C   UNL     1       0.323   1.506  -1.602  1.00  0.00     0.229 C 
ATOM      5  O   UNL     1      -0.512   1.697  -2.489  1.00  0.00    -0.275 OA
ATOM      6  H   UNL     1       1.623   2.677  -2.548  1.00  0.00     0.163 HD
BRANCH   4   7
ATOM      7  C   UNL     1      -0.046   0.903  -0.244  1.00  0.00     0.142 C 
ATOM      8  C   UNL     1       1.361  -1.298  -0.723  1.00  0.00     0.076 C 
ATOM      9  C   UNL     1       0.539  -0.445   0.232  1.00  0.00     0.194 C 
ATOM     10  N   UNL     1      -0.595  -1.294   0.620  1.00  0.00    -0.324 N 
ATOM     11  C   UNL     1      -1.571   0.713  -0.124  1.00  0.00     0.081 C 
ATOM     12  C   UNL     1      -1.771  -0.788  -0.075  1.00  0.00     0.263 C 
ATOM     13  H   UNL     1      -0.413  -2.250   0.314  1.00  0.00     0.348 HD
BRANCH  10  14
ATOM     14  C   UNL     1      -0.746  -1.579   2.052  1.00  0.00     0.365 C 
BRANCH  14  15
ATOM     15  C   UNL     1      -1.390  -0.473   2.884  1.00  0.00     0.293 C 
ATOM     16  O   UNL     1      -2.617  -0.382   2.993  1.00  0.00    -0.267 OA
ATOM     17  N   UNL     1      -0.616   0.444   3.550  1.00  0.00    -0.262 N 
ATOM     18  H   UNL     1      -1.080   1.080   4.141  1.00  0.00     0.191 HD
BRANCH  17  19
ATOM     19  N   UNL     1       0.772   0.553   3.461  1.00  0.00    -0.263 N 
ATOM     20  C   UNL     1       1.429   1.766   3.297  1.00  0.00     0.279 C 
ATOM     21  H   UNL     1       1.311  -0.269   3.517  1.00  0.00     0.191 HD
ATOM     22  O   UNL     1       2.512   1.749   2.706  1.00  0.00    -0.266 OA
BRANCH  20  23
ATOM     23  C   UNL     1       0.821   2.963   3.855  1.00  0.00     0.094 A 
ATOM     24  C   UNL     1       0.098   3.117   5.025  1.00  0.00     0.026 A 
ATOM     25  S   UNL     1       1.047   4.469   3.067  1.00  0.00    -0.139 S 
ATOM     26  C   UNL     1      -0.304   4.465   5.249  1.00  0.00     0.012 A 
ATOM     27  C   UNL     1       0.151   5.306   4.259  1.00  0.00     0.065 A 
ENDBRANCH  20  23
ENDBRANCH  17  19
ENDBRANCH  14  15
ENDBRANCH  10  14
ENDBRANCH   4   7
ENDBRANCH   2   3
ENDBRANCH   1   2
BRANCH   1  28
ATOM     28  C   UNL     1       4.399   1.264  -3.221  1.00  0.00     0.002 C 
BRANCH  28  29
ATOM     29  C   UNL     1       5.668   1.968  -2.739  1.00  0.00     0.002 C 
BRANCH  29  30
ATOM     30  C   UNL     1       6.570   1.128  -1.829  1.00  0.00     0.021 C 
BRANCH  30  31
ATOM     31  C   UNL     1       6.936  -0.248  -2.381  1.00  0.00     0.116 C 
BRANCH  31  32
ATOM     32  N   UNL     1       7.637  -0.151  -3.650  1.00  0.00    -0.352 N 
ATOM     33  C   UNL     1       8.938  -0.461  -3.954  1.00  0.00     0.251 C 
ATOM     34  H   UNL     1       7.099   0.187  -4.402  1.00  0.00     0.163 HD
ATOM     35  O   UNL     1       9.436  -0.079  -5.005  1.00  0.00    -0.269 OA
BRANCH  33  36
ATOM     36  C   UNL     1       9.741  -1.252  -3.001  1.00  0.00     0.039 A 
ATOM     37  C   UNL     1      11.049  -0.851  -2.722  1.00  0.00     0.014 A 
ATOM     38  C   UNL     1       9.213  -2.401  -2.403  1.00  0.00     0.014 A 
ATOM     39  C   UNL     1      11.811  -1.573  -1.803  1.00  0.00     0.010 A 
ATOM     40  C   UNL     1       9.946  -3.075  -1.432  1.00  0.00     0.010 A 
ATOM     41  C   UNL     1      11.255  -2.674  -1.129  1.00  0.00    -0.014 A 
BRANCH  41  42
ATOM     42  C   UNL     1      12.033  -3.416  -0.105  1.00  0.00     0.031 A 
ATOM     43  C   UNL     1      12.395  -4.858  -0.328  1.00  0.00     0.074 A 
ATOM     44  C   UNL     1      12.365  -2.805   1.048  1.00  0.00     0.049 A 
ATOM     45  N   UNL     1      13.024  -5.685   0.468  1.00  0.00    -0.248 NA
ATOM     46  C   UNL     1      11.973  -5.457  -1.604  1.00  0.00     0.031 C 
ATOM     47  C   UNL     1      12.032  -1.424   1.401  1.00  0.00     0.029 A 
ATOM     48  N   UNL     1      13.050  -3.271   2.142  1.00  0.00    -0.354 N 
ATOM     49  C   UNL     1      13.064  -6.900  -0.204  1.00  0.00     0.074 A 
ATOM     50  C   UNL     1      12.346  -6.719  -1.447  1.00  0.00     0.031 C 
ATOM     51  C   UNL     1      12.536  -1.146   2.613  1.00  0.00     0.029 A 
ATOM     52  C   UNL     1      13.190  -2.339   3.142  1.00  0.00     0.049 A 
ATOM     53  H   UNL     1      13.407  -4.186   2.205  1.00  0.00     0.167 HD
ATOM     54  C   UNL     1      13.666  -8.055   0.169  1.00  0.00     0.037 A 
ATOM     55  C   UNL     1      13.774  -2.437   4.351  1.00  0.00     0.037 A 
ATOM     56  C   UNL     1      14.392  -8.225   1.400  1.00  0.00     0.049 A 
ATOM     57  C   UNL     1      14.415  -3.737   4.751  1.00  0.00     0.074 A 
ATOM     58  C   UNL     1      15.085  -9.337   1.846  1.00  0.00     0.029 A 
ATOM     59  N   UNL     1      14.515  -7.257   2.386  1.00  0.00    -0.354 N 
ATOM     60  N   UNL     1      14.507  -4.857   4.076  1.00  0.00    -0.248 NA
ATOM     61  C   UNL     1      15.039  -3.785   6.081  1.00  0.00     0.031 C 
ATOM     62  C   UNL     1      15.581  -9.060   3.124  1.00  0.00     0.029 A 
ATOM     63  C   UNL     1      15.247  -7.756   3.451  1.00  0.00     0.049 A 
ATOM     64  H   UNL     1      14.137  -6.349   2.336  1.00  0.00     0.167 HD
ATOM     65  C   UNL     1      15.220  -5.732   4.885  1.00  0.00     0.074 A 
ATOM     66  C   UNL     1      15.552  -5.007   6.094  1.00  0.00     0.031 C 
ATOM     67  C   UNL     1      15.570  -7.021   4.648  1.00  0.00     0.037 A 
BRANCH  54  68
ATOM     68  C   UNL     1      13.561  -9.224  -0.767  1.00  0.00     0.057 A 
ATOM     69  C   UNL     1      14.217  -9.242  -2.006  1.00  0.00     0.134 A 
ATOM     70  C   UNL     1      12.819 -10.359  -0.416  1.00  0.00     0.134 A 
ATOM     71  F   UNL     1      14.936  -8.184  -2.410  1.00  0.00    -0.206 F 
ATOM     72  C   UNL     1      14.114 -10.332  -2.873  1.00  0.00     0.040 A 
ATOM     73  C   UNL     1      12.734 -11.467  -1.261  1.00  0.00     0.040 A 
ATOM     74  F   UNL     1      12.171 -10.414   0.758  1.00  0.00    -0.206 F 
ATOM     75  C   UNL     1      13.376 -11.452  -2.497  1.00  0.00     0.006 A 
ENDBRANCH  54  68
BRANCH  55  76
ATOM     76  C   UNL     1      13.797  -1.266   5.263  1.00  0.00     0.057 A 
ATOM     77  C   UNL     1      14.994  -0.601   5.554  1.00  0.00     0.134 A 
ATOM     78  C   UNL     1      12.630  -0.787   5.870  1.00  0.00     0.134 A 
ATOM     79  F   UNL     1      16.148  -1.023   5.017  1.00  0.00    -0.206 F 
ATOM     80  C   UNL     1      15.033   0.484   6.431  1.00  0.00     0.040 A 
ATOM     81  C   UNL     1      12.650   0.314   6.727  1.00  0.00     0.040 A 
ATOM     82  F   UNL     1      11.449  -1.375   5.627  1.00  0.00    -0.206 F 
ATOM     83  C   UNL     1      13.857   0.948   7.016  1.00  0.00     0.006 A 
ENDBRANCH  55  76
BRANCH  67  84
ATOM     84  C   UNL     1      16.377  -7.718   5.704  1.00  0.00     0.057 A 
ATOM     85  C   UNL     1      15.820  -8.100   6.931  1.00  0.00     0.134 A 
ATOM     86  C   UNL     1      17.720  -8.046   5.474  1.00  0.00     0.134 A 
ATOM     87  F   UNL     1      14.543  -7.804   7.220  1.00  0.00    -0.206 F 
ATOM     88  C   UNL     1      16.576  -8.760   7.902  1.00  0.00     0.040 A 
ATOM     89  C   UNL     1      18.477  -8.732   6.424  1.00  0.00     0.040 A 
ATOM     90  F   UNL     1      18.313  -7.718   4.316  1.00  0.00    -0.206 F 
ATOM     91  C   UNL     1      17.907  -9.085   7.646  1.00  0.00     0.006 A 
ENDBRANCH  67  84
ENDBRANCH  41  42
ENDBRANCH  33  36
ENDBRANCH  31  32
ENDBRANCH  30  31
ENDBRANCH  29  30
ENDBRANCH  28  29
ENDBRANCH   1  28
TORSDOF 17
