REMARK SMILES COc1ccccc1C(=O)N/C(=C/c1ccc2c(c1)OCO2)C(=O)Nc1ccc(C(=O)NCCCCCCNC(=O)c2ccc(-c3c4nc(c(-c5c(F)cccc5F)c5ccc([nH]5)c(-c5c(F)cccc5F)c5nc(c(-c6c(F)cccc6F)c6ccc3[nH]6)C=C5)C=C4)cc2)cc1
REMARK SMILES IDX 34 1 33 2 32 3 30 4 31 5 29 7 26 8 27 9 97 10 28 11 96 12
REMARK SMILES IDX 25 13 23 14 24 15 12 17 13 18 11 19 9 20 10 21 8 23 3 24
REMARK SMILES IDX 4 25 5 26 7 27 6 28 2 29 1 30 14 31 15 32 19 33 16 34 18 35
REMARK SMILES IDX 17 36 20 37 22 38 21 39 35 40 36 41 37 42 38 43 39 44 40 45
REMARK SMILES IDX 41 47 42 48 43 49 95 50 44 51 94 52 45 53 46 54 47 55 88 56
REMARK SMILES IDX 48 57 93 58 87 59 89 60 49 61 92 62 86 63 85 64 50 66 76 67
REMARK SMILES IDX 59 68 75 69 60 70 63 71 74 72 90 73 61 74 62 75 73 77 91 78
REMARK SMILES IDX 64 79 51 80 52 81 57 82 53 83 54 84 56 85 58 86 55 87 77 88
REMARK SMILES IDX 78 89 83 90 79 91 80 92 82 93 84 94 81 95 65 96 66 97 71 98
REMARK SMILES IDX 67 99 68 100 70 101 72 102 69 103
REMARK H PARENT 32 6 25 16 11 22 39 46 89 65 63 76
REMARK Flexibility Score: inf
ROOT
ATOM      1  C   UNL     1      -2.323  -6.322   1.322  1.00  0.00     0.021 C 
ENDROOT
BRANCH   1   2
ATOM      2  C   UNL     1      -1.507  -5.841   0.126  1.00  0.00     0.116 C 
BRANCH   2   3
ATOM      3  N   UNL     1      -2.313  -5.905  -1.071  1.00  0.00    -0.352 N 
ATOM      4  C   UNL     1      -2.895  -4.894  -1.777  1.00  0.00     0.251 C 
ATOM      5  O   UNL     1      -3.542  -5.136  -2.790  1.00  0.00    -0.269 OA
ATOM      6  H   UNL     1      -2.464  -6.809  -1.429  1.00  0.00     0.163 HD
BRANCH   4   7
ATOM      7  C   UNL     1      -2.670  -3.500  -1.391  1.00  0.00     0.039 A 
ATOM      8  C   UNL     1      -1.881   0.035  -0.516  1.00  0.00     0.041 A 
ATOM      9  C   UNL     1      -1.782  -0.460  -2.209  1.00  0.00     0.027 A 
ATOM     10  C   UNL     1      -2.431  -1.144   0.672  1.00  0.00     0.027 A 
ATOM     11  C   UNL     1      -2.145  -2.389  -2.701  1.00  0.00     0.016 A 
ATOM     12  C   UNL     1      -2.817  -2.842   0.249  1.00  0.00     0.016 A 
BRANCH   8  13
ATOM     13  N   UNL     1      -0.885   0.981  -0.200  1.00  0.00    -0.321 N 
ATOM     14  C   UNL     1       0.205   1.184  -1.052  1.00  0.00     0.272 C 
ATOM     15  O   UNL     1       0.372   2.295  -1.562  1.00  0.00    -0.267 OA
ATOM     16  H   UNL     1      -0.957   1.505   0.630  1.00  0.00     0.170 HD
BRANCH  14  17
ATOM     17  C   UNL     1       1.299   0.092  -1.233  1.00  0.00     0.108 C 
ATOM     18  C   UNL     1       1.162  -1.106  -1.876  1.00  0.00     0.040 C 
BRANCH  17  19
ATOM     19  N   UNL     1       2.604   0.400  -0.840  1.00  0.00    -0.317 N 
ATOM     20  C   UNL     1       3.212   1.449  -0.175  1.00  0.00     0.259 C 
ATOM     21  O   UNL     1       4.446   1.476  -0.143  1.00  0.00    -0.269 OA
ATOM     22  H   UNL     1       3.247  -0.299  -1.100  1.00  0.00     0.170 HD
BRANCH  20  23
ATOM     23  C   UNL     1       2.482   2.546   0.491  1.00  0.00     0.082 A 
ATOM     24  C   UNL     1       1.462   2.308   1.425  1.00  0.00     0.131 A 
ATOM     25  C   UNL     1       0.696   3.394   1.858  1.00  0.00     0.047 A 
ATOM     26  C   UNL     1       1.028   4.699   1.474  1.00  0.00     0.004 A 
ATOM     27  C   UNL     1       2.869   3.858   0.176  1.00  0.00     0.018 A 
ATOM     28  C   UNL     1       2.143   4.936   0.675  1.00  0.00     0.001 A 
BRANCH  24  29
ATOM     29  O   UNL     1       1.275   1.004   1.782  1.00  0.00    -0.496 OA
ATOM     30  C   UNL     1       0.438   0.652   2.868  1.00  0.00     0.278 C 
ENDBRANCH  24  29
ENDBRANCH  20  23
ENDBRANCH  17  19
BRANCH  18  31
ATOM     31  C   UNL     1      -0.092  -1.688  -2.413  1.00  0.00    -0.019 A 
ATOM     32  C   UNL     1      -1.284  -1.910  -1.089  1.00  0.00     0.012 A 
ATOM     33  C   UNL     1      -0.695  -1.190  -4.009  1.00  0.00     0.058 A 
ATOM     34  C   UNL     1      -3.221  -1.431  -1.446  1.00  0.00     0.051 A 
ATOM     35  C   UNL     1      -2.410  -0.829  -4.296  1.00  0.00     0.166 A 
ATOM     36  C   UNL     1      -3.648  -0.923  -3.101  1.00  0.00     0.165 A 
ATOM     37  O   UNL     1      -2.887   0.029  -5.258  1.00  0.00    -0.454 OA
ATOM     38  O   UNL     1      -4.685  -0.140  -3.494  1.00  0.00    -0.454 OA
ATOM     39  C   UNL     1      -4.045   0.621  -4.571  1.00  0.00     0.468 C 
ENDBRANCH  18  31
ENDBRANCH  14  17
ENDBRANCH   8  13
ENDBRANCH   4   7
ENDBRANCH   2   3
ENDBRANCH   1   2
BRANCH   1  40
ATOM     40  C   UNL     1      -2.657  -7.818   1.264  1.00  0.00     0.002 C 
BRANCH  40  41
ATOM     41  C   UNL     1      -1.438  -8.737   1.139  1.00  0.00     0.002 C 
BRANCH  41  42
ATOM     42  C   UNL     1      -0.353  -8.492   2.189  1.00  0.00     0.021 C 
BRANCH  42  43
ATOM     43  C   UNL     1      -0.855  -8.584   3.623  1.00  0.00     0.116 C 
BRANCH  43  44
ATOM     44  N   UNL     1      -1.386  -9.905   3.912  1.00  0.00    -0.352 N 
ATOM     45  C   UNL     1      -0.998 -10.786   4.886  1.00  0.00     0.251 C 
ATOM     46  H   UNL     1      -2.122 -10.207   3.331  1.00  0.00     0.163 HD
ATOM     47  O   UNL     1      -1.340 -11.962   4.837  1.00  0.00    -0.269 OA
BRANCH  45  48
ATOM     48  C   UNL     1      -0.164 -10.298   6.000  1.00  0.00     0.039 A 
ATOM     49  C   UNL     1       0.919 -11.068   6.425  1.00  0.00     0.014 A 
ATOM     50  C   UNL     1      -0.471  -9.088   6.632  1.00  0.00     0.014 A 
ATOM     51  C   UNL     1       1.710 -10.612   7.479  1.00  0.00     0.010 A 
ATOM     52  C   UNL     1       0.366  -8.597   7.625  1.00  0.00     0.010 A 
ATOM     53  C   UNL     1       1.446  -9.368   8.077  1.00  0.00    -0.014 A 
BRANCH  53  54
ATOM     54  C   UNL     1       2.261  -8.884   9.215  1.00  0.00     0.031 A 
ATOM     55  C   UNL     1       1.626  -8.710  10.567  1.00  0.00     0.074 A 
ATOM     56  C   UNL     1       3.554  -8.568   9.021  1.00  0.00     0.049 A 
ATOM     57  N   UNL     1       2.158  -8.276  11.681  1.00  0.00    -0.248 NA
ATOM     58  C   UNL     1       0.194  -9.038  10.676  1.00  0.00     0.031 C 
ATOM     59  C   UNL     1       4.262  -8.648   7.742  1.00  0.00     0.029 A 
ATOM     60  N   UNL     1       4.503  -8.115   9.900  1.00  0.00    -0.354 N 
ATOM     61  C   UNL     1       1.128  -8.269  12.613  1.00  0.00     0.074 A 
ATOM     62  C   UNL     1      -0.074  -8.677  11.922  1.00  0.00     0.031 C 
ATOM     63  C   UNL     1       5.542  -8.287   7.926  1.00  0.00     0.029 A 
ATOM     64  C   UNL     1       5.735  -7.920   9.326  1.00  0.00     0.049 A 
ATOM     65  H   UNL     1       4.319  -7.946  10.852  1.00  0.00     0.167 HD
ATOM     66  C   UNL     1       1.185  -7.978  13.934  1.00  0.00     0.037 A 
ATOM     67  C   UNL     1       6.890  -7.497   9.872  1.00  0.00     0.037 A 
ATOM     68  C   UNL     1       2.392  -7.599  14.620  1.00  0.00     0.049 A 
ATOM     69  C   UNL     1       6.929  -7.186  11.343  1.00  0.00     0.074 A 
ATOM     70  C   UNL     1       2.572  -7.336  15.966  1.00  0.00     0.029 A 
ATOM     71  N   UNL     1       3.626  -7.432  14.009  1.00  0.00    -0.354 N 
ATOM     72  N   UNL     1       5.964  -7.250  12.228  1.00  0.00    -0.248 NA
ATOM     73  C   UNL     1       8.222  -6.756  11.892  1.00  0.00     0.031 C 
ATOM     74  C   UNL     1       3.907  -6.965  16.162  1.00  0.00     0.029 A 
ATOM     75  C   UNL     1       4.569  -7.050  14.948  1.00  0.00     0.049 A 
ATOM     76  H   UNL     1       3.804  -7.564  13.050  1.00  0.00     0.167 HD
ATOM     77  C   UNL     1       6.539  -6.900  13.444  1.00  0.00     0.074 A 
ATOM     78  C   UNL     1       7.939  -6.640  13.182  1.00  0.00     0.031 C 
ATOM     79  C   UNL     1       5.961  -6.803  14.666  1.00  0.00     0.037 A 
BRANCH  66  80
ATOM     80  C   UNL     1      -0.093  -8.064  14.718  1.00  0.00     0.057 A 
ATOM     81  C   UNL     1      -0.722  -9.290  14.977  1.00  0.00     0.134 A 
ATOM     82  C   UNL     1      -0.693  -6.910  15.239  1.00  0.00     0.134 A 
ATOM     83  F   UNL     1      -0.209 -10.432  14.495  1.00  0.00    -0.206 F 
ATOM     84  C   UNL     1      -1.914  -9.363  15.700  1.00  0.00     0.040 A 
ATOM     85  C   UNL     1      -1.869  -6.973  15.989  1.00  0.00     0.040 A 
ATOM     86  F   UNL     1      -0.144  -5.704  15.033  1.00  0.00    -0.206 F 
ATOM     87  C   UNL     1      -2.487  -8.202  16.214  1.00  0.00     0.006 A 
ENDBRANCH  66  80
BRANCH  67  88
ATOM     88  C   UNL     1       8.109  -7.376   9.034  1.00  0.00     0.057 A 
ATOM     89  C   UNL     1       9.191  -8.249   9.202  1.00  0.00     0.134 A 
ATOM     90  C   UNL     1       8.226  -6.387   8.050  1.00  0.00     0.134 A 
ATOM     91  F   UNL     1       9.144  -9.208  10.138  1.00  0.00    -0.206 F 
ATOM     92  C   UNL     1      10.354  -8.127   8.441  1.00  0.00     0.040 A 
ATOM     93  C   UNL     1       9.373  -6.271   7.263  1.00  0.00     0.040 A 
ATOM     94  F   UNL     1       7.221  -5.527   7.831  1.00  0.00    -0.206 F 
ATOM     95  C   UNL     1      10.445  -7.138   7.464  1.00  0.00     0.006 A 
ENDBRANCH  67  88
BRANCH  79  96
ATOM     96  C   UNL     1       6.853  -6.440  15.817  1.00  0.00     0.057 A 
ATOM     97  C   UNL     1       7.382  -5.152  15.968  1.00  0.00     0.134 A 
ATOM     98  C   UNL     1       7.161  -7.386  16.803  1.00  0.00     0.134 A 
ATOM     99  F   UNL     1       7.134  -4.203  15.052  1.00  0.00    -0.206 F 
ATOM    100  C   UNL     1       8.210  -4.826  17.043  1.00  0.00     0.040 A 
ATOM    101  C   UNL     1       7.963  -7.064  17.898  1.00  0.00     0.040 A 
ATOM    102  F   UNL     1       6.678  -8.635  16.724  1.00  0.00    -0.206 F 
ATOM    103  C   UNL     1       8.496  -5.782  18.016  1.00  0.00     0.006 A 
ENDBRANCH  79  96
ENDBRANCH  53  54
ENDBRANCH  45  48
ENDBRANCH  43  44
ENDBRANCH  42  43
ENDBRANCH  41  42
ENDBRANCH  40  41
ENDBRANCH   1  40
TORSDOF 19
