REMARK SMILES CC1=C([C@@H](NC(=O)c2cc3c(s2)CCCCC3)C(=O)NCCCCCCNC(=O)c2ccc(-c3c4nc(c(-c5c(F)cccc5F)c5ccc([nH]5)c(-c5c(F)cccc5F)c5nc(c(-c6c(F)cccc6F)c6ccc3[nH]6)C=C5)C=C4)cc2)[C@H](C)N=N1
REMARK SMILES IDX 22 1 21 2 20 3 18 4 19 5 4 7 3 8 1 9 2 10 87 11 84 12 86 13
REMARK SMILES IDX 85 14 5 15 6 16 7 18 8 19 9 20 12 21 10 22 11 23 17 24 16 25
REMARK SMILES IDX 13 27 14 28 15 29 23 31 24 32 25 33 26 34 27 35 28 36 29 38
REMARK SMILES IDX 30 39 31 40 83 41 32 42 82 43 33 44 34 45 35 46 76 47 36 48
REMARK SMILES IDX 81 49 75 50 77 51 37 52 80 53 74 54 73 55 38 57 64 58 47 59
REMARK SMILES IDX 63 60 48 61 51 62 62 63 78 64 49 65 50 66 61 68 79 69 52 70
REMARK SMILES IDX 39 71 40 72 45 73 41 74 42 75 44 76 46 77 43 78 65 79 66 80
REMARK SMILES IDX 71 81 67 82 68 83 70 84 72 85 69 86 53 87 54 88 59 89 55 90
REMARK SMILES IDX 56 91 58 92 60 93 57 94
REMARK H PARENT 20 6 5 17 27 37 77 56 51 67
REMARK Flexibility Score: 90.00
ROOT
ATOM      1  C   UNL     1      -0.646  -4.486   4.434  1.00  0.00     0.021 C 
ENDROOT
BRANCH   1   2
ATOM      2  C   UNL     1      -1.464  -3.264   4.053  1.00  0.00     0.116 C 
BRANCH   2   3
ATOM      3  N   UNL     1      -0.723  -2.061   4.365  1.00  0.00    -0.354 N 
ATOM      4  C   UNL     1      -0.475  -0.956   3.605  1.00  0.00     0.247 C 
ATOM      5  O   UNL     1       0.427  -0.196   3.970  1.00  0.00    -0.272 OA
ATOM      6  H   UNL     1      -0.335  -2.036   5.270  1.00  0.00     0.163 HD
BRANCH   4   7
ATOM      7  C   UNL     1      -1.214  -0.726   2.274  1.00  0.00     0.202 C 
BRANCH   7   8
ATOM      8  C   UNL     1      -0.455  -1.421   1.147  1.00  0.00     0.011 C 
ATOM      9  C   UNL     1       0.761   0.420  -0.170  1.00  0.00     0.069 C 
ATOM     10  C   UNL     1       0.264  -0.947   0.115  1.00  0.00     0.064 C 
ATOM     11  N   UNL     1       0.659  -1.931  -0.766  1.00  0.00    -0.160 NA
ATOM     12  C   UNL     1      -0.172  -2.897   1.052  1.00  0.00     0.156 C 
ATOM     13  N   UNL     1       0.301  -3.057  -0.344  1.00  0.00    -0.181 NA
ATOM     14  C   UNL     1       1.032  -3.334   1.905  1.00  0.00     0.040 C 
ENDBRANCH   7   8
BRANCH   7  15
ATOM     15  N   UNL     1      -2.649  -1.099   2.249  1.00  0.00    -0.336 N 
ATOM     16  C   UNL     1      -3.683  -0.896   3.170  1.00  0.00     0.262 C 
ATOM     17  H   UNL     1      -2.925  -1.578   1.435  1.00  0.00     0.165 HD
ATOM     18  O   UNL     1      -4.823  -1.129   2.760  1.00  0.00    -0.268 OA
BRANCH  16  19
ATOM     19  C   UNL     1      -3.412  -0.639   4.580  1.00  0.00     0.092 A 
ATOM     20  C   UNL     1      -3.736  -1.432   5.679  1.00  0.00     0.029 A 
ATOM     21  S   UNL     1      -2.652   0.789   5.131  1.00  0.00    -0.135 S 
ATOM     22  C   UNL     1      -2.854  -1.170   6.796  1.00  0.00    -0.033 A 
ATOM     23  C   UNL     1      -2.120  -0.022   6.550  1.00  0.00     0.009 A 
BRANCH  22  24
ATOM     24  C   UNL     1      -2.579  -2.123   7.933  1.00  0.00     0.037 C 
BRANCH  24  25
ATOM     25  C   UNL     1      -2.319  -1.565   9.329  1.00  0.00     0.005 CG0
ATOM     26  G   UNL     1      -2.256  -0.053   9.464  1.00  0.00     0.000 G0
ENDBRANCH  24  25
ENDBRANCH  22  24
BRANCH  23  27
ATOM     27  C   UNL     1      -0.899   0.440   7.277  1.00  0.00     0.047 C 
BRANCH  27  28
ATOM     28  C   UNL     1      -1.045   0.591   8.790  1.00  0.00     0.006 C 
BRANCH  28  29
ATOM     29  C   UNL     1      -2.256  -0.053   9.464  1.00  0.00     0.001 CG0
ATOM     30  G   UNL     1      -2.319  -1.565   9.329  1.00  0.00     0.000 G0
ENDBRANCH  28  29
ENDBRANCH  27  28
ENDBRANCH  23  27
ENDBRANCH  16  19
ENDBRANCH   7  15
ENDBRANCH   4   7
ENDBRANCH   2   3
ENDBRANCH   1   2
BRANCH   1  31
ATOM     31  C   UNL     1      -0.667  -4.736   5.935  1.00  0.00     0.002 C 
BRANCH  31  32
ATOM     32  C   UNL     1      -2.060  -5.078   6.468  1.00  0.00     0.002 C 
BRANCH  32  33
ATOM     33  C   UNL     1      -2.779  -6.208   5.733  1.00  0.00     0.021 C 
BRANCH  33  34
ATOM     34  C   UNL     1      -1.936  -7.461   5.656  1.00  0.00     0.116 C 
BRANCH  34  35
ATOM     35  N   UNL     1      -1.670  -7.996   6.991  1.00  0.00    -0.352 N 
ATOM     36  C   UNL     1      -1.270  -9.270   7.296  1.00  0.00     0.251 C 
ATOM     37  H   UNL     1      -1.791  -7.378   7.748  1.00  0.00     0.163 HD
ATOM     38  O   UNL     1      -1.458  -9.765   8.420  1.00  0.00    -0.269 OA
BRANCH  36  39
ATOM     39  C   UNL     1      -0.472  -9.976   6.295  1.00  0.00     0.039 A 
ATOM     40  C   UNL     1      -0.598 -11.323   5.954  1.00  0.00     0.014 A 
ATOM     41  C   UNL     1       0.461  -9.178   5.653  1.00  0.00     0.014 A 
ATOM     42  C   UNL     1       0.274 -11.836   4.983  1.00  0.00     0.010 A 
ATOM     43  C   UNL     1       0.898  -9.605   4.446  1.00  0.00     0.010 A 
ATOM     44  C   UNL     1       1.113 -10.953   4.282  1.00  0.00    -0.014 A 
BRANCH  44  45
ATOM     45  C   UNL     1       1.863 -11.244   3.060  1.00  0.00     0.031 A 
ATOM     46  C   UNL     1       0.913 -11.762   2.026  1.00  0.00     0.074 A 
ATOM     47  C   UNL     1       3.172 -10.875   2.891  1.00  0.00     0.049 A 
ATOM     48  N   UNL     1       0.727 -13.013   1.760  1.00  0.00    -0.248 NA
ATOM     49  C   UNL     1      -0.176 -10.915   1.478  1.00  0.00     0.031 C 
ATOM     50  C   UNL     1       4.103 -10.220   3.835  1.00  0.00     0.029 A 
ATOM     51  N   UNL     1       3.989 -11.015   1.784  1.00  0.00    -0.354 N 
ATOM     52  C   UNL     1      -0.208 -13.042   0.734  1.00  0.00     0.074 A 
ATOM     53  C   UNL     1      -0.932 -11.812   0.833  1.00  0.00     0.031 C 
ATOM     54  C   UNL     1       5.231  -9.804   3.196  1.00  0.00     0.029 A 
ATOM     55  C   UNL     1       5.196 -10.261   1.820  1.00  0.00     0.049 A 
ATOM     56  H   UNL     1       3.752 -11.595   1.025  1.00  0.00     0.167 HD
ATOM     57  C   UNL     1      -0.001 -13.876  -0.324  1.00  0.00     0.037 A 
ATOM     58  C   UNL     1       6.118 -10.123   0.807  1.00  0.00     0.037 A 
ATOM     59  C   UNL     1       1.026 -14.832   0.026  1.00  0.00     0.049 A 
ATOM     60  C   UNL     1       5.890 -11.264  -0.122  1.00  0.00     0.074 A 
ATOM     61  C   UNL     1       1.160 -15.793   1.008  1.00  0.00     0.029 A 
ATOM     62  N   UNL     1       2.295 -14.485  -0.365  1.00  0.00    -0.354 N 
ATOM     63  N   UNL     1       6.121 -12.498   0.237  1.00  0.00    -0.248 NA
ATOM     64  C   UNL     1       4.843 -11.065  -1.115  1.00  0.00     0.031 C 
ATOM     65  C   UNL     1       2.507 -15.673   1.462  1.00  0.00     0.029 A 
ATOM     66  C   UNL     1       3.186 -14.787   0.629  1.00  0.00     0.049 A 
ATOM     67  H   UNL     1       2.529 -14.079  -1.231  1.00  0.00     0.167 HD
ATOM     68  C   UNL     1       4.938 -13.155  -0.066  1.00  0.00     0.074 A 
ATOM     69  C   UNL     1       4.186 -12.213  -0.910  1.00  0.00     0.031 C 
ATOM     70  C   UNL     1       4.512 -14.220   0.681  1.00  0.00     0.037 A 
BRANCH  57  71
ATOM     71  C   UNL     1      -0.289 -13.537  -1.772  1.00  0.00     0.057 A 
ATOM     72  C   UNL     1      -0.068 -14.533  -2.743  1.00  0.00     0.134 A 
ATOM     73  C   UNL     1      -0.462 -12.236  -2.288  1.00  0.00     0.134 A 
ATOM     74  F   UNL     1       0.124 -15.811  -2.383  1.00  0.00    -0.206 F 
ATOM     75  C   UNL     1       0.053 -14.243  -4.108  1.00  0.00     0.040 A 
ATOM     76  C   UNL     1      -0.387 -11.943  -3.654  1.00  0.00     0.040 A 
ATOM     77  F   UNL     1      -0.614 -11.161  -1.507  1.00  0.00    -0.206 F 
ATOM     78  C   UNL     1      -0.099 -12.943  -4.568  1.00  0.00     0.006 A 
ENDBRANCH  57  71
BRANCH  58  79
ATOM     79  C   UNL     1       6.922  -8.934   0.363  1.00  0.00     0.057 A 
ATOM     80  C   UNL     1       7.946  -8.990  -0.612  1.00  0.00     0.134 A 
ATOM     81  C   UNL     1       6.469  -7.641   0.664  1.00  0.00     0.134 A 
ATOM     82  F   UNL     1       8.435 -10.168  -1.028  1.00  0.00    -0.206 F 
ATOM     83  C   UNL     1       8.460  -7.837  -1.247  1.00  0.00     0.040 A 
ATOM     84  C   UNL     1       6.962  -6.489   0.032  1.00  0.00     0.040 A 
ATOM     85  F   UNL     1       5.456  -7.461   1.522  1.00  0.00    -0.206 F 
ATOM     86  C   UNL     1       7.953  -6.581  -0.936  1.00  0.00     0.006 A 
ENDBRANCH  58  79
BRANCH  70  87
ATOM     87  C   UNL     1       5.457 -14.787   1.710  1.00  0.00     0.057 A 
ATOM     88  C   UNL     1       5.887 -14.129   2.875  1.00  0.00     0.134 A 
ATOM     89  C   UNL     1       5.845 -16.121   1.573  1.00  0.00     0.134 A 
ATOM     90  F   UNL     1       5.450 -12.903   3.179  1.00  0.00    -0.206 F 
ATOM     91  C   UNL     1       6.736 -14.742   3.807  1.00  0.00     0.040 A 
ATOM     92  C   UNL     1       6.660 -16.757   2.509  1.00  0.00     0.040 A 
ATOM     93  F   UNL     1       5.391 -16.848   0.540  1.00  0.00    -0.206 F 
ATOM     94  C   UNL     1       7.133 -16.060   3.617  1.00  0.00     0.006 A 
ENDBRANCH  70  87
ENDBRANCH  44  45
ENDBRANCH  36  39
ENDBRANCH  34  35
ENDBRANCH  33  34
ENDBRANCH  32  33
ENDBRANCH  31  32
ENDBRANCH   1  31
TORSDOF 16
