REMARK SMILES Cc1occc1C(=O)NN1C(=O)/C(=C\c2ccc(O[C@H](C)C(=O)NCCCCCCNC(=O)c3ccc(-c4c5nc(c(-c6c(F)cccc6F)c6ccc([nH]6)c(-c6c(F)cccc6F)c6nc(c(-c7c(F)cccc7F)c7ccc4[nH]7)C=C6)C=C5)cc3)cc2)SC1=S
REMARK SMILES IDX 26 1 25 2 24 3 22 4 23 5 20 7 21 8 19 9 18 10 15 11 16 12
REMARK SMILES IDX 89 13 17 14 88 15 14 16 10 17 11 18 91 19 12 20 13 21 90 22
REMARK SMILES IDX 92 23 9 24 7 25 8 26 6 28 1 29 2 30 3 31 4 32 5 33 27 34
REMARK SMILES IDX 28 35 29 36 30 37 31 38 32 39 33 41 34 42 35 43 87 44 36 45
REMARK SMILES IDX 86 46 37 47 38 48 39 49 80 50 40 51 85 52 79 53 81 54 41 55
REMARK SMILES IDX 84 56 78 57 77 58 42 60 68 61 51 62 67 63 52 64 55 65 66 66
REMARK SMILES IDX 82 67 53 68 54 69 65 71 83 72 56 73 43 74 44 75 49 76 45 77
REMARK SMILES IDX 46 78 48 79 50 80 47 81 69 82 70 83 75 84 71 85 72 86 74 87
REMARK SMILES IDX 76 88 73 89 57 90 58 91 63 92 59 93 60 94 62 95 64 96 61 97
REMARK H PARENT 24 6 9 27 31 40 81 59 55 70
REMARK Flexibility Score: inf
ROOT
ATOM      1  C   UNL     1       5.918  -1.260  -5.041  1.00  0.00     0.021 C 
ENDROOT
BRANCH   1   2
ATOM      2  C   UNL     1       5.038  -2.349  -5.644  1.00  0.00     0.116 C 
BRANCH   2   3
ATOM      3  N   UNL     1       5.487  -2.807  -6.935  1.00  0.00    -0.353 N 
ATOM      4  C   UNL     1       5.876  -4.048  -7.340  1.00  0.00     0.260 C 
ATOM      5  O   UNL     1       6.070  -4.189  -8.555  1.00  0.00    -0.271 OA
ATOM      6  H   UNL     1       5.518  -2.114  -7.633  1.00  0.00     0.163 HD
BRANCH   4   7
ATOM      7  C   UNL     1       6.196  -5.218  -6.363  1.00  0.00     0.258 C 
ATOM      8  C   UNL     1       7.612  -5.052  -5.820  1.00  0.00     0.064 C 
BRANCH   7   9
ATOM      9  O   UNL     1       5.185  -5.746  -5.506  1.00  0.00    -0.481 OA
BRANCH   9  10
ATOM     10  C   UNL     1       4.933  -5.354  -4.231  1.00  0.00     0.120 A 
ATOM     11  C   UNL     1       4.105  -4.474  -1.684  1.00  0.00    -0.024 A 
ATOM     12  C   UNL     1       5.453  -4.454  -2.046  1.00  0.00     0.012 A 
ATOM     13  C   UNL     1       3.164  -4.956  -2.594  1.00  0.00     0.012 A 
ATOM     14  C   UNL     1       5.865  -4.915  -3.297  1.00  0.00     0.047 A 
ATOM     15  C   UNL     1       3.583  -5.402  -3.856  1.00  0.00     0.047 A 
BRANCH  11  16
ATOM     16  C   UNL     1       3.785  -4.072  -0.313  1.00  0.00     0.029 C 
ATOM     17  N   UNL     1       3.195  -6.956   1.819  1.00  0.00    -0.198 N 
ATOM     18  C   UNL     1       3.470  -6.424   0.569  1.00  0.00     0.285 C 
ATOM     19  C   UNL     1       3.326  -6.139   2.921  1.00  0.00     0.168 C 
ATOM     20  O   UNL     1       3.595  -7.077  -0.452  1.00  0.00    -0.266 OA
ATOM     21  C   UNL     1       3.601  -4.944   0.688  1.00  0.00     0.082 C 
ATOM     22  S   UNL     1       3.534  -4.478   2.356  1.00  0.00    -0.052 SA
ATOM     23  S   UNL     1       3.317  -6.572   4.529  1.00  0.00    -0.050 S 
BRANCH  17  24
ATOM     24  N   UNL     1       3.027  -8.332   1.881  1.00  0.00    -0.254 N 
ATOM     25  C   UNL     1       1.839  -9.018   1.986  1.00  0.00     0.273 C 
ATOM     26  O   UNL     1       1.879 -10.229   1.756  1.00  0.00    -0.267 OA
ATOM     27  H   UNL     1       3.846  -8.876   1.847  1.00  0.00     0.192 HD
BRANCH  25  28
ATOM     28  C   UNL     1       0.606  -8.412   2.477  1.00  0.00     0.082 A 
ATOM     29  C   UNL     1       0.210  -5.986   1.435  1.00  0.00     0.088 C 
ATOM     30  C   UNL     1      -0.018  -7.190   2.258  1.00  0.00     0.113 A 
ATOM     31  O   UNL     1      -1.185  -7.121   2.969  1.00  0.00    -0.469 OA
ATOM     32  C   UNL     1      -1.361  -8.305   3.592  1.00  0.00     0.196 A 
ATOM     33  C   UNL     1      -0.314  -9.139   3.309  1.00  0.00     0.056 A 
ENDBRANCH  25  28
ENDBRANCH  17  24
ENDBRANCH  11  16
ENDBRANCH   9  10
ENDBRANCH   7   9
ENDBRANCH   4   7
ENDBRANCH   2   3
ENDBRANCH   1   2
BRANCH   1  34
ATOM     34  C   UNL     1       5.556   0.158  -5.485  1.00  0.00     0.002 C 
BRANCH  34  35
ATOM     35  C   UNL     1       4.112   0.591  -5.197  1.00  0.00     0.002 C 
BRANCH  35  36
ATOM     36  C   UNL     1       3.642   0.426  -3.747  1.00  0.00     0.021 C 
BRANCH  36  37
ATOM     37  C   UNL     1       4.454   1.204  -2.713  1.00  0.00     0.116 C 
BRANCH  37  38
ATOM     38  N   UNL     1       4.422   2.636  -2.959  1.00  0.00    -0.352 N 
ATOM     39  C   UNL     1       4.032   3.664  -2.139  1.00  0.00     0.251 C 
ATOM     40  H   UNL     1       4.729   2.912  -3.853  1.00  0.00     0.163 HD
ATOM     41  O   UNL     1       3.886   4.793  -2.600  1.00  0.00    -0.269 OA
BRANCH  39  42
ATOM     42  C   UNL     1       3.775   3.422  -0.704  1.00  0.00     0.039 A 
ATOM     43  C   UNL     1       2.658   4.017  -0.110  1.00  0.00     0.014 A 
ATOM     44  C   UNL     1       4.652   2.652   0.066  1.00  0.00     0.014 A 
ATOM     45  C   UNL     1       2.391   3.798   1.244  1.00  0.00     0.010 A 
ATOM     46  C   UNL     1       4.353   2.386   1.401  1.00  0.00     0.010 A 
ATOM     47  C   UNL     1       3.221   2.958   2.003  1.00  0.00    -0.014 A 
BRANCH  47  48
ATOM     48  C   UNL     1       2.926   2.671   3.429  1.00  0.00     0.031 A 
ATOM     49  C   UNL     1       3.863   3.146   4.505  1.00  0.00     0.074 A 
ATOM     50  C   UNL     1       1.847   1.932   3.749  1.00  0.00     0.049 A 
ATOM     51  N   UNL     1       3.825   2.918   5.793  1.00  0.00    -0.248 NA
ATOM     52  C   UNL     1       5.006   3.967   4.074  1.00  0.00     0.031 C 
ATOM     53  C   UNL     1       0.882   1.382   2.794  1.00  0.00     0.029 A 
ATOM     54  N   UNL     1       1.387   1.502   4.969  1.00  0.00    -0.354 N 
ATOM     55  C   UNL     1       4.939   3.556   6.323  1.00  0.00     0.074 A 
ATOM     56  C   UNL     1       5.660   4.141   5.213  1.00  0.00     0.031 C 
ATOM     57  C   UNL     1      -0.059   0.698   3.464  1.00  0.00     0.029 A 
ATOM     58  C   UNL     1       0.252   0.732   4.890  1.00  0.00     0.049 A 
ATOM     59  H   UNL     1       1.829   1.725   5.820  1.00  0.00     0.167 HD
ATOM     60  C   UNL     1       5.315   3.666   7.620  1.00  0.00     0.037 A 
ATOM     61  C   UNL     1      -0.452   0.115   5.857  1.00  0.00     0.037 A 
ATOM     62  C   UNL     1       4.584   3.107   8.726  1.00  0.00     0.049 A 
ATOM     63  C   UNL     1      -0.011   0.253   7.289  1.00  0.00     0.074 A 
ATOM     64  C   UNL     1       4.866   3.193  10.079  1.00  0.00     0.029 A 
ATOM     65  N   UNL     1       3.420   2.362   8.607  1.00  0.00    -0.354 N 
ATOM     66  N   UNL     1       1.018   0.901   7.778  1.00  0.00    -0.248 NA
ATOM     67  C   UNL     1      -0.835  -0.419   8.304  1.00  0.00     0.031 C 
ATOM     68  C   UNL     1       3.888   2.477  10.777  1.00  0.00     0.029 A 
ATOM     69  C   UNL     1       2.977   1.977   9.861  1.00  0.00     0.049 A 
ATOM     70  H   UNL     1       2.975   2.141   7.757  1.00  0.00     0.167 HD
ATOM     71  C   UNL     1       0.949   0.739   9.155  1.00  0.00     0.074 A 
ATOM     72  C   UNL     1      -0.231  -0.055   9.426  1.00  0.00     0.031 C 
ATOM     73  C   UNL     1       1.789   1.203  10.112  1.00  0.00     0.037 A 
BRANCH  60  74
ATOM     74  C   UNL     1       6.568   4.435   7.918  1.00  0.00     0.057 A 
ATOM     75  C   UNL     1       6.614   5.831   7.808  1.00  0.00     0.134 A 
ATOM     76  C   UNL     1       7.722   3.783   8.370  1.00  0.00     0.134 A 
ATOM     77  F   UNL     1       5.546   6.513   7.369  1.00  0.00    -0.206 F 
ATOM     78  C   UNL     1       7.769   6.549   8.122  1.00  0.00     0.040 A 
ATOM     79  C   UNL     1       8.875   4.493   8.710  1.00  0.00     0.040 A 
ATOM     80  F   UNL     1       7.743   2.448   8.502  1.00  0.00    -0.206 F 
ATOM     81  C   UNL     1       8.901   5.880   8.583  1.00  0.00     0.006 A 
ENDBRANCH  60  74
BRANCH  61  82
ATOM     82  C   UNL     1      -1.657  -0.681   5.514  1.00  0.00     0.057 A 
ATOM     83  C   UNL     1      -2.937  -0.241   5.871  1.00  0.00     0.134 A 
ATOM     84  C   UNL     1      -1.558  -1.909   4.849  1.00  0.00     0.134 A 
ATOM     85  F   UNL     1      -3.094   0.920   6.525  1.00  0.00    -0.206 F 
ATOM     86  C   UNL     1      -4.074  -1.007   5.607  1.00  0.00     0.040 A 
ATOM     87  C   UNL     1      -2.688  -2.674   4.557  1.00  0.00     0.040 A 
ATOM     88  F   UNL     1      -0.361  -2.378   4.466  1.00  0.00    -0.206 F 
ATOM     89  C   UNL     1      -3.950  -2.227   4.946  1.00  0.00     0.006 A 
ENDBRANCH  61  82
BRANCH  73  90
ATOM     90  C   UNL     1       1.440   0.899  11.538  1.00  0.00     0.057 A 
ATOM     91  C   UNL     1       1.599  -0.383  12.080  1.00  0.00     0.134 A 
ATOM     92  C   UNL     1       0.974   1.910  12.387  1.00  0.00     0.134 A 
ATOM     93  F   UNL     1       2.029  -1.396  11.313  1.00  0.00    -0.206 F 
ATOM     94  C   UNL     1       1.286  -0.653  13.413  1.00  0.00     0.040 A 
ATOM     95  C   UNL     1       0.681   1.658  13.728  1.00  0.00     0.040 A 
ATOM     96  F   UNL     1       0.808   3.161  11.931  1.00  0.00    -0.206 F 
ATOM     97  C   UNL     1       0.831   0.371  14.242  1.00  0.00     0.006 A 
ENDBRANCH  73  90
ENDBRANCH  47  48
ENDBRANCH  39  42
ENDBRANCH  37  38
ENDBRANCH  36  37
ENDBRANCH  35  36
ENDBRANCH  34  35
ENDBRANCH   1  34
TORSDOF 18
