REMARK SMILES C[C@H]([NH2+]C[C@]1(C)CCCO1)[C@H](C)C(=O)NCCCCCCNC(=O)c1ccc(-c2c3nc(c(-c4c(F)cccc4F)c4ccc([nH]4)c(-c4c(F)cccc4F)c4nc(c(-c5c(F)cccc5F)c5ccc2[nH]5)C=C4)C=C3)cc1
REMARK SMILES IDX 17 1 16 2 15 3 13 4 14 5 11 7 12 8 2 9 1 10 3 11 4 14 5 15
REMARK SMILES IDX 7 16 10 17 6 18 8 19 9 20 18 21 19 22 20 23 21 24 22 25
REMARK SMILES IDX 23 26 24 28 25 29 26 30 78 31 27 32 77 33 28 34 29 35 30 36
REMARK SMILES IDX 71 37 31 38 76 39 70 40 72 41 32 42 75 43 69 44 68 45 33 47
REMARK SMILES IDX 59 48 42 49 58 50 43 51 46 52 57 53 73 54 44 55 45 56 56 58
REMARK SMILES IDX 74 59 47 60 34 61 35 62 40 63 36 64 37 65 39 66 41 67 38 68
REMARK SMILES IDX 60 69 61 70 66 71 62 72 63 73 65 74 67 75 64 76 48 77 49 78
REMARK SMILES IDX 54 79 50 80 51 81 53 82 55 83 52 84
REMARK H PARENT 15 6 3 12 3 13 22 27 72 46 46 57
REMARK Flexibility Score: inf
ROOT
ATOM      1  C   UNL     1      -6.909   4.116   6.067  1.00  0.00     0.021 C 
ENDROOT
BRANCH   1   2
ATOM      2  C   UNL     1      -6.299   3.307   4.926  1.00  0.00     0.116 C 
BRANCH   2   3
ATOM      3  N   UNL     1      -7.122   2.166   4.571  1.00  0.00    -0.356 N 
ATOM      4  C   UNL     1      -7.648   1.792   3.372  1.00  0.00     0.228 C 
ATOM      5  O   UNL     1      -8.353   0.779   3.346  1.00  0.00    -0.275 OA
ATOM      6  H   UNL     1      -7.336   1.564   5.320  1.00  0.00     0.163 HD
BRANCH   4   7
ATOM      7  C   UNL     1      -7.392   2.592   2.097  1.00  0.00     0.133 C 
ATOM      8  C   UNL     1      -8.056   3.974   2.208  1.00  0.00     0.024 C 
BRANCH   7   9
ATOM      9  C   UNL     1      -5.891   2.586   1.682  1.00  0.00     0.191 C 
ATOM     10  C   UNL     1      -5.607   3.445   0.443  1.00  0.00     0.076 C 
BRANCH   9  11
ATOM     11  N   UNL     1      -5.305   1.245   1.516  1.00  0.00    -0.341 N 
ATOM     12  H   UNL     1      -5.540   0.700   2.345  1.00  0.00     0.346 HD
ATOM     13  H   UNL     1      -4.306   1.401   1.381  1.00  0.00     0.346 HD
BRANCH  11  14
ATOM     14  C   UNL     1      -5.743   0.480   0.339  1.00  0.00     0.296 C 
BRANCH  14  15
ATOM     15  C   UNL     1      -5.168  -0.968   0.374  1.00  0.00     0.114 C 
ATOM     16  C   UNL     1      -5.763  -1.836  -0.736  1.00  0.00     0.043 C 
ATOM     17  O   UNL     1      -5.596  -1.591   1.610  1.00  0.00    -0.369 OA
ATOM     18  C   UNL     1      -3.637  -0.979   0.315  1.00  0.00     0.048 C 
ATOM     19  C   UNL     1      -7.057  -2.315  -0.126  1.00  0.00     0.032 C 
ATOM     20  C   UNL     1      -6.684  -2.486   1.331  1.00  0.00     0.161 C 
ENDBRANCH  14  15
ENDBRANCH  11  14
ENDBRANCH   9  11
ENDBRANCH   7   9
ENDBRANCH   4   7
ENDBRANCH   2   3
ENDBRANCH   1   2
BRANCH   1  21
ATOM     21  C   UNL     1      -6.951   3.392   7.416  1.00  0.00     0.002 C 
BRANCH  21  22
ATOM     22  C   UNL     1      -5.601   2.881   7.928  1.00  0.00     0.002 C 
BRANCH  22  23
ATOM     23  C   UNL     1      -4.486   3.927   7.993  1.00  0.00     0.021 C 
BRANCH  23  24
ATOM     24  C   UNL     1      -4.816   5.169   8.815  1.00  0.00     0.116 C 
BRANCH  24  25
ATOM     25  N   UNL     1      -5.080   4.857  10.209  1.00  0.00    -0.352 N 
ATOM     26  C   UNL     1      -4.524   5.393  11.342  1.00  0.00     0.251 C 
ATOM     27  H   UNL     1      -5.756   4.158  10.363  1.00  0.00     0.163 HD
ATOM     28  O   UNL     1      -4.741   4.880  12.439  1.00  0.00    -0.269 OA
BRANCH  26  29
ATOM     29  C   UNL     1      -3.641   6.574  11.246  1.00  0.00     0.039 A 
ATOM     30  C   UNL     1      -2.449   6.584  11.976  1.00  0.00     0.014 A 
ATOM     31  C   UNL     1      -3.984   7.669  10.447  1.00  0.00     0.014 A 
ATOM     32  C   UNL     1      -1.574   7.665  11.856  1.00  0.00     0.010 A 
ATOM     33  C   UNL     1      -3.077   8.711  10.272  1.00  0.00     0.010 A 
ATOM     34  C   UNL     1      -1.863   8.720  10.974  1.00  0.00    -0.014 A 
BRANCH  34  35
ATOM     35  C   UNL     1      -0.896   9.829  10.768  1.00  0.00     0.031 A 
ATOM     36  C   UNL     1      -1.257  11.237  11.153  1.00  0.00     0.074 A 
ATOM     37  C   UNL     1       0.290   9.572  10.183  1.00  0.00     0.049 A 
ATOM     38  N   UNL     1      -0.559  12.336  11.012  1.00  0.00    -0.248 NA
ATOM     39  C   UNL     1      -2.584  11.442  11.753  1.00  0.00     0.031 C 
ATOM     40  C   UNL     1       0.738   8.258   9.719  1.00  0.00     0.029 A 
ATOM     41  N   UNL     1       1.334  10.407   9.871  1.00  0.00    -0.354 N 
ATOM     42  C   UNL     1      -1.363  13.359  11.497  1.00  0.00     0.074 A 
ATOM     43  C   UNL     1      -2.622  12.760  11.883  1.00  0.00     0.031 C 
ATOM     44  C   UNL     1       1.974   8.369   9.209  1.00  0.00     0.029 A 
ATOM     45  C   UNL     1       2.391   9.766   9.272  1.00  0.00     0.049 A 
ATOM     46  H   UNL     1       1.326  11.373  10.060  1.00  0.00     0.167 HD
ATOM     47  C   UNL     1      -1.071  14.675  11.631  1.00  0.00     0.037 A 
ATOM     48  C   UNL     1       3.562  10.250   8.817  1.00  0.00     0.037 A 
ATOM     49  C   UNL     1       0.189  15.267  11.259  1.00  0.00     0.049 A 
ATOM     50  C   UNL     1       3.855  11.718   8.962  1.00  0.00     0.074 A 
ATOM     51  C   UNL     1       0.602  16.579  11.407  1.00  0.00     0.029 A 
ATOM     52  N   UNL     1       1.236  14.584  10.658  1.00  0.00    -0.354 N 
ATOM     53  N   UNL     1       3.114  12.661   9.489  1.00  0.00    -0.248 NA
ATOM     54  C   UNL     1       5.152  12.186   8.453  1.00  0.00     0.031 C 
ATOM     55  C   UNL     1       1.878  16.703  10.850  1.00  0.00     0.029 A 
ATOM     56  C   UNL     1       2.284  15.455  10.405  1.00  0.00     0.049 A 
ATOM     57  H   UNL     1       1.235  13.623  10.444  1.00  0.00     0.167 HD
ATOM     58  C   UNL     1       3.862  13.828   9.400  1.00  0.00     0.074 A 
ATOM     59  C   UNL     1       5.123  13.469   8.786  1.00  0.00     0.031 C 
ATOM     60  C   UNL     1       3.535  15.084   9.792  1.00  0.00     0.037 A 
BRANCH  47  61
ATOM     61  C   UNL     1      -2.134  15.567  12.206  1.00  0.00     0.057 A 
ATOM     62  C   UNL     1      -2.519  15.487  13.551  1.00  0.00     0.134 A 
ATOM     63  C   UNL     1      -2.756  16.543  11.416  1.00  0.00     0.134 A 
ATOM     64  F   UNL     1      -1.972  14.568  14.361  1.00  0.00    -0.206 F 
ATOM     65  C   UNL     1      -3.501  16.325  14.083  1.00  0.00     0.040 A 
ATOM     66  C   UNL     1      -3.718  17.406  11.943  1.00  0.00     0.040 A 
ATOM     67  F   UNL     1      -2.431  16.680  10.121  1.00  0.00    -0.206 F 
ATOM     68  C   UNL     1      -4.098  17.294  13.279  1.00  0.00     0.006 A 
ENDBRANCH  47  61
BRANCH  48  69
ATOM     69  C   UNL     1       4.556   9.336   8.199  1.00  0.00     0.057 A 
ATOM     70  C   UNL     1       5.768   9.047   8.838  1.00  0.00     0.134 A 
ATOM     71  C   UNL     1       4.326   8.738   6.955  1.00  0.00     0.134 A 
ATOM     72  F   UNL     1       6.055   9.605  10.024  1.00  0.00    -0.206 F 
ATOM     73  C   UNL     1       6.724   8.216   8.253  1.00  0.00     0.040 A 
ATOM     74  C   UNL     1       5.261   7.882   6.370  1.00  0.00     0.040 A 
ATOM     75  F   UNL     1       3.181   8.966   6.294  1.00  0.00    -0.206 F 
ATOM     76  C   UNL     1       6.469   7.626   7.016  1.00  0.00     0.006 A 
ENDBRANCH  48  69
BRANCH  60  77
ATOM     77  C   UNL     1       4.569  16.155   9.595  1.00  0.00     0.057 A 
ATOM     78  C   UNL     1       4.905  16.636   8.323  1.00  0.00     0.134 A 
ATOM     79  C   UNL     1       5.215  16.732  10.696  1.00  0.00     0.134 A 
ATOM     80  F   UNL     1       4.333  16.116   7.227  1.00  0.00    -0.206 F 
ATOM     81  C   UNL     1       5.868  17.632   8.151  1.00  0.00     0.040 A 
ATOM     82  C   UNL     1       6.157  17.750  10.539  1.00  0.00     0.040 A 
ATOM     83  F   UNL     1       4.934  16.325  11.943  1.00  0.00    -0.206 F 
ATOM     84  C   UNL     1       6.492  18.197   9.262  1.00  0.00     0.006 A 
ENDBRANCH  60  77
ENDBRANCH  34  35
ENDBRANCH  26  29
ENDBRANCH  24  25
ENDBRANCH  23  24
ENDBRANCH  22  23
ENDBRANCH  21  22
ENDBRANCH   1  21
TORSDOF 17
