REMARK SMILES O=C(NCCCCCCNC(=O)c1cccnc1-c1ccccn1)c1ccc(-c2c3nc(c(-c4c(F)cccc4F)c4ccc([nH]4)c(-c4c(F)cccc4F)c4nc(c(-c5c(F)cccc5F)c5ccc2[nH]5)C=C4)C=C3)cc1
REMARK SMILES IDX 6 1 5 2 4 3 3 4 1 5 2 6 25 8 26 9 78 10 27 11 77 12 28 13
REMARK SMILES IDX 29 14 30 15 71 16 31 17 76 18 70 19 72 20 32 21 75 22 69 23
REMARK SMILES IDX 68 24 33 26 59 27 42 28 58 29 43 30 46 31 57 32 73 33 44 34
REMARK SMILES IDX 45 35 56 37 74 38 47 39 34 40 35 41 40 42 36 43 37 44 39 45
REMARK SMILES IDX 41 46 38 47 60 48 61 49 66 50 62 51 63 52 65 53 67 54 64 55
REMARK SMILES IDX 48 56 49 57 54 58 50 59 51 60 53 61 55 62 52 63 7 64 8 65
REMARK SMILES IDX 9 66 10 67 11 68 12 70 13 71 14 72 18 73 15 74 17 75 16 76
REMARK SMILES IDX 19 77 20 78 24 79 21 80 23 81 22 82
REMARK H PARENT 3 7 72 25 46 36 10 69
REMARK Flexibility Score: inf
ROOT
ATOM      1  C   UNL     1       4.192  -0.307   3.787  1.00  0.00     0.002 C 
ENDROOT
BRANCH   1   2
ATOM      2  C   UNL     1       4.655   0.412   2.520  1.00  0.00     0.021 C 
BRANCH   2   3
ATOM      3  C   UNL     1       4.373  -0.335   1.223  1.00  0.00     0.116 C 
BRANCH   3   4
ATOM      4  N   UNL     1       2.950  -0.499   0.979  1.00  0.00    -0.352 N 
ATOM      5  O   UNL     1       0.977  -0.146  -0.057  1.00  0.00    -0.269 OA
ATOM      6  C   UNL     1       2.202  -0.087  -0.095  1.00  0.00     0.251 C 
ATOM      7  H   UNL     1       2.453  -0.973   1.684  1.00  0.00     0.163 HD
BRANCH   6   8
ATOM      8  C   UNL     1       2.878   0.446  -1.296  1.00  0.00     0.039 A 
ATOM      9  C   UNL     1       3.989  -0.206  -1.837  1.00  0.00     0.014 A 
ATOM     10  C   UNL     1       2.379   1.604  -1.897  1.00  0.00     0.014 A 
ATOM     11  C   UNL     1       4.676   0.364  -2.903  1.00  0.00     0.010 A 
ATOM     12  C   UNL     1       3.021   2.131  -3.020  1.00  0.00     0.010 A 
ATOM     13  C   UNL     1       4.186   1.526  -3.518  1.00  0.00    -0.014 A 
BRANCH  13  14
ATOM     14  C   UNL     1       4.854   2.056  -4.732  1.00  0.00     0.031 A 
ATOM     15  C   UNL     1       5.498   3.411  -4.734  1.00  0.00     0.074 A 
ATOM     16  C   UNL     1       4.846   1.307  -5.851  1.00  0.00     0.049 A 
ATOM     17  N   UNL     1       6.068   4.051  -5.724  1.00  0.00    -0.248 NA
ATOM     18  C   UNL     1       5.492   4.149  -3.463  1.00  0.00     0.031 C 
ATOM     19  C   UNL     1       4.235  -0.019  -5.970  1.00  0.00     0.029 A 
ATOM     20  N   UNL     1       5.352   1.554  -7.100  1.00  0.00    -0.354 N 
ATOM     21  C   UNL     1       6.469   5.274  -5.204  1.00  0.00     0.074 A 
ATOM     22  C   UNL     1       6.053   5.297  -3.817  1.00  0.00     0.031 C 
ATOM     23  C   UNL     1       4.410  -0.472  -7.219  1.00  0.00     0.029 A 
ATOM     24  C   UNL     1       5.085   0.556  -8.004  1.00  0.00     0.049 A 
ATOM     25  H   UNL     1       5.858   2.368  -7.327  1.00  0.00     0.167 HD
ATOM     26  C   UNL     1       7.125   6.282  -5.829  1.00  0.00     0.037 A 
ATOM     27  C   UNL     1       5.317   0.487  -9.327  1.00  0.00     0.037 A 
ATOM     28  C   UNL     1       7.531   6.246  -7.212  1.00  0.00     0.049 A 
ATOM     29  C   UNL     1       6.010   1.630 -10.008  1.00  0.00     0.074 A 
ATOM     30  C   UNL     1       8.246   7.192  -7.925  1.00  0.00     0.029 A 
ATOM     31  N   UNL     1       7.239   5.217  -8.097  1.00  0.00    -0.354 N 
ATOM     32  N   UNL     1       6.435   2.758  -9.493  1.00  0.00    -0.248 NA
ATOM     33  C   UNL     1       6.256   1.493 -11.448  1.00  0.00     0.031 C 
ATOM     34  C   UNL     1       8.331   6.766  -9.255  1.00  0.00     0.029 A 
ATOM     35  C   UNL     1       7.727   5.523  -9.357  1.00  0.00     0.049 A 
ATOM     36  H   UNL     1       6.756   4.391  -7.863  1.00  0.00     0.167 HD
ATOM     37  C   UNL     1       7.018   3.458 -10.540  1.00  0.00     0.074 A 
ATOM     38  C   UNL     1       6.899   2.622 -11.717  1.00  0.00     0.031 C 
ATOM     39  C   UNL     1       7.601   4.681 -10.523  1.00  0.00     0.037 A 
BRANCH  26  40
ATOM     40  C   UNL     1       7.411   7.523  -5.030  1.00  0.00     0.057 A 
ATOM     41  C   UNL     1       8.329   7.537  -3.972  1.00  0.00     0.134 A 
ATOM     42  C   UNL     1       6.767   8.729  -5.337  1.00  0.00     0.134 A 
ATOM     43  F   UNL     1       8.977   6.416  -3.618  1.00  0.00    -0.206 F 
ATOM     44  C   UNL     1       8.568   8.693  -3.225  1.00  0.00     0.040 A 
ATOM     45  C   UNL     1       7.019   9.899  -4.617  1.00  0.00     0.040 A 
ATOM     46  F   UNL     1       5.884   8.794  -6.345  1.00  0.00    -0.206 F 
ATOM     47  C   UNL     1       7.914   9.880  -3.550  1.00  0.00     0.006 A 
ENDBRANCH  26  40
BRANCH  27  48
ATOM     48  C   UNL     1       4.861  -0.707 -10.080  1.00  0.00     0.057 A 
ATOM     49  C   UNL     1       5.771  -1.645 -10.577  1.00  0.00     0.134 A 
ATOM     50  C   UNL     1       3.497  -0.964 -10.270  1.00  0.00     0.134 A 
ATOM     51  F   UNL     1       7.089  -1.447 -10.436  1.00  0.00    -0.206 F 
ATOM     52  C   UNL     1       5.341  -2.795 -11.241  1.00  0.00     0.040 A 
ATOM     53  C   UNL     1       3.053  -2.123 -10.907  1.00  0.00     0.040 A 
ATOM     54  F   UNL     1       2.575  -0.109  -9.803  1.00  0.00    -0.206 F 
ATOM     55  C   UNL     1       3.978  -3.041 -11.398  1.00  0.00     0.006 A 
ENDBRANCH  27  48
BRANCH  39  56
ATOM     56  C   UNL     1       8.190   5.182 -11.809  1.00  0.00     0.057 A 
ATOM     57  C   UNL     1       7.389   5.620 -12.871  1.00  0.00     0.134 A 
ATOM     58  C   UNL     1       9.579   5.286 -11.961  1.00  0.00     0.134 A 
ATOM     59  F   UNL     1       6.052   5.533 -12.796  1.00  0.00    -0.206 F 
ATOM     60  C   UNL     1       7.949   6.133 -14.042  1.00  0.00     0.040 A 
ATOM     61  C   UNL     1      10.149   5.823 -13.115  1.00  0.00     0.040 A 
ATOM     62  F   UNL     1      10.403   4.889 -10.979  1.00  0.00    -0.206 F 
ATOM     63  C   UNL     1       9.333   6.246 -14.162  1.00  0.00     0.006 A 
ENDBRANCH  39  56
ENDBRANCH  13  14
ENDBRANCH   6   8
ENDBRANCH   3   4
ENDBRANCH   2   3
ENDBRANCH   1   2
BRANCH   1  64
ATOM     64  C   UNL     1       4.740  -1.726   3.971  1.00  0.00     0.002 C 
BRANCH  64  65
ATOM     65  C   UNL     1       6.266  -1.856   3.913  1.00  0.00     0.021 C 
BRANCH  65  66
ATOM     66  C   UNL     1       7.029  -0.962   4.886  1.00  0.00     0.116 C 
BRANCH  66  67
ATOM     67  N   UNL     1       6.687  -1.243   6.270  1.00  0.00    -0.352 N 
ATOM     68  C   UNL     1       7.506  -1.577   7.319  1.00  0.00     0.253 C 
ATOM     69  H   UNL     1       5.729  -1.185   6.486  1.00  0.00     0.163 HD
ATOM     70  O   UNL     1       7.023  -1.837   8.416  1.00  0.00    -0.269 OA
BRANCH  68  71
ATOM     71  C   UNL     1       8.962  -1.602   7.114  1.00  0.00     0.067 A 
ATOM     72  C   UNL     1       9.615  -0.419   6.743  1.00  0.00     0.018 A 
ATOM     73  C   UNL     1       9.707  -2.768   7.296  1.00  0.00     0.101 A 
ATOM     74  C   UNL     1      10.984  -0.440   6.510  1.00  0.00     0.021 A 
ATOM     75  N   UNL     1      11.052  -2.791   7.048  1.00  0.00    -0.254 NA
ATOM     76  C   UNL     1      11.652  -1.640   6.671  1.00  0.00     0.112 A 
BRANCH  73  77
ATOM     77  C   UNL     1       9.124  -4.053   7.722  1.00  0.00     0.089 A 
ATOM     78  C   UNL     1       8.185  -4.735   6.946  1.00  0.00     0.031 A 
ATOM     79  N   UNL     1       9.558  -4.540   8.916  1.00  0.00    -0.255 NA
ATOM     80  C   UNL     1       7.659  -5.936   7.418  1.00  0.00     0.004 A 
ATOM     81  C   UNL     1       9.028  -5.704   9.348  1.00  0.00     0.112 A 
ATOM     82  C   UNL     1       8.084  -6.430   8.644  1.00  0.00     0.020 A 
ENDBRANCH  73  77
ENDBRANCH  68  71
ENDBRANCH  66  67
ENDBRANCH  65  66
ENDBRANCH  64  65
ENDBRANCH   1  64
TORSDOF 14
