REMARK SMILES Cc1ccc(Nc2c(F)cccc2I)c(CC(=O)NCCCCCCNC(=O)c2ccc(-c3c4nc(c(-c5c(F)cccc5F)c5ccc([nH]5)c(-c5c(F)cccc5F)c5nc(c(-c6c(F)cccc6F)c6ccc3[nH]6)C=C5)C=C4)cc2)c1
REMARK SMILES IDX 22 1 21 2 20 3 19 4 17 5 18 6 16 8 15 9 1 10 2 11 3 12 83 13
REMARK SMILES IDX 4 14 5 15 6 16 7 18 8 19 13 20 9 21 10 22 12 23 14 24 11 25
REMARK SMILES IDX 23 26 24 27 25 28 26 29 27 30 28 32 29 33 30 34 82 35 31 36
REMARK SMILES IDX 81 37 32 38 33 39 34 40 75 41 35 42 80 43 74 44 76 45 36 46
REMARK SMILES IDX 79 47 73 48 72 49 37 51 63 52 46 53 62 54 47 55 50 56 61 57
REMARK SMILES IDX 77 58 48 59 49 60 60 62 78 63 51 64 38 65 39 66 44 67 40 68
REMARK SMILES IDX 41 69 43 70 45 71 42 72 64 73 65 74 70 75 66 76 67 77 69 78
REMARK SMILES IDX 71 79 68 80 52 81 53 82 58 83 54 84 55 85 57 86 59 87 56 88
REMARK H PARENT 19 7 6 17 26 31 76 50 50 61
REMARK Flexibility Score: inf
ROOT
ATOM      1  C   UNL     1      -1.197   1.526  -4.868  1.00  0.00     0.002 C 
ENDROOT
BRANCH   1   2
ATOM      2  C   UNL     1      -0.544   1.539  -3.477  1.00  0.00     0.021 C 
BRANCH   2   3
ATOM      3  C   UNL     1      -0.789   2.806  -2.652  1.00  0.00     0.116 C 
BRANCH   3   4
ATOM      4  N   UNL     1      -2.166   2.919  -2.222  1.00  0.00    -0.356 N 
ATOM      5  C   UNL     1      -2.693   2.717  -0.983  1.00  0.00     0.224 C 
ATOM      6  O   UNL     1      -3.919   2.763  -0.853  1.00  0.00    -0.275 OA
ATOM      7  H   UNL     1      -2.809   3.176  -2.921  1.00  0.00     0.163 HD
BRANCH   5   8
ATOM      8  C   UNL     1      -1.802   2.431   0.209  1.00  0.00     0.137 C 
BRANCH   8   9
ATOM      9  C   UNL     1      -1.099   1.091   0.160  1.00  0.00    -0.015 A 
ATOM     10  C   UNL     1       2.552  -0.062   0.226  1.00  0.00     0.044 C 
ATOM     11  C   UNL     1       1.054  -0.084   0.179  1.00  0.00    -0.051 A 
ATOM     12  C   UNL     1       0.373  -1.290   0.035  1.00  0.00     0.005 A 
ATOM     13  C   UNL     1       0.310   1.093   0.274  1.00  0.00     0.009 A 
ATOM     14  C   UNL     1      -1.024  -1.310  -0.036  1.00  0.00     0.026 A 
ATOM     15  C   UNL     1      -1.787  -0.132   0.004  1.00  0.00     0.042 A 
BRANCH  15  16
ATOM     16  N   UNL     1      -3.194  -0.175  -0.081  1.00  0.00    -0.352 N 
ATOM     17  H   UNL     1      -3.630   0.701  -0.189  1.00  0.00     0.167 HD
BRANCH  16  18
ATOM     18  C   UNL     1      -4.078  -1.277  -0.037  1.00  0.00     0.088 A 
ATOM     19  C   UNL     1      -4.027  -2.224   0.999  1.00  0.00     0.147 A 
ATOM     20  C   UNL     1      -5.014  -1.499  -1.066  1.00  0.00     0.040 A 
ATOM     21  F   UNL     1      -3.171  -2.067   2.021  1.00  0.00    -0.205 F 
ATOM     22  C   UNL     1      -4.873  -3.334   1.026  1.00  0.00     0.041 A 
ATOM     23  C   UNL     1      -5.863  -2.615  -1.047  1.00  0.00     0.017 A 
ATOM     24  I   UNL     1      -5.161  -0.219  -2.729  1.00  0.00    -0.042 I 
ATOM     25  C   UNL     1      -5.792  -3.531   0.001  1.00  0.00     0.004 A 
ENDBRANCH  16  18
ENDBRANCH  15  16
ENDBRANCH   8   9
ENDBRANCH   5   8
ENDBRANCH   3   4
ENDBRANCH   2   3
ENDBRANCH   1   2
BRANCH   1  26
ATOM     26  C   UNL     1      -0.960   2.761  -5.750  1.00  0.00     0.002 C 
BRANCH  26  27
ATOM     27  C   UNL     1       0.491   3.233  -5.866  1.00  0.00     0.021 C 
BRANCH  27  28
ATOM     28  C   UNL     1       1.389   2.318  -6.686  1.00  0.00     0.116 C 
BRANCH  28  29
ATOM     29  N   UNL     1       1.477   2.689  -8.091  1.00  0.00    -0.352 N 
ATOM     30  C   UNL     1       2.182   2.107  -9.132  1.00  0.00     0.251 C 
ATOM     31  H   UNL     1       0.951   3.482  -8.342  1.00  0.00     0.163 HD
ATOM     32  O   UNL     1       2.171   2.632 -10.232  1.00  0.00    -0.269 OA
BRANCH  30  33
ATOM     33  C   UNL     1       2.805   0.766  -8.958  1.00  0.00     0.039 A 
ATOM     34  C   UNL     1       2.658  -0.143 -10.015  1.00  0.00     0.014 A 
ATOM     35  C   UNL     1       3.295   0.327  -7.734  1.00  0.00     0.014 A 
ATOM     36  C   UNL     1       2.705  -1.509  -9.755  1.00  0.00     0.010 A 
ATOM     37  C   UNL     1       3.248  -1.022  -7.447  1.00  0.00     0.010 A 
ATOM     38  C   UNL     1       2.856  -1.927  -8.438  1.00  0.00    -0.014 A 
BRANCH  38  39
ATOM     39  C   UNL     1       2.433  -3.236  -7.958  1.00  0.00     0.031 A 
ATOM     40  C   UNL     1       3.418  -4.231  -7.500  1.00  0.00     0.074 A 
ATOM     41  C   UNL     1       1.108  -3.453  -7.785  1.00  0.00     0.049 A 
ATOM     42  N   UNL     1       3.120  -5.450  -7.207  1.00  0.00    -0.248 NA
ATOM     43  C   UNL     1       4.849  -3.952  -7.402  1.00  0.00     0.031 C 
ATOM     44  C   UNL     1       0.464  -4.495  -6.990  1.00  0.00     0.029 A 
ATOM     45  N   UNL     1       0.055  -2.877  -8.514  1.00  0.00    -0.354 N 
ATOM     46  C   UNL     1       4.217  -6.014  -6.609  1.00  0.00     0.074 A 
ATOM     47  C   UNL     1       5.297  -5.100  -6.882  1.00  0.00     0.031 C 
ATOM     48  C   UNL     1      -0.774  -4.698  -7.466  1.00  0.00     0.029 A 
ATOM     49  C   UNL     1      -0.898  -3.910  -8.680  1.00  0.00     0.049 A 
ATOM     50  H   UNL     1      -0.008  -1.950  -8.840  1.00  0.00     0.167 HD
ATOM     51  C   UNL     1       4.039  -7.126  -5.845  1.00  0.00     0.037 A 
ATOM     52  C   UNL     1      -1.151  -4.423  -9.920  1.00  0.00     0.037 A 
ATOM     53  C   UNL     1       2.745  -7.752  -6.130  1.00  0.00     0.049 A 
ATOM     54  C   UNL     1      -0.800  -5.890 -10.087  1.00  0.00     0.074 A 
ATOM     55  C   UNL     1       1.531  -7.862  -5.475  1.00  0.00     0.029 A 
ATOM     56  N   UNL     1       2.521  -8.198  -7.422  1.00  0.00    -0.354 N 
ATOM     57  N   UNL     1      -0.249  -6.629  -9.164  1.00  0.00    -0.248 NA
ATOM     58  C   UNL     1      -0.963  -6.612 -11.351  1.00  0.00     0.031 C 
ATOM     59  C   UNL     1       0.556  -8.288  -6.433  1.00  0.00     0.029 A 
ATOM     60  C   UNL     1       1.189  -8.471  -7.650  1.00  0.00     0.049 A 
ATOM     61  H   UNL     1       3.229  -8.307  -8.098  1.00  0.00     0.167 HD
ATOM     62  C   UNL     1       0.080  -7.846  -9.695  1.00  0.00     0.074 A 
ATOM     63  C   UNL     1      -0.401  -7.798 -11.063  1.00  0.00     0.031 C 
ATOM     64  C   UNL     1       0.769  -8.798  -9.003  1.00  0.00     0.037 A 
BRANCH  51  65
ATOM     65  C   UNL     1       4.972  -7.592  -4.749  1.00  0.00     0.057 A 
ATOM     66  C   UNL     1       4.697  -8.783  -4.046  1.00  0.00     0.134 A 
ATOM     67  C   UNL     1       6.073  -6.869  -4.244  1.00  0.00     0.134 A 
ATOM     68  F   UNL     1       3.671  -9.575  -4.388  1.00  0.00    -0.206 F 
ATOM     69  C   UNL     1       5.446  -9.207  -2.938  1.00  0.00     0.040 A 
ATOM     70  C   UNL     1       6.859  -7.308  -3.171  1.00  0.00     0.040 A 
ATOM     71  F   UNL     1       6.420  -5.664  -4.708  1.00  0.00    -0.206 F 
ATOM     72  C   UNL     1       6.540  -8.476  -2.502  1.00  0.00     0.006 A 
ENDBRANCH  51  65
BRANCH  52  73
ATOM     73  C   UNL     1      -1.060  -3.398 -10.994  1.00  0.00     0.057 A 
ATOM     74  C   UNL     1      -1.950  -2.309 -10.963  1.00  0.00     0.134 A 
ATOM     75  C   UNL     1       0.077  -3.268 -11.795  1.00  0.00     0.134 A 
ATOM     76  F   UNL     1      -3.064  -2.370 -10.215  1.00  0.00    -0.206 F 
ATOM     77  C   UNL     1      -1.662  -1.102 -11.601  1.00  0.00     0.040 A 
ATOM     78  C   UNL     1       0.367  -2.068 -12.456  1.00  0.00     0.040 A 
ATOM     79  F   UNL     1       0.986  -4.252 -11.858  1.00  0.00    -0.206 F 
ATOM     80  C   UNL     1      -0.481  -0.969 -12.325  1.00  0.00     0.006 A 
ENDBRANCH  52  73
BRANCH  64  81
ATOM     81  C   UNL     1       1.114 -10.126  -9.601  1.00  0.00     0.057 A 
ATOM     82  C   UNL     1       0.142 -10.950 -10.181  1.00  0.00     0.134 A 
ATOM     83  C   UNL     1       2.409 -10.666  -9.505  1.00  0.00     0.134 A 
ATOM     84  F   UNL     1      -1.129 -10.536 -10.297  1.00  0.00    -0.206 F 
ATOM     85  C   UNL     1       0.441 -12.234 -10.649  1.00  0.00     0.040 A 
ATOM     86  C   UNL     1       2.711 -11.962  -9.929  1.00  0.00     0.040 A 
ATOM     87  F   UNL     1       3.431  -9.947  -9.016  1.00  0.00    -0.206 F 
ATOM     88  C   UNL     1       1.726 -12.750 -10.508  1.00  0.00     0.006 A 
ENDBRANCH  64  81
ENDBRANCH  38  39
ENDBRANCH  30  33
ENDBRANCH  28  29
ENDBRANCH  27  28
ENDBRANCH  26  27
ENDBRANCH   1  26
TORSDOF 16
