REMARK SMILES COc1cccc(C(=O)N2[C@@H](C(=O)NCCCCCCNC(=O)c3ccc(-c4c5nc(c(-c6c(F)cccc6F)c6ccc([nH]6)c(-c6c(F)cccc6F)c6nc(c(-c7c(F)cccc7F)c7ccc4[nH]7)C=C6)C=C5)cc3)CS[C@@H]2c2ccccc2Cl)c1
REMARK SMILES IDX 17 1 16 2 15 3 14 4 12 5 13 6 11 8 10 9 80 10 78 11 79 12
REMARK SMILES IDX 8 13 9 14 7 15 3 16 4 17 88 18 5 19 6 20 2 21 1 22 81 23
REMARK SMILES IDX 82 24 86 25 83 26 85 27 87 28 84 29 18 30 19 31 20 32 21 33
REMARK SMILES IDX 22 34 23 36 24 37 25 38 77 39 26 40 76 41 27 42 28 43 29 44
REMARK SMILES IDX 70 45 30 46 75 47 69 48 71 49 31 50 74 51 68 52 67 53 32 55
REMARK SMILES IDX 58 56 41 57 57 58 42 59 45 60 56 61 72 62 43 63 44 64 55 66
REMARK SMILES IDX 73 67 46 68 33 69 34 70 39 71 35 72 36 73 38 74 40 75 37 76
REMARK SMILES IDX 59 77 60 78 65 79 61 80 62 81 64 82 66 83 63 84 47 85 48 86
REMARK SMILES IDX 53 87 49 88 50 89 52 90 54 91 51 92
REMARK H PARENT 14 7 21 35 71 54 45 65
REMARK Flexibility Score: inf
ROOT
ATOM      1  C   UNL     1       3.338  -7.081   4.443  1.00  0.00     0.002 C 
ENDROOT
BRANCH   1   2
ATOM      2  C   UNL     1       4.119  -5.769   4.523  1.00  0.00     0.021 C 
BRANCH   2   3
ATOM      3  C   UNL     1       5.165  -5.579   3.425  1.00  0.00     0.116 C 
BRANCH   3   4
ATOM      4  N   UNL     1       4.543  -5.232   2.155  1.00  0.00    -0.354 N 
ATOM      5  C   UNL     1       4.646  -4.081   1.423  1.00  0.00     0.243 C 
ATOM      6  O   UNL     1       3.863  -3.921   0.483  1.00  0.00    -0.273 OA
ATOM      7  H   UNL     1       3.964  -5.927   1.767  1.00  0.00     0.163 HD
BRANCH   5   8
ATOM      8  C   UNL     1       5.671  -3.004   1.831  1.00  0.00     0.186 C 
ATOM      9  N   UNL     1       5.033  -1.887   2.550  1.00  0.00    -0.310 N 
ATOM     10  C   UNL     1       5.527  -0.568   2.210  1.00  0.00     0.176 C 
ATOM     11  C   UNL     1       6.331  -2.453   0.554  1.00  0.00     0.107 C 
ATOM     12  S   UNL     1       5.779  -0.735   0.397  1.00  0.00    -0.129 SA
BRANCH   9  13
ATOM     13  C   UNL     1       4.189  -2.109   3.618  1.00  0.00     0.255 C 
ATOM     14  O   UNL     1       4.512  -2.794   4.585  1.00  0.00    -0.269 OA
BRANCH  13  15
ATOM     15  C   UNL     1       2.764  -1.655   3.502  1.00  0.00     0.043 A 
ATOM     16  C   UNL     1       0.857  -0.822   2.242  1.00  0.00     0.119 A 
ATOM     17  C   UNL     1       0.039  -1.030   3.355  1.00  0.00     0.046 A 
ATOM     18  C   UNL     1       2.215  -1.153   2.310  1.00  0.00     0.060 A 
ATOM     19  C   UNL     1       0.563  -1.560   4.531  1.00  0.00     0.005 A 
ATOM     20  C   UNL     1       1.922  -1.865   4.606  1.00  0.00     0.014 A 
BRANCH  16  21
ATOM     21  O   UNL     1       0.207  -0.302   1.156  1.00  0.00    -0.497 OA
ATOM     22  C   UNL     1       0.965  -0.131  -0.035  1.00  0.00     0.278 C 
ENDBRANCH  16  21
ENDBRANCH  13  15
ENDBRANCH   9  13
BRANCH  10  23
ATOM     23  C   UNL     1       6.814  -0.029   2.857  1.00  0.00     0.003 A 
ATOM     24  C   UNL     1       7.193   1.276   2.433  1.00  0.00     0.008 A 
ATOM     25  C   UNL     1       7.679  -0.644   3.783  1.00  0.00     0.047 A 
ATOM     26  C   UNL     1       8.377   1.896   2.845  1.00  0.00     0.001 A 
ATOM     27  C   UNL     1       8.868  -0.010   4.198  1.00  0.00     0.021 A 
ATOM     28  Cl  UNL     1       7.450  -2.180   4.522  1.00  0.00    -0.084 Cl
ATOM     29  C   UNL     1       9.224   1.246   3.724  1.00  0.00     0.002 A 
ENDBRANCH  10  23
ENDBRANCH   5   8
ENDBRANCH   3   4
ENDBRANCH   2   3
ENDBRANCH   1   2
BRANCH   1  30
ATOM     30  C   UNL     1       4.172  -8.351   4.613  1.00  0.00     0.002 C 
BRANCH  30  31
ATOM     31  C   UNL     1       5.046  -8.408   5.869  1.00  0.00     0.021 C 
BRANCH  31  32
ATOM     32  C   UNL     1       4.323  -8.143   7.187  1.00  0.00     0.116 C 
BRANCH  32  33
ATOM     33  N   UNL     1       3.237  -9.079   7.430  1.00  0.00    -0.352 N 
ATOM     34  C   UNL     1       3.013  -9.905   8.502  1.00  0.00     0.251 C 
ATOM     35  H   UNL     1       2.560  -9.127   6.717  1.00  0.00     0.163 HD
ATOM     36  O   UNL     1       2.107 -10.735   8.464  1.00  0.00    -0.269 OA
BRANCH  34  37
ATOM     37  C   UNL     1       3.879  -9.823   9.696  1.00  0.00     0.039 A 
ATOM     38  C   UNL     1       4.400 -11.006  10.228  1.00  0.00     0.014 A 
ATOM     39  C   UNL     1       4.175  -8.593  10.290  1.00  0.00     0.014 A 
ATOM     40  C   UNL     1       5.281 -10.950  11.309  1.00  0.00     0.010 A 
ATOM     41  C   UNL     1       5.096  -8.533  11.333  1.00  0.00     0.010 A 
ATOM     42  C   UNL     1       5.665  -9.710  11.844  1.00  0.00    -0.014 A 
BRANCH  42  43
ATOM     43  C   UNL     1       6.691  -9.620  12.911  1.00  0.00     0.031 A 
ATOM     44  C   UNL     1       6.321  -9.144  14.285  1.00  0.00     0.074 A 
ATOM     45  C   UNL     1       7.976  -9.894  12.616  1.00  0.00     0.049 A 
ATOM     46  N   UNL     1       7.094  -8.917  15.316  1.00  0.00    -0.248 NA
ATOM     47  C   UNL     1       4.896  -8.867  14.525  1.00  0.00     0.031 C 
ATOM     48  C   UNL     1       8.468 -10.331  11.308  1.00  0.00     0.029 A 
ATOM     49  N   UNL     1       9.104  -9.831  13.393  1.00  0.00    -0.354 N 
ATOM     50  C   UNL     1       6.255  -8.457  16.322  1.00  0.00     0.074 A 
ATOM     51  C   UNL     1       4.919  -8.402  15.766  1.00  0.00     0.031 C 
ATOM     52  C   UNL     1       9.797 -10.512  11.379  1.00  0.00     0.029 A 
ATOM     53  C   UNL     1      10.253 -10.168  12.722  1.00  0.00     0.049 A 
ATOM     54  H   UNL     1       9.092  -9.569  14.342  1.00  0.00     0.167 HD
ATOM     55  C   UNL     1       6.568  -8.126  17.598  1.00  0.00     0.037 A 
ATOM     56  C   UNL     1      11.533 -10.185  13.137  1.00  0.00     0.037 A 
ATOM     57  C   UNL     1       7.892  -8.204  18.157  1.00  0.00     0.049 A 
ATOM     58  C   UNL     1      11.859  -9.783  14.545  1.00  0.00     0.074 A 
ATOM     59  C   UNL     1       8.293  -7.975  19.461  1.00  0.00     0.029 A 
ATOM     60  N   UNL     1       9.033  -8.527  17.438  1.00  0.00    -0.354 N 
ATOM     61  N   UNL     1      11.048  -9.410  15.505  1.00  0.00    -0.248 NA
ATOM     62  C   UNL     1      13.279  -9.793  14.925  1.00  0.00     0.031 C 
ATOM     63  C   UNL     1       9.684  -8.121  19.524  1.00  0.00     0.029 A 
ATOM     64  C   UNL     1      10.144  -8.472  18.265  1.00  0.00     0.049 A 
ATOM     65  H   UNL     1       9.051  -8.761  16.482  1.00  0.00     0.167 HD
ATOM     66  C   UNL     1      11.855  -9.151  16.604  1.00  0.00     0.074 A 
ATOM     67  C   UNL     1      13.219  -9.423  16.197  1.00  0.00     0.031 C 
ATOM     68  C   UNL     1      11.496  -8.727  17.840  1.00  0.00     0.037 A 
BRANCH  55  69
ATOM     69  C   UNL     1       5.450  -7.647  18.474  1.00  0.00     0.057 A 
ATOM     70  C   UNL     1       4.473  -8.521  18.966  1.00  0.00     0.134 A 
ATOM     71  C   UNL     1       5.359  -6.299  18.843  1.00  0.00     0.134 A 
ATOM     72  F   UNL     1       4.499  -9.822  18.640  1.00  0.00    -0.206 F 
ATOM     73  C   UNL     1       3.428  -8.067  19.773  1.00  0.00     0.040 A 
ATOM     74  C   UNL     1       4.331  -5.837  19.666  1.00  0.00     0.040 A 
ATOM     75  F   UNL     1       6.266  -5.411  18.408  1.00  0.00    -0.206 F 
ATOM     76  C   UNL     1       3.358  -6.721  20.128  1.00  0.00     0.006 A 
ENDBRANCH  55  69
BRANCH  56  77
ATOM     77  C   UNL     1      12.602 -10.611  12.203  1.00  0.00     0.057 A 
ATOM     78  C   UNL     1      13.211 -11.864  12.335  1.00  0.00     0.134 A 
ATOM     79  C   UNL     1      13.025  -9.792  11.150  1.00  0.00     0.134 A 
ATOM     80  F   UNL     1      12.858 -12.682  13.337  1.00  0.00    -0.206 F 
ATOM     81  C   UNL     1      14.207 -12.287  11.456  1.00  0.00     0.040 A 
ATOM     82  C   UNL     1      14.009 -10.209  10.252  1.00  0.00     0.040 A 
ATOM     83  F   UNL     1      12.475  -8.582  10.970  1.00  0.00    -0.206 F 
ATOM     84  C   UNL     1      14.604 -11.460  10.406  1.00  0.00     0.006 A 
ENDBRANCH  56  77
BRANCH  68  85
ATOM     85  C   UNL     1      12.597  -8.530  18.837  1.00  0.00     0.057 A 
ATOM     86  C   UNL     1      13.441  -7.414  18.782  1.00  0.00     0.134 A 
ATOM     87  C   UNL     1      12.795  -9.444  19.878  1.00  0.00     0.134 A 
ATOM     88  F   UNL     1      13.311  -6.511  17.797  1.00  0.00    -0.206 F 
ATOM     89  C   UNL     1      14.455  -7.222  19.721  1.00  0.00     0.040 A 
ATOM     90  C   UNL     1      13.793  -9.253  20.834  1.00  0.00     0.040 A 
ATOM     91  F   UNL     1      12.017 -10.531  19.988  1.00  0.00    -0.206 F 
ATOM     92  C   UNL     1      14.629  -8.140  20.755  1.00  0.00     0.006 A 
ENDBRANCH  68  85
ENDBRANCH  42  43
ENDBRANCH  34  37
ENDBRANCH  32  33
ENDBRANCH  31  32
ENDBRANCH  30  31
ENDBRANCH   1  30
TORSDOF 17
