REMARK SMILES O=C(NCCCCCCNC(=O)[C@]1(NC(=O)C2CCN(C(=O)C3CC3)CC2)CCCc2ccccc21)c1ccc(-c2c3nc(c(-c4c(F)cccc4F)c4ccc([nH]4)c(-c4c(F)cccc4F)c4nc(c(-c5c(F)cccc5F)c5ccc2[nH]5)C=C4)C=C3)cc1
REMARK SMILES IDX 7 1 6 2 5 3 4 4 3 5 1 6 2 7 37 9 38 10 90 11 39 12 89 13
REMARK SMILES IDX 40 14 41 15 42 16 83 17 43 18 88 19 82 20 84 21 44 22 87 23
REMARK SMILES IDX 81 24 80 25 45 27 71 28 54 29 70 30 55 31 58 32 69 33 85 34
REMARK SMILES IDX 56 35 57 36 68 38 86 39 59 40 46 41 47 42 52 43 48 44 49 45
REMARK SMILES IDX 51 46 53 47 50 48 72 49 73 50 78 51 74 52 75 53 77 54 79 55
REMARK SMILES IDX 76 56 60 57 61 58 66 59 62 60 63 61 65 62 67 63 64 64 8 65
REMARK SMILES IDX 9 66 10 67 11 68 12 70 13 71 28 72 36 73 29 74 31 75 35 76
REMARK SMILES IDX 30 77 32 78 34 79 33 80 14 81 15 82 16 84 17 85 18 86 27 87
REMARK SMILES IDX 19 88 26 89 20 90 21 91 22 92 23 93 24 94 25 95
REMARK H PARENT 3 8 84 26 58 37 10 69 14 83
REMARK Flexibility Score: inf
ROOT
ATOM      1  C   UNL     1       4.086  -1.502   4.537  1.00  0.00     0.002 C 
ENDROOT
BRANCH   1   2
ATOM      2  C   UNL     1       4.298   0.282   4.180  1.00  0.00     0.002 C 
BRANCH   2   3
ATOM      3  C   UNL     1       4.326   1.449   2.677  1.00  0.00     0.021 C 
BRANCH   3   4
ATOM      4  C   UNL     1       4.506   1.192   0.837  1.00  0.00     0.116 C 
BRANCH   4   5
ATOM      5  N   UNL     1       3.750   0.065   0.045  1.00  0.00    -0.352 N 
ATOM      6  O   UNL     1       1.749  -0.760  -0.822  1.00  0.00    -0.269 OA
ATOM      7  C   UNL     1       2.683   0.045  -0.822  1.00  0.00     0.251 C 
ATOM      8  H   UNL     1       4.126  -0.830   0.207  1.00  0.00     0.163 HD
BRANCH   7   9
ATOM      9  C   UNL     1       2.988   0.737  -2.023  1.00  0.00     0.039 A 
ATOM     10  C   UNL     1       4.125   0.182  -2.615  1.00  0.00     0.014 A 
ATOM     11  C   UNL     1       2.412   1.958  -2.336  1.00  0.00     0.014 A 
ATOM     12  C   UNL     1       4.859   0.986  -3.413  1.00  0.00     0.010 A 
ATOM     13  C   UNL     1       3.070   2.696  -3.288  1.00  0.00     0.010 A 
ATOM     14  C   UNL     1       4.290   2.205  -3.792  1.00  0.00    -0.014 A 
BRANCH  14  15
ATOM     15  C   UNL     1       4.955   2.888  -4.879  1.00  0.00     0.031 A 
ATOM     16  C   UNL     1       5.624   4.176  -4.619  1.00  0.00     0.074 A 
ATOM     17  C   UNL     1       4.906   2.247  -6.056  1.00  0.00     0.049 A 
ATOM     18  N   UNL     1       6.168   4.982  -5.479  1.00  0.00    -0.248 NA
ATOM     19  C   UNL     1       5.663   4.642  -3.221  1.00  0.00     0.031 C 
ATOM     20  C   UNL     1       4.251   0.947  -6.285  1.00  0.00     0.029 A 
ATOM     21  N   UNL     1       5.408   2.585  -7.269  1.00  0.00    -0.354 N 
ATOM     22  C   UNL     1       6.579   6.076  -4.742  1.00  0.00     0.074 A 
ATOM     23  C   UNL     1       6.210   5.840  -3.363  1.00  0.00     0.031 C 
ATOM     24  C   UNL     1       4.415   0.590  -7.560  1.00  0.00     0.029 A 
ATOM     25  C   UNL     1       5.074   1.685  -8.246  1.00  0.00     0.049 A 
ATOM     26  H   UNL     1       5.953   3.388  -7.430  1.00  0.00     0.167 HD
ATOM     27  C   UNL     1       7.195   7.178  -5.220  1.00  0.00     0.037 A 
ATOM     28  C   UNL     1       5.220   1.788  -9.572  1.00  0.00     0.037 A 
ATOM     29  C   UNL     1       7.499   7.331  -6.619  1.00  0.00     0.049 A 
ATOM     30  C   UNL     1       5.868   3.034 -10.073  1.00  0.00     0.074 A 
ATOM     31  C   UNL     1       8.139   8.374  -7.256  1.00  0.00     0.029 A 
ATOM     32  N   UNL     1       7.159   6.402  -7.603  1.00  0.00    -0.354 N 
ATOM     33  N   UNL     1       6.280   4.074  -9.384  1.00  0.00    -0.248 NA
ATOM     34  C   UNL     1       6.074   3.132 -11.515  1.00  0.00     0.031 C 
ATOM     35  C   UNL     1       8.126   8.107  -8.629  1.00  0.00     0.029 A 
ATOM     36  C   UNL     1       7.548   6.862  -8.847  1.00  0.00     0.049 A 
ATOM     37  H   UNL     1       6.708   5.543  -7.436  1.00  0.00     0.167 HD
ATOM     38  C   UNL     1       6.819   4.951 -10.306  1.00  0.00     0.074 A 
ATOM     39  C   UNL     1       6.681   4.308 -11.604  1.00  0.00     0.031 C 
ATOM     40  C   UNL     1       7.382   6.168 -10.105  1.00  0.00     0.037 A 
BRANCH  27  41
ATOM     41  C   UNL     1       7.483   8.279  -4.247  1.00  0.00     0.057 A 
ATOM     42  C   UNL     1       8.387   8.128  -3.185  1.00  0.00     0.134 A 
ATOM     43  C   UNL     1       6.807   9.501  -4.344  1.00  0.00     0.134 A 
ATOM     44  F   UNL     1       9.051   6.975  -3.014  1.00  0.00    -0.206 F 
ATOM     45  C   UNL     1       8.576   9.135  -2.236  1.00  0.00     0.040 A 
ATOM     46  C   UNL     1       7.012  10.528  -3.421  1.00  0.00     0.040 A 
ATOM     47  F   UNL     1       5.920   9.714  -5.328  1.00  0.00    -0.206 F 
ATOM     48  C   UNL     1       7.889  10.341  -2.355  1.00  0.00     0.006 A 
ENDBRANCH  27  41
BRANCH  28  49
ATOM     49  C   UNL     1       4.708   0.703 -10.436  1.00  0.00     0.057 A 
ATOM     50  C   UNL     1       5.582  -0.175 -11.079  1.00  0.00     0.134 A 
ATOM     51  C   UNL     1       3.333   0.438 -10.530  1.00  0.00     0.134 A 
ATOM     52  F   UNL     1       6.907   0.018 -11.005  1.00  0.00    -0.206 F 
ATOM     53  C   UNL     1       5.110  -1.275 -11.796  1.00  0.00     0.040 A 
ATOM     54  C   UNL     1       2.849  -0.674 -11.220  1.00  0.00     0.040 A 
ATOM     55  F   UNL     1       2.446   1.219  -9.896  1.00  0.00    -0.206 F 
ATOM     56  C   UNL     1       3.740  -1.531 -11.860  1.00  0.00     0.006 A 
ENDBRANCH  28  49
BRANCH  40  57
ATOM     57  C   UNL     1       7.926   6.849 -11.320  1.00  0.00     0.057 A 
ATOM     58  C   UNL     1       7.090   7.431 -12.278  1.00  0.00     0.134 A 
ATOM     59  C   UNL     1       9.310   6.984 -11.484  1.00  0.00     0.134 A 
ATOM     60  F   UNL     1       5.757   7.314 -12.182  1.00  0.00    -0.206 F 
ATOM     61  C   UNL     1       7.616   8.122 -13.368  1.00  0.00     0.040 A 
ATOM     62  C   UNL     1       9.846   7.700 -12.550  1.00  0.00     0.040 A 
ATOM     63  F   UNL     1      10.158   6.449 -10.591  1.00  0.00    -0.206 F 
ATOM     64  C   UNL     1       8.997   8.269 -13.497  1.00  0.00     0.006 A 
ENDBRANCH  40  57
ENDBRANCH  14  15
ENDBRANCH   7   9
ENDBRANCH   4   5
ENDBRANCH   3   4
ENDBRANCH   2   3
ENDBRANCH   1   2
BRANCH   1  65
ATOM     65  C   UNL     1       4.855  -3.021   4.257  1.00  0.00     0.021 C 
BRANCH  65  66
ATOM     66  C   UNL     1       6.211  -3.742   4.812  1.00  0.00     0.116 C 
BRANCH  66  67
ATOM     67  N   UNL     1       6.549  -3.495   6.224  1.00  0.00    -0.354 N 
ATOM     68  C   UNL     1       7.502  -2.934   7.033  1.00  0.00     0.250 C 
ATOM     69  H   UNL     1       5.834  -3.866   6.790  1.00  0.00     0.163 HD
ATOM     70  O   UNL     1       7.110  -2.960   8.218  1.00  0.00    -0.272 OA
BRANCH  68  71
ATOM     71  C   UNL     1       9.086  -2.471   6.755  1.00  0.00     0.145 C 
ATOM     72  C   UNL     1       9.845  -3.839   6.580  1.00  0.00     0.044 C 
ATOM     73  C   UNL     1       9.631  -1.782   8.058  1.00  0.00    -0.010 A 
ATOM     74  C   UNL     1       9.901  -4.681   7.850  1.00  0.00     0.008 C 
ATOM     75  C   UNL     1      10.332  -2.494   9.057  1.00  0.00    -0.042 A 
ATOM     76  C   UNL     1       9.415  -0.406   8.284  1.00  0.00     0.007 A 
ATOM     77  C   UNL     1      10.672  -3.956   8.940  1.00  0.00     0.036 C 
ATOM     78  C   UNL     1      10.801  -1.823  10.207  1.00  0.00     0.004 A 
ATOM     79  C   UNL     1       9.885   0.246   9.427  1.00  0.00     0.000 A 
ATOM     80  C   UNL     1      10.578  -0.463  10.392  1.00  0.00     0.000 A 
BRANCH  71  81
ATOM     81  N   UNL     1       9.619  -1.646   5.586  1.00  0.00    -0.338 N 
ATOM     82  C   UNL     1       9.267  -0.438   5.024  1.00  0.00     0.224 C 
ATOM     83  H   UNL     1      10.382  -2.072   5.133  1.00  0.00     0.164 HD
ATOM     84  O   UNL     1      10.103   0.213   4.404  1.00  0.00    -0.275 OA
BRANCH  82  85
ATOM     85  C   UNL     1       7.808  -0.045   5.044  1.00  0.00     0.082 C 
ATOM     86  C   UNL     1       7.133  -1.227   4.424  1.00  0.00     0.035 C 
ATOM     87  C   UNL     1       7.379   1.240   4.336  1.00  0.00     0.035 C 
ATOM     88  C   UNL     1       6.975  -1.349   2.912  1.00  0.00     0.120 C 
ATOM     89  C   UNL     1       6.951   1.003   2.840  1.00  0.00     0.120 C 
ATOM     90  N   UNL     1       6.071  -0.312   2.533  1.00  0.00    -0.342 N 
ATOM     91  C   UNL     1       4.594  -0.897   2.122  1.00  0.00     0.225 C 
ATOM     92  O   UNL     1       4.685  -1.949   1.459  1.00  0.00    -0.275 OA
BRANCH  91  93
ATOM     93  C   UNL     1       2.787  -0.460   2.249  1.00  0.00     0.079 C 
ATOM     94  C   UNL     1       1.829   0.461   3.096  1.00  0.00     0.014 C 
ATOM     95  C   UNL     1       1.907   0.745   1.657  1.00  0.00     0.014 C 
ENDBRANCH  91  93
ENDBRANCH  82  85
ENDBRANCH  71  81
ENDBRANCH  68  71
ENDBRANCH  66  67
ENDBRANCH  65  66
ENDBRANCH   1  65
TORSDOF 16
