REMARK SMILES CC(C)Oc1ccc(-c2ccc(/C(=C\c3ccc(S(C)(=O)=O)cc3)C(=O)NCCCCCCNC(=O)c3ccc(-c4c5nc(c(-c6c(F)cccc6F)c6ccc([nH]6)c(-c6c(F)cccc6F)c6nc(c(-c7c(F)cccc7F)c7ccc4[nH]7)C=C6)C=C5)cc3)cc2)cc1
REMARK SMILES IDX 29 1 28 2 27 3 25 4 26 5 13 7 14 8 12 9 9 10 10 11 92 12
REMARK SMILES IDX 11 13 91 14 8 15 5 16 6 17 94 18 7 19 93 20 4 21 2 22 1 23
REMARK SMILES IDX 3 24 15 25 16 26 24 27 17 28 23 29 18 30 19 31 20 32 21 33
REMARK SMILES IDX 22 34 30 35 31 36 32 37 33 38 34 39 35 40 36 42 37 43 38 44
REMARK SMILES IDX 90 45 39 46 89 47 40 48 41 49 42 50 83 51 43 52 88 53 82 54
REMARK SMILES IDX 84 55 44 56 87 57 81 58 80 59 45 61 71 62 54 63 70 64 55 65
REMARK SMILES IDX 58 66 69 67 85 68 56 69 57 70 68 72 86 73 59 74 46 75 47 76
REMARK SMILES IDX 52 77 48 78 49 79 51 80 53 81 50 82 72 83 73 84 78 85 74 86
REMARK SMILES IDX 75 87 77 88 79 89 76 90 60 91 61 92 66 93 62 94 63 95 65 96
REMARK SMILES IDX 67 97 64 98
REMARK H PARENT 27 6 34 41 84 60 58 71
REMARK Flexibility Score: inf
ROOT
ATOM      1  C   UNL     1      -7.909  -8.983   6.522  1.00  0.00     0.021 C 
ENDROOT
BRANCH   1   2
ATOM      2  C   UNL     1      -8.595  -7.965   5.607  1.00  0.00     0.116 C 
BRANCH   2   3
ATOM      3  N   UNL     1      -7.985  -6.665   5.776  1.00  0.00    -0.352 N 
ATOM      4  C   UNL     1      -7.083  -5.920   5.091  1.00  0.00     0.251 C 
ATOM      5  O   UNL     1      -6.841  -4.833   5.624  1.00  0.00    -0.269 OA
ATOM      6  H   UNL     1      -8.303  -6.209   6.589  1.00  0.00     0.163 HD
BRANCH   4   7
ATOM      7  C   UNL     1      -6.456  -6.310   3.754  1.00  0.00     0.047 C 
ATOM      8  C   UNL     1      -6.398  -7.613   3.385  1.00  0.00     0.022 C 
BRANCH   7   9
ATOM      9  C   UNL     1      -5.757  -5.244   2.947  1.00  0.00    -0.013 A 
ATOM     10  C   UNL     1      -4.086  -3.415   1.480  1.00  0.00    -0.018 A 
ATOM     11  C   UNL     1      -4.895  -4.357   0.831  1.00  0.00     0.009 A 
ATOM     12  C   UNL     1      -4.200  -3.353   2.873  1.00  0.00     0.009 A 
ATOM     13  C   UNL     1      -5.753  -5.210   1.546  1.00  0.00     0.009 A 
ATOM     14  C   UNL     1      -4.981  -4.269   3.588  1.00  0.00     0.009 A 
BRANCH  10  15
ATOM     15  C   UNL     1      -3.152  -2.527   0.747  1.00  0.00    -0.018 A 
ATOM     16  C   UNL     1      -1.391  -0.749  -0.593  1.00  0.00     0.119 A 
ATOM     17  C   UNL     1      -2.533  -1.228  -1.230  1.00  0.00     0.047 A 
ATOM     18  C   UNL     1      -1.125  -1.146   0.709  1.00  0.00     0.047 A 
ATOM     19  C   UNL     1      -3.401  -2.107  -0.569  1.00  0.00     0.012 A 
ATOM     20  C   UNL     1      -1.980  -2.043   1.358  1.00  0.00     0.012 A 
BRANCH  16  21
ATOM     21  O   UNL     1      -0.674   0.200  -1.259  1.00  0.00    -0.491 OA
BRANCH  21  22
ATOM     22  C   UNL     1       0.737   0.012  -1.444  1.00  0.00     0.167 C 
ATOM     23  C   UNL     1       1.569   0.311  -0.200  1.00  0.00     0.052 C 
ATOM     24  C   UNL     1       1.098  -1.320  -2.095  1.00  0.00     0.052 C 
ENDBRANCH  21  22
ENDBRANCH  16  21
ENDBRANCH  10  15
ENDBRANCH   7   9
BRANCH   8  25
ATOM     25  C   UNL     1      -5.986  -8.195   2.098  1.00  0.00    -0.025 A 
ATOM     26  C   UNL     1      -6.987  -8.617   1.204  1.00  0.00     0.009 A 
ATOM     27  C   UNL     1      -4.644  -8.266   1.714  1.00  0.00     0.009 A 
ATOM     28  C   UNL     1      -6.654  -9.057  -0.079  1.00  0.00     0.021 A 
ATOM     29  C   UNL     1      -4.304  -8.705   0.431  1.00  0.00     0.021 A 
ATOM     30  C   UNL     1      -5.311  -9.095  -0.459  1.00  0.00     0.067 A 
BRANCH  30  31
ATOM     31  S   UNL     1      -4.895  -9.550  -2.127  1.00  0.00     0.175 S 
ATOM     32  C   UNL     1      -5.042 -11.316  -2.129  1.00  0.00     0.163 C 
ATOM     33  O   UNL     1      -5.926  -9.006  -2.988  1.00  0.00    -0.224 OA
ATOM     34  O   UNL     1      -3.498  -9.219  -2.338  1.00  0.00    -0.224 OA
ENDBRANCH  30  31
ENDBRANCH   8  25
ENDBRANCH   4   7
ENDBRANCH   2   3
ENDBRANCH   1   2
BRANCH   1  35
ATOM     35  C   UNL     1      -8.301  -8.833   8.001  1.00  0.00     0.002 C 
BRANCH  35  36
ATOM     36  C   UNL     1      -9.807  -8.913   8.278  1.00  0.00     0.002 C 
BRANCH  36  37
ATOM     37  C   UNL     1     -10.499 -10.132   7.666  1.00  0.00     0.021 C 
BRANCH  37  38
ATOM     38  C   UNL     1      -9.980 -11.458   8.204  1.00  0.00     0.116 C 
BRANCH  38  39
ATOM     39  N   UNL     1     -10.321 -11.631   9.609  1.00  0.00    -0.352 N 
ATOM     40  C   UNL     1     -11.020 -12.655  10.195  1.00  0.00     0.251 C 
ATOM     41  H   UNL     1     -10.009 -10.921  10.216  1.00  0.00     0.163 HD
ATOM     42  O   UNL     1     -11.443 -12.558  11.341  1.00  0.00    -0.269 OA
BRANCH  40  43
ATOM     43  C   UNL     1     -11.266 -13.880   9.411  1.00  0.00     0.039 A 
ATOM     44  C   UNL     1     -12.557 -14.407   9.342  1.00  0.00     0.014 A 
ATOM     45  C   UNL     1     -10.213 -14.472   8.708  1.00  0.00     0.014 A 
ATOM     46  C   UNL     1     -12.806 -15.500   8.511  1.00  0.00     0.010 A 
ATOM     47  C   UNL     1     -10.479 -15.506   7.823  1.00  0.00     0.010 A 
ATOM     48  C   UNL     1     -11.776 -16.033   7.719  1.00  0.00    -0.014 A 
BRANCH  48  49
ATOM     49  C   UNL     1     -12.007 -17.155   6.778  1.00  0.00     0.031 A 
ATOM     50  C   UNL     1     -11.281 -18.454   6.985  1.00  0.00     0.074 A 
ATOM     51  C   UNL     1     -12.781 -16.974   5.692  1.00  0.00     0.049 A 
ATOM     52  N   UNL     1     -11.213 -19.500   6.202  1.00  0.00    -0.248 NA
ATOM     53  C   UNL     1     -10.498 -18.576   8.225  1.00  0.00     0.031 C 
ATOM     54  C   UNL     1     -13.520 -15.752   5.370  1.00  0.00     0.029 A 
ATOM     55  N   UNL     1     -13.058 -17.816   4.645  1.00  0.00    -0.354 N 
ATOM     56  C   UNL     1     -10.366 -20.394   6.845  1.00  0.00     0.074 A 
ATOM     57  C   UNL     1      -9.897 -19.742   8.049  1.00  0.00     0.031 C 
ATOM     58  C   UNL     1     -14.182 -15.931   4.216  1.00  0.00     0.029 A 
ATOM     59  C   UNL     1     -13.873 -17.258   3.691  1.00  0.00     0.049 A 
ATOM     60  H   UNL     1     -12.706 -18.733   4.584  1.00  0.00     0.167 HD
ATOM     61  C   UNL     1     -10.029 -21.652   6.478  1.00  0.00     0.037 A 
ATOM     62  C   UNL     1     -14.307 -17.755   2.518  1.00  0.00     0.037 A 
ATOM     63  C   UNL     1     -10.507 -22.296   5.283  1.00  0.00     0.049 A 
ATOM     64  C   UNL     1     -13.880 -19.137   2.105  1.00  0.00     0.074 A 
ATOM     65  C   UNL     1     -10.255 -23.580   4.834  1.00  0.00     0.029 A 
ATOM     66  N   UNL     1     -11.336 -21.698   4.344  1.00  0.00    -0.354 N 
ATOM     67  N   UNL     1     -13.111 -19.990   2.738  1.00  0.00    -0.248 NA
ATOM     68  C   UNL     1     -14.380 -19.625   0.812  1.00  0.00     0.031 C 
ATOM     69  C   UNL     1     -10.888 -23.741   3.597  1.00  0.00     0.029 A 
ATOM     70  C   UNL     1     -11.586 -22.580   3.305  1.00  0.00     0.049 A 
ATOM     71  H   UNL     1     -11.693 -20.783   4.406  1.00  0.00     0.167 HD
ATOM     72  C   UNL     1     -13.071 -21.130   1.945  1.00  0.00     0.074 A 
ATOM     73  C   UNL     1     -13.892 -20.857   0.783  1.00  0.00     0.031 C 
ATOM     74  C   UNL     1     -12.419 -22.298   2.163  1.00  0.00     0.037 A 
BRANCH  61  75
ATOM     75  C   UNL     1      -9.089 -22.401   7.380  1.00  0.00     0.057 A 
ATOM     76  C   UNL     1      -9.461 -22.803   8.671  1.00  0.00     0.134 A 
ATOM     77  C   UNL     1      -7.793 -22.723   6.956  1.00  0.00     0.134 A 
ATOM     78  F   UNL     1     -10.683 -22.516   9.146  1.00  0.00    -0.206 F 
ATOM     79  C   UNL     1      -8.568 -23.457   9.521  1.00  0.00     0.040 A 
ATOM     80  C   UNL     1      -6.902 -23.408   7.784  1.00  0.00     0.040 A 
ATOM     81  F   UNL     1      -7.370 -22.377   5.731  1.00  0.00    -0.206 F 
ATOM     82  C   UNL     1      -7.285 -23.765   9.075  1.00  0.00     0.006 A 
ENDBRANCH  61  75
BRANCH  62  83
ATOM     83  C   UNL     1     -15.220 -16.954   1.664  1.00  0.00     0.057 A 
ATOM     84  C   UNL     1     -16.559 -17.330   1.499  1.00  0.00     0.134 A 
ATOM     85  C   UNL     1     -14.788 -15.802   0.998  1.00  0.00     0.134 A 
ATOM     86  F   UNL     1     -17.027 -18.434   2.099  1.00  0.00    -0.206 F 
ATOM     87  C   UNL     1     -17.430 -16.600   0.690  1.00  0.00     0.040 A 
ATOM     88  C   UNL     1     -15.655 -15.047   0.206  1.00  0.00     0.040 A 
ATOM     89  F   UNL     1     -13.520 -15.382   1.121  1.00  0.00    -0.206 F 
ATOM     90  C   UNL     1     -16.979 -15.450   0.045  1.00  0.00     0.006 A 
ENDBRANCH  62  83
BRANCH  74  91
ATOM     91  C   UNL     1     -12.613 -23.396   1.156  1.00  0.00     0.057 A 
ATOM     92  C   UNL     1     -12.044 -23.346  -0.122  1.00  0.00     0.134 A 
ATOM     93  C   UNL     1     -13.337 -24.547   1.497  1.00  0.00     0.134 A 
ATOM     94  F   UNL     1     -11.350 -22.267  -0.516  1.00  0.00    -0.206 F 
ATOM     95  C   UNL     1     -12.204 -24.392  -1.032  1.00  0.00     0.040 A 
ATOM     96  C   UNL     1     -13.478 -25.611   0.607  1.00  0.00     0.040 A 
ATOM     97  F   UNL     1     -13.900 -24.663   2.709  1.00  0.00    -0.206 F 
ATOM     98  C   UNL     1     -12.915 -25.534  -0.664  1.00  0.00     0.006 A 
ENDBRANCH  74  91
ENDBRANCH  48  49
ENDBRANCH  40  43
ENDBRANCH  38  39
ENDBRANCH  37  38
ENDBRANCH  36  37
ENDBRANCH  35  36
ENDBRANCH   1  35
TORSDOF 19
