REMARK SMILES Cc1ccc(C(=O)NCCCCCCNC(=O)c2ccc(-c3c4nc(c(-c5c(F)cccc5F)c5ccc([nH]5)c(-c5c(F)cccc5F)c5nc(c(-c6c(F)cccc6F)c6ccc3[nH]6)C=C5)C=C4)cc2)c(Oc2cccc(F)c2C(N)=O)c1
REMARK SMILES IDX 11 1 10 2 9 3 8 4 6 5 7 6 5 8 1 9 2 10 3 11 84 12 4 13 72 14
REMARK SMILES IDX 73 15 74 16 75 17 80 18 76 19 78 20 77 21 79 22 81 23 82 24
REMARK SMILES IDX 83 25 12 28 13 29 14 30 15 31 16 32 17 34 18 35 19 36 71 37
REMARK SMILES IDX 20 38 70 39 21 40 22 41 23 42 64 43 24 44 69 45 63 46 65 47
REMARK SMILES IDX 25 48 68 49 62 50 61 51 26 53 52 54 35 55 51 56 36 57 39 58
REMARK SMILES IDX 50 59 66 60 37 61 38 62 49 64 67 65 40 66 27 67 28 68 33 69
REMARK SMILES IDX 29 70 30 71 32 72 34 73 31 74 53 75 54 76 59 77 55 78 56 79
REMARK SMILES IDX 58 80 60 81 57 82 41 83 42 84 47 85 43 86 44 87 46 88 48 89
REMARK SMILES IDX 45 90
REMARK H PARENT 8 7 82 26 82 27 15 33 65 52 39 63
REMARK Flexibility Score: inf
ROOT
ATOM      1  C   UNL     1      -5.999   3.481  -1.065  1.00  0.00     0.002 C 
ENDROOT
BRANCH   1   2
ATOM      2  C   UNL     1      -4.566   3.177  -1.505  1.00  0.00     0.021 C 
BRANCH   2   3
ATOM      3  C   UNL     1      -3.637   2.490  -0.510  1.00  0.00     0.116 C 
BRANCH   3   4
ATOM      4  N   UNL     1      -3.900   1.106  -0.228  1.00  0.00    -0.352 N 
ATOM      5  C   UNL     1      -3.060   0.082   0.151  1.00  0.00     0.255 C 
ATOM      6  O   UNL     1      -3.618  -0.964   0.500  1.00  0.00    -0.269 OA
ATOM      7  H   UNL     1      -4.844   0.844  -0.323  1.00  0.00     0.163 HD
BRANCH   5   8
ATOM      8  C   UNL     1      -1.555   0.090   0.106  1.00  0.00     0.082 A 
ATOM      9  C   UNL     1       2.752  -0.512   0.053  1.00  0.00     0.044 C 
ATOM     10  C   UNL     1       1.265  -0.314   0.076  1.00  0.00    -0.047 A 
ATOM     11  C   UNL     1       0.401  -1.364  -0.223  1.00  0.00     0.004 A 
ATOM     12  C   UNL     1       0.718   0.919   0.438  1.00  0.00     0.051 A 
ATOM     13  C   UNL     1      -0.984  -1.166  -0.196  1.00  0.00     0.018 A 
ATOM     14  C   UNL     1      -0.673   1.143   0.405  1.00  0.00     0.140 A 
BRANCH  14  15
ATOM     15  O   UNL     1      -1.164   2.358   0.790  1.00  0.00    -0.456 OA
BRANCH  15  16
ATOM     16  C   UNL     1      -0.588   3.548   0.385  1.00  0.00     0.143 A 
ATOM     17  C   UNL     1      -0.821   4.565   1.333  1.00  0.00     0.048 A 
ATOM     18  C   UNL     1       0.066   3.871  -0.819  1.00  0.00     0.117 A 
ATOM     19  C   UNL     1      -0.402   5.876   1.115  1.00  0.00     0.007 A 
ATOM     20  C   UNL     1       0.467   5.201  -1.023  1.00  0.00     0.139 A 
ATOM     21  C   UNL     1       0.239   6.195  -0.073  1.00  0.00     0.040 A 
ATOM     22  F   UNL     1       1.058   5.573  -2.169  1.00  0.00    -0.206 F 
BRANCH  18  23
ATOM     23  C   UNL     1       0.481   2.939  -1.891  1.00  0.00     0.255 C 
ATOM     24  N   UNL     1      -0.454   2.167  -2.513  1.00  0.00    -0.365 N 
ATOM     25  O   UNL     1       1.658   2.877  -2.231  1.00  0.00    -0.269 OA
ATOM     26  H   UNL     1      -1.398   2.220  -2.238  1.00  0.00     0.159 HD
ATOM     27  H   UNL     1      -0.186   1.557  -3.238  1.00  0.00     0.159 HD
ENDBRANCH  18  23
ENDBRANCH  15  16
ENDBRANCH  14  15
ENDBRANCH   5   8
ENDBRANCH   3   4
ENDBRANCH   2   3
ENDBRANCH   1   2
BRANCH   1  28
ATOM     28  C   UNL     1      -6.222   4.095   0.324  1.00  0.00     0.002 C 
BRANCH  28  29
ATOM     29  C   UNL     1      -5.316   5.249   0.754  1.00  0.00     0.021 C 
BRANCH  29  30
ATOM     30  C   UNL     1      -5.397   6.511  -0.090  1.00  0.00     0.116 C 
BRANCH  30  31
ATOM     31  N   UNL     1      -6.364   7.494   0.383  1.00  0.00    -0.352 N 
ATOM     32  C   UNL     1      -6.692   8.720  -0.174  1.00  0.00     0.251 C 
ATOM     33  H   UNL     1      -6.848   7.255   1.207  1.00  0.00     0.163 HD
ATOM     34  O   UNL     1      -7.554   9.423   0.329  1.00  0.00    -0.269 OA
BRANCH  32  35
ATOM     35  C   UNL     1      -6.071   9.107  -1.465  1.00  0.00     0.039 A 
ATOM     36  C   UNL     1      -6.920   9.475  -2.513  1.00  0.00     0.014 A 
ATOM     37  C   UNL     1      -4.715   8.890  -1.700  1.00  0.00     0.014 A 
ATOM     38  C   UNL     1      -6.466   9.364  -3.825  1.00  0.00     0.010 A 
ATOM     39  C   UNL     1      -4.289   8.689  -2.999  1.00  0.00     0.010 A 
ATOM     40  C   UNL     1      -5.188   8.852  -4.057  1.00  0.00    -0.014 A 
BRANCH  40  41
ATOM     41  C   UNL     1      -4.792   8.302  -5.347  1.00  0.00     0.031 A 
ATOM     42  C   UNL     1      -3.868   9.020  -6.243  1.00  0.00     0.074 A 
ATOM     43  C   UNL     1      -5.268   7.099  -5.739  1.00  0.00     0.049 A 
ATOM     44  N   UNL     1      -3.935   8.951  -7.531  1.00  0.00    -0.248 NA
ATOM     45  C   UNL     1      -2.803   9.890  -5.757  1.00  0.00     0.031 C 
ATOM     46  C   UNL     1      -4.827   6.305  -6.883  1.00  0.00     0.029 A 
ATOM     47  N   UNL     1      -6.427   6.454  -5.291  1.00  0.00    -0.354 N 
ATOM     48  C   UNL     1      -2.784   9.508  -8.024  1.00  0.00     0.074 A 
ATOM     49  C   UNL     1      -2.152  10.155  -6.895  1.00  0.00     0.031 C 
ATOM     50  C   UNL     1      -5.819   5.474  -7.239  1.00  0.00     0.029 A 
ATOM     51  C   UNL     1      -6.969   5.797  -6.415  1.00  0.00     0.049 A 
ATOM     52  H   UNL     1      -6.790   6.457  -4.376  1.00  0.00     0.167 HD
ATOM     53  C   UNL     1      -2.379   9.243  -9.296  1.00  0.00     0.037 A 
ATOM     54  C   UNL     1      -8.219   6.075  -6.882  1.00  0.00     0.037 A 
ATOM     55  C   UNL     1      -3.275   8.332  -9.993  1.00  0.00     0.049 A 
ATOM     56  C   UNL     1      -8.262   6.501  -8.329  1.00  0.00     0.074 A 
ATOM     57  C   UNL     1      -3.225   6.968 -10.233  1.00  0.00     0.029 A 
ATOM     58  N   UNL     1      -4.572   8.731 -10.297  1.00  0.00    -0.354 N 
ATOM     59  N   UNL     1      -7.227   6.930  -8.996  1.00  0.00    -0.248 NA
ATOM     60  C   UNL     1      -9.480   6.507  -9.131  1.00  0.00     0.031 C 
ATOM     61  C   UNL     1      -4.495   6.545 -10.688  1.00  0.00     0.029 A 
ATOM     62  C   UNL     1      -5.321   7.653 -10.729  1.00  0.00     0.049 A 
ATOM     63  H   UNL     1      -4.909   9.652 -10.216  1.00  0.00     0.167 HD
ATOM     64  C   UNL     1      -7.609   7.288 -10.268  1.00  0.00     0.074 A 
ATOM     65  C   UNL     1      -9.024   6.974 -10.307  1.00  0.00     0.031 C 
ATOM     66  C   UNL     1      -6.706   7.817 -11.152  1.00  0.00     0.037 A 
BRANCH  53  67
ATOM     67  C   UNL     1      -0.986   9.591  -9.739  1.00  0.00     0.057 A 
ATOM     68  C   UNL     1      -0.166   8.670 -10.414  1.00  0.00     0.134 A 
ATOM     69  C   UNL     1      -0.385  10.827  -9.449  1.00  0.00     0.134 A 
ATOM     70  F   UNL     1      -0.622   7.477 -10.812  1.00  0.00    -0.206 F 
ATOM     71  C   UNL     1       1.183   8.921 -10.685  1.00  0.00     0.040 A 
ATOM     72  C   UNL     1       0.975  11.076  -9.675  1.00  0.00     0.040 A 
ATOM     73  F   UNL     1      -1.100  11.830  -8.914  1.00  0.00    -0.206 F 
ATOM     74  C   UNL     1       1.769  10.113 -10.284  1.00  0.00     0.006 A 
ENDBRANCH  53  67
BRANCH  54  75
ATOM     75  C   UNL     1      -9.158   6.538  -5.830  1.00  0.00     0.057 A 
ATOM     76  C   UNL     1      -9.493   5.657  -4.786  1.00  0.00     0.134 A 
ATOM     77  C   UNL     1      -9.431   7.894  -5.632  1.00  0.00     0.134 A 
ATOM     78  F   UNL     1      -9.250   4.342  -4.910  1.00  0.00    -0.206 F 
ATOM     79  C   UNL     1      -9.979   6.115  -3.559  1.00  0.00     0.040 A 
ATOM     80  C   UNL     1      -9.929   8.363  -4.411  1.00  0.00     0.040 A 
ATOM     81  F   UNL     1      -9.117   8.797  -6.571  1.00  0.00    -0.206 F 
ATOM     82  C   UNL     1     -10.169   7.479  -3.360  1.00  0.00     0.006 A 
ENDBRANCH  54  75
BRANCH  66  83
ATOM     83  C   UNL     1      -6.963   8.441 -12.517  1.00  0.00     0.057 A 
ATOM     84  C   UNL     1      -8.207   8.866 -13.001  1.00  0.00     0.134 A 
ATOM     85  C   UNL     1      -5.875   8.742 -13.379  1.00  0.00     0.134 A 
ATOM     86  F   UNL     1      -9.326   8.759 -12.277  1.00  0.00    -0.206 F 
ATOM     87  C   UNL     1      -8.366   9.489 -14.252  1.00  0.00     0.040 A 
ATOM     88  C   UNL     1      -6.015   9.410 -14.601  1.00  0.00     0.040 A 
ATOM     89  F   UNL     1      -4.609   8.426 -13.071  1.00  0.00    -0.206 F 
ATOM     90  C   UNL     1      -7.269   9.775 -15.051  1.00  0.00     0.006 A 
ENDBRANCH  66  83
ENDBRANCH  40  41
ENDBRANCH  32  35
ENDBRANCH  30  31
ENDBRANCH  29  30
ENDBRANCH  28  29
ENDBRANCH   1  28
TORSDOF 16
