REMARK SMILES Cc1ccc(NC(=O)C[N@@H+]2CC[C@@H](C(=O)NCCCCCCNC(=O)c3ccc(-c4c5nc(c(-c6c(F)cccc6F)c6ccc([nH]6)c(-c6c(F)cccc6F)c6nc(c(-c7c(F)cccc7F)c7ccc4[nH]7)C=C6)C=C5)cc3)[C@@H]2C)cc1
REMARK SMILES IDX 19 1 18 2 17 3 16 4 14 5 15 6 13 8 10 9 11 10 80 11 12 13
REMARK SMILES IDX 81 14 9 15 7 16 6 17 8 19 5 20 1 21 2 22 3 23 83 24 4 25
REMARK SMILES IDX 82 26 20 27 21 28 22 29 23 30 24 31 25 33 26 34 27 35 79 36
REMARK SMILES IDX 28 37 78 38 29 39 30 40 31 41 72 42 32 43 77 44 71 45 73 46
REMARK SMILES IDX 33 47 76 48 70 49 69 50 34 52 60 53 43 54 59 55 44 56 47 57
REMARK SMILES IDX 58 58 74 59 45 60 46 61 57 63 75 64 48 65 35 66 36 67 41 68
REMARK SMILES IDX 37 69 38 70 40 71 42 72 39 73 61 74 62 75 67 76 63 77 64 78
REMARK SMILES IDX 66 79 68 80 65 81 49 82 50 83 55 84 51 85 52 86 54 87 56 88
REMARK SMILES IDX 53 89
REMARK H PARENT 16 7 10 12 6 18 23 32 73 51 47 62
REMARK Flexibility Score: inf
ROOT
ATOM      1  C   UNL     1      -1.046  -1.904   4.528  1.00  0.00     0.002 C 
ENDROOT
BRANCH   1   2
ATOM      2  C   UNL     1      -1.414  -2.687   3.254  1.00  0.00     0.021 C 
BRANCH   2   3
ATOM      3  C   UNL     1      -0.891  -2.109   1.939  1.00  0.00     0.116 C 
BRANCH   3   4
ATOM      4  N   UNL     1       0.311  -2.736   1.385  1.00  0.00    -0.356 N 
ATOM      5  C   UNL     1       0.715  -2.968   0.095  1.00  0.00     0.229 C 
ATOM      6  O   UNL     1       1.937  -2.876  -0.097  1.00  0.00    -0.275 OA
ATOM      7  H   UNL     1       0.949  -3.049   2.066  1.00  0.00     0.163 HD
BRANCH   5   8
ATOM      8  C   UNL     1      -0.172  -3.406  -1.097  1.00  0.00     0.142 C 
ATOM      9  N   UNL     1      -2.198  -2.403  -1.173  1.00  0.00    -0.324 N 
ATOM     10  C   UNL     1      -1.694  -2.016  -2.471  1.00  0.00     0.263 C 
ATOM     11  C   UNL     1      -1.639  -3.711  -0.826  1.00  0.00     0.194 C 
ATOM     12  H   UNL     1      -1.848  -1.709  -0.512  1.00  0.00     0.348 HD
ATOM     13  C   UNL     1      -0.217  -2.436  -2.317  1.00  0.00     0.081 C 
ATOM     14  C   UNL     1      -2.091  -4.892  -1.699  1.00  0.00     0.076 C 
BRANCH   9  15
ATOM     15  C   UNL     1      -3.526  -2.049  -0.742  1.00  0.00     0.364 C 
BRANCH  15  16
ATOM     16  C   UNL     1      -3.901  -0.548  -0.629  1.00  0.00     0.279 C 
ATOM     17  N   UNL     1      -3.172   0.556  -0.292  1.00  0.00    -0.321 N 
ATOM     18  H   UNL     1      -3.775   1.318  -0.132  1.00  0.00     0.170 HD
ATOM     19  O   UNL     1      -5.120  -0.294  -0.744  1.00  0.00    -0.268 OA
BRANCH  17  20
ATOM     20  C   UNL     1      -1.834   0.954  -0.100  1.00  0.00     0.041 A 
ATOM     21  C   UNL     1       2.292   2.308   0.255  1.00  0.00     0.044 C 
ATOM     22  C   UNL     1       0.858   1.892   0.148  1.00  0.00    -0.051 A 
ATOM     23  C   UNL     1       0.582   0.570  -0.143  1.00  0.00     0.005 A 
ATOM     24  C   UNL     1      -0.223   2.751   0.356  1.00  0.00     0.005 A 
ATOM     25  C   UNL     1      -0.741   0.137  -0.244  1.00  0.00     0.026 A 
ATOM     26  C   UNL     1      -1.553   2.287   0.226  1.00  0.00     0.026 A 
ENDBRANCH  17  20
ENDBRANCH  15  16
ENDBRANCH   9  15
ENDBRANCH   5   8
ENDBRANCH   3   4
ENDBRANCH   2   3
ENDBRANCH   1   2
BRANCH   1  27
ATOM     27  C   UNL     1      -1.399  -0.403   4.604  1.00  0.00     0.002 C 
BRANCH  27  28
ATOM     28  C   UNL     1      -2.818   0.020   4.212  1.00  0.00     0.021 C 
BRANCH  28  29
ATOM     29  C   UNL     1      -3.928  -0.509   5.111  1.00  0.00     0.116 C 
BRANCH  29  30
ATOM     30  N   UNL     1      -4.234   0.307   6.292  1.00  0.00    -0.352 N 
ATOM     31  C   UNL     1      -5.063   0.016   7.361  1.00  0.00     0.251 C 
ATOM     32  H   UNL     1      -3.786   1.183   6.329  1.00  0.00     0.163 HD
ATOM     33  O   UNL     1      -5.223   0.801   8.265  1.00  0.00    -0.269 OA
BRANCH  31  34
ATOM     34  C   UNL     1      -5.658  -1.352   7.447  1.00  0.00     0.039 A 
ATOM     35  C   UNL     1      -5.460  -2.073   8.628  1.00  0.00     0.014 A 
ATOM     36  C   UNL     1      -6.152  -1.981   6.308  1.00  0.00     0.014 A 
ATOM     37  C   UNL     1      -5.480  -3.464   8.579  1.00  0.00     0.010 A 
ATOM     38  C   UNL     1      -6.078  -3.357   6.233  1.00  0.00     0.010 A 
ATOM     39  C   UNL     1      -5.663  -4.092   7.347  1.00  0.00    -0.014 A 
BRANCH  39  40
ATOM     40  C   UNL     1      -5.298  -5.483   7.112  1.00  0.00     0.031 A 
ATOM     41  C   UNL     1      -6.332  -6.528   7.010  1.00  0.00     0.074 A 
ATOM     42  C   UNL     1      -3.997  -5.818   6.955  1.00  0.00     0.049 A 
ATOM     43  N   UNL     1      -6.150  -7.756   7.366  1.00  0.00    -0.248 NA
ATOM     44  C   UNL     1      -7.676  -6.259   6.516  1.00  0.00     0.031 C 
ATOM     45  C   UNL     1      -3.465  -7.104   6.512  1.00  0.00     0.029 A 
ATOM     46  N   UNL     1      -2.870  -5.100   7.375  1.00  0.00    -0.354 N 
ATOM     47  C   UNL     1      -7.223  -8.481   6.907  1.00  0.00     0.074 A 
ATOM     48  C   UNL     1      -8.176  -7.497   6.444  1.00  0.00     0.031 C 
ATOM     49  C   UNL     1      -2.195  -7.213   6.931  1.00  0.00     0.029 A 
ATOM     50  C   UNL     1      -1.909  -6.057   7.761  1.00  0.00     0.049 A 
ATOM     51  H   UNL     1      -2.769  -4.121   7.396  1.00  0.00     0.167 HD
ATOM     52  C   UNL     1      -7.142  -9.840   6.826  1.00  0.00     0.037 A 
ATOM     53  C   UNL     1      -1.424  -6.109   9.034  1.00  0.00     0.037 A 
ATOM     54  C   UNL     1      -5.843 -10.330   7.272  1.00  0.00     0.049 A 
ATOM     55  C   UNL     1      -1.689  -7.416   9.740  1.00  0.00     0.074 A 
ATOM     56  C   UNL     1      -4.693 -10.672   6.578  1.00  0.00     0.029 A 
ATOM     57  N   UNL     1      -5.476 -10.219   8.609  1.00  0.00    -0.354 N 
ATOM     58  N   UNL     1      -2.578  -8.286   9.347  1.00  0.00    -0.248 NA
ATOM     59  C   UNL     1      -0.996  -7.840  10.953  1.00  0.00     0.031 C 
ATOM     60  C   UNL     1      -3.620 -10.727   7.497  1.00  0.00     0.029 A 
ATOM     61  C   UNL     1      -4.119 -10.436   8.754  1.00  0.00     0.049 A 
ATOM     62  H   UNL     1      -6.095 -10.014   9.346  1.00  0.00     0.167 HD
ATOM     63  C   UNL     1      -2.607  -9.343  10.222  1.00  0.00     0.074 A 
ATOM     64  C   UNL     1      -1.581  -9.027  11.197  1.00  0.00     0.031 C 
ATOM     65  C   UNL     1      -3.481 -10.381  10.061  1.00  0.00     0.037 A 
BRANCH  52  66
ATOM     66  C   UNL     1      -8.130 -10.655   6.030  1.00  0.00     0.057 A 
ATOM     67  C   UNL     1      -7.721 -11.754   5.250  1.00  0.00     0.134 A 
ATOM     68  C   UNL     1      -9.502 -10.362   5.953  1.00  0.00     0.134 A 
ATOM     69  F   UNL     1      -6.470 -12.229   5.299  1.00  0.00    -0.206 F 
ATOM     70  C   UNL     1      -8.577 -12.418   4.364  1.00  0.00     0.040 A 
ATOM     71  C   UNL     1     -10.360 -10.983   5.033  1.00  0.00     0.040 A 
ATOM     72  F   UNL     1     -10.068  -9.474   6.783  1.00  0.00    -0.206 F 
ATOM     73  C   UNL     1      -9.892 -12.005   4.220  1.00  0.00     0.006 A 
ENDBRANCH  52  66
BRANCH  53  74
ATOM     74  C   UNL     1      -1.341  -4.777   9.684  1.00  0.00     0.057 A 
ATOM     75  C   UNL     1      -0.408  -3.851   9.187  1.00  0.00     0.134 A 
ATOM     76  C   UNL     1      -2.382  -4.275  10.468  1.00  0.00     0.134 A 
ATOM     77  F   UNL     1       0.617  -4.270   8.427  1.00  0.00    -0.206 F 
ATOM     78  C   UNL     1      -0.567  -2.474   9.362  1.00  0.00     0.040 A 
ATOM     79  C   UNL     1      -2.547  -2.898  10.658  1.00  0.00     0.040 A 
ATOM     80  F   UNL     1      -3.322  -5.095  10.960  1.00  0.00    -0.206 F 
ATOM     81  C   UNL     1      -1.663  -1.993  10.071  1.00  0.00     0.006 A 
ENDBRANCH  53  74
BRANCH  65  82
ATOM     82  C   UNL     1      -3.754 -11.498  11.043  1.00  0.00     0.057 A 
ATOM     83  C   UNL     1      -3.587 -11.395  12.431  1.00  0.00     0.134 A 
ATOM     84  C   UNL     1      -4.347 -12.706  10.605  1.00  0.00     0.134 A 
ATOM     85  F   UNL     1      -3.141 -10.270  13.005  1.00  0.00    -0.206 F 
ATOM     86  C   UNL     1      -3.931 -12.433  13.310  1.00  0.00     0.040 A 
ATOM     87  C   UNL     1      -4.744 -13.725  11.476  1.00  0.00     0.040 A 
ATOM     88  F   UNL     1      -4.592 -12.945   9.308  1.00  0.00    -0.206 F 
ATOM     89  C   UNL     1      -4.522 -13.597  12.836  1.00  0.00     0.006 A 
ENDBRANCH  65  82
ENDBRANCH  39  40
ENDBRANCH  31  34
ENDBRANCH  29  30
ENDBRANCH  28  29
ENDBRANCH  27  28
ENDBRANCH   1  27
TORSDOF 16
