REMARK SMILES Cc1ccc(-c2nc(NC(=O)[C@H]3[C@@H](C(=O)NCCCCCCNC(=O)c4ccc(-c5c6nc(c(-c7c(F)cccc7F)c7ccc([nH]7)c(-c7c(F)cccc7F)c7nc(c(-c8c(F)cccc8F)c8ccc5[nH]8)C=C7)C=C6)cc4)[C@@H]4CC[C@H]3O4)sc2C)cc1
REMARK SMILES IDX 19 1 18 2 17 3 16 4 14 5 15 6 13 8 12 9 83 10 80 11 82 12
REMARK SMILES IDX 84 13 81 14 10 15 9 16 11 18 8 19 6 20 7 21 86 22 85 23
REMARK SMILES IDX 87 24 5 25 1 26 2 27 3 28 89 29 4 30 88 31 20 32 21 33 22 34
REMARK SMILES IDX 23 35 24 36 25 38 26 39 27 40 79 41 28 42 78 43 29 44 30 45
REMARK SMILES IDX 31 46 72 47 32 48 77 49 71 50 73 51 33 52 76 53 70 54 69 55
REMARK SMILES IDX 34 57 60 58 43 59 59 60 44 61 47 62 58 63 74 64 45 65 46 66
REMARK SMILES IDX 57 68 75 69 48 70 35 71 36 72 41 73 37 74 38 75 40 76 42 77
REMARK SMILES IDX 39 78 61 79 62 80 67 81 63 82 64 83 66 84 68 85 65 86 49 87
REMARK SMILES IDX 50 88 55 89 51 90 52 91 54 92 56 93 53 94
REMARK H PARENT 16 7 9 17 23 37 73 56 47 67
REMARK Flexibility Score: inf
ROOT
ATOM      1  C   UNL     1      -4.783   1.198   0.295  1.00  0.00     0.002 C 
ENDROOT
BRANCH   1   2
ATOM      2  C   UNL     1      -5.472  -0.152   0.490  1.00  0.00     0.021 C 
BRANCH   2   3
ATOM      3  C   UNL     1      -6.468  -0.342   1.629  1.00  0.00     0.116 C 
BRANCH   3   4
ATOM      4  N   UNL     1      -7.447   0.704   1.831  1.00  0.00    -0.356 N 
ATOM      5  C   UNL     1      -8.785   0.609   1.573  1.00  0.00     0.226 C 
ATOM      6  O   UNL     1      -9.572   1.034   2.420  1.00  0.00    -0.275 OA
ATOM      7  H   UNL     1      -7.119   1.562   2.187  1.00  0.00     0.163 HD
BRANCH   5   8
ATOM      8  C   UNL     1      -9.249  -0.129   0.345  1.00  0.00     0.122 C 
ATOM      9  C   UNL     1      -8.633  -0.002  -1.054  1.00  0.00     0.123 C 
ATOM     10  C   UNL     1      -9.848  -0.463  -1.887  1.00  0.00     0.132 C 
ATOM     11  C   UNL     1     -10.771  -0.036   0.032  1.00  0.00     0.132 C 
ATOM     12  C   UNL     1     -10.414  -1.835  -1.428  1.00  0.00     0.035 C 
ATOM     13  O   UNL     1     -10.818   0.454  -1.339  1.00  0.00    -0.373 OA
ATOM     14  C   UNL     1     -11.297  -1.442  -0.235  1.00  0.00     0.035 C 
BRANCH   9  15
ATOM     15  C   UNL     1      -7.946   1.139  -1.867  1.00  0.00     0.232 C 
ATOM     16  N   UNL     1      -7.861   2.486  -1.782  1.00  0.00    -0.302 N 
ATOM     17  H   UNL     1      -7.338   2.855  -2.530  1.00  0.00     0.172 HD
ATOM     18  O   UNL     1      -7.329   0.712  -2.873  1.00  0.00    -0.274 OA
BRANCH  16  19
ATOM     19  C   UNL     1      -8.296   3.479  -0.950  1.00  0.00     0.190 A 
ATOM     20  C   UNL     1      -8.509   5.481   0.039  1.00  0.00     0.086 A 
ATOM     21  N   UNL     1      -7.915   4.747  -1.011  1.00  0.00    -0.220 NA
ATOM     22  C   UNL     1      -9.401   4.729   0.794  1.00  0.00     0.031 A 
ATOM     23  S   UNL     1      -9.452   3.145   0.199  1.00  0.00    -0.101 S 
ATOM     24  C   UNL     1     -10.301   5.027   1.939  1.00  0.00     0.059 C 
BRANCH  20  25
ATOM     25  C   UNL     1      -8.240   6.904   0.319  1.00  0.00     0.001 A 
ATOM     26  C   UNL     1      -7.944  11.127   1.329  1.00  0.00     0.044 C 
ATOM     27  C   UNL     1      -8.013   9.669   0.972  1.00  0.00    -0.051 A 
ATOM     28  C   UNL     1      -8.009   9.239  -0.363  1.00  0.00     0.004 A 
ATOM     29  C   UNL     1      -8.073   8.707   1.977  1.00  0.00     0.004 A 
ATOM     30  C   UNL     1      -8.125   7.870  -0.689  1.00  0.00     0.010 A 
ATOM     31  C   UNL     1      -8.161   7.349   1.652  1.00  0.00     0.010 A 
ENDBRANCH  20  25
ENDBRANCH  16  19
ENDBRANCH   9  15
ENDBRANCH   5   8
ENDBRANCH   3   4
ENDBRANCH   2   3
ENDBRANCH   1   2
BRANCH   1  32
ATOM     32  C   UNL     1      -4.026   1.850   1.456  1.00  0.00     0.002 C 
BRANCH  32  33
ATOM     33  C   UNL     1      -3.293   0.958   2.455  1.00  0.00     0.021 C 
BRANCH  33  34
ATOM     34  C   UNL     1      -2.313  -0.038   1.847  1.00  0.00     0.116 C 
BRANCH  34  35
ATOM     35  N   UNL     1      -0.943   0.119   2.313  1.00  0.00    -0.352 N 
ATOM     36  C   UNL     1       0.199  -0.598   1.985  1.00  0.00     0.251 C 
ATOM     37  H   UNL     1      -0.805   0.848   2.962  1.00  0.00     0.163 HD
ATOM     38  O   UNL     1       1.268  -0.283   2.459  1.00  0.00    -0.269 OA
BRANCH  36  39
ATOM     39  C   UNL     1       0.127  -1.653   0.938  1.00  0.00     0.039 A 
ATOM     40  C   UNL     1       1.155  -1.687  -0.012  1.00  0.00     0.014 A 
ATOM     41  C   UNL     1      -0.997  -2.457   0.771  1.00  0.00     0.014 A 
ATOM     42  C   UNL     1       0.931  -2.304  -1.240  1.00  0.00     0.010 A 
ATOM     43  C   UNL     1      -1.262  -2.992  -0.473  1.00  0.00     0.010 A 
ATOM     44  C   UNL     1      -0.327  -2.846  -1.497  1.00  0.00    -0.014 A 
BRANCH  44  45
ATOM     45  C   UNL     1      -0.761  -3.226  -2.832  1.00  0.00     0.031 A 
ATOM     46  C   UNL     1      -0.619  -4.618  -3.280  1.00  0.00     0.074 A 
ATOM     47  C   UNL     1      -1.304  -2.296  -3.646  1.00  0.00     0.049 A 
ATOM     48  N   UNL     1      -0.484  -4.980  -4.509  1.00  0.00    -0.248 NA
ATOM     49  C   UNL     1      -0.576  -5.726  -2.338  1.00  0.00     0.031 C 
ATOM     50  C   UNL     1      -1.923  -2.503  -4.951  1.00  0.00     0.029 A 
ATOM     51  N   UNL     1      -1.163  -0.906  -3.541  1.00  0.00    -0.354 N 
ATOM     52  C   UNL     1      -0.611  -6.349  -4.557  1.00  0.00     0.074 A 
ATOM     53  C   UNL     1      -0.586  -6.768  -3.173  1.00  0.00     0.031 C 
ATOM     54  C   UNL     1      -1.817  -1.363  -5.654  1.00  0.00     0.029 A 
ATOM     55  C   UNL     1      -1.014  -0.442  -4.868  1.00  0.00     0.049 A 
ATOM     56  H   UNL     1      -1.166  -0.367  -2.717  1.00  0.00     0.167 HD
ATOM     57  C   UNL     1      -0.861  -6.950  -5.758  1.00  0.00     0.037 A 
ATOM     58  C   UNL     1       0.165   0.118  -5.264  1.00  0.00     0.037 A 
ATOM     59  C   UNL     1      -0.813  -5.980  -6.859  1.00  0.00     0.049 A 
ATOM     60  C   UNL     1       0.896  -0.648  -6.349  1.00  0.00     0.074 A 
ATOM     61  C   UNL     1      -1.770  -5.300  -7.595  1.00  0.00     0.029 A 
ATOM     62  N   UNL     1       0.388  -5.350  -7.137  1.00  0.00    -0.354 N 
ATOM     63  N   UNL     1       0.502  -1.782  -6.861  1.00  0.00    -0.248 NA
ATOM     64  C   UNL     1       2.199  -0.228  -6.866  1.00  0.00     0.031 C 
ATOM     65  C   UNL     1      -1.127  -4.244  -8.303  1.00  0.00     0.029 A 
ATOM     66  C   UNL     1       0.223  -4.287  -8.006  1.00  0.00     0.049 A 
ATOM     67  H   UNL     1       1.256  -5.625  -6.762  1.00  0.00     0.167 HD
ATOM     68  C   UNL     1       1.472  -2.263  -7.702  1.00  0.00     0.074 A 
ATOM     69  C   UNL     1       2.518  -1.257  -7.666  1.00  0.00     0.031 C 
ATOM     70  C   UNL     1       1.379  -3.469  -8.338  1.00  0.00     0.037 A 
BRANCH  57  71
ATOM     71  C   UNL     1      -1.424  -8.351  -5.889  1.00  0.00     0.057 A 
ATOM     72  C   UNL     1      -2.235  -8.702  -6.985  1.00  0.00     0.134 A 
ATOM     73  C   UNL     1      -1.273  -9.379  -4.941  1.00  0.00     0.134 A 
ATOM     74  F   UNL     1      -2.372  -7.899  -8.048  1.00  0.00    -0.206 F 
ATOM     75  C   UNL     1      -2.952  -9.905  -7.053  1.00  0.00     0.040 A 
ATOM     76  C   UNL     1      -2.028 -10.561  -4.962  1.00  0.00     0.040 A 
ATOM     77  F   UNL     1      -0.337  -9.323  -3.987  1.00  0.00    -0.206 F 
ATOM     78  C   UNL     1      -2.890 -10.820  -6.014  1.00  0.00     0.006 A 
ENDBRANCH  57  71
BRANCH  58  79
ATOM     79  C   UNL     1       0.826   0.897  -4.179  1.00  0.00     0.057 A 
ATOM     80  C   UNL     1       0.153   2.006  -3.633  1.00  0.00     0.134 A 
ATOM     81  C   UNL     1       1.900   0.384  -3.449  1.00  0.00     0.134 A 
ATOM     82  F   UNL     1      -0.885   2.554  -4.284  1.00  0.00    -0.206 F 
ATOM     83  C   UNL     1       0.456   2.502  -2.363  1.00  0.00     0.040 A 
ATOM     84  C   UNL     1       2.228   0.889  -2.186  1.00  0.00     0.040 A 
ATOM     85  F   UNL     1       2.583  -0.681  -3.891  1.00  0.00    -0.206 F 
ATOM     86  C   UNL     1       1.478   1.919  -1.621  1.00  0.00     0.006 A 
ENDBRANCH  58  79
BRANCH  70  87
ATOM     87  C   UNL     1       2.411  -3.976  -9.312  1.00  0.00     0.057 A 
ATOM     88  C   UNL     1       3.029  -3.148 -10.262  1.00  0.00     0.134 A 
ATOM     89  C   UNL     1       2.742  -5.343  -9.401  1.00  0.00     0.134 A 
ATOM     90  F   UNL     1       2.719  -1.846 -10.354  1.00  0.00    -0.206 F 
ATOM     91  C   UNL     1       3.971  -3.630 -11.179  1.00  0.00     0.040 A 
ATOM     92  C   UNL     1       3.641  -5.845 -10.347  1.00  0.00     0.040 A 
ATOM     93  F   UNL     1       2.224  -6.253  -8.565  1.00  0.00    -0.206 F 
ATOM     94  C   UNL     1       4.277  -4.985 -11.227  1.00  0.00     0.006 A 
ENDBRANCH  70  87
ENDBRANCH  44  45
ENDBRANCH  36  39
ENDBRANCH  34  35
ENDBRANCH  33  34
ENDBRANCH  32  33
ENDBRANCH   1  32
TORSDOF 16
