REMARK SMILES CCCCCCNC(=O)Oc1cccc(-c2ccc([C@@H](C)C(=O)NCCCCCCNC(=O)c3ccc(-c4c5nc(c(-c6c(F)cccc6F)c6ccc([nH]6)c(-c6c(F)cccc6F)c6nc(c(-c7c(F)cccc7F)c7ccc4[nH]7)C=C6)C=C5)cc3)cc2N)c1
REMARK SMILES IDX 22 1 23 2 24 3 20 5 21 6 19 7 16 8 17 9 89 10 18 11 88 12
REMARK SMILES IDX 15 13 11 14 12 15 91 16 13 17 14 18 10 19 8 20 7 21 9 23
REMARK SMILES IDX 6 24 5 25 4 26 3 27 2 28 1 29 90 30 25 33 26 34 27 35 28 36
REMARK SMILES IDX 29 37 30 38 31 39 32 40 33 42 34 43 35 44 87 45 36 46 86 47
REMARK SMILES IDX 37 48 38 49 39 50 80 51 40 52 85 53 79 54 81 55 41 56 84 57
REMARK SMILES IDX 78 58 77 59 42 61 68 62 51 63 67 64 52 65 55 66 66 67 82 68
REMARK SMILES IDX 53 69 54 70 65 72 83 73 56 74 43 75 44 76 49 77 45 78 46 79
REMARK SMILES IDX 48 80 50 81 47 82 69 83 70 84 75 85 71 86 72 87 74 88 76 89
REMARK SMILES IDX 73 90 57 91 58 92 63 93 59 94 60 95 62 96 64 97 61 98
REMARK H PARENT 24 4 7 22 90 31 90 32 31 41 81 60 55 71
REMARK Flexibility Score: inf
ROOT
ATOM      1  C   UNL     1      -3.154  -6.643  12.348  1.00  0.00     0.227 C 
ATOM      2  O   UNL     1      -2.166  -5.979  12.687  1.00  0.00    -0.274 OA
ATOM      3  N   UNL     1      -3.005  -7.995  12.365  1.00  0.00    -0.356 N 
ATOM      4  H   UNL     1      -2.139  -8.300  12.720  1.00  0.00     0.163 HD
ENDROOT
BRANCH   1   5
ATOM      5  C   UNL     1      -4.460  -5.929  11.968  1.00  0.00     0.105 C 
ATOM      6  C   UNL     1      -5.652  -6.289  12.854  1.00  0.00     0.023 C 
BRANCH   5   7
ATOM      7  C   UNL     1      -4.739  -5.896  10.473  1.00  0.00    -0.034 A 
ATOM      8  C   UNL     1      -5.068  -5.806   7.636  1.00  0.00     0.005 A 
ATOM      9  C   UNL     1      -5.526  -6.891   8.406  1.00  0.00     0.011 A 
ATOM     10  C   UNL     1      -4.528  -4.699   8.331  1.00  0.00     0.040 A 
ATOM     11  C   UNL     1      -5.410  -6.913   9.798  1.00  0.00     0.005 A 
ATOM     12  C   UNL     1      -4.301  -4.797   9.716  1.00  0.00     0.030 A 
BRANCH   8  13
ATOM     13  C   UNL     1      -5.177  -5.880   6.156  1.00  0.00    -0.013 A 
ATOM     14  C   UNL     1      -4.243  -5.545   3.934  1.00  0.00     0.133 A 
ATOM     15  C   UNL     1      -5.407  -6.017   3.336  1.00  0.00     0.047 A 
ATOM     16  C   UNL     1      -4.114  -5.491   5.323  1.00  0.00     0.056 A 
ATOM     17  C   UNL     1      -6.457  -6.444   4.142  1.00  0.00     0.004 A 
ATOM     18  C   UNL     1      -6.347  -6.362   5.534  1.00  0.00     0.009 A 
BRANCH  14  19
ATOM     19  O   UNL     1      -3.287  -4.966   3.082  1.00  0.00    -0.410 OA
BRANCH  19  20
ATOM     20  C   UNL     1      -1.942  -5.253   3.257  1.00  0.00     0.412 C 
ATOM     21  N   UNL     1      -1.127  -4.440   2.516  1.00  0.00    -0.321 N 
ATOM     22  H   UNL     1      -0.160  -4.616   2.571  1.00  0.00     0.167 HD
ATOM     23  O   UNL     1      -1.481  -6.132   3.973  1.00  0.00    -0.224 OA
BRANCH  21  24
ATOM     24  C   UNL     1      -1.542  -3.346   1.660  1.00  0.00     0.119 C 
BRANCH  24  25
ATOM     25  C   UNL     1      -0.947  -2.010   2.105  1.00  0.00     0.021 C 
BRANCH  25  26
ATOM     26  C   UNL     1       0.582  -1.925   2.025  1.00  0.00     0.002 C 
BRANCH  26  27
ATOM     27  C   UNL     1       1.187  -2.196   0.643  1.00  0.00    -0.000 C 
BRANCH  27  28
ATOM     28  C   UNL     1       0.698  -1.278  -0.480  1.00  0.00    -0.003 C 
ATOM     29  C   UNL     1       1.059   0.183  -0.264  1.00  0.00     0.004 C 
ENDBRANCH  27  28
ENDBRANCH  26  27
ENDBRANCH  25  26
ENDBRANCH  24  25
ENDBRANCH  21  24
ENDBRANCH  19  20
ENDBRANCH  14  19
ENDBRANCH   8  13
BRANCH  10  30
ATOM     30  N   UNL     1      -4.105  -3.537   7.682  1.00  0.00    -0.398 N 
ATOM     31  H   UNL     1      -4.247  -3.433   6.713  1.00  0.00     0.156 HD
ATOM     32  H   UNL     1      -3.664  -2.820   8.194  1.00  0.00     0.156 HD
ENDBRANCH  10  30
ENDBRANCH   5   7
ENDBRANCH   1   5
BRANCH   3  33
ATOM     33  C   UNL     1      -3.887  -9.065  11.955  1.00  0.00     0.116 C 
BRANCH  33  34
ATOM     34  C   UNL     1      -3.497  -9.626  10.586  1.00  0.00     0.021 C 
BRANCH  34  35
ATOM     35  C   UNL     1      -2.487 -10.775  10.653  1.00  0.00     0.002 C 
BRANCH  35  36
ATOM     36  C   UNL     1      -2.985 -12.039  11.366  1.00  0.00     0.002 C 
BRANCH  36  37
ATOM     37  C   UNL     1      -4.294 -12.627  10.829  1.00  0.00     0.021 C 
BRANCH  37  38
ATOM     38  C   UNL     1      -4.252 -13.043   9.361  1.00  0.00     0.116 C 
BRANCH  38  39
ATOM     39  N   UNL     1      -3.294 -14.113   9.129  1.00  0.00    -0.352 N 
ATOM     40  C   UNL     1      -3.494 -15.379   8.641  1.00  0.00     0.251 C 
ATOM     41  H   UNL     1      -2.361 -13.895   9.358  1.00  0.00     0.163 HD
ATOM     42  O   UNL     1      -2.606 -16.222   8.730  1.00  0.00    -0.269 OA
BRANCH  40  43
ATOM     43  C   UNL     1      -4.783 -15.737   8.012  1.00  0.00     0.039 A 
ATOM     44  C   UNL     1      -5.368 -16.968   8.320  1.00  0.00     0.014 A 
ATOM     45  C   UNL     1      -5.394 -14.880   7.093  1.00  0.00     0.014 A 
ATOM     46  C   UNL     1      -6.593 -17.317   7.748  1.00  0.00     0.010 A 
ATOM     47  C   UNL     1      -6.646 -15.200   6.573  1.00  0.00     0.010 A 
ATOM     48  C   UNL     1      -7.255 -16.423   6.891  1.00  0.00    -0.014 A 
BRANCH  48  49
ATOM     49  C   UNL     1      -8.582 -16.750   6.312  1.00  0.00     0.031 A 
ATOM     50  C   UNL     1      -8.735 -16.931   4.828  1.00  0.00     0.074 A 
ATOM     51  C   UNL     1      -9.661 -16.817   7.116  1.00  0.00     0.049 A 
ATOM     52  N   UNL     1      -9.821 -17.137   4.127  1.00  0.00    -0.248 NA
ATOM     53  C   UNL     1      -7.507 -16.843   4.022  1.00  0.00     0.031 C 
ATOM     54  C   UNL     1      -9.650 -16.619   8.566  1.00  0.00     0.029 A 
ATOM     55  N   UNL     1     -10.980 -17.057   6.823  1.00  0.00    -0.354 N 
ATOM     56  C   UNL     1      -9.411 -17.185   2.801  1.00  0.00     0.074 A 
ATOM     57  C   UNL     1      -7.985 -16.941   2.790  1.00  0.00     0.031 C 
ATOM     58  C   UNL     1     -10.899 -16.762   9.038  1.00  0.00     0.029 A 
ATOM     59  C   UNL     1     -11.802 -17.026   7.923  1.00  0.00     0.049 A 
ATOM     60  H   UNL     1     -11.306 -17.235   5.911  1.00  0.00     0.167 HD
ATOM     61  C   UNL     1     -10.153 -17.431   1.694  1.00  0.00     0.037 A 
ATOM     62  C   UNL     1     -13.136 -17.184   8.019  1.00  0.00     0.037 A 
ATOM     63  C   UNL     1     -11.566 -17.701   1.710  1.00  0.00     0.049 A 
ATOM     64  C   UNL     1     -13.936 -17.455   6.777  1.00  0.00     0.074 A 
ATOM     65  C   UNL     1     -12.396 -18.021   0.650  1.00  0.00     0.029 A 
ATOM     66  N   UNL     1     -12.360 -17.683   2.848  1.00  0.00    -0.354 N 
ATOM     67  N   UNL     1     -13.526 -17.558   5.536  1.00  0.00    -0.248 NA
ATOM     68  C   UNL     1     -15.385 -17.637   6.948  1.00  0.00     0.031 C 
ATOM     69  C   UNL     1     -13.699 -18.159   1.139  1.00  0.00     0.029 A 
ATOM     70  C   UNL     1     -13.673 -17.967   2.511  1.00  0.00     0.049 A 
ATOM     71  H   UNL     1     -12.037 -17.495   3.759  1.00  0.00     0.167 HD
ATOM     72  C   UNL     1     -14.658 -17.844   4.784  1.00  0.00     0.074 A 
ATOM     73  C   UNL     1     -15.770 -17.910   5.710  1.00  0.00     0.031 C 
ATOM     74  C   UNL     1     -14.766 -18.037   3.447  1.00  0.00     0.037 A 
BRANCH  61  75
ATOM     75  C   UNL     1      -9.444 -17.423   0.371  1.00  0.00     0.057 A 
ATOM     76  C   UNL     1      -8.553 -18.441   0.005  1.00  0.00     0.134 A 
ATOM     77  C   UNL     1      -9.680 -16.405  -0.561  1.00  0.00     0.134 A 
ATOM     78  F   UNL     1      -8.275 -19.439   0.857  1.00  0.00    -0.206 F 
ATOM     79  C   UNL     1      -7.902 -18.432  -1.229  1.00  0.00     0.040 A 
ATOM     80  C   UNL     1      -9.054 -16.399  -1.809  1.00  0.00     0.040 A 
ATOM     81  F   UNL     1     -10.526 -15.404  -0.278  1.00  0.00    -0.206 F 
ATOM     82  C   UNL     1      -8.157 -17.412  -2.144  1.00  0.00     0.006 A 
ENDBRANCH  61  75
BRANCH  62  83
ATOM     83  C   UNL     1     -13.797 -17.111   9.346  1.00  0.00     0.057 A 
ATOM     84  C   UNL     1     -14.321 -18.259   9.952  1.00  0.00     0.134 A 
ATOM     85  C   UNL     1     -13.924 -15.900  10.036  1.00  0.00     0.134 A 
ATOM     86  F   UNL     1     -14.245 -19.445   9.331  1.00  0.00    -0.206 F 
ATOM     87  C   UNL     1     -14.965 -18.203  11.189  1.00  0.00     0.040 A 
ATOM     88  C   UNL     1     -14.545 -15.834  11.285  1.00  0.00     0.040 A 
ATOM     89  F   UNL     1     -13.436 -14.767   9.512  1.00  0.00    -0.206 F 
ATOM     90  C   UNL     1     -15.074 -16.987  11.861  1.00  0.00     0.006 A 
ENDBRANCH  62  83
BRANCH  74  91
ATOM     91  C   UNL     1     -16.127 -18.369   2.910  1.00  0.00     0.057 A 
ATOM     92  C   UNL     1     -17.138 -17.406   2.812  1.00  0.00     0.134 A 
ATOM     93  C   UNL     1     -16.413 -19.660   2.448  1.00  0.00     0.134 A 
ATOM     94  F   UNL     1     -16.931 -16.155   3.250  1.00  0.00    -0.206 F 
ATOM     95  C   UNL     1     -18.395 -17.721   2.292  1.00  0.00     0.040 A 
ATOM     96  C   UNL     1     -17.657 -19.980   1.903  1.00  0.00     0.040 A 
ATOM     97  F   UNL     1     -15.484 -20.627   2.506  1.00  0.00    -0.206 F 
ATOM     98  C   UNL     1     -18.654 -19.010   1.828  1.00  0.00     0.006 A 
ENDBRANCH  74  91
ENDBRANCH  48  49
ENDBRANCH  40  43
ENDBRANCH  38  39
ENDBRANCH  37  38
ENDBRANCH  36  37
ENDBRANCH  35  36
ENDBRANCH  34  35
ENDBRANCH  33  34
ENDBRANCH   3  33
TORSDOF 23
