REMARK SMILES O=C(Cn1cccc1C(=O)N1CC[N@@H+]2CCC[C@@H]2C1)NCCCCCCNC(=O)c1ccc(-c2c3nc(c(-c4c(F)cccc4F)c4ccc([nH]4)c(-c4c(F)cccc4F)c4nc(c(-c5c(F)cccc5F)c5ccc2[nH]5)C=C4)C=C3)cc1
REMARK SMILES IDX 23 1 22 2 21 3 20 4 1 5 2 6 3 8 4 9 5 10 8 11 6 12 7 13 9 14
REMARK SMILES IDX 10 15 11 16 12 17 19 18 13 19 18 20 14 21 17 22 15 23 16 25
REMARK SMILES IDX 24 26 25 27 26 28 27 29 28 30 29 32 30 33 31 34 83 35 32 36
REMARK SMILES IDX 82 37 33 38 34 39 35 40 76 41 36 42 81 43 75 44 77 45 37 46
REMARK SMILES IDX 80 47 74 48 73 49 38 51 64 52 47 53 63 54 48 55 51 56 62 57
REMARK SMILES IDX 78 58 49 59 50 60 61 62 79 63 52 64 39 65 40 66 45 67 41 68
REMARK SMILES IDX 42 69 44 70 46 71 43 72 65 73 66 74 71 75 67 76 68 77 70 78
REMARK SMILES IDX 72 79 69 80 53 81 54 82 59 83 55 84 56 85 58 86 60 87 57 88
REMARK H PARENT 20 7 14 24 27 31 77 50 51 61
REMARK Flexibility Score: inf
ROOT
ATOM      1  C   UNL     1       4.133   3.046  -2.275  1.00  0.00     0.002 C 
ENDROOT
BRANCH   1   2
ATOM      2  C   UNL     1       2.640   2.896  -1.957  1.00  0.00     0.021 C 
BRANCH   2   3
ATOM      3  C   UNL     1       2.124   1.457  -2.004  1.00  0.00     0.116 C 
BRANCH   3   4
ATOM      4  N   UNL     1       2.846   0.586  -1.099  1.00  0.00    -0.355 N 
ATOM      5  O   UNL     1       1.686   1.227   0.752  1.00  0.00    -0.273 OA
ATOM      6  C   UNL     1       2.563   0.524   0.248  1.00  0.00     0.239 C 
ATOM      7  H   UNL     1       3.564   0.017  -1.459  1.00  0.00     0.163 HD
BRANCH   6   8
ATOM      8  C   UNL     1       3.451  -0.371   1.111  1.00  0.00     0.222 C 
BRANCH   8   9
ATOM      9  N   UNL     1       3.814  -1.639   0.485  1.00  0.00    -0.334 N 
ATOM     10  C   UNL     1       4.929  -1.713  -0.334  1.00  0.00     0.087 A 
ATOM     11  C   UNL     1       3.328  -2.920   0.721  1.00  0.00     0.107 A 
ATOM     12  C   UNL     1       5.096  -3.010  -0.738  1.00  0.00     0.020 A 
ATOM     13  C   UNL     1       4.094  -3.759  -0.093  1.00  0.00     0.033 A 
BRANCH  11  14
ATOM     14  C   UNL     1       2.425  -3.446   1.751  1.00  0.00     0.270 C 
ATOM     15  O   UNL     1       2.666  -4.543   2.260  1.00  0.00    -0.267 OA
BRANCH  14  16
ATOM     16  N   UNL     1       1.345  -2.714   2.225  1.00  0.00    -0.326 N 
ATOM     17  C   UNL     1       0.508  -1.812   1.453  1.00  0.00     0.181 C 
ATOM     18  C   UNL     1       1.028  -2.816   3.639  1.00  0.00     0.185 C 
ATOM     19  C   UNL     1      -0.960  -1.643   1.923  1.00  0.00     0.284 C 
ATOM     20  C   UNL     1      -0.451  -3.094   3.907  1.00  0.00     0.204 C 
ATOM     21  N   UNL     1      -1.431  -2.336   3.118  1.00  0.00    -0.330 N 
ATOM     22  C   UNL     1      -0.803  -2.807   5.371  1.00  0.00     0.073 C 
ATOM     23  C   UNL     1      -2.245  -1.518   4.014  1.00  0.00     0.262 C 
ATOM     24  H   UNL     1      -2.017  -3.040   2.668  1.00  0.00     0.348 HD
ATOM     25  C   UNL     1      -2.229  -2.298   5.315  1.00  0.00     0.068 C 
ENDBRANCH  14  16
ENDBRANCH  11  14
ENDBRANCH   8   9
ENDBRANCH   6   8
ENDBRANCH   3   4
ENDBRANCH   2   3
ENDBRANCH   1   2
BRANCH   1  26
ATOM     26  C   UNL     1       4.573   2.479  -3.629  1.00  0.00     0.002 C 
BRANCH  26  27
ATOM     27  C   UNL     1       3.830   3.046  -4.846  1.00  0.00     0.021 C 
BRANCH  27  28
ATOM     28  C   UNL     1       4.061   4.542  -5.072  1.00  0.00     0.116 C 
BRANCH  28  29
ATOM     29  N   UNL     1       5.440   4.793  -5.455  1.00  0.00    -0.352 N 
ATOM     30  C   UNL     1       6.042   5.933  -5.914  1.00  0.00     0.251 C 
ATOM     31  H   UNL     1       6.039   4.016  -5.370  1.00  0.00     0.163 HD
ATOM     32  O   UNL     1       7.103   5.835  -6.522  1.00  0.00    -0.269 OA
BRANCH  30  33
ATOM     33  C   UNL     1       5.454   7.274  -5.705  1.00  0.00     0.039 A 
ATOM     34  C   UNL     1       5.634   8.221  -6.722  1.00  0.00     0.014 A 
ATOM     35  C   UNL     1       4.847   7.646  -4.500  1.00  0.00     0.014 A 
ATOM     36  C   UNL     1       5.162   9.519  -6.559  1.00  0.00     0.010 A 
ATOM     37  C   UNL     1       4.362   8.944  -4.336  1.00  0.00     0.010 A 
ATOM     38  C   UNL     1       4.500   9.872  -5.376  1.00  0.00    -0.014 A 
BRANCH  38  39
ATOM     39  C   UNL     1       3.746  11.149  -5.356  1.00  0.00     0.031 A 
ATOM     40  C   UNL     1       2.377  10.994  -6.064  1.00  0.00     0.074 A 
ATOM     41  C   UNL     1       4.356  12.230  -4.775  1.00  0.00     0.049 A 
ATOM     42  N   UNL     1       1.604  11.888  -6.600  1.00  0.00    -0.248 NA
ATOM     43  C   UNL     1       1.800   9.629  -6.250  1.00  0.00     0.031 C 
ATOM     44  C   UNL     1       5.668  12.187  -4.092  1.00  0.00     0.029 A 
ATOM     45  N   UNL     1       4.028  13.569  -4.635  1.00  0.00    -0.354 N 
ATOM     46  C   UNL     1       0.396  11.249  -6.977  1.00  0.00     0.074 A 
ATOM     47  C   UNL     1       0.622   9.846  -6.839  1.00  0.00     0.031 C 
ATOM     48  C   UNL     1       6.055  13.422  -3.701  1.00  0.00     0.029 A 
ATOM     49  C   UNL     1       5.042  14.394  -4.066  1.00  0.00     0.049 A 
ATOM     50  H   UNL     1       3.153  13.926  -4.910  1.00  0.00     0.167 HD
ATOM     51  C   UNL     1      -0.755  11.935  -7.251  1.00  0.00     0.037 A 
ATOM     52  C   UNL     1       5.080  15.761  -3.933  1.00  0.00     0.037 A 
ATOM     53  C   UNL     1      -0.497  13.331  -7.197  1.00  0.00     0.049 A 
ATOM     54  C   UNL     1       3.736  16.215  -4.300  1.00  0.00     0.074 A 
ATOM     55  C   UNL     1       0.198  14.161  -8.034  1.00  0.00     0.029 A 
ATOM     56  N   UNL     1      -0.675  13.942  -5.981  1.00  0.00    -0.354 N 
ATOM     57  N   UNL     1       2.688  16.082  -3.546  1.00  0.00    -0.248 NA
ATOM     58  C   UNL     1       3.525  16.807  -5.626  1.00  0.00     0.031 C 
ATOM     59  C   UNL     1       0.842  15.036  -7.142  1.00  0.00     0.029 A 
ATOM     60  C   UNL     1       0.321  14.873  -5.852  1.00  0.00     0.049 A 
ATOM     61  H   UNL     1      -1.384  13.748  -5.327  1.00  0.00     0.167 HD
ATOM     62  C   UNL     1       1.670  16.235  -4.453  1.00  0.00     0.074 A 
ATOM     63  C   UNL     1       2.210  16.995  -5.560  1.00  0.00     0.031 C 
ATOM     64  C   UNL     1       0.708  15.280  -4.524  1.00  0.00     0.037 A 
BRANCH  51  65
ATOM     65  C   UNL     1      -2.200  11.526  -7.346  1.00  0.00     0.057 A 
ATOM     66  C   UNL     1      -3.118  12.444  -7.918  1.00  0.00     0.134 A 
ATOM     67  C   UNL     1      -2.767  10.495  -6.593  1.00  0.00     0.134 A 
ATOM     68  F   UNL     1      -2.697  13.441  -8.714  1.00  0.00    -0.206 F 
ATOM     69  C   UNL     1      -4.483  12.431  -7.624  1.00  0.00     0.040 A 
ATOM     70  C   UNL     1      -4.146  10.444  -6.333  1.00  0.00     0.040 A 
ATOM     71  F   UNL     1      -2.010   9.560  -6.007  1.00  0.00    -0.206 F 
ATOM     72  C   UNL     1      -4.998  11.439  -6.806  1.00  0.00     0.006 A 
ENDBRANCH  51  65
BRANCH  52  73
ATOM     73  C   UNL     1       6.060  16.869  -3.590  1.00  0.00     0.057 A 
ATOM     74  C   UNL     1       7.366  16.709  -3.125  1.00  0.00     0.134 A 
ATOM     75  C   UNL     1       5.710  18.233  -3.831  1.00  0.00     0.134 A 
ATOM     76  F   UNL     1       7.822  15.518  -2.726  1.00  0.00    -0.206 F 
ATOM     77  C   UNL     1       8.275  17.788  -3.032  1.00  0.00     0.040 A 
ATOM     78  C   UNL     1       6.612  19.302  -3.795  1.00  0.00     0.040 A 
ATOM     79  F   UNL     1       4.458  18.609  -4.122  1.00  0.00    -0.206 F 
ATOM     80  C   UNL     1       7.915  19.078  -3.412  1.00  0.00     0.006 A 
ENDBRANCH  52  73
BRANCH  64  81
ATOM     81  C   UNL     1       0.497  14.510  -3.232  1.00  0.00     0.057 A 
ATOM     82  C   UNL     1       0.129  15.195  -2.065  1.00  0.00     0.134 A 
ATOM     83  C   UNL     1       0.771  13.144  -3.064  1.00  0.00     0.134 A 
ATOM     84  F   UNL     1      -0.175  16.501  -2.120  1.00  0.00    -0.206 F 
ATOM     85  C   UNL     1       0.072  14.571  -0.811  1.00  0.00     0.040 A 
ATOM     86  C   UNL     1       0.712  12.500  -1.819  1.00  0.00     0.040 A 
ATOM     87  F   UNL     1       1.115  12.381  -4.099  1.00  0.00    -0.206 F 
ATOM     88  C   UNL     1       0.371  13.219  -0.682  1.00  0.00     0.006 A 
ENDBRANCH  64  81
ENDBRANCH  38  39
ENDBRANCH  30  33
ENDBRANCH  28  29
ENDBRANCH  27  28
ENDBRANCH  26  27
ENDBRANCH   1  26
TORSDOF 16
