REMARK SMILES C/C(=N\O)[C@@H]1C[C@@H](CC(=O)NCCCCCCNC(=O)c2ccc(-c3c4nc(c(-c5c(F)cccc5F)c5ccc([nH]5)c(-c5c(F)cccc5F)c5nc(c(-c6c(F)cccc6F)c6ccc3[nH]6)C=C5)C=C4)cc2)C1(C)C
REMARK SMILES IDX 14 1 13 2 12 3 11 4 9 5 10 6 8 8 7 9 5 10 6 11 75 12 76 13
REMARK SMILES IDX 77 14 2 15 1 16 3 17 4 18 15 20 16 21 17 22 18 23 19 24
REMARK SMILES IDX 20 26 21 27 22 28 74 29 23 30 73 31 24 32 25 33 26 34 67 35
REMARK SMILES IDX 27 36 72 37 66 38 68 39 28 40 71 41 65 42 64 43 29 45 55 46
REMARK SMILES IDX 38 47 54 48 39 49 42 50 53 51 69 52 40 53 41 54 52 56 70 57
REMARK SMILES IDX 43 58 30 59 31 60 36 61 32 62 33 63 35 64 37 65 34 66 56 67
REMARK SMILES IDX 57 68 62 69 58 70 59 71 61 72 63 73 60 74 44 75 45 76 50 77
REMARK SMILES IDX 46 78 47 79 49 80 51 81 48 82
REMARK H PARENT 11 7 4 19 18 25 68 44 42 55
REMARK Flexibility Score: inf
ROOT
ATOM      1  C   UNL     1       6.374   0.986   2.951  1.00  0.00     0.002 C 
ENDROOT
BRANCH   1   2
ATOM      2  C   UNL     1       4.950   1.438   2.642  1.00  0.00     0.021 C 
BRANCH   2   3
ATOM      3  C   UNL     1       3.913   1.085   3.713  1.00  0.00     0.116 C 
BRANCH   3   4
ATOM      4  N   UNL     1       3.498   2.269   4.439  1.00  0.00    -0.356 N 
ATOM      5  C   UNL     1       2.318   2.944   4.439  1.00  0.00     0.220 C 
ATOM      6  O   UNL     1       2.251   3.986   5.095  1.00  0.00    -0.275 OA
ATOM      7  H   UNL     1       4.187   2.648   5.032  1.00  0.00     0.163 HD
BRANCH   5   8
ATOM      8  C   UNL     1       1.113   2.447   3.656  1.00  0.00     0.104 C 
BRANCH   8   9
ATOM      9  C   UNL     1       0.963   3.083   2.272  1.00  0.00     0.005 C 
ATOM     10  C   UNL     1       0.187   2.782   0.245  1.00  0.00     0.043 C 
ATOM     11  C   UNL     1      -0.439   3.087   1.624  1.00  0.00     0.015 C 
ATOM     12  C   UNL     1       1.501   2.345   0.992  1.00  0.00    -0.024 C 
ATOM     13  C   UNL     1       1.581   0.819   0.915  1.00  0.00     0.012 C 
ATOM     14  C   UNL     1       2.806   3.017   0.554  1.00  0.00     0.012 C 
BRANCH  10  15
ATOM     15  C   UNL     1       0.385   3.852  -0.878  1.00  0.00     0.058 C 
ATOM     16  C   UNL     1      -0.052   5.274  -0.649  1.00  0.00     0.066 C 
ATOM     17  N   UNL     1       1.001   3.417  -1.941  1.00  0.00    -0.099 NA
BRANCH  17  18
ATOM     18  O   UNL     1       1.271   4.429  -2.861  1.00  0.00    -0.411 OA
ATOM     19  H   UNL     1       1.712   4.228  -3.662  1.00  0.00     0.330 HD
ENDBRANCH  17  18
ENDBRANCH  10  15
ENDBRANCH   8   9
ENDBRANCH   5   8
ENDBRANCH   3   4
ENDBRANCH   2   3
ENDBRANCH   1   2
BRANCH   1  20
ATOM     20  C   UNL     1       6.580  -0.529   2.961  1.00  0.00     0.002 C 
BRANCH  20  21
ATOM     21  C   UNL     1       6.179  -1.260   1.676  1.00  0.00     0.021 C 
BRANCH  21  22
ATOM     22  C   UNL     1       6.787  -0.699   0.393  1.00  0.00     0.116 C 
BRANCH  22  23
ATOM     23  N   UNL     1       8.242  -0.697   0.429  1.00  0.00    -0.352 N 
ATOM     24  C   UNL     1       9.135  -1.419  -0.325  1.00  0.00     0.251 C 
ATOM     25  H   UNL     1       8.645  -0.089   1.091  1.00  0.00     0.163 HD
ATOM     26  O   UNL     1      10.320  -1.459  -0.025  1.00  0.00    -0.269 OA
BRANCH  24  27
ATOM     27  C   UNL     1       8.643  -2.163  -1.501  1.00  0.00     0.039 A 
ATOM     28  C   UNL     1       8.987  -3.507  -1.655  1.00  0.00     0.014 A 
ATOM     29  C   UNL     1       7.826  -1.526  -2.438  1.00  0.00     0.014 A 
ATOM     30  C   UNL     1       8.449  -4.238  -2.717  1.00  0.00     0.010 A 
ATOM     31  C   UNL     1       7.235  -2.272  -3.451  1.00  0.00     0.010 A 
ATOM     32  C   UNL     1       7.539  -3.636  -3.600  1.00  0.00    -0.014 A 
BRANCH  32  33
ATOM     33  C   UNL     1       6.889  -4.395  -4.698  1.00  0.00     0.031 A 
ATOM     34  C   UNL     1       7.132  -3.987  -6.125  1.00  0.00     0.074 A 
ATOM     35  C   UNL     1       6.003  -5.369  -4.412  1.00  0.00     0.049 A 
ATOM     36  N   UNL     1       6.534  -4.394  -7.215  1.00  0.00    -0.248 NA
ATOM     37  C   UNL     1       8.163  -2.961  -6.353  1.00  0.00     0.031 C 
ATOM     38  C   UNL     1       5.657  -5.833  -3.067  1.00  0.00     0.029 A 
ATOM     39  N   UNL     1       5.207  -6.125  -5.237  1.00  0.00    -0.354 N 
ATOM     40  C   UNL     1       7.092  -3.653  -8.249  1.00  0.00     0.074 A 
ATOM     41  C   UNL     1       8.051  -2.748  -7.656  1.00  0.00     0.031 C 
ATOM     42  C   UNL     1       4.718  -6.789  -3.159  1.00  0.00     0.029 A 
ATOM     43  C   UNL     1       4.359  -6.971  -4.562  1.00  0.00     0.049 A 
ATOM     44  H   UNL     1       5.240  -6.066  -6.219  1.00  0.00     0.167 HD
ATOM     45  C   UNL     1       6.836  -3.732  -9.576  1.00  0.00     0.037 A 
ATOM     46  C   UNL     1       3.381  -7.778  -5.020  1.00  0.00     0.037 A 
ATOM     47  C   UNL     1       5.910  -4.663 -10.163  1.00  0.00     0.049 A 
ATOM     48  C   UNL     1       3.113  -7.838  -6.501  1.00  0.00     0.074 A 
ATOM     49  C   UNL     1       5.639  -4.873 -11.504  1.00  0.00     0.029 A 
ATOM     50  N   UNL     1       5.103  -5.534  -9.448  1.00  0.00    -0.354 N 
ATOM     51  N   UNL     1       3.699  -7.184  -7.474  1.00  0.00    -0.248 NA
ATOM     52  C   UNL     1       2.049  -8.750  -6.949  1.00  0.00     0.031 C 
ATOM     53  C   UNL     1       4.626  -5.830 -11.598  1.00  0.00     0.029 A 
ATOM     54  C   UNL     1       4.313  -6.263 -10.320  1.00  0.00     0.049 A 
ATOM     55  H   UNL     1       5.093  -5.620  -8.468  1.00  0.00     0.167 HD
ATOM     56  C   UNL     1       3.105  -7.634  -8.647  1.00  0.00     0.074 A 
ATOM     57  C   UNL     1       2.118  -8.620  -8.266  1.00  0.00     0.031 C 
ATOM     58  C   UNL     1       3.356  -7.264  -9.926  1.00  0.00     0.037 A 
BRANCH  45  59
ATOM     59  C   UNL     1       7.559  -2.790 -10.492  1.00  0.00     0.057 A 
ATOM     60  C   UNL     1       8.926  -2.922 -10.764  1.00  0.00     0.134 A 
ATOM     61  C   UNL     1       6.858  -1.786 -11.173  1.00  0.00     0.134 A 
ATOM     62  F   UNL     1       9.657  -3.857 -10.139  1.00  0.00    -0.206 F 
ATOM     63  C   UNL     1       9.573  -2.080 -11.671  1.00  0.00     0.040 A 
ATOM     64  C   UNL     1       7.488  -0.957 -12.102  1.00  0.00     0.040 A 
ATOM     65  F   UNL     1       5.545  -1.609 -10.963  1.00  0.00    -0.206 F 
ATOM     66  C   UNL     1       8.851  -1.102 -12.351  1.00  0.00     0.006 A 
ENDBRANCH  45  59
BRANCH  46  67
ATOM     67  C   UNL     1       2.564  -8.585  -4.075  1.00  0.00     0.057 A 
ATOM     68  C   UNL     1       2.632  -9.983  -4.068  1.00  0.00     0.134 A 
ATOM     69  C   UNL     1       1.662  -7.982  -3.189  1.00  0.00     0.134 A 
ATOM     70  F   UNL     1       3.462 -10.623  -4.905  1.00  0.00    -0.206 F 
ATOM     71  C   UNL     1       1.808 -10.753  -3.244  1.00  0.00     0.040 A 
ATOM     72  C   UNL     1       0.856  -8.738  -2.337  1.00  0.00     0.040 A 
ATOM     73  F   UNL     1       1.554  -6.646  -3.136  1.00  0.00    -0.206 F 
ATOM     74  C   UNL     1       0.918 -10.129  -2.373  1.00  0.00     0.006 A 
ENDBRANCH  46  67
BRANCH  58  75
ATOM     75  C   UNL     1       2.605  -7.967 -11.018  1.00  0.00     0.057 A 
ATOM     76  C   UNL     1       1.248  -7.725 -11.263  1.00  0.00     0.134 A 
ATOM     77  C   UNL     1       3.275  -8.839 -11.887  1.00  0.00     0.134 A 
ATOM     78  F   UNL     1       0.547  -6.910 -10.461  1.00  0.00    -0.206 F 
ATOM     79  C   UNL     1       0.581  -8.335 -12.327  1.00  0.00     0.040 A 
ATOM     80  C   UNL     1       2.627  -9.431 -12.970  1.00  0.00     0.040 A 
ATOM     81  F   UNL     1       4.578  -9.106 -11.713  1.00  0.00    -0.206 F 
ATOM     82  C   UNL     1       1.274  -9.182 -13.191  1.00  0.00     0.006 A 
ENDBRANCH  58  75
ENDBRANCH  32  33
ENDBRANCH  24  27
ENDBRANCH  22  23
ENDBRANCH  21  22
ENDBRANCH  20  21
ENDBRANCH   1  20
TORSDOF 16
