REMARK SMILES CN(C)c1cccc(C(=O)CCCC(=O)NCCCCCCNC(=O)c2ccc(-c3c4nc(c(-c5c(F)cccc5F)c5ccc([nH]5)c(-c5c(F)cccc5F)c5nc(c(-c6c(F)cccc6F)c6ccc3[nH]6)C=C5)C=C4)cc2)c1
REMARK SMILES IDX 18 1 17 2 16 3 14 4 15 5 13 7 12 8 11 9 9 10 10 11 8 12 4 13
REMARK SMILES IDX 5 14 80 15 6 16 7 17 2 18 1 19 3 20 19 21 20 22 21 23 22 24
REMARK SMILES IDX 23 25 24 26 25 28 26 29 27 30 79 31 28 32 78 33 29 34 30 35
REMARK SMILES IDX 31 36 72 37 32 38 77 39 71 40 73 41 33 42 76 43 70 44 69 45
REMARK SMILES IDX 34 47 60 48 43 49 59 50 44 51 47 52 58 53 74 54 45 55 46 56
REMARK SMILES IDX 57 58 75 59 48 60 35 61 36 62 41 63 37 64 38 65 40 66 42 67
REMARK SMILES IDX 39 68 61 69 62 70 67 71 63 72 64 73 66 74 68 75 65 76 49 77
REMARK SMILES IDX 50 78 55 79 51 80 52 81 54 82 56 83 53 84
REMARK H PARENT 16 6 23 27 73 46 47 57
REMARK Flexibility Score: inf
ROOT
ATOM      1  C   UNL     1       5.410   0.100  -3.598  1.00  0.00     0.021 C 
ENDROOT
BRANCH   1   2
ATOM      2  C   UNL     1       4.132   0.222  -2.769  1.00  0.00     0.116 C 
BRANCH   2   3
ATOM      3  N   UNL     1       4.275  -0.418  -1.482  1.00  0.00    -0.356 N 
ATOM      4  C   UNL     1       4.336  -0.007  -0.198  1.00  0.00     0.220 C 
ATOM      5  O   UNL     1       4.424  -0.927   0.629  1.00  0.00    -0.275 OA
ATOM      6  H   UNL     1       4.346  -1.397  -1.560  1.00  0.00     0.163 HD
BRANCH   4   7
ATOM      7  C   UNL     1       4.167   1.418   0.332  1.00  0.00     0.100 C 
BRANCH   7   8
ATOM      8  C   UNL     1       4.892   2.665  -0.162  1.00  0.00     0.018 C 
BRANCH   8   9
ATOM      9  C   UNL     1       4.823   3.228  -1.577  1.00  0.00     0.081 C 
BRANCH   9  10
ATOM     10  C   UNL     1       3.634   4.006  -2.177  1.00  0.00     0.162 C 
ATOM     11  O   UNL     1       3.857   5.136  -2.629  1.00  0.00    -0.294 OA
BRANCH  10  12
ATOM     12  C   UNL     1       2.256   3.451  -2.429  1.00  0.00     0.020 A 
ATOM     13  C   UNL     1       0.462   1.778  -2.098  1.00  0.00     0.037 A 
ATOM     14  C   UNL     1      -0.307   2.453  -3.045  1.00  0.00     0.026 A 
ATOM     15  C   UNL     1       1.732   2.312  -1.819  1.00  0.00     0.037 A 
ATOM     16  C   UNL     1       0.169   3.610  -3.667  1.00  0.00     0.003 A 
ATOM     17  C   UNL     1       1.441   4.103  -3.362  1.00  0.00     0.012 A 
BRANCH  13  18
ATOM     18  N   UNL     1       0.015   0.624  -1.474  1.00  0.00    -0.378 N 
ATOM     19  C   UNL     1       0.322   0.352  -0.075  1.00  0.00     0.143 C 
ATOM     20  C   UNL     1      -0.594  -0.432  -2.269  1.00  0.00     0.143 C 
ENDBRANCH  13  18
ENDBRANCH  10  12
ENDBRANCH   9  10
ENDBRANCH   8   9
ENDBRANCH   7   8
ENDBRANCH   4   7
ENDBRANCH   2   3
ENDBRANCH   1   2
BRANCH   1  21
ATOM     21  C   UNL     1       5.348  -1.057  -4.597  1.00  0.00     0.002 C 
BRANCH  21  22
ATOM     22  C   UNL     1       4.356  -0.843  -5.749  1.00  0.00     0.002 C 
BRANCH  22  23
ATOM     23  C   UNL     1       4.612   0.397  -6.610  1.00  0.00     0.021 C 
BRANCH  23  24
ATOM     24  C   UNL     1       6.023   0.496  -7.175  1.00  0.00     0.116 C 
BRANCH  24  25
ATOM     25  N   UNL     1       6.369  -0.663  -7.986  1.00  0.00    -0.352 N 
ATOM     26  C   UNL     1       6.849  -0.704  -9.272  1.00  0.00     0.251 C 
ATOM     27  H   UNL     1       6.243  -1.537  -7.552  1.00  0.00     0.163 HD
ATOM     28  O   UNL     1       6.905  -1.756  -9.889  1.00  0.00    -0.269 OA
BRANCH  26  29
ATOM     29  C   UNL     1       7.286   0.556  -9.903  1.00  0.00     0.039 A 
ATOM     30  C   UNL     1       6.825   0.879 -11.181  1.00  0.00     0.014 A 
ATOM     31  C   UNL     1       8.129   1.425  -9.207  1.00  0.00     0.014 A 
ATOM     32  C   UNL     1       7.165   2.112 -11.741  1.00  0.00     0.010 A 
ATOM     33  C   UNL     1       8.402   2.680  -9.732  1.00  0.00     0.010 A 
ATOM     34  C   UNL     1       7.930   3.033 -11.006  1.00  0.00    -0.014 A 
BRANCH  34  35
ATOM     35  C   UNL     1       8.286   4.366 -11.547  1.00  0.00     0.031 A 
ATOM     36  C   UNL     1       9.733   4.710 -11.762  1.00  0.00     0.074 A 
ATOM     37  C   UNL     1       7.328   5.291 -11.747  1.00  0.00     0.049 A 
ATOM     38  N   UNL     1      10.276   5.861 -12.065  1.00  0.00    -0.248 NA
ATOM     39  C   UNL     1      10.703   3.618 -11.574  1.00  0.00     0.031 C 
ATOM     40  C   UNL     1       5.893   5.085 -11.545  1.00  0.00     0.029 A 
ATOM     41  N   UNL     1       7.423   6.602 -12.142  1.00  0.00    -0.354 N 
ATOM     42  C   UNL     1      11.646   5.637 -12.078  1.00  0.00     0.074 A 
ATOM     43  C   UNL     1      11.855   4.257 -11.700  1.00  0.00     0.031 C 
ATOM     44  C   UNL     1       5.242   6.226 -11.826  1.00  0.00     0.029 A 
ATOM     45  C   UNL     1       6.215   7.255 -12.179  1.00  0.00     0.049 A 
ATOM     46  H   UNL     1       8.276   7.034 -12.376  1.00  0.00     0.167 HD
ATOM     47  C   UNL     1      12.640   6.500 -12.395  1.00  0.00     0.037 A 
ATOM     48  C   UNL     1       5.929   8.543 -12.446  1.00  0.00     0.037 A 
ATOM     49  C   UNL     1      12.420   7.865 -12.793  1.00  0.00     0.049 A 
ATOM     50  C   UNL     1       7.053   9.489 -12.776  1.00  0.00     0.074 A 
ATOM     51  C   UNL     1      13.353   8.809 -13.183  1.00  0.00     0.029 A 
ATOM     52  N   UNL     1      11.178   8.480 -12.848  1.00  0.00    -0.354 N 
ATOM     53  N   UNL     1       8.341   9.255 -12.835  1.00  0.00    -0.248 NA
ATOM     54  C   UNL     1       6.682  10.879 -13.079  1.00  0.00     0.031 C 
ATOM     55  C   UNL     1      12.681  10.010 -13.426  1.00  0.00     0.029 A 
ATOM     56  C   UNL     1      11.323   9.797 -13.248  1.00  0.00     0.049 A 
ATOM     57  H   UNL     1      10.322   8.045 -12.634  1.00  0.00     0.167 HD
ATOM     58  C   UNL     1       8.930  10.452 -13.224  1.00  0.00     0.074 A 
ATOM     59  C   UNL     1       7.857  11.410 -13.387  1.00  0.00     0.031 C 
ATOM     60  C   UNL     1      10.240  10.730 -13.432  1.00  0.00     0.037 A 
BRANCH  47  61
ATOM     61  C   UNL     1      14.050   5.991 -12.321  1.00  0.00     0.057 A 
ATOM     62  C   UNL     1      14.542   5.032 -13.216  1.00  0.00     0.134 A 
ATOM     63  C   UNL     1      14.938   6.487 -11.357  1.00  0.00     0.134 A 
ATOM     64  F   UNL     1      13.741   4.505 -14.156  1.00  0.00    -0.206 F 
ATOM     65  C   UNL     1      15.853   4.561 -13.136  1.00  0.00     0.040 A 
ATOM     66  C   UNL     1      16.261   6.047 -11.288  1.00  0.00     0.040 A 
ATOM     67  F   UNL     1      14.537   7.412 -10.472  1.00  0.00    -0.206 F 
ATOM     68  C   UNL     1      16.720   5.075 -12.174  1.00  0.00     0.006 A 
ENDBRANCH  47  61
BRANCH  48  69
ATOM     69  C   UNL     1       4.521   9.015 -12.427  1.00  0.00     0.057 A 
ATOM     70  C   UNL     1       3.873   9.398 -13.608  1.00  0.00     0.134 A 
ATOM     71  C   UNL     1       3.793   9.109 -11.235  1.00  0.00     0.134 A 
ATOM     72  F   UNL     1       4.522   9.347 -14.781  1.00  0.00    -0.206 F 
ATOM     73  C   UNL     1       2.563   9.879 -13.602  1.00  0.00     0.040 A 
ATOM     74  C   UNL     1       2.473   9.562 -11.218  1.00  0.00     0.040 A 
ATOM     75  F   UNL     1       4.351   8.750 -10.070  1.00  0.00    -0.206 F 
ATOM     76  C   UNL     1       1.857   9.958 -12.404  1.00  0.00     0.006 A 
ENDBRANCH  48  69
BRANCH  60  77
ATOM     77  C   UNL     1      10.588  12.104 -13.926  1.00  0.00     0.057 A 
ATOM     78  C   UNL     1      10.513  13.235 -13.104  1.00  0.00     0.134 A 
ATOM     79  C   UNL     1      11.067  12.282 -15.231  1.00  0.00     0.134 A 
ATOM     80  F   UNL     1      10.051  13.135 -11.849  1.00  0.00    -0.206 F 
ATOM     81  C   UNL     1      10.888  14.497 -13.568  1.00  0.00     0.040 A 
ATOM     82  C   UNL     1      11.473  13.533 -15.696  1.00  0.00     0.040 A 
ATOM     83  F   UNL     1      11.173  11.238 -16.067  1.00  0.00    -0.206 F 
ATOM     84  C   UNL     1      11.379  14.647 -14.864  1.00  0.00     0.006 A 
ENDBRANCH  60  77
ENDBRANCH  34  35
ENDBRANCH  26  29
ENDBRANCH  24  25
ENDBRANCH  23  24
ENDBRANCH  22  23
ENDBRANCH  21  22
ENDBRANCH   1  21
TORSDOF 18
