REMARK SMILES Cc1cc(C(=O)N[C@@H]2C(=O)N3C(C(=O)NCCCCCCNC(=O)c4ccc(-c5c6nc(c(-c7c(F)cccc7F)c7ccc([nH]7)c(-c7c(F)cccc7F)c7nc(c(-c8c(F)cccc8F)c8ccc5[nH]8)C=C7)C=C6)cc4)=C(CSc4nnc(C)s4)CS[C@H]23)n(C)n1
REMARK SMILES IDX 18 1 17 2 16 3 15 4 13 5 14 6 12 8 8 9 9 10 90 11 10 12
REMARK SMILES IDX 11 13 89 14 88 15 79 16 7 17 5 18 6 19 4 21 1 22 2 23 3 24
REMARK SMILES IDX 93 25 91 26 92 27 80 28 81 29 82 30 83 31 87 32 84 33 85 34
REMARK SMILES IDX 86 35 19 36 20 37 21 38 22 39 23 40 24 42 25 43 26 44 78 45
REMARK SMILES IDX 27 46 77 47 28 48 29 49 30 50 71 51 31 52 76 53 70 54 72 55
REMARK SMILES IDX 32 56 75 57 69 58 68 59 33 61 59 62 42 63 58 64 43 65 46 66
REMARK SMILES IDX 57 67 73 68 44 69 45 70 56 72 74 73 47 74 34 75 35 76 40 77
REMARK SMILES IDX 36 78 37 79 39 80 41 81 38 82 60 83 61 84 66 85 62 86 63 87
REMARK SMILES IDX 65 88 67 89 64 90 48 91 49 92 54 93 50 94 51 95 53 96 55 97
REMARK SMILES IDX 52 98
REMARK H PARENT 15 7 7 20 22 41 72 60 46 71
REMARK Flexibility Score: inf
ROOT
ATOM      1  C   UNL     1      -6.252   1.139  -4.656  1.00  0.00     0.002 C 
ENDROOT
BRANCH   1   2
ATOM      2  C   UNL     1      -5.682  -0.131  -4.039  1.00  0.00     0.021 C 
BRANCH   2   3
ATOM      3  C   UNL     1      -4.231  -0.480  -4.399  1.00  0.00     0.116 C 
BRANCH   3   4
ATOM      4  N   UNL     1      -3.377  -0.368  -3.234  1.00  0.00    -0.351 N 
ATOM      5  C   UNL     1      -2.696  -1.167  -2.383  1.00  0.00     0.268 C 
ATOM      6  O   UNL     1      -1.942  -0.512  -1.649  1.00  0.00    -0.268 OA
ATOM      7  H   UNL     1      -3.257   0.577  -2.987  1.00  0.00     0.163 HD
BRANCH   5   8
ATOM      8  C   UNL     1      -2.604  -2.707  -2.370  1.00  0.00     0.111 C 
ATOM      9  C   UNL     1      -0.149  -4.074  -0.361  1.00  0.00     0.206 C 
ATOM     10  C   UNL     1      -1.132  -2.869  -0.341  1.00  0.00     0.253 C 
ATOM     11  C   UNL     1      -0.973  -4.484  -1.615  1.00  0.00     0.181 C 
ATOM     12  O   UNL     1      -1.514  -2.103   0.524  1.00  0.00    -0.272 OA
ATOM     13  N   UNL     1      -1.503  -3.135  -1.633  1.00  0.00    -0.290 N 
ATOM     14  S   UNL     1      -2.348  -5.643  -1.355  1.00  0.00    -0.129 SA
ATOM     15  C   UNL     1      -3.065  -5.138  -2.917  1.00  0.00     0.106 C 
ATOM     16  C   UNL     1      -3.452  -3.665  -2.862  1.00  0.00    -0.020 C 
BRANCH   9  17
ATOM     17  N   UNL     1      -0.109  -4.961   0.834  1.00  0.00    -0.336 N 
ATOM     18  C   UNL     1       0.233  -6.297   0.931  1.00  0.00     0.270 C 
ATOM     19  O   UNL     1       0.208  -6.812   2.047  1.00  0.00    -0.268 OA
ATOM     20  H   UNL     1      -0.364  -4.532   1.682  1.00  0.00     0.164 HD
BRANCH  18  21
ATOM     21  C   UNL     1       0.522  -7.035  -0.278  1.00  0.00     0.126 A 
ATOM     22  C   UNL     1       0.648  -7.408  -3.898  1.00  0.00     0.069 C 
ATOM     23  C   UNL     1       0.678  -7.568  -2.425  1.00  0.00     0.060 A 
ATOM     24  C   UNL     1       1.139  -6.648  -1.458  1.00  0.00     0.059 A 
ATOM     25  N   UNL     1       0.130  -8.636  -1.846  1.00  0.00    -0.178 NA
ATOM     26  N   UNL     1       0.140  -8.336  -0.527  1.00  0.00    -0.263 N 
ATOM     27  C   UNL     1      -0.316  -9.353   0.392  1.00  0.00     0.174 C 
ENDBRANCH  18  21
ENDBRANCH   9  17
BRANCH  16  28
ATOM     28  C   UNL     1      -4.914  -3.522  -3.215  1.00  0.00     0.111 C 
BRANCH  28  29
ATOM     29  S   UNL     1      -5.744  -2.497  -2.013  1.00  0.00    -0.089 SA
BRANCH  29  30
ATOM     30  C   UNL     1      -6.917  -3.469  -1.225  1.00  0.00     0.174 A 
ATOM     31  N   UNL     1      -6.731  -4.705  -0.825  1.00  0.00    -0.132 NA
ATOM     32  S   UNL     1      -8.313  -2.713  -0.584  1.00  0.00    -0.091 S 
ATOM     33  N   UNL     1      -7.544  -4.990   0.264  1.00  0.00    -0.143 NA
ATOM     34  C   UNL     1      -8.280  -3.948   0.601  1.00  0.00     0.115 A 
ATOM     35  C   UNL     1      -8.937  -3.722   1.908  1.00  0.00     0.081 C 
ENDBRANCH  29  30
ENDBRANCH  28  29
ENDBRANCH  16  28
ENDBRANCH   5   8
ENDBRANCH   3   4
ENDBRANCH   2   3
ENDBRANCH   1   2
BRANCH   1  36
ATOM     36  C   UNL     1      -6.374   1.107  -6.176  1.00  0.00     0.002 C 
BRANCH  36  37
ATOM     37  C   UNL     1      -7.168  -0.073  -6.742  1.00  0.00     0.021 C 
BRANCH  37  38
ATOM     38  C   UNL     1      -8.575  -0.238  -6.171  1.00  0.00     0.116 C 
BRANCH  38  39
ATOM     39  N   UNL     1      -9.382   0.956  -6.364  1.00  0.00    -0.352 N 
ATOM     40  C   UNL     1     -10.477   1.145  -7.167  1.00  0.00     0.251 C 
ATOM     41  H   UNL     1      -9.102   1.742  -5.841  1.00  0.00     0.163 HD
ATOM     42  O   UNL     1     -10.885   2.276  -7.410  1.00  0.00    -0.269 OA
BRANCH  40  43
ATOM     43  C   UNL     1     -11.165  -0.027  -7.741  1.00  0.00     0.039 A 
ATOM     44  C   UNL     1     -11.516  -0.024  -9.093  1.00  0.00     0.014 A 
ATOM     45  C   UNL     1     -11.473  -1.122  -6.930  1.00  0.00     0.014 A 
ATOM     46  C   UNL     1     -12.133  -1.148  -9.647  1.00  0.00     0.010 A 
ATOM     47  C   UNL     1     -12.017  -2.267  -7.498  1.00  0.00     0.010 A 
ATOM     48  C   UNL     1     -12.363  -2.287  -8.858  1.00  0.00    -0.014 A 
BRANCH  48  49
ATOM     49  C   UNL     1     -13.003  -3.506  -9.410  1.00  0.00     0.031 A 
ATOM     50  C   UNL     1     -14.331  -3.953  -8.865  1.00  0.00     0.074 A 
ATOM     51  C   UNL     1     -12.354  -4.255 -10.321  1.00  0.00     0.049 A 
ATOM     52  N   UNL     1     -14.988  -5.062  -9.087  1.00  0.00    -0.248 NA
ATOM     53  C   UNL     1     -14.991  -3.043  -7.914  1.00  0.00     0.031 C 
ATOM     54  C   UNL     1     -11.049  -3.941 -10.904  1.00  0.00     0.029 A 
ATOM     55  N   UNL     1     -12.698  -5.450 -10.900  1.00  0.00    -0.354 N 
ATOM     56  C   UNL     1     -16.120  -4.995  -8.286  1.00  0.00     0.074 A 
ATOM     57  C   UNL     1     -16.035  -3.762  -7.533  1.00  0.00     0.031 C 
ATOM     58  C   UNL     1     -10.707  -4.913 -11.765  1.00  0.00     0.029 A 
ATOM     59  C   UNL     1     -11.746  -5.939 -11.761  1.00  0.00     0.049 A 
ATOM     60  H   UNL     1     -13.547  -5.914 -10.716  1.00  0.00     0.167 HD
ATOM     61  C   UNL     1     -17.149  -5.871  -8.200  1.00  0.00     0.037 A 
ATOM     62  C   UNL     1     -11.708  -7.093 -12.453  1.00  0.00     0.037 A 
ATOM     63  C   UNL     1     -17.240  -7.081  -8.973  1.00  0.00     0.049 A 
ATOM     64  C   UNL     1     -12.856  -8.059 -12.332  1.00  0.00     0.074 A 
ATOM     65  C   UNL     1     -18.262  -8.012  -8.999  1.00  0.00     0.029 A 
ATOM     66  N   UNL     1     -16.268  -7.526  -9.857  1.00  0.00    -0.354 N 
ATOM     67  N   UNL     1     -13.945  -7.962 -11.608  1.00  0.00    -0.248 NA
ATOM     68  C   UNL     1     -12.773  -9.292 -13.127  1.00  0.00     0.031 C 
ATOM     69  C   UNL     1     -17.889  -9.044  -9.867  1.00  0.00     0.029 A 
ATOM     70  C   UNL     1     -16.660  -8.727 -10.423  1.00  0.00     0.049 A 
ATOM     71  H   UNL     1     -15.425  -7.056 -10.054  1.00  0.00     0.167 HD
ATOM     72  C   UNL     1     -14.693  -9.098 -11.889  1.00  0.00     0.074 A 
ATOM     73  C   UNL     1     -13.935  -9.868 -12.853  1.00  0.00     0.031 C 
ATOM     74  C   UNL     1     -15.901  -9.468 -11.399  1.00  0.00     0.037 A 
BRANCH  61  75
ATOM     75  C   UNL     1     -18.253  -5.550  -7.235  1.00  0.00     0.057 A 
ATOM     76  C   UNL     1     -19.134  -4.480  -7.445  1.00  0.00     0.134 A 
ATOM     77  C   UNL     1     -18.453  -6.333  -6.090  1.00  0.00     0.134 A 
ATOM     78  F   UNL     1     -18.991  -3.682  -8.514  1.00  0.00    -0.206 F 
ATOM     79  C   UNL     1     -20.151  -4.181  -6.537  1.00  0.00     0.040 A 
ATOM     80  C   UNL     1     -19.486  -6.063  -5.191  1.00  0.00     0.040 A 
ATOM     81  F   UNL     1     -17.651  -7.376  -5.830  1.00  0.00    -0.206 F 
ATOM     82  C   UNL     1     -20.333  -4.978  -5.409  1.00  0.00     0.006 A 
ENDBRANCH  61  75
BRANCH  62  83
ATOM     83  C   UNL     1     -10.555  -7.394 -13.339  1.00  0.00     0.057 A 
ATOM     84  C   UNL     1     -10.700  -7.406 -14.731  1.00  0.00     0.134 A 
ATOM     85  C   UNL     1      -9.287  -7.684 -12.822  1.00  0.00     0.134 A 
ATOM     86  F   UNL     1     -11.895  -7.152 -15.286  1.00  0.00    -0.206 F 
ATOM     87  C   UNL     1      -9.634  -7.716 -15.576  1.00  0.00     0.040 A 
ATOM     88  C   UNL     1      -8.205  -7.971 -13.656  1.00  0.00     0.040 A 
ATOM     89  F   UNL     1      -9.077  -7.679 -11.497  1.00  0.00    -0.206 F 
ATOM     90  C   UNL     1      -8.380  -7.995 -15.038  1.00  0.00     0.006 A 
ENDBRANCH  62  83
BRANCH  74  91
ATOM     91  C   UNL     1     -16.510 -10.729 -11.937  1.00  0.00     0.057 A 
ATOM     92  C   UNL     1     -16.025 -11.997 -11.593  1.00  0.00     0.134 A 
ATOM     93  C   UNL     1     -17.638 -10.671 -12.766  1.00  0.00     0.134 A 
ATOM     94  F   UNL     1     -14.940 -12.121 -10.813  1.00  0.00    -0.206 F 
ATOM     95  C   UNL     1     -16.629 -13.161 -12.068  1.00  0.00     0.040 A 
ATOM     96  C   UNL     1     -18.268 -11.828 -13.224  1.00  0.00     0.040 A 
ATOM     97  F   UNL     1     -18.159  -9.488 -13.125  1.00  0.00    -0.206 F 
ATOM     98  C   UNL     1     -17.761 -13.078 -12.879  1.00  0.00     0.006 A 
ENDBRANCH  74  91
ENDBRANCH  48  49
ENDBRANCH  40  43
ENDBRANCH  38  39
ENDBRANCH  37  38
ENDBRANCH  36  37
ENDBRANCH   1  36
TORSDOF 18
