REMARK SMILES Cn1c(=O)c2c(nc(Nc3cccc(Cl)c3Cl)n2CC(=O)NCCCCCCNC(=O)c2ccc(-c3c4nc(c(-c5c(F)cccc5F)c5ccc([nH]5)c(-c5c(F)cccc5F)c5nc(c(-c6c(F)cccc6F)c6ccc3[nH]6)C=C5)C=C4)cc2)n(C)c1=O
REMARK SMILES IDX 25 1 24 2 23 3 22 4 20 5 21 6 19 8 18 9 1 10 2 11 3 12 88 13
REMARK SMILES IDX 4 14 5 15 86 16 89 17 6 18 87 19 7 20 8 21 9 22 10 24 11 25
REMARK SMILES IDX 16 26 12 27 14 28 17 29 13 30 15 31 26 32 27 33 28 34 29 35
REMARK SMILES IDX 30 36 31 38 32 39 33 40 85 41 34 42 84 43 35 44 36 45 37 46
REMARK SMILES IDX 78 47 38 48 83 49 77 50 79 51 39 52 82 53 76 54 75 55 40 57
REMARK SMILES IDX 66 58 49 59 65 60 50 61 53 62 64 63 80 64 51 65 52 66 63 68
REMARK SMILES IDX 81 69 54 70 41 71 42 72 47 73 43 74 44 75 46 76 48 77 45 78
REMARK SMILES IDX 67 79 68 80 73 81 69 82 70 83 72 84 74 85 71 86 55 87 56 88
REMARK SMILES IDX 61 89 57 90 58 91 60 92 62 93 59 94
REMARK H PARENT 22 7 9 23 29 37 79 56 53 67
REMARK Flexibility Score: inf
ROOT
ATOM      1  C   UNL     1      -5.641  -1.741  -3.169  1.00  0.00     0.002 C 
ENDROOT
BRANCH   1   2
ATOM      2  C   UNL     1      -4.339  -2.081  -3.899  1.00  0.00     0.021 C 
BRANCH   2   3
ATOM      3  C   UNL     1      -4.073  -1.184  -5.101  1.00  0.00     0.116 C 
BRANCH   3   4
ATOM      4  N   UNL     1      -3.705   0.150  -4.694  1.00  0.00    -0.355 N 
ATOM      5  C   UNL     1      -2.495   0.774  -4.766  1.00  0.00     0.240 C 
ATOM      6  O   UNL     1      -2.456   1.954  -4.409  1.00  0.00    -0.273 OA
ATOM      7  H   UNL     1      -4.434   0.689  -4.308  1.00  0.00     0.163 HD
BRANCH   5   8
ATOM      8  C   UNL     1      -1.304   0.099  -5.417  1.00  0.00     0.226 C 
BRANCH   8   9
ATOM      9  N   UNL     1      -0.837  -1.140  -4.810  1.00  0.00    -0.295 N 
ATOM     10  C   UNL     1       0.856   0.126  -0.294  1.00  0.00     0.159 C 
ATOM     11  N   UNL     1       0.531  -0.783  -1.376  1.00  0.00    -0.261 N 
ATOM     12  C   UNL     1       0.009  -0.245  -2.554  1.00  0.00     0.282 A 
ATOM     13  C   UNL     1       0.825  -2.144  -1.158  1.00  0.00     0.332 A 
ATOM     14  O   UNL     1      -0.163   0.961  -2.738  1.00  0.00    -0.267 OA
ATOM     15  C   UNL     1      -0.285  -1.223  -3.546  1.00  0.00     0.154 A 
ATOM     16  N   UNL     1       0.521  -3.028  -2.191  1.00  0.00    -0.279 N 
ATOM     17  O   UNL     1       1.337  -2.528  -0.102  1.00  0.00    -0.247 OA
ATOM     18  C   UNL     1      -0.021  -2.543  -3.355  1.00  0.00     0.170 A 
ATOM     19  C   UNL     1       0.791  -4.447  -2.050  1.00  0.00     0.157 C 
ATOM     20  N   UNL     1      -0.343  -3.282  -4.439  1.00  0.00    -0.194 NA
ATOM     21  C   UNL     1      -0.776  -2.427  -5.347  1.00  0.00     0.210 A 
BRANCH  21  22
ATOM     22  N   UNL     1      -1.189  -2.880  -6.553  1.00  0.00    -0.324 N 
ATOM     23  H   UNL     1      -1.224  -3.862  -6.599  1.00  0.00     0.170 HD
BRANCH  22  24
ATOM     24  C   UNL     1      -1.579  -2.265  -7.757  1.00  0.00     0.061 A 
ATOM     25  C   UNL     1      -2.829  -2.659  -8.280  1.00  0.00     0.028 A 
ATOM     26  C   UNL     1      -0.821  -1.317  -8.472  1.00  0.00     0.083 A 
ATOM     27  C   UNL     1      -3.360  -2.064  -9.422  1.00  0.00     0.004 A 
ATOM     28  C   UNL     1      -1.372  -0.703  -9.611  1.00  0.00     0.061 A 
ATOM     29  Cl  UNL     1       0.798  -0.941  -7.966  1.00  0.00    -0.080 Cl
ATOM     30  C   UNL     1      -2.641  -1.069 -10.073  1.00  0.00     0.022 A 
ATOM     31  Cl  UNL     1      -0.546   0.541 -10.485  1.00  0.00    -0.083 Cl
ENDBRANCH  22  24
ENDBRANCH  21  22
ENDBRANCH   8   9
ENDBRANCH   5   8
ENDBRANCH   3   4
ENDBRANCH   2   3
ENDBRANCH   1   2
BRANCH   1  32
ATOM     32  C   UNL     1      -6.906  -1.728  -4.043  1.00  0.00     0.002 C 
BRANCH  32  33
ATOM     33  C   UNL     1      -7.157  -2.979  -4.899  1.00  0.00     0.021 C 
BRANCH  33  34
ATOM     34  C   UNL     1      -7.381  -4.241  -4.084  1.00  0.00     0.116 C 
BRANCH  34  35
ATOM     35  N   UNL     1      -8.604  -4.180  -3.283  1.00  0.00    -0.352 N 
ATOM     36  C   UNL     1      -9.093  -5.114  -2.392  1.00  0.00     0.251 C 
ATOM     37  H   UNL     1      -9.148  -3.367  -3.394  1.00  0.00     0.163 HD
ATOM     38  O   UNL     1     -10.279  -5.131  -2.083  1.00  0.00    -0.269 OA
BRANCH  36  39
ATOM     39  C   UNL     1      -8.158  -6.087  -1.806  1.00  0.00     0.039 A 
ATOM     40  C   UNL     1      -8.527  -7.412  -1.561  1.00  0.00     0.014 A 
ATOM     41  C   UNL     1      -6.872  -5.643  -1.512  1.00  0.00     0.014 A 
ATOM     42  C   UNL     1      -7.563  -8.291  -1.075  1.00  0.00     0.010 A 
ATOM     43  C   UNL     1      -5.883  -6.545  -1.237  1.00  0.00     0.010 A 
ATOM     44  C   UNL     1      -6.237  -7.847  -0.929  1.00  0.00    -0.014 A 
BRANCH  44  45
ATOM     45  C   UNL     1      -5.168  -8.759  -0.551  1.00  0.00     0.031 A 
ATOM     46  C   UNL     1      -5.064  -9.944  -1.437  1.00  0.00     0.074 A 
ATOM     47  C   UNL     1      -4.230  -8.456   0.375  1.00  0.00     0.049 A 
ATOM     48  N   UNL     1      -5.382 -11.162  -1.153  1.00  0.00    -0.248 NA
ATOM     49  C   UNL     1      -4.742  -9.727  -2.857  1.00  0.00     0.031 C 
ATOM     50  C   UNL     1      -4.018  -7.192   1.093  1.00  0.00     0.029 A 
ATOM     51  N   UNL     1      -3.194  -9.218   0.818  1.00  0.00    -0.354 N 
ATOM     52  C   UNL     1      -5.071 -11.906  -2.287  1.00  0.00     0.074 A 
ATOM     53  C   UNL     1      -4.893 -10.957  -3.353  1.00  0.00     0.031 C 
ATOM     54  C   UNL     1      -2.809  -7.204   1.698  1.00  0.00     0.029 A 
ATOM     55  C   UNL     1      -2.241  -8.531   1.568  1.00  0.00     0.049 A 
ATOM     56  H   UNL     1      -3.123 -10.181   0.624  1.00  0.00     0.167 HD
ATOM     57  C   UNL     1      -4.714 -13.214  -2.176  1.00  0.00     0.037 A 
ATOM     58  C   UNL     1      -1.069  -9.033   2.034  1.00  0.00     0.037 A 
ATOM     59  C   UNL     1      -5.090 -13.741  -0.885  1.00  0.00     0.049 A 
ATOM     60  C   UNL     1      -1.198 -10.510   2.022  1.00  0.00     0.074 A 
ATOM     61  C   UNL     1      -6.283 -13.880  -0.201  1.00  0.00     0.029 A 
ATOM     62  N   UNL     1      -4.102 -13.849   0.063  1.00  0.00    -0.354 N 
ATOM     63  N   UNL     1      -2.005 -11.174   2.802  1.00  0.00    -0.248 NA
ATOM     64  C   UNL     1      -0.774 -11.206   0.819  1.00  0.00     0.031 C 
ATOM     65  C   UNL     1      -5.966 -13.575   1.157  1.00  0.00     0.029 A 
ATOM     66  C   UNL     1      -4.592 -13.349   1.241  1.00  0.00     0.049 A 
ATOM     67  H   UNL     1      -3.201 -14.220  -0.079  1.00  0.00     0.167 HD
ATOM     68  C   UNL     1      -2.533 -12.169   1.995  1.00  0.00     0.074 A 
ATOM     69  C   UNL     1      -1.679 -12.188   0.807  1.00  0.00     0.031 C 
ATOM     70  C   UNL     1      -3.779 -12.676   2.229  1.00  0.00     0.037 A 
BRANCH  57  71
ATOM     71  C   UNL     1      -3.674 -13.886  -3.042  1.00  0.00     0.057 A 
ATOM     72  C   UNL     1      -3.455 -15.268  -2.892  1.00  0.00     0.134 A 
ATOM     73  C   UNL     1      -2.690 -13.207  -3.790  1.00  0.00     0.134 A 
ATOM     74  F   UNL     1      -4.309 -16.029  -2.189  1.00  0.00    -0.206 F 
ATOM     75  C   UNL     1      -2.307 -15.906  -3.378  1.00  0.00     0.040 A 
ATOM     76  C   UNL     1      -1.567 -13.844  -4.325  1.00  0.00     0.040 A 
ATOM     77  F   UNL     1      -2.698 -11.880  -3.961  1.00  0.00    -0.206 F 
ATOM     78  C   UNL     1      -1.355 -15.191  -4.092  1.00  0.00     0.006 A 
ENDBRANCH  57  71
BRANCH  58  79
ATOM     79  C   UNL     1       0.250  -8.374   2.190  1.00  0.00     0.057 A 
ATOM     80  C   UNL     1       1.281  -8.996   2.914  1.00  0.00     0.134 A 
ATOM     81  C   UNL     1       0.634  -7.290   1.383  1.00  0.00     0.134 A 
ATOM     82  F   UNL     1       1.022 -10.060   3.689  1.00  0.00    -0.206 F 
ATOM     83  C   UNL     1       2.620  -8.597   2.804  1.00  0.00     0.040 A 
ATOM     84  C   UNL     1       1.967  -6.875   1.273  1.00  0.00     0.040 A 
ATOM     85  F   UNL     1      -0.255  -6.664   0.597  1.00  0.00    -0.206 F 
ATOM     86  C   UNL     1       2.968  -7.543   1.968  1.00  0.00     0.006 A 
ENDBRANCH  58  79
BRANCH  70  87
ATOM     87  C   UNL     1      -4.456 -12.321   3.527  1.00  0.00     0.057 A 
ATOM     88  C   UNL     1      -4.856 -11.025   3.887  1.00  0.00     0.134 A 
ATOM     89  C   UNL     1      -4.870 -13.363   4.365  1.00  0.00     0.134 A 
ATOM     90  F   UNL     1      -4.583  -9.971   3.108  1.00  0.00    -0.206 F 
ATOM     91  C   UNL     1      -5.613 -10.777   5.038  1.00  0.00     0.040 A 
ATOM     92  C   UNL     1      -5.652 -13.133   5.499  1.00  0.00     0.040 A 
ATOM     93  F   UNL     1      -4.565 -14.634   4.061  1.00  0.00    -0.206 F 
ATOM     94  C   UNL     1      -6.022 -11.836   5.842  1.00  0.00     0.006 A 
ENDBRANCH  70  87
ENDBRANCH  44  45
ENDBRANCH  36  39
ENDBRANCH  34  35
ENDBRANCH  33  34
ENDBRANCH  32  33
ENDBRANCH   1  32
TORSDOF 16
