REMARK SMILES O=C(NCCCCCCNC(=O)c1ccc(-c2c3nc(c(-c4c(F)cccc4F)c4ccc([nH]4)c(-c4c(F)cccc4F)c4nc(c(-c5c(F)cccc5F)c5ccc2[nH]5)C=C4)C=C3)cc1)C1=Cc2c(ccc(Cl)c2Oc2ccccc2)O[C@H]1C(F)(F)F
REMARK SMILES IDX 6 1 5 2 4 3 3 4 1 5 2 6 67 8 68 9 84 10 69 11 83 12 70 13
REMARK SMILES IDX 75 14 71 15 73 16 72 17 74 18 85 19 86 20 87 21 88 22 76 23
REMARK SMILES IDX 77 24 78 25 82 26 79 27 81 28 80 29 7 30 8 31 9 32 10 33
REMARK SMILES IDX 11 34 12 36 13 37 14 38 66 39 15 40 65 41 16 42 17 43 18 44
REMARK SMILES IDX 59 45 19 46 64 47 58 48 60 49 20 50 63 51 57 52 56 53 21 55
REMARK SMILES IDX 47 56 30 57 46 58 31 59 34 60 45 61 61 62 32 63 33 64 44 66
REMARK SMILES IDX 62 67 35 68 22 69 23 70 28 71 24 72 25 73 27 74 29 75 26 76
REMARK SMILES IDX 48 77 49 78 54 79 50 80 51 81 53 82 55 83 52 84 36 85 37 86
REMARK SMILES IDX 42 87 38 88 39 89 41 90 43 91 40 92
REMARK H PARENT 3 7 10 35 60 54 34 65
REMARK Flexibility Score: inf
ROOT
ATOM      1  C   UNL     1       3.655   1.542  -4.254  1.00  0.00     0.002 C 
ENDROOT
BRANCH   1   2
ATOM      2  C   UNL     1       4.047   0.233  -3.563  1.00  0.00     0.021 C 
BRANCH   2   3
ATOM      3  C   UNL     1       3.738   0.159  -2.070  1.00  0.00     0.116 C 
BRANCH   3   4
ATOM      4  N   UNL     1       2.553  -0.628  -1.761  1.00  0.00    -0.352 N 
ATOM      5  O   UNL     1       1.288  -2.072  -0.566  1.00  0.00    -0.270 OA
ATOM      6  C   UNL     1       2.298  -1.393  -0.650  1.00  0.00     0.251 C 
ATOM      7  H   UNL     1       1.839  -0.609  -2.439  1.00  0.00     0.163 HD
BRANCH   6   8
ATOM      8  C   UNL     1       3.278  -1.392   0.456  1.00  0.00     0.067 C 
ATOM      9  C   UNL     1       3.408  -0.241   1.125  1.00  0.00     0.029 C 
ATOM     10  C   UNL     1       4.361  -2.423   0.456  1.00  0.00     0.314 C 
ATOM     11  C   UNL     1       4.762   0.344   1.093  1.00  0.00     0.061 A 
ATOM     12  O   UNL     1       5.699  -1.860   0.581  1.00  0.00    -0.475 OA
ATOM     13  C   UNL     1       5.827  -0.507   0.752  1.00  0.00     0.131 A 
ATOM     14  C   UNL     1       4.976   1.740   1.185  1.00  0.00     0.156 A 
ATOM     15  C   UNL     1       7.088   0.016   0.474  1.00  0.00     0.049 A 
ATOM     16  C   UNL     1       6.242   2.251   0.853  1.00  0.00     0.084 A 
ATOM     17  C   UNL     1       7.289   1.394   0.500  1.00  0.00     0.028 A 
ATOM     18  Cl  UNL     1       6.544   3.952   0.804  1.00  0.00    -0.080 Cl
BRANCH  10  19
ATOM     19  C   UNL     1       4.115  -3.473   1.560  1.00  0.00     0.429 C 
ATOM     20  F   UNL     1       3.453  -2.970   2.629  1.00  0.00    -0.167 F 
ATOM     21  F   UNL     1       3.393  -4.518   1.090  1.00  0.00    -0.167 F 
ATOM     22  F   UNL     1       5.279  -3.985   2.031  1.00  0.00    -0.167 F 
ENDBRANCH  10  19
BRANCH  14  23
ATOM     23  O   UNL     1       3.984   2.677   1.442  1.00  0.00    -0.455 OA
BRANCH  23  24
ATOM     24  C   UNL     1       3.022   2.358   2.371  1.00  0.00     0.127 A 
ATOM     25  C   UNL     1       1.700   2.275   1.928  1.00  0.00     0.047 A 
ATOM     26  C   UNL     1       3.348   2.067   3.698  1.00  0.00     0.047 A 
ATOM     27  C   UNL     1       0.715   1.790   2.787  1.00  0.00     0.004 A 
ATOM     28  C   UNL     1       2.354   1.595   4.558  1.00  0.00     0.004 A 
ATOM     29  C   UNL     1       1.045   1.437   4.096  1.00  0.00     0.000 A 
ENDBRANCH  23  24
ENDBRANCH  14  23
ENDBRANCH   6   8
ENDBRANCH   3   4
ENDBRANCH   2   3
ENDBRANCH   1   2
BRANCH   1  30
ATOM     30  C   UNL     1       4.299   2.829  -3.723  1.00  0.00     0.002 C 
BRANCH  30  31
ATOM     31  C   UNL     1       5.816   2.820  -3.502  1.00  0.00     0.021 C 
BRANCH  31  32
ATOM     32  C   UNL     1       6.686   2.432  -4.697  1.00  0.00     0.116 C 
BRANCH  32  33
ATOM     33  N   UNL     1       6.532   3.314  -5.839  1.00  0.00    -0.352 N 
ATOM     34  C   UNL     1       7.465   3.948  -6.622  1.00  0.00     0.251 C 
ATOM     35  H   UNL     1       5.598   3.488  -6.096  1.00  0.00     0.163 HD
ATOM     36  O   UNL     1       7.078   4.719  -7.499  1.00  0.00    -0.269 OA
BRANCH  34  37
ATOM     37  C   UNL     1       8.925   3.757  -6.426  1.00  0.00     0.039 A 
ATOM     38  C   UNL     1       9.761   4.870  -6.588  1.00  0.00     0.014 A 
ATOM     39  C   UNL     1       9.495   2.510  -6.156  1.00  0.00     0.014 A 
ATOM     40  C   UNL     1      11.145   4.748  -6.426  1.00  0.00     0.010 A 
ATOM     41  C   UNL     1      10.873   2.398  -5.939  1.00  0.00     0.010 A 
ATOM     42  C   UNL     1      11.712   3.515  -6.072  1.00  0.00    -0.014 A 
BRANCH  42  43
ATOM     43  C   UNL     1      13.176   3.382  -5.846  1.00  0.00     0.031 A 
ATOM     44  C   UNL     1      14.023   2.557  -6.776  1.00  0.00     0.074 A 
ATOM     45  C   UNL     1      13.745   3.964  -4.772  1.00  0.00     0.049 A 
ATOM     46  N   UNL     1      15.294   2.253  -6.689  1.00  0.00    -0.248 NA
ATOM     47  C   UNL     1      13.346   1.980  -7.948  1.00  0.00     0.031 C 
ATOM     48  C   UNL     1      13.041   4.767  -3.771  1.00  0.00     0.029 A 
ATOM     49  N   UNL     1      15.048   3.960  -4.338  1.00  0.00    -0.354 N 
ATOM     50  C   UNL     1      15.565   1.436  -7.779  1.00  0.00     0.074 A 
ATOM     51  C   UNL     1      14.319   1.268  -8.498  1.00  0.00     0.031 C 
ATOM     52  C   UNL     1      13.921   5.185  -2.846  1.00  0.00     0.029 A 
ATOM     53  C   UNL     1      15.243   4.659  -3.172  1.00  0.00     0.049 A 
ATOM     54  H   UNL     1      15.774   3.499  -4.818  1.00  0.00     0.167 HD
ATOM     55  C   UNL     1      16.744   0.887  -8.156  1.00  0.00     0.037 A 
ATOM     56  C   UNL     1      16.358   4.849  -2.441  1.00  0.00     0.037 A 
ATOM     57  C   UNL     1      17.995   1.076  -7.469  1.00  0.00     0.049 A 
ATOM     58  C   UNL     1      17.659   4.253  -2.896  1.00  0.00     0.074 A 
ATOM     59  C   UNL     1      19.246   0.585  -7.802  1.00  0.00     0.029 A 
ATOM     60  N   UNL     1      18.154   1.826  -6.315  1.00  0.00    -0.354 N 
ATOM     61  N   UNL     1      17.901   3.503  -3.942  1.00  0.00    -0.248 NA
ATOM     62  C   UNL     1      18.843   4.535  -2.071  1.00  0.00     0.031 C 
ATOM     63  C   UNL     1      20.161   1.023  -6.838  1.00  0.00     0.029 A 
ATOM     64  C   UNL     1      19.482   1.808  -5.920  1.00  0.00     0.049 A 
ATOM     65  H   UNL     1      17.431   2.300  -5.845  1.00  0.00     0.167 HD
ATOM     66  C   UNL     1      19.264   3.237  -3.911  1.00  0.00     0.074 A 
ATOM     67  C   UNL     1      19.799   3.917  -2.750  1.00  0.00     0.031 C 
ATOM     68  C   UNL     1      20.003   2.494  -4.768  1.00  0.00     0.037 A 
BRANCH  55  69
ATOM     69  C   UNL     1      16.739   0.025  -9.382  1.00  0.00     0.057 A 
ATOM     70  C   UNL     1      16.660   0.577 -10.667  1.00  0.00     0.134 A 
ATOM     71  C   UNL     1      16.849  -1.367  -9.280  1.00  0.00     0.134 A 
ATOM     72  F   UNL     1      16.540   1.903 -10.829  1.00  0.00    -0.206 F 
ATOM     73  C   UNL     1      16.672  -0.228 -11.807  1.00  0.00     0.040 A 
ATOM     74  C   UNL     1      16.882  -2.181 -10.413  1.00  0.00     0.040 A 
ATOM     75  F   UNL     1      16.933  -1.957  -8.078  1.00  0.00    -0.206 F 
ATOM     76  C   UNL     1      16.789  -1.611 -11.682  1.00  0.00     0.006 A 
ENDBRANCH  55  69
BRANCH  56  77
ATOM     77  C   UNL     1      16.296   5.658  -1.200  1.00  0.00     0.057 A 
ATOM     78  C   UNL     1      16.817   6.955  -1.160  1.00  0.00     0.134 A 
ATOM     79  C   UNL     1      15.721   5.152  -0.030  1.00  0.00     0.134 A 
ATOM     80  F   UNL     1      17.399   7.483  -2.248  1.00  0.00    -0.206 F 
ATOM     81  C   UNL     1      16.780   7.720   0.006  1.00  0.00     0.040 A 
ATOM     82  C   UNL     1      15.661   5.912   1.139  1.00  0.00     0.040 A 
ATOM     83  F   UNL     1      15.202   3.916  -0.009  1.00  0.00    -0.206 F 
ATOM     84  C   UNL     1      16.197   7.199   1.160  1.00  0.00     0.006 A 
ENDBRANCH  56  77
BRANCH  68  85
ATOM     85  C   UNL     1      21.473   2.397  -4.496  1.00  0.00     0.057 A 
ATOM     86  C   UNL     1      21.980   1.560  -3.495  1.00  0.00     0.134 A 
ATOM     87  C   UNL     1      22.391   3.121  -5.266  1.00  0.00     0.134 A 
ATOM     88  F   UNL     1      21.148   0.852  -2.716  1.00  0.00    -0.206 F 
ATOM     89  C   UNL     1      23.351   1.458  -3.258  1.00  0.00     0.040 A 
ATOM     90  C   UNL     1      23.766   3.015  -5.049  1.00  0.00     0.040 A 
ATOM     91  F   UNL     1      21.967   3.937  -6.243  1.00  0.00    -0.206 F 
ATOM     92  C   UNL     1      24.249   2.183  -4.040  1.00  0.00     0.006 A 
ENDBRANCH  68  85
ENDBRANCH  42  43
ENDBRANCH  34  37
ENDBRANCH  32  33
ENDBRANCH  31  32
ENDBRANCH  30  31
ENDBRANCH   1  30
TORSDOF 16
