REMARK SMILES CC(C)(C)OC(=O)N1CCC[C@H]1C(=O)N1CCC[C@H]1C(=O)N1CCC[C@@H]1C(=O)NCCCCCCNC(=O)c1ccc(-c2c3nc(c(-c4c(F)cccc4F)c4ccc([nH]4)c(-c4c(F)cccc4F)c4nc(c(-c5c(F)cccc5F)c5ccc2[nH]5)C=C4)C=C3)cc1
REMARK SMILES IDX 30 1 29 2 27 3 28 4 26 6 22 7 23 8 24 9 25 10 20 11 21 12
REMARK SMILES IDX 19 13 15 14 16 15 17 16 18 17 13 18 14 19 12 20 8 21 9 22
REMARK SMILES IDX 10 23 11 24 6 25 7 26 5 27 2 28 1 29 3 30 4 31 31 32 32 33
REMARK SMILES IDX 33 34 34 35 35 36 36 37 37 38 38 40 39 41 40 42 92 43 41 44
REMARK SMILES IDX 91 45 42 46 43 47 44 48 85 49 45 50 90 51 84 52 86 53 46 54
REMARK SMILES IDX 89 55 83 56 82 57 47 59 73 60 56 61 72 62 57 63 60 64 71 65
REMARK SMILES IDX 87 66 58 67 59 68 70 70 88 71 61 72 48 73 49 74 54 75 50 76
REMARK SMILES IDX 51 77 53 78 55 79 52 80 74 81 75 82 80 83 76 84 77 85 79 86
REMARK SMILES IDX 81 87 78 88 62 89 63 90 68 91 64 92 65 93 67 94 69 95 66 96
REMARK H PARENT 29 5 36 39 86 58 60 69
REMARK Flexibility Score: inf
ROOT
ATOM      1  C   UNL     1       3.394  -8.745  -5.006  1.00  0.00     0.116 C 
ENDROOT
BRANCH   1   2
ATOM      2  N   UNL     1       2.091  -9.122  -5.501  1.00  0.00    -0.354 N 
ATOM      3  C   UNL     1       1.169 -10.002  -5.014  1.00  0.00     0.242 C 
ATOM      4  O   UNL     1       0.242 -10.323  -5.765  1.00  0.00    -0.273 OA
ATOM      5  H   UNL     1       1.821  -8.667  -6.331  1.00  0.00     0.163 HD
BRANCH   3   6
ATOM      6  C   UNL     1       1.371 -10.719  -3.666  1.00  0.00     0.174 C 
ATOM      7  N   UNL     1       1.849  -9.828  -2.616  1.00  0.00    -0.329 N 
ATOM      8  C   UNL     1       2.831 -10.494  -1.790  1.00  0.00     0.120 C 
ATOM      9  C   UNL     1       3.484 -11.509  -2.713  1.00  0.00     0.024 C 
ATOM     10  C   UNL     1       2.415 -11.837  -3.759  1.00  0.00     0.037 C 
BRANCH   7  11
ATOM     11  C   UNL     1       0.984  -8.880  -2.090  1.00  0.00     0.246 C 
ATOM     12  O   UNL     1      -0.195  -9.124  -1.847  1.00  0.00    -0.272 OA
BRANCH  11  13
ATOM     13  C   UNL     1       1.636  -7.499  -1.862  1.00  0.00     0.174 C 
ATOM     14  N   UNL     1       0.767  -6.398  -2.276  1.00  0.00    -0.329 N 
ATOM     15  C   UNL     1       0.038  -5.912  -1.132  1.00  0.00     0.120 C 
ATOM     16  C   UNL     1       1.103  -5.946  -0.058  1.00  0.00     0.024 C 
ATOM     17  C   UNL     1       1.883  -7.230  -0.370  1.00  0.00     0.037 C 
BRANCH  14  18
ATOM     18  C   UNL     1       0.641  -6.043  -3.591  1.00  0.00     0.246 C 
ATOM     19  O   UNL     1       0.658  -6.922  -4.458  1.00  0.00    -0.272 OA
BRANCH  18  20
ATOM     20  C   UNL     1       0.495  -4.553  -4.019  1.00  0.00     0.178 C 
ATOM     21  N   UNL     1       1.080  -3.552  -3.124  1.00  0.00    -0.296 N 
ATOM     22  C   UNL     1       2.433  -3.237  -3.523  1.00  0.00     0.124 C 
ATOM     23  C   UNL     1       2.335  -3.263  -5.036  1.00  0.00     0.024 C 
ATOM     24  C   UNL     1       1.314  -4.366  -5.326  1.00  0.00     0.037 C 
BRANCH  21  25
ATOM     25  C   UNL     1       0.320  -2.811  -2.254  1.00  0.00     0.410 C 
ATOM     26  O   UNL     1      -0.894  -2.942  -2.163  1.00  0.00    -0.224 OA
BRANCH  25  27
ATOM     27  O   UNL     1       1.071  -1.973  -1.501  1.00  0.00    -0.444 OA
BRANCH  27  28
ATOM     28  C   UNL     1       0.578  -1.330  -0.291  1.00  0.00     0.106 C 
ATOM     29  C   UNL     1       1.282   0.032  -0.231  1.00  0.00     0.056 C 
ATOM     30  C   UNL     1       1.039  -2.190   0.891  1.00  0.00     0.056 C 
ATOM     31  C   UNL     1      -0.935  -1.096  -0.209  1.00  0.00     0.056 C 
ENDBRANCH  27  28
ENDBRANCH  25  27
ENDBRANCH  21  25
ENDBRANCH  18  20
ENDBRANCH  14  18
ENDBRANCH  11  13
ENDBRANCH   7  11
ENDBRANCH   3   6
ENDBRANCH   1   2
BRANCH   1  32
ATOM     32  C   UNL     1       4.467  -9.089  -6.029  1.00  0.00     0.021 C 
BRANCH  32  33
ATOM     33  C   UNL     1       4.536  -8.083  -7.180  1.00  0.00     0.002 C 
BRANCH  33  34
ATOM     34  C   UNL     1       4.870  -6.649  -6.751  1.00  0.00     0.002 C 
BRANCH  34  35
ATOM     35  C   UNL     1       6.141  -6.513  -5.911  1.00  0.00     0.021 C 
BRANCH  35  36
ATOM     36  C   UNL     1       7.394  -7.022  -6.610  1.00  0.00     0.116 C 
BRANCH  36  37
ATOM     37  N   UNL     1       7.698  -6.242  -7.801  1.00  0.00    -0.352 N 
ATOM     38  C   UNL     1       8.862  -5.591  -8.121  1.00  0.00     0.251 C 
ATOM     39  H   UNL     1       6.973  -6.171  -8.463  1.00  0.00     0.163 HD
ATOM     40  O   UNL     1       8.902  -4.786  -9.044  1.00  0.00    -0.269 OA
BRANCH  38  41
ATOM     41  C   UNL     1      10.069  -5.869  -7.321  1.00  0.00     0.039 A 
ATOM     42  C   UNL     1      10.829  -4.805  -6.831  1.00  0.00     0.014 A 
ATOM     43  C   UNL     1      10.419  -7.190  -7.030  1.00  0.00     0.014 A 
ATOM     44  C   UNL     1      11.915  -5.067  -5.994  1.00  0.00     0.010 A 
ATOM     45  C   UNL     1      11.447  -7.443  -6.133  1.00  0.00     0.010 A 
ATOM     46  C   UNL     1      12.211  -6.386  -5.614  1.00  0.00    -0.014 A 
BRANCH  46  47
ATOM     47  C   UNL     1      13.335  -6.709  -4.702  1.00  0.00     0.031 A 
ATOM     48  C   UNL     1      14.465  -7.566  -5.202  1.00  0.00     0.074 A 
ATOM     49  C   UNL     1      13.295  -6.321  -3.413  1.00  0.00     0.049 A 
ATOM     50  N   UNL     1      15.454  -8.104  -4.538  1.00  0.00    -0.248 NA
ATOM     51  C   UNL     1      14.457  -7.890  -6.639  1.00  0.00     0.031 C 
ATOM     52  C   UNL     1      12.240  -5.510  -2.803  1.00  0.00     0.029 A 
ATOM     53  N   UNL     1      14.156  -6.580  -2.377  1.00  0.00    -0.354 N 
ATOM     54  C   UNL     1      16.169  -8.848  -5.468  1.00  0.00     0.074 A 
ATOM     55  C   UNL     1      15.469  -8.738  -6.729  1.00  0.00     0.031 C 
ATOM     56  C   UNL     1      12.523  -5.329  -1.502  1.00  0.00     0.029 A 
ATOM     57  C   UNL     1      13.749  -6.051  -1.176  1.00  0.00     0.049 A 
ATOM     58  H   UNL     1      14.988  -7.096  -2.484  1.00  0.00     0.167 HD
ATOM     59  C   UNL     1      17.317  -9.543  -5.292  1.00  0.00     0.037 A 
ATOM     60  C   UNL     1      14.292  -6.157   0.052  1.00  0.00     0.037 A 
ATOM     61  C   UNL     1      18.020  -9.627  -4.040  1.00  0.00     0.049 A 
ATOM     62  C   UNL     1      15.556  -6.956   0.228  1.00  0.00     0.074 A 
ATOM     63  C   UNL     1      19.217 -10.264  -3.766  1.00  0.00     0.029 A 
ATOM     64  N   UNL     1      17.589  -9.054  -2.853  1.00  0.00    -0.354 N 
ATOM     65  N   UNL     1      16.248  -7.617  -0.668  1.00  0.00    -0.248 NA
ATOM     66  C   UNL     1      16.115  -7.022   1.586  1.00  0.00     0.031 C 
ATOM     67  C   UNL     1      19.483 -10.123  -2.401  1.00  0.00     0.029 A 
ATOM     68  C   UNL     1      18.485  -9.342  -1.838  1.00  0.00     0.049 A 
ATOM     69  H   UNL     1      16.767  -8.523  -2.747  1.00  0.00     0.167 HD
ATOM     70  C   UNL     1      17.346  -8.138   0.007  1.00  0.00     0.074 A 
ATOM     71  C   UNL     1      17.227  -7.716   1.387  1.00  0.00     0.031 C 
ATOM     72  C   UNL     1      18.364  -8.892  -0.474  1.00  0.00     0.037 A 
BRANCH  59  73
ATOM     73  C   UNL     1      17.878 -10.270  -6.480  1.00  0.00     0.057 A 
ATOM     74  C   UNL     1      18.408  -9.589  -7.585  1.00  0.00     0.134 A 
ATOM     75  C   UNL     1      17.912 -11.669  -6.510  1.00  0.00     0.134 A 
ATOM     76  F   UNL     1      18.394  -8.248  -7.628  1.00  0.00    -0.206 F 
ATOM     77  C   UNL     1      18.922 -10.273  -8.688  1.00  0.00     0.040 A 
ATOM     78  C   UNL     1      18.454 -12.365  -7.592  1.00  0.00     0.040 A 
ATOM     79  F   UNL     1      17.427 -12.385  -5.484  1.00  0.00    -0.206 F 
ATOM     80  C   UNL     1      18.953 -11.666  -8.689  1.00  0.00     0.006 A 
ENDBRANCH  59  73
BRANCH  60  81
ATOM     81  C   UNL     1      13.656  -5.480   1.211  1.00  0.00     0.057 A 
ATOM     82  C   UNL     1      14.279  -4.398   1.845  1.00  0.00     0.134 A 
ATOM     83  C   UNL     1      12.424  -5.904   1.725  1.00  0.00     0.134 A 
ATOM     84  F   UNL     1      15.468  -3.955   1.411  1.00  0.00    -0.206 F 
ATOM     85  C   UNL     1      13.715  -3.780   2.962  1.00  0.00     0.040 A 
ATOM     86  C   UNL     1      11.835  -5.277   2.824  1.00  0.00     0.040 A 
ATOM     87  F   UNL     1      11.769  -6.928   1.158  1.00  0.00    -0.206 F 
ATOM     88  C   UNL     1      12.486  -4.217   3.452  1.00  0.00     0.006 A 
ENDBRANCH  60  81
BRANCH  72  89
ATOM     89  C   UNL     1      19.470  -9.256   0.474  1.00  0.00     0.057 A 
ATOM     90  C   UNL     1      19.299 -10.197   1.496  1.00  0.00     0.134 A 
ATOM     91  C   UNL     1      20.747  -8.699   0.314  1.00  0.00     0.134 A 
ATOM     92  F   UNL     1      18.099 -10.758   1.711  1.00  0.00    -0.206 F 
ATOM     93  C   UNL     1      20.354 -10.559   2.336  1.00  0.00     0.040 A 
ATOM     94  C   UNL     1      21.815  -9.076   1.127  1.00  0.00     0.040 A 
ATOM     95  F   UNL     1      20.981  -7.799  -0.653  1.00  0.00    -0.206 F 
ATOM     96  C   UNL     1      21.619 -10.006   2.145  1.00  0.00     0.006 A 
ENDBRANCH  72  89
ENDBRANCH  46  47
ENDBRANCH  38  41
ENDBRANCH  36  37
ENDBRANCH  35  36
ENDBRANCH  34  35
ENDBRANCH  33  34
ENDBRANCH  32  33
ENDBRANCH   1  32
TORSDOF 20
