REMARK SMILES C[C@@H](C(=O)NCCCCCCNC(=O)c1ccc(-c2c3nc(c(-c4c(F)cccc4F)c4ccc([nH]4)c(-c4c(F)cccc4F)c4nc(c(-c5c(F)cccc5F)c5ccc2[nH]5)C=C4)C=C3)cc1)c1ccc(C[C@H]2CCC[C@H]2O)cc1-c1ccc(O)cc1
REMARK SMILES IDX 7 1 6 2 5 3 3 4 4 5 2 7 1 8 69 9 70 10 81 11 71 12 80 13
REMARK SMILES IDX 72 14 82 15 83 16 88 17 84 18 87 19 85 20 86 21 73 23 74 24
REMARK SMILES IDX 75 25 78 26 76 27 77 28 79 29 8 31 9 32 10 33 11 34 12 35
REMARK SMILES IDX 13 36 14 38 15 39 16 40 68 41 17 42 67 43 18 44 19 45 20 46
REMARK SMILES IDX 61 47 21 48 66 49 60 50 62 51 22 52 65 53 59 54 58 55 23 57
REMARK SMILES IDX 49 58 32 59 48 60 33 61 36 62 47 63 63 64 34 65 35 66 46 68
REMARK SMILES IDX 64 69 37 70 24 71 25 72 30 73 26 74 27 75 29 76 31 77 28 78
REMARK SMILES IDX 50 79 51 80 56 81 52 82 53 83 55 84 57 85 54 86 38 87 39 88
REMARK SMILES IDX 44 89 40 90 41 91 43 92 45 93 42 94
REMARK H PARENT 5 6 86 22 79 30 12 37 62 56 36 67
REMARK Flexibility Score: inf
ROOT
ATOM      1  C   UNL     1       4.198   0.823   1.171  1.00  0.00     0.021 C 
ENDROOT
BRANCH   1   2
ATOM      2  C   UNL     1       3.396  -0.308   1.816  1.00  0.00     0.116 C 
BRANCH   2   3
ATOM      3  N   UNL     1       2.273   0.229   2.549  1.00  0.00    -0.356 N 
ATOM      4  C   UNL     1       0.954   0.280   2.208  1.00  0.00     0.227 C 
ATOM      5  O   UNL     1       0.221   0.912   2.973  1.00  0.00    -0.274 OA
ATOM      6  H   UNL     1       2.493   0.617   3.426  1.00  0.00     0.163 HD
BRANCH   4   7
ATOM      7  C   UNL     1       0.444  -0.472   0.958  1.00  0.00     0.106 C 
ATOM      8  C   UNL     1       0.906   0.163  -0.358  1.00  0.00     0.023 C 
BRANCH   7   9
ATOM      9  C   UNL     1      -1.082  -0.586   0.986  1.00  0.00    -0.028 A 
ATOM     10  C   UNL     1      -1.831   0.584   0.753  1.00  0.00     0.005 A 
ATOM     11  C   UNL     1      -1.766  -1.791   1.269  1.00  0.00    -0.014 A 
ATOM     12  C   UNL     1      -3.214   0.587   0.840  1.00  0.00     0.004 A 
ATOM     13  C   UNL     1      -3.168  -1.740   1.435  1.00  0.00     0.012 A 
ATOM     14  C   UNL     1      -3.893  -0.548   1.268  1.00  0.00    -0.047 A 
BRANCH  11  15
ATOM     15  C   UNL     1      -1.090  -3.101   1.315  1.00  0.00    -0.018 A 
ATOM     16  C   UNL     1      -1.298  -4.019   0.270  1.00  0.00     0.012 A 
ATOM     17  C   UNL     1      -0.200  -3.457   2.342  1.00  0.00     0.012 A 
ATOM     18  C   UNL     1      -0.613  -5.235   0.230  1.00  0.00     0.047 A 
ATOM     19  C   UNL     1       0.499  -4.670   2.297  1.00  0.00     0.047 A 
ATOM     20  C   UNL     1       0.291  -5.544   1.235  1.00  0.00     0.115 A 
BRANCH  20  21
ATOM     21  O   UNL     1       0.967  -6.724   1.136  1.00  0.00    -0.508 OA
ATOM     22  H   UNL     1       0.808  -7.296   0.411  1.00  0.00     0.293 HD
ENDBRANCH  20  21
ENDBRANCH  11  15
BRANCH  14  23
ATOM     23  C   UNL     1      -5.367  -0.462   1.567  1.00  0.00     0.041 C 
BRANCH  23  24
ATOM     24  C   UNL     1      -5.775   0.114   2.938  1.00  0.00     0.022 C 
ATOM     25  C   UNL     1      -5.186  -0.607   4.162  1.00  0.00     0.007 C 
ATOM     26  C   UNL     1      -5.559   1.610   3.227  1.00  0.00     0.117 C 
ATOM     27  C   UNL     1      -5.101   0.445   5.273  1.00  0.00     0.003 C 
ATOM     28  C   UNL     1      -5.794   1.691   4.731  1.00  0.00     0.032 C 
BRANCH  26  29
ATOM     29  O   UNL     1      -4.262   2.109   2.962  1.00  0.00    -0.393 OA
ATOM     30  H   UNL     1      -3.614   1.628   3.500  1.00  0.00     0.210 HD
ENDBRANCH  26  29
ENDBRANCH  23  24
ENDBRANCH  14  23
ENDBRANCH   7   9
ENDBRANCH   4   7
ENDBRANCH   2   3
ENDBRANCH   1   2
BRANCH   1  31
ATOM     31  C   UNL     1       4.935   1.717   2.177  1.00  0.00     0.002 C 
BRANCH  31  32
ATOM     32  C   UNL     1       5.920   0.984   3.094  1.00  0.00     0.002 C 
BRANCH  32  33
ATOM     33  C   UNL     1       6.960   0.131   2.365  1.00  0.00     0.021 C 
BRANCH  33  34
ATOM     34  C   UNL     1       7.837   0.905   1.386  1.00  0.00     0.116 C 
BRANCH  34  35
ATOM     35  N   UNL     1       8.664   1.893   2.061  1.00  0.00    -0.352 N 
ATOM     36  C   UNL     1      10.033   2.014   2.085  1.00  0.00     0.251 C 
ATOM     37  H   UNL     1       8.173   2.574   2.574  1.00  0.00     0.163 HD
ATOM     38  O   UNL     1      10.574   2.777   2.874  1.00  0.00    -0.269 OA
BRANCH  36  39
ATOM     39  C   UNL     1      10.853   1.192   1.170  1.00  0.00     0.039 A 
ATOM     40  C   UNL     1      11.954   0.504   1.685  1.00  0.00     0.014 A 
ATOM     41  C   UNL     1      10.524   1.084  -0.184  1.00  0.00     0.014 A 
ATOM     42  C   UNL     1      12.672  -0.364   0.860  1.00  0.00     0.010 A 
ATOM     43  C   UNL     1      11.198   0.169  -0.988  1.00  0.00     0.010 A 
ATOM     44  C   UNL     1      12.266  -0.579  -0.468  1.00  0.00    -0.014 A 
BRANCH  44  45
ATOM     45  C   UNL     1      12.901  -1.629  -1.305  1.00  0.00     0.031 A 
ATOM     46  C   UNL     1      13.643  -1.264  -2.559  1.00  0.00     0.074 A 
ATOM     47  C   UNL     1      12.724  -2.925  -0.975  1.00  0.00     0.049 A 
ATOM     48  N   UNL     1      14.174  -2.051  -3.460  1.00  0.00    -0.248 NA
ATOM     49  C   UNL     1      13.792   0.171  -2.853  1.00  0.00     0.031 C 
ATOM     50  C   UNL     1      11.980  -3.408   0.191  1.00  0.00     0.029 A 
ATOM     51  N   UNL     1      13.136  -4.076  -1.601  1.00  0.00    -0.354 N 
ATOM     52  C   UNL     1      14.702  -1.212  -4.433  1.00  0.00     0.074 A 
ATOM     53  C   UNL     1      14.402   0.144  -4.030  1.00  0.00     0.031 C 
ATOM     54  C   UNL     1      11.993  -4.750   0.199  1.00  0.00     0.029 A 
ATOM     55  C   UNL     1      12.702  -5.225  -0.983  1.00  0.00     0.049 A 
ATOM     56  H   UNL     1      13.690  -4.078  -2.415  1.00  0.00     0.167 HD
ATOM     57  C   UNL     1      15.386  -1.548  -5.552  1.00  0.00     0.037 A 
ATOM     58  C   UNL     1      12.834  -6.517  -1.343  1.00  0.00     0.037 A 
ATOM     59  C   UNL     1      15.709  -2.899  -5.931  1.00  0.00     0.049 A 
ATOM     60  C   UNL     1      13.580  -6.854  -2.605  1.00  0.00     0.074 A 
ATOM     61  C   UNL     1      16.485  -3.330  -6.993  1.00  0.00     0.029 A 
ATOM     62  N   UNL     1      15.263  -4.034  -5.274  1.00  0.00    -0.354 N 
ATOM     63  N   UNL     1      14.167  -6.049  -3.457  1.00  0.00    -0.248 NA
ATOM     64  C   UNL     1      13.679  -8.277  -2.960  1.00  0.00     0.031 C 
ATOM     65  C   UNL     1      16.453  -4.726  -7.019  1.00  0.00     0.029 A 
ATOM     66  C   UNL     1      15.705  -5.166  -5.939  1.00  0.00     0.049 A 
ATOM     67  H   UNL     1      14.714  -4.036  -4.457  1.00  0.00     0.167 HD
ATOM     68  C   UNL     1      14.718  -6.867  -4.435  1.00  0.00     0.074 A 
ATOM     69  C   UNL     1      14.420  -8.232  -4.058  1.00  0.00     0.031 C 
ATOM     70  C   UNL     1      15.402  -6.519  -5.551  1.00  0.00     0.037 A 
BRANCH  57  71
ATOM     71  C   UNL     1      15.838  -0.446  -6.465  1.00  0.00     0.057 A 
ATOM     72  C   UNL     1      16.896   0.407  -6.128  1.00  0.00     0.134 A 
ATOM     73  C   UNL     1      15.274  -0.306  -7.740  1.00  0.00     0.134 A 
ATOM     74  F   UNL     1      17.476   0.329  -4.921  1.00  0.00    -0.206 F 
ATOM     75  C   UNL     1      17.374   1.364  -7.026  1.00  0.00     0.040 A 
ATOM     76  C   UNL     1      15.759   0.629  -8.654  1.00  0.00     0.040 A 
ATOM     77  F   UNL     1      14.263  -1.098  -8.128  1.00  0.00    -0.206 F 
ATOM     78  C   UNL     1      16.813   1.468  -8.297  1.00  0.00     0.006 A 
ENDBRANCH  57  71
BRANCH  58  79
ATOM     79  C   UNL     1      12.221  -7.594  -0.522  1.00  0.00     0.057 A 
ATOM     80  C   UNL     1      13.011  -8.536   0.148  1.00  0.00     0.134 A 
ATOM     81  C   UNL     1      10.831  -7.738  -0.427  1.00  0.00     0.134 A 
ATOM     82  F   UNL     1      14.349  -8.466   0.080  1.00  0.00    -0.206 F 
ATOM     83  C   UNL     1      12.443  -9.601   0.851  1.00  0.00     0.040 A 
ATOM     84  C   UNL     1      10.250  -8.778   0.299  1.00  0.00     0.040 A 
ATOM     85  F   UNL     1      10.016  -6.866  -1.038  1.00  0.00    -0.206 F 
ATOM     86  C   UNL     1      11.057  -9.722   0.929  1.00  0.00     0.006 A 
ENDBRANCH  58  79
BRANCH  70  87
ATOM     87  C   UNL     1      15.886  -7.628  -6.439  1.00  0.00     0.057 A 
ATOM     88  C   UNL     1      15.002  -8.374  -7.229  1.00  0.00     0.134 A 
ATOM     89  C   UNL     1      17.252  -7.917  -6.546  1.00  0.00     0.134 A 
ATOM     90  F   UNL     1      13.680  -8.157  -7.162  1.00  0.00    -0.206 F 
ATOM     91  C   UNL     1      15.460  -9.380  -8.082  1.00  0.00     0.040 A 
ATOM     92  C   UNL     1      17.724  -8.900  -7.416  1.00  0.00     0.040 A 
ATOM     93  F   UNL     1      18.152  -7.233  -5.823  1.00  0.00    -0.206 F 
ATOM     94  C   UNL     1      16.825  -9.638  -8.184  1.00  0.00     0.006 A 
ENDBRANCH  70  87
ENDBRANCH  44  45
ENDBRANCH  36  39
ENDBRANCH  34  35
ENDBRANCH  33  34
ENDBRANCH  32  33
ENDBRANCH  31  32
ENDBRANCH   1  31
TORSDOF 19
