REMARK SMILES O=C(NCCCCCCNC(=O)[C@H]1CC2(CCN(C(=O)C3CC3)CC2)CN1C(=O)CCn1cccn1)c1ccc(-c2c3nc(c(-c4c(F)cccc4F)c4ccc([nH]4)c(-c4c(F)cccc4F)c4nc(c(-c5c(F)cccc5F)c5ccc2[nH]5)C=C4)C=C3)cc1
REMARK SMILES IDX 7 1 6 2 5 3 4 4 3 5 1 6 2 7 37 9 38 10 90 11 39 12 89 13
REMARK SMILES IDX 40 14 41 15 42 16 83 17 43 18 88 19 82 20 84 21 44 22 87 23
REMARK SMILES IDX 81 24 80 25 45 27 71 28 54 29 70 30 55 31 58 32 69 33 85 34
REMARK SMILES IDX 56 35 57 36 68 38 86 39 59 40 46 41 47 42 52 43 48 44 49 45
REMARK SMILES IDX 51 46 53 47 50 48 72 49 73 50 78 51 74 52 75 53 77 54 79 55
REMARK SMILES IDX 76 56 60 57 61 58 66 59 62 60 63 61 65 62 67 63 64 64 8 65
REMARK SMILES IDX 9 66 10 67 11 68 12 70 13 71 14 72 27 73 15 74 26 75 16 76
REMARK SMILES IDX 25 77 17 78 24 79 18 80 19 81 20 82 28 83 29 84 30 85 31 86
REMARK SMILES IDX 32 87 33 88 36 89 34 90 35 91 21 92 22 93 23 94
REMARK H PARENT 3 8 84 26 58 37 10 69
REMARK Flexibility Score: inf
ROOT
ATOM      1  C   UNL     1       5.862   1.106   5.007  1.00  0.00     0.002 C 
ENDROOT
BRANCH   1   2
ATOM      2  C   UNL     1       4.751   0.579   4.094  1.00  0.00     0.002 C 
BRANCH   2   3
ATOM      3  C   UNL     1       3.386   0.368   4.758  1.00  0.00     0.021 C 
BRANCH   3   4
ATOM      4  C   UNL     1       2.887   1.552   5.581  1.00  0.00     0.116 C 
BRANCH   4   5
ATOM      5  N   UNL     1       2.631   2.744   4.807  1.00  0.00    -0.352 N 
ATOM      6  O   UNL     1       1.653   4.316   3.598  1.00  0.00    -0.269 OA
ATOM      7  C   UNL     1       1.593   3.161   4.027  1.00  0.00     0.251 C 
ATOM      8  H   UNL     1       3.366   3.397   4.852  1.00  0.00     0.163 HD
BRANCH   7   9
ATOM      9  C   UNL     1       0.453   2.302   3.611  1.00  0.00     0.039 A 
ATOM     10  C   UNL     1       0.040   1.126   4.240  1.00  0.00     0.014 A 
ATOM     11  C   UNL     1      -0.253   2.743   2.476  1.00  0.00     0.014 A 
ATOM     12  C   UNL     1      -0.996   0.367   3.705  1.00  0.00     0.010 A 
ATOM     13  C   UNL     1      -1.301   2.001   1.948  1.00  0.00     0.010 A 
ATOM     14  C   UNL     1      -1.653   0.798   2.550  1.00  0.00    -0.014 A 
BRANCH  14  15
ATOM     15  C   UNL     1      -2.837   0.062   2.121  1.00  0.00     0.031 A 
ATOM     16  C   UNL     1      -3.980   0.136   3.077  1.00  0.00     0.074 A 
ATOM     17  C   UNL     1      -2.974  -0.509   0.908  1.00  0.00     0.049 A 
ATOM     18  N   UNL     1      -4.542  -0.831   3.726  1.00  0.00    -0.248 NA
ATOM     19  C   UNL     1      -4.486   1.470   3.440  1.00  0.00     0.031 C 
ATOM     20  C   UNL     1      -2.078  -0.406  -0.244  1.00  0.00     0.029 A 
ATOM     21  N   UNL     1      -4.019  -1.236   0.420  1.00  0.00    -0.354 N 
ATOM     22  C   UNL     1      -5.591  -0.256   4.443  1.00  0.00     0.074 A 
ATOM     23  C   UNL     1      -5.419   1.169   4.343  1.00  0.00     0.031 C 
ATOM     24  C   UNL     1      -2.719  -0.855  -1.348  1.00  0.00     0.029 A 
ATOM     25  C   UNL     1      -4.012  -1.395  -0.960  1.00  0.00     0.049 A 
ATOM     26  H   UNL     1      -4.720  -1.617   0.997  1.00  0.00     0.167 HD
ATOM     27  C   UNL     1      -6.642  -0.998   4.888  1.00  0.00     0.037 A 
ATOM     28  C   UNL     1      -5.021  -1.882  -1.726  1.00  0.00     0.037 A 
ATOM     29  C   UNL     1      -6.333  -2.402   4.888  1.00  0.00     0.049 A 
ATOM     30  C   UNL     1      -5.941  -2.635  -0.840  1.00  0.00     0.074 A 
ATOM     31  C   UNL     1      -5.403  -3.200   5.523  1.00  0.00     0.029 A 
ATOM     32  N   UNL     1      -6.841  -3.163   3.865  1.00  0.00    -0.354 N 
ATOM     33  N   UNL     1      -5.646  -3.771  -0.277  1.00  0.00    -0.248 NA
ATOM     34  C   UNL     1      -7.048  -1.908  -0.238  1.00  0.00     0.031 C 
ATOM     35  C   UNL     1      -5.054  -4.194   4.562  1.00  0.00     0.029 A 
ATOM     36  C   UNL     1      -5.831  -3.974   3.424  1.00  0.00     0.049 A 
ATOM     37  H   UNL     1      -7.761  -3.132   3.514  1.00  0.00     0.167 HD
ATOM     38  C   UNL     1      -6.209  -3.690   0.987  1.00  0.00     0.074 A 
ATOM     39  C   UNL     1      -7.143  -2.569   0.918  1.00  0.00     0.031 C 
ATOM     40  C   UNL     1      -5.658  -4.356   2.044  1.00  0.00     0.037 A 
BRANCH  27  41
ATOM     41  C   UNL     1      -8.067  -0.503   4.964  1.00  0.00     0.057 A 
ATOM     42  C   UNL     1      -9.046  -1.319   5.562  1.00  0.00     0.134 A 
ATOM     43  C   UNL     1      -8.568   0.573   4.204  1.00  0.00     0.134 A 
ATOM     44  F   UNL     1      -8.698  -2.383   6.302  1.00  0.00    -0.206 F 
ATOM     45  C   UNL     1     -10.417  -1.129   5.347  1.00  0.00     0.040 A 
ATOM     46  C   UNL     1      -9.935   0.802   4.026  1.00  0.00     0.040 A 
ATOM     47  F   UNL     1      -7.770   1.394   3.511  1.00  0.00    -0.206 F 
ATOM     48  C   UNL     1     -10.864  -0.071   4.567  1.00  0.00     0.006 A 
ENDBRANCH  27  41
BRANCH  28  49
ATOM     49  C   UNL     1      -5.410  -1.519  -3.109  1.00  0.00     0.057 A 
ATOM     50  C   UNL     1      -6.284  -2.325  -3.855  1.00  0.00     0.134 A 
ATOM     51  C   UNL     1      -5.170  -0.234  -3.623  1.00  0.00     0.134 A 
ATOM     52  F   UNL     1      -6.610  -3.554  -3.427  1.00  0.00    -0.206 F 
ATOM     53  C   UNL     1      -6.906  -1.870  -5.026  1.00  0.00     0.040 A 
ATOM     54  C   UNL     1      -5.779   0.231  -4.795  1.00  0.00     0.040 A 
ATOM     55  F   UNL     1      -4.412   0.648  -2.957  1.00  0.00    -0.206 F 
ATOM     56  C   UNL     1      -6.664  -0.582  -5.492  1.00  0.00     0.006 A 
ENDBRANCH  28  49
BRANCH  40  57
ATOM     57  C   UNL     1      -4.611  -5.393   1.754  1.00  0.00     0.057 A 
ATOM     58  C   UNL     1      -3.372  -5.120   1.157  1.00  0.00     0.134 A 
ATOM     59  C   UNL     1      -4.811  -6.692   2.236  1.00  0.00     0.134 A 
ATOM     60  F   UNL     1      -3.049  -3.884   0.756  1.00  0.00    -0.206 F 
ATOM     61  C   UNL     1      -2.395  -6.109   1.006  1.00  0.00     0.040 A 
ATOM     62  C   UNL     1      -3.829  -7.678   2.124  1.00  0.00     0.040 A 
ATOM     63  F   UNL     1      -5.951  -7.011   2.869  1.00  0.00    -0.206 F 
ATOM     64  C   UNL     1      -2.620  -7.391   1.498  1.00  0.00     0.006 A 
ENDBRANCH  40  57
ENDBRANCH  14  15
ENDBRANCH   7   9
ENDBRANCH   4   5
ENDBRANCH   3   4
ENDBRANCH   2   3
ENDBRANCH   1   2
BRANCH   1  65
ATOM     65  C   UNL     1       6.046   0.370   6.340  1.00  0.00     0.021 C 
BRANCH  65  66
ATOM     66  C   UNL     1       6.260  -1.130   6.231  1.00  0.00     0.116 C 
BRANCH  66  67
ATOM     67  N   UNL     1       7.353  -1.480   5.364  1.00  0.00    -0.354 N 
ATOM     68  C   UNL     1       8.093  -2.611   5.510  1.00  0.00     0.242 C 
ATOM     69  H   UNL     1       7.577  -0.869   4.625  1.00  0.00     0.163 HD
ATOM     70  O   UNL     1       8.113  -3.391   4.553  1.00  0.00    -0.273 OA
BRANCH  68  71
ATOM     71  C   UNL     1       8.637  -3.009   6.894  1.00  0.00     0.175 C 
ATOM     72  C   UNL     1       9.463  -4.282   6.754  1.00  0.00     0.044 C 
ATOM     73  N   UNL     1       9.432  -2.276   7.899  1.00  0.00    -0.330 N 
ATOM     74  C   UNL     1       9.883  -4.623   8.196  1.00  0.00    -0.006 C 
ATOM     75  C   UNL     1       9.820  -3.257   8.925  1.00  0.00     0.127 C 
ATOM     76  C   UNL     1      11.304  -5.205   8.225  1.00  0.00     0.030 C 
ATOM     77  C   UNL     1       8.928  -5.667   8.806  1.00  0.00     0.030 C 
ATOM     78  C   UNL     1      11.373  -6.536   7.483  1.00  0.00     0.120 C 
ATOM     79  C   UNL     1       9.035  -7.028   8.104  1.00  0.00     0.120 C 
ATOM     80  N   UNL     1      10.421  -7.501   8.023  1.00  0.00    -0.342 N 
ATOM     81  C   UNL     1      10.628  -8.870   8.244  1.00  0.00     0.225 C 
ATOM     82  O   UNL     1       9.682  -9.624   8.412  1.00  0.00    -0.275 OA
BRANCH  73  83
ATOM     83  C   UNL     1      10.200  -1.131   7.801  1.00  0.00     0.225 C 
ATOM     84  O   UNL     1      11.123  -0.909   8.595  1.00  0.00    -0.275 OA
BRANCH  83  85
ATOM     85  C   UNL     1       9.910  -0.061   6.781  1.00  0.00     0.124 C 
BRANCH  85  86
ATOM     86  C   UNL     1      10.996   0.037   5.722  1.00  0.00     0.154 C 
BRANCH  86  87
ATOM     87  N   UNL     1      10.954  -1.039   4.753  1.00  0.00    -0.272 N 
ATOM     88  C   UNL     1      11.674  -2.197   4.787  1.00  0.00     0.108 A 
ATOM     89  N   UNL     1      10.133  -0.949   3.690  1.00  0.00    -0.182 NA
ATOM     90  C   UNL     1      11.253  -2.935   3.705  1.00  0.00     0.042 A 
ATOM     91  C   UNL     1      10.307  -2.116   3.061  1.00  0.00     0.135 A 
ENDBRANCH  86  87
ENDBRANCH  85  86
ENDBRANCH  83  85
ENDBRANCH  73  83
BRANCH  81  92
ATOM     92  C   UNL     1      11.979  -9.499   8.379  1.00  0.00     0.079 C 
ATOM     93  C   UNL     1      13.264  -9.201   7.664  1.00  0.00     0.014 C 
ATOM     94  C   UNL     1      13.106  -8.821   9.115  1.00  0.00     0.014 C 
ENDBRANCH  81  92
ENDBRANCH  68  71
ENDBRANCH  66  67
ENDBRANCH  65  66
ENDBRANCH   1  65
TORSDOF 18
