REMARK SMILES Cc1nc2sc3c(c2c2nc(CCC(=O)NCCCCCCNC(=O)c4ccc(-c5c6nc(c(-c7c(F)cccc7F)c7ccc([nH]7)c(-c7c(F)cccc7F)c7nc(c(-c8c(F)cccc8F)c8ccc5[nH]8)C=C7)C=C6)cc4)nn12)[C@@H](C)CCC3
REMARK SMILES IDX 19 1 18 2 17 3 16 4 14 5 15 6 13 8 12 9 11 10 1 11 2 12 3 13
REMARK SMILES IDX 81 14 4 15 9 16 80 17 5 18 8 19 10 20 6 21 7 22 86 23 82 24
REMARK SMILES IDX 85 25 83 26 84 27 20 28 21 29 22 30 23 31 24 32 25 34 26 35
REMARK SMILES IDX 27 36 79 37 28 38 78 39 29 40 30 41 31 42 72 43 32 44 77 45
REMARK SMILES IDX 71 46 73 47 33 48 76 49 70 50 69 51 34 53 60 54 43 55 59 56
REMARK SMILES IDX 44 57 47 58 58 59 74 60 45 61 46 62 57 64 75 65 48 66 35 67
REMARK SMILES IDX 36 68 41 69 37 70 38 71 40 72 42 73 39 74 61 75 62 76 67 77
REMARK SMILES IDX 63 78 64 79 66 80 68 81 65 82 49 83 50 84 55 85 51 86 52 87
REMARK SMILES IDX 54 88 56 89 53 90
REMARK H PARENT 16 7 23 33 73 52 47 63
REMARK Flexibility Score: inf
ROOT
ATOM      1  C   UNL     1       2.096   5.344  -1.806  1.00  0.00     0.002 C 
ENDROOT
BRANCH   1   2
ATOM      2  C   UNL     1       3.002   4.255  -1.257  1.00  0.00     0.021 C 
BRANCH   2   3
ATOM      3  C   UNL     1       4.400   4.798  -1.075  1.00  0.00     0.116 C 
BRANCH   3   4
ATOM      4  N   UNL     1       4.345   5.996  -0.242  1.00  0.00    -0.356 N 
ATOM      5  C   UNL     1       3.745   6.122   0.988  1.00  0.00     0.220 C 
ATOM      6  O   UNL     1       3.394   7.241   1.361  1.00  0.00    -0.275 OA
ATOM      7  H   UNL     1       4.786   6.800  -0.600  1.00  0.00     0.163 HD
BRANCH   5   8
ATOM      8  C   UNL     1       3.639   4.901   1.893  1.00  0.00     0.108 C 
BRANCH   8   9
ATOM      9  C   UNL     1       2.248   4.551   2.473  1.00  0.00     0.089 C 
BRANCH   9  10
ATOM     10  C   UNL     1       1.253   3.865   1.557  1.00  0.00     0.152 A 
ATOM     11  C   UNL     1       1.036   0.024   0.055  1.00  0.00     0.090 C 
ATOM     12  C   UNL     1       0.415   1.241  -0.588  1.00  0.00     0.131 A 
ATOM     13  N   UNL     1      -0.069   1.157  -1.807  1.00  0.00    -0.222 NA
ATOM     14  N   UNL     1       0.481   2.428   0.206  1.00  0.00    -0.199 N 
ATOM     15  C   UNL     1      -0.440   2.354  -2.353  1.00  0.00     0.129 A 
ATOM     16  C   UNL     1       0.006   3.692  -0.154  1.00  0.00     0.168 A 
ATOM     17  N   UNL     1       1.264   2.537   1.326  1.00  0.00    -0.150 NA
ATOM     18  S   UNL     1      -0.746   2.522  -4.637  1.00  0.00    -0.120 S 
ATOM     19  C   UNL     1      -0.459   3.893  -1.581  1.00  0.00     0.060 A 
ATOM     20  N   UNL     1       0.378   4.574   0.752  1.00  0.00    -0.211 NA
ATOM     21  C   UNL     1      -0.897   4.856  -4.435  1.00  0.00     0.011 A 
ATOM     22  C   UNL     1      -0.743   5.387  -2.749  1.00  0.00    -0.018 A 
ATOM     23  C   UNL     1      -1.370   5.740  -5.553  1.00  0.00     0.047 C 
ATOM     24  C   UNL     1      -0.898   6.925  -2.505  1.00  0.00     0.018 C 
ATOM     25  C   UNL     1      -2.092   6.940  -4.861  1.00  0.00     0.006 C 
ATOM     26  C   UNL     1       0.274   7.744  -1.931  1.00  0.00     0.013 C 
ATOM     27  C   UNL     1      -1.166   7.652  -3.875  1.00  0.00     0.008 C 
ENDBRANCH   9  10
ENDBRANCH   8   9
ENDBRANCH   5   8
ENDBRANCH   3   4
ENDBRANCH   2   3
ENDBRANCH   1   2
BRANCH   1  28
ATOM     28  C   UNL     1       1.605   5.039  -3.198  1.00  0.00     0.002 C 
BRANCH  28  29
ATOM     29  C   UNL     1       0.424   3.862  -3.421  1.00  0.00     0.021 C 
BRANCH  29  30
ATOM     30  C   UNL     1      -1.766   3.690  -3.148  1.00  0.00     0.116 C 
BRANCH  30  31
ATOM     31  N   UNL     1      -2.985   3.884  -4.364  1.00  0.00    -0.352 N 
ATOM     32  C   UNL     1      -3.806   2.991  -5.033  1.00  0.00     0.251 C 
ATOM     33  H   UNL     1      -3.123   4.821  -4.635  1.00  0.00     0.163 HD
ATOM     34  O   UNL     1      -4.106   3.093  -6.213  1.00  0.00    -0.269 OA
BRANCH  32  35
ATOM     35  C   UNL     1      -4.492   2.056  -4.160  1.00  0.00     0.039 A 
ATOM     36  C   UNL     1      -5.038   0.821  -4.503  1.00  0.00     0.014 A 
ATOM     37  C   UNL     1      -4.617   2.542  -2.875  1.00  0.00     0.014 A 
ATOM     38  C   UNL     1      -5.677   0.130  -3.478  1.00  0.00     0.010 A 
ATOM     39  C   UNL     1      -4.612   1.602  -1.933  1.00  0.00     0.010 A 
ATOM     40  C   UNL     1      -5.517   0.617  -2.173  1.00  0.00    -0.014 A 
BRANCH  40  41
ATOM     41  C   UNL     1      -5.906  -0.015  -0.941  1.00  0.00     0.031 A 
ATOM     42  C   UNL     1      -5.390  -1.394  -0.930  1.00  0.00     0.074 A 
ATOM     43  C   UNL     1      -6.426   0.702   0.088  1.00  0.00     0.049 A 
ATOM     44  N   UNL     1      -6.048  -2.423  -1.340  1.00  0.00    -0.248 NA
ATOM     45  C   UNL     1      -3.934  -1.635  -0.836  1.00  0.00     0.031 C 
ATOM     46  C   UNL     1      -6.652   2.158   0.204  1.00  0.00     0.029 A 
ATOM     47  N   UNL     1      -6.856   0.256   1.302  1.00  0.00    -0.354 N 
ATOM     48  C   UNL     1      -5.181  -3.486  -1.165  1.00  0.00     0.074 A 
ATOM     49  C   UNL     1      -3.860  -2.926  -1.180  1.00  0.00     0.031 C 
ATOM     50  C   UNL     1      -6.974   2.489   1.480  1.00  0.00     0.029 A 
ATOM     51  C   UNL     1      -7.157   1.267   2.233  1.00  0.00     0.049 A 
ATOM     52  H   UNL     1      -6.949  -0.702   1.511  1.00  0.00     0.167 HD
ATOM     53  C   UNL     1      -5.658  -4.622  -0.592  1.00  0.00     0.037 A 
ATOM     54  C   UNL     1      -7.577   1.050   3.510  1.00  0.00     0.037 A 
ATOM     55  C   UNL     1      -7.106  -4.578  -0.555  1.00  0.00     0.049 A 
ATOM     56  C   UNL     1      -8.117  -0.330   3.518  1.00  0.00     0.074 A 
ATOM     57  C   UNL     1      -8.106  -4.614  -1.505  1.00  0.00     0.029 A 
ATOM     58  N   UNL     1      -7.599  -3.886   0.527  1.00  0.00    -0.354 N 
ATOM     59  N   UNL     1      -9.189  -0.677   2.860  1.00  0.00    -0.248 NA
ATOM     60  C   UNL     1      -7.205  -1.412   3.858  1.00  0.00     0.031 C 
ATOM     61  C   UNL     1      -9.137  -3.748  -1.028  1.00  0.00     0.029 A 
ATOM     62  C   UNL     1      -8.807  -3.301   0.250  1.00  0.00     0.049 A 
ATOM     63  H   UNL     1      -7.140  -3.819   1.396  1.00  0.00     0.167 HD
ATOM     64  C   UNL     1      -8.878  -1.917   2.327  1.00  0.00     0.074 A 
ATOM     65  C   UNL     1      -7.711  -2.376   3.083  1.00  0.00     0.031 C 
ATOM     66  C   UNL     1      -9.380  -2.286   1.111  1.00  0.00     0.037 A 
BRANCH  53  67
ATOM     67  C   UNL     1      -4.862  -5.473   0.363  1.00  0.00     0.057 A 
ATOM     68  C   UNL     1      -5.345  -6.742   0.711  1.00  0.00     0.134 A 
ATOM     69  C   UNL     1      -3.775  -5.013   1.138  1.00  0.00     0.134 A 
ATOM     70  F   UNL     1      -6.417  -7.260   0.093  1.00  0.00    -0.206 F 
ATOM     71  C   UNL     1      -4.783  -7.499   1.747  1.00  0.00     0.040 A 
ATOM     72  C   UNL     1      -3.171  -5.780   2.136  1.00  0.00     0.040 A 
ATOM     73  F   UNL     1      -3.301  -3.765   1.049  1.00  0.00    -0.206 F 
ATOM     74  C   UNL     1      -3.684  -7.025   2.454  1.00  0.00     0.006 A 
ENDBRANCH  53  67
BRANCH  54  75
ATOM     75  C   UNL     1      -7.277   1.742   4.790  1.00  0.00     0.057 A 
ATOM     76  C   UNL     1      -8.017   1.459   5.954  1.00  0.00     0.134 A 
ATOM     77  C   UNL     1      -6.046   2.382   4.989  1.00  0.00     0.134 A 
ATOM     78  F   UNL     1      -9.195   0.822   5.872  1.00  0.00    -0.206 F 
ATOM     79  C   UNL     1      -7.532   1.735   7.241  1.00  0.00     0.040 A 
ATOM     80  C   UNL     1      -5.547   2.662   6.271  1.00  0.00     0.040 A 
ATOM     81  F   UNL     1      -5.241   2.654   3.952  1.00  0.00    -0.206 F 
ATOM     82  C   UNL     1      -6.280   2.318   7.402  1.00  0.00     0.006 A 
ENDBRANCH  54  75
BRANCH  66  83
ATOM     83  C   UNL     1     -10.559  -1.513   0.579  1.00  0.00     0.057 A 
ATOM     84  C   UNL     1     -10.529  -0.191   0.108  1.00  0.00     0.134 A 
ATOM     85  C   UNL     1     -11.767  -2.202   0.433  1.00  0.00     0.134 A 
ATOM     86  F   UNL     1      -9.405   0.535   0.146  1.00  0.00    -0.206 F 
ATOM     87  C   UNL     1     -11.654   0.417  -0.466  1.00  0.00     0.040 A 
ATOM     88  C   UNL     1     -12.886  -1.620  -0.162  1.00  0.00     0.040 A 
ATOM     89  F   UNL     1     -11.860  -3.482   0.827  1.00  0.00    -0.206 F 
ATOM     90  C   UNL     1     -12.836  -0.304  -0.610  1.00  0.00     0.006 A 
ENDBRANCH  66  83
ENDBRANCH  40  41
ENDBRANCH  32  35
ENDBRANCH  30  31
ENDBRANCH  29  30
ENDBRANCH  28  29
ENDBRANCH   1  28
TORSDOF 15
