REMARK SMILES CC(C)C[C@H](NC(N)=O)C(=O)N[C@@H](C(=O)NCCCCCCNC(=O)c1ccc(-c2c3nc(c(-c4c(F)cccc4F)c4ccc([nH]4)c(-c4c(F)cccc4F)c4nc(c(-c5c(F)cccc5F)c5ccc2[nH]5)C=C4)C=C3)cc1)C(C)C
REMARK SMILES IDX 18 1 17 2 16 3 14 4 15 5 13 7 12 8 10 9 11 10 5 12 4 13 2 14
REMARK SMILES IDX 1 15 3 16 6 17 7 18 8 20 9 21 80 24 81 25 82 26 19 27 20 28
REMARK SMILES IDX 21 29 22 30 23 31 24 32 25 34 26 35 27 36 79 37 28 38 78 39
REMARK SMILES IDX 29 40 30 41 31 42 72 43 32 44 77 45 71 46 73 47 33 48 76 49
REMARK SMILES IDX 70 50 69 51 34 53 60 54 43 55 59 56 44 57 47 58 58 59 74 60
REMARK SMILES IDX 45 61 46 62 57 64 75 65 48 66 35 67 36 68 41 69 37 70 38 71
REMARK SMILES IDX 40 72 42 73 39 74 61 75 62 76 67 77 63 78 64 79 66 80 68 81
REMARK SMILES IDX 65 82 49 83 50 84 55 85 51 86 52 87 54 88 56 89 53 90
REMARK H PARENT 16 6 12 11 6 19 8 22 8 23 23 33 73 52 47 63
REMARK Flexibility Score: inf
ROOT
ATOM      1  C   UNL     1      -3.851  -3.053  -0.914  1.00  0.00     0.021 C 
ENDROOT
BRANCH   1   2
ATOM      2  C   UNL     1      -2.933  -2.295  -1.859  1.00  0.00     0.116 C 
BRANCH   2   3
ATOM      3  N   UNL     1      -3.481  -2.167  -3.183  1.00  0.00    -0.354 N 
ATOM      4  C   UNL     1      -3.571  -1.100  -4.021  1.00  0.00     0.242 C 
ATOM      5  O   UNL     1      -4.046  -1.361  -5.131  1.00  0.00    -0.273 OA
ATOM      6  H   UNL     1      -3.859  -3.000  -3.546  1.00  0.00     0.163 HD
BRANCH   4   7
ATOM      7  C   UNL     1      -2.985   0.320  -3.673  1.00  0.00     0.173 C 
BRANCH   7   8
ATOM      8  N   UNL     1      -3.448   0.746  -2.344  1.00  0.00    -0.342 N 
ATOM      9  C   UNL     1      -2.788   1.079  -1.196  1.00  0.00     0.243 C 
ATOM     10  O   UNL     1      -3.485   1.191  -0.181  1.00  0.00    -0.273 OA
ATOM     11  H   UNL     1      -4.428   0.802  -2.266  1.00  0.00     0.164 HD
BRANCH   9  12
ATOM     12  C   UNL     1      -1.253   1.316  -1.109  1.00  0.00     0.173 C 
BRANCH  12  13
ATOM     13  C   UNL     1      -0.818   2.573  -1.875  1.00  0.00     0.038 C 
BRANCH  13  14
ATOM     14  C   UNL     1      -1.611   3.852  -1.527  1.00  0.00    -0.015 C 
ATOM     15  C   UNL     1      -1.539   4.211  -0.041  1.00  0.00     0.007 C 
ATOM     16  C   UNL     1      -1.091   5.025  -2.360  1.00  0.00     0.007 C 
ENDBRANCH  13  14
ENDBRANCH  12  13
BRANCH  12  17
ATOM     17  N   UNL     1      -0.499   0.107  -1.457  1.00  0.00    -0.327 N 
ATOM     18  C   UNL     1       0.858   0.020  -1.454  1.00  0.00     0.312 C 
ATOM     19  H   UNL     1      -1.010  -0.696  -1.710  1.00  0.00     0.166 HD
ATOM     20  N   UNL     1       1.293  -1.235  -1.727  1.00  0.00    -0.352 N 
ATOM     21  O   UNL     1       1.642   0.925  -1.230  1.00  0.00    -0.249 OA
ATOM     22  H   UNL     1       0.643  -1.953  -1.905  1.00  0.00     0.161 HD
ATOM     23  H   UNL     1       2.258  -1.428  -1.748  1.00  0.00     0.161 HD
ENDBRANCH  12  17
ENDBRANCH   9  12
ENDBRANCH   7   8
BRANCH   7  24
ATOM     24  C   UNL     1      -3.447   1.307  -4.796  1.00  0.00     0.015 C 
ATOM     25  C   UNL     1      -3.452   2.786  -4.414  1.00  0.00     0.010 C 
ATOM     26  C   UNL     1      -2.583   1.141  -6.056  1.00  0.00     0.010 C 
ENDBRANCH   7  24
ENDBRANCH   4   7
ENDBRANCH   2   3
ENDBRANCH   1   2
BRANCH   1  27
ATOM     27  C   UNL     1      -3.906  -4.558  -1.165  1.00  0.00     0.002 C 
BRANCH  27  28
ATOM     28  C   UNL     1      -2.551  -5.274  -1.125  1.00  0.00     0.002 C 
BRANCH  28  29
ATOM     29  C   UNL     1      -1.712  -5.029   0.133  1.00  0.00     0.021 C 
BRANCH  29  30
ATOM     30  C   UNL     1      -2.419  -5.329   1.452  1.00  0.00     0.116 C 
BRANCH  30  31
ATOM     31  N   UNL     1      -2.906  -6.694   1.516  1.00  0.00    -0.352 N 
ATOM     32  C   UNL     1      -2.774  -7.624   2.513  1.00  0.00     0.251 C 
ATOM     33  H   UNL     1      -3.406  -6.998   0.725  1.00  0.00     0.163 HD
ATOM     34  O   UNL     1      -3.112  -8.787   2.313  1.00  0.00    -0.269 OA
BRANCH  32  35
ATOM     35  C   UNL     1      -2.211  -7.238   3.824  1.00  0.00     0.039 A 
ATOM     36  C   UNL     1      -1.307  -8.106   4.443  1.00  0.00     0.014 A 
ATOM     37  C   UNL     1      -2.599  -6.056   4.463  1.00  0.00     0.014 A 
ATOM     38  C   UNL     1      -0.765  -7.772   5.684  1.00  0.00     0.010 A 
ATOM     39  C   UNL     1      -2.007  -5.692   5.670  1.00  0.00     0.010 A 
ATOM     40  C   UNL     1      -1.097  -6.554   6.299  1.00  0.00    -0.014 A 
BRANCH  40  41
ATOM     41  C   UNL     1      -0.520  -6.187   7.615  1.00  0.00     0.031 A 
ATOM     42  C   UNL     1      -1.407  -6.079   8.825  1.00  0.00     0.074 A 
ATOM     43  C   UNL     1       0.794  -5.914   7.713  1.00  0.00     0.049 A 
ATOM     44  N   UNL     1      -1.095  -5.747  10.052  1.00  0.00    -0.248 NA
ATOM     45  C   UNL     1      -2.838  -6.356   8.624  1.00  0.00     0.031 C 
ATOM     46  C   UNL     1       1.748  -5.936   6.602  1.00  0.00     0.029 A 
ATOM     47  N   UNL     1       1.554  -5.559   8.798  1.00  0.00    -0.354 N 
ATOM     48  C   UNL     1      -2.288  -5.761  10.762  1.00  0.00     0.074 A 
ATOM     49  C   UNL     1      -3.338  -6.084   9.820  1.00  0.00     0.031 C 
ATOM     50  C   UNL     1       2.970  -5.633   7.068  1.00  0.00     0.029 A 
ATOM     51  C   UNL     1       2.882  -5.369   8.501  1.00  0.00     0.049 A 
ATOM     52  H   UNL     1       1.184  -5.450   9.703  1.00  0.00     0.167 HD
ATOM     53  C   UNL     1      -2.489  -5.549  12.085  1.00  0.00     0.037 A 
ATOM     54  C   UNL     1       3.911  -5.024   9.297  1.00  0.00     0.037 A 
ATOM     55  C   UNL     1      -1.440  -5.258  13.025  1.00  0.00     0.049 A 
ATOM     56  C   UNL     1       3.665  -4.811  10.764  1.00  0.00     0.074 A 
ATOM     57  C   UNL     1      -1.532  -5.084  14.395  1.00  0.00     0.029 A 
ATOM     58  N   UNL     1      -0.104  -5.098  12.690  1.00  0.00    -0.354 N 
ATOM     59  N   UNL     1       2.542  -4.895  11.435  1.00  0.00    -0.248 NA
ATOM     60  C   UNL     1       4.833  -4.465  11.587  1.00  0.00     0.031 C 
ATOM     61  C   UNL     1      -0.256  -4.785  14.884  1.00  0.00     0.029 A 
ATOM     62  C   UNL     1       0.637  -4.814  13.825  1.00  0.00     0.049 A 
ATOM     63  H   UNL     1       0.264  -5.176  11.780  1.00  0.00     0.167 HD
ATOM     64  C   UNL     1       2.870  -4.641  12.760  1.00  0.00     0.074 A 
ATOM     65  C   UNL     1       4.301  -4.413  12.800  1.00  0.00     0.031 C 
ATOM     66  C   UNL     1       2.062  -4.599  13.847  1.00  0.00     0.037 A 
BRANCH  53  67
ATOM     67  C   UNL     1      -3.900  -5.633  12.591  1.00  0.00     0.057 A 
ATOM     68  C   UNL     1      -4.582  -6.854  12.674  1.00  0.00     0.134 A 
ATOM     69  C   UNL     1      -4.575  -4.485  13.023  1.00  0.00     0.134 A 
ATOM     70  F   UNL     1      -3.996  -7.989  12.264  1.00  0.00    -0.206 F 
ATOM     71  C   UNL     1      -5.894  -6.927  13.144  1.00  0.00     0.040 A 
ATOM     72  C   UNL     1      -5.879  -4.549  13.520  1.00  0.00     0.040 A 
ATOM     73  F   UNL     1      -3.979  -3.284  12.976  1.00  0.00    -0.206 F 
ATOM     74  C   UNL     1      -6.544  -5.772  13.574  1.00  0.00     0.006 A 
ENDBRANCH  53  67
BRANCH  54  75
ATOM     75  C   UNL     1       5.276  -4.895   8.730  1.00  0.00     0.057 A 
ATOM     76  C   UNL     1       6.269  -5.837   9.021  1.00  0.00     0.134 A 
ATOM     77  C   UNL     1       5.622  -3.830   7.890  1.00  0.00     0.134 A 
ATOM     78  F   UNL     1       6.001  -6.870   9.833  1.00  0.00    -0.206 F 
ATOM     79  C   UNL     1       7.563  -5.716   8.513  1.00  0.00     0.040 A 
ATOM     80  C   UNL     1       6.906  -3.709   7.357  1.00  0.00     0.040 A 
ATOM     81  F   UNL     1       4.712  -2.900   7.566  1.00  0.00    -0.206 F 
ATOM     82  C   UNL     1       7.883  -4.650   7.674  1.00  0.00     0.006 A 
ENDBRANCH  54  75
BRANCH  66  83
ATOM     83  C   UNL     1       2.711  -4.333  15.172  1.00  0.00     0.057 A 
ATOM     84  C   UNL     1       3.189  -3.063  15.519  1.00  0.00     0.134 A 
ATOM     85  C   UNL     1       2.830  -5.353  16.124  1.00  0.00     0.134 A 
ATOM     86  F   UNL     1       3.116  -2.047  14.645  1.00  0.00    -0.206 F 
ATOM     87  C   UNL     1       3.786  -2.823  16.757  1.00  0.00     0.040 A 
ATOM     88  C   UNL     1       3.402  -5.120  17.375  1.00  0.00     0.040 A 
ATOM     89  F   UNL     1       2.384  -6.590  15.857  1.00  0.00    -0.206 F 
ATOM     90  C   UNL     1       3.888  -3.853  17.692  1.00  0.00     0.006 A 
ENDBRANCH  66  83
ENDBRANCH  40  41
ENDBRANCH  32  35
ENDBRANCH  30  31
ENDBRANCH  29  30
ENDBRANCH  28  29
ENDBRANCH  27  28
ENDBRANCH   1  27
TORSDOF 19
