REMARK SMILES CCc1nc(=O)n([C@@H](CC)C(C)C)c(CC)c1CC(=O)NCCCCCCNC(=O)c1ccc(-c2c3nc(c(-c4c(F)cccc4F)c4ccc([nH]4)c(-c4c(F)cccc4F)c4nc(c(-c5c(F)cccc5F)c5ccc2[nH]5)C=C4)C=C3)cc1
REMARK SMILES IDX 24 1 23 2 22 3 21 4 19 5 20 6 18 8 17 9 3 10 4 11 5 12 14 13
REMARK SMILES IDX 6 14 7 15 2 16 1 17 15 18 16 19 8 20 9 21 10 22 11 23 12 24
REMARK SMILES IDX 13 25 25 26 26 27 27 28 28 29 29 30 30 32 31 33 32 34 84 35
REMARK SMILES IDX 33 36 83 37 34 38 35 39 36 40 77 41 37 42 82 43 76 44 78 45
REMARK SMILES IDX 38 46 81 47 75 48 74 49 39 51 65 52 48 53 64 54 49 55 52 56
REMARK SMILES IDX 63 57 79 58 50 59 51 60 62 62 80 63 53 64 40 65 41 66 46 67
REMARK SMILES IDX 42 68 43 69 45 70 47 71 44 72 66 73 67 74 72 75 68 76 69 77
REMARK SMILES IDX 71 78 73 79 70 80 54 81 55 82 60 83 56 84 57 85 59 86 61 87
REMARK SMILES IDX 58 88
REMARK H PARENT 21 7 28 31 78 50 52 61
REMARK Flexibility Score: inf
ROOT
ATOM      1  C   UNL     1      -2.829   0.846  -4.157  1.00  0.00     0.002 C 
ENDROOT
BRANCH   1   2
ATOM      2  C   UNL     1      -1.785   1.292  -3.128  1.00  0.00     0.021 C 
BRANCH   2   3
ATOM      3  C   UNL     1      -0.998   0.136  -2.516  1.00  0.00     0.116 C 
BRANCH   3   4
ATOM      4  N   UNL     1      -0.090  -0.463  -3.468  1.00  0.00    -0.356 N 
ATOM      5  C   UNL     1       1.267  -0.408  -3.535  1.00  0.00     0.224 C 
ATOM      6  O   UNL     1       1.820  -0.975  -4.481  1.00  0.00    -0.275 OA
ATOM      7  H   UNL     1      -0.521  -0.992  -4.178  1.00  0.00     0.163 HD
BRANCH   5   8
ATOM      8  C   UNL     1       2.093   0.272  -2.444  1.00  0.00     0.139 C 
BRANCH   8   9
ATOM      9  C   UNL     1       1.816   1.732  -2.205  1.00  0.00     0.003 A 
ATOM     10  C   UNL     1       1.342   2.244  -0.879  1.00  0.00     0.051 A 
ATOM     11  N   UNL     1       1.151   3.497  -0.640  1.00  0.00    -0.198 NA
ATOM     12  C   UNL     1       1.386   4.451  -1.575  1.00  0.00     0.348 A 
ATOM     13  C   UNL     1       2.019   2.690  -3.153  1.00  0.00     0.028 A 
ATOM     14  O   UNL     1       1.243   5.628  -1.261  1.00  0.00    -0.246 OA
ATOM     15  N   UNL     1       1.778   4.051  -2.862  1.00  0.00    -0.293 N 
BRANCH  10  16
ATOM     16  C   UNL     1       0.917   1.401   0.351  1.00  0.00     0.053 C 
ATOM     17  C   UNL     1       1.265  -0.047   0.601  1.00  0.00     0.011 C 
ENDBRANCH  10  16
BRANCH  13  18
ATOM     18  C   UNL     1       2.595   2.323  -4.527  1.00  0.00     0.051 C 
ATOM     19  C   UNL     1       1.566   2.259  -5.653  1.00  0.00     0.010 C 
ENDBRANCH  13  18
BRANCH  15  20
ATOM     20  C   UNL     1       1.939   5.130  -3.885  1.00  0.00     0.094 C 
BRANCH  20  21
ATOM     21  C   UNL     1       0.572   5.638  -4.424  1.00  0.00     0.022 C 
ATOM     22  C   UNL     1      -0.247   6.566  -3.542  1.00  0.00     0.006 C 
ENDBRANCH  20  21
BRANCH  20  23
ATOM     23  C   UNL     1       2.975   6.236  -3.500  1.00  0.00     0.006 C 
ATOM     24  C   UNL     1       4.310   5.614  -3.062  1.00  0.00     0.009 C 
ATOM     25  C   UNL     1       3.243   7.195  -4.667  1.00  0.00     0.009 C 
ENDBRANCH  20  23
ENDBRANCH  15  20
ENDBRANCH   8   9
ENDBRANCH   5   8
ENDBRANCH   3   4
ENDBRANCH   2   3
ENDBRANCH   1   2
BRANCH   1  26
ATOM     26  C   UNL     1      -3.847  -0.179  -3.643  1.00  0.00     0.002 C 
BRANCH  26  27
ATOM     27  C   UNL     1      -4.598   0.234  -2.376  1.00  0.00     0.021 C 
BRANCH  27  28
ATOM     28  C   UNL     1      -5.401   1.521  -2.508  1.00  0.00     0.116 C 
BRANCH  28  29
ATOM     29  N   UNL     1      -6.455   1.419  -3.507  1.00  0.00    -0.352 N 
ATOM     30  C   UNL     1      -7.797   1.688  -3.398  1.00  0.00     0.251 C 
ATOM     31  H   UNL     1      -6.161   1.111  -4.394  1.00  0.00     0.163 HD
ATOM     32  O   UNL     1      -8.563   1.374  -4.304  1.00  0.00    -0.269 OA
BRANCH  30  33
ATOM     33  C   UNL     1      -8.325   2.332  -2.175  1.00  0.00     0.039 A 
ATOM     34  C   UNL     1      -7.637   3.382  -1.568  1.00  0.00     0.014 A 
ATOM     35  C   UNL     1      -9.527   1.873  -1.626  1.00  0.00     0.014 A 
ATOM     36  C   UNL     1      -8.050   3.850  -0.327  1.00  0.00     0.010 A 
ATOM     37  C   UNL     1      -9.995   2.417  -0.426  1.00  0.00     0.010 A 
ATOM     38  C   UNL     1      -9.235   3.376   0.260  1.00  0.00    -0.014 A 
BRANCH  38  39
ATOM     39  C   UNL     1      -9.645   3.910   1.586  1.00  0.00     0.031 A 
ATOM     40  C   UNL     1      -9.721   3.016   2.795  1.00  0.00     0.074 A 
ATOM     41  C   UNL     1      -9.882   5.231   1.712  1.00  0.00     0.049 A 
ATOM     42  N   UNL     1      -9.979   3.331   4.040  1.00  0.00    -0.248 NA
ATOM     43  C   UNL     1      -9.484   1.580   2.580  1.00  0.00     0.031 C 
ATOM     44  C   UNL     1      -9.846   6.202   0.616  1.00  0.00     0.029 A 
ATOM     45  N   UNL     1     -10.163   5.990   2.818  1.00  0.00    -0.354 N 
ATOM     46  C   UNL     1      -9.950   2.137   4.752  1.00  0.00     0.074 A 
ATOM     47  C   UNL     1      -9.688   1.085   3.793  1.00  0.00     0.031 C 
ATOM     48  C   UNL     1     -10.025   7.434   1.115  1.00  0.00     0.029 A 
ATOM     49  C   UNL     1     -10.251   7.335   2.551  1.00  0.00     0.049 A 
ATOM     50  H   UNL     1     -10.290   5.608   3.717  1.00  0.00     0.167 HD
ATOM     51  C   UNL     1     -10.113   1.936   6.082  1.00  0.00     0.037 A 
ATOM     52  C   UNL     1     -10.491   8.373   3.372  1.00  0.00     0.037 A 
ATOM     53  C   UNL     1     -10.365   2.985   7.038  1.00  0.00     0.049 A 
ATOM     54  C   UNL     1     -10.707   8.114   4.835  1.00  0.00     0.074 A 
ATOM     55  C   UNL     1     -10.519   2.885   8.411  1.00  0.00     0.029 A 
ATOM     56  N   UNL     1     -10.507   4.327   6.720  1.00  0.00    -0.354 N 
ATOM     57  N   UNL     1     -10.643   6.984   5.496  1.00  0.00    -0.248 NA
ATOM     58  C   UNL     1     -11.032   9.281   5.665  1.00  0.00     0.031 C 
ATOM     59  C   UNL     1     -10.802   4.159   8.916  1.00  0.00     0.029 A 
ATOM     60  C   UNL     1     -10.771   5.062   7.867  1.00  0.00     0.049 A 
ATOM     61  H   UNL     1     -10.432   4.704   5.814  1.00  0.00     0.167 HD
ATOM     62  C   UNL     1     -10.895   7.307   6.822  1.00  0.00     0.074 A 
ATOM     63  C   UNL     1     -11.086   8.742   6.873  1.00  0.00     0.031 C 
ATOM     64  C   UNL     1     -10.964   6.490   7.902  1.00  0.00     0.037 A 
BRANCH  51  65
ATOM     65  C   UNL     1     -10.046   0.519   6.579  1.00  0.00     0.057 A 
ATOM     66  C   UNL     1     -11.195  -0.125   7.058  1.00  0.00     0.134 A 
ATOM     67  C   UNL     1      -8.846  -0.205   6.605  1.00  0.00     0.134 A 
ATOM     68  F   UNL     1     -12.376   0.510   7.070  1.00  0.00    -0.206 F 
ATOM     69  C   UNL     1     -11.153  -1.435   7.539  1.00  0.00     0.040 A 
ATOM     70  C   UNL     1      -8.797  -1.526   7.058  1.00  0.00     0.040 A 
ATOM     71  F   UNL     1      -7.710   0.345   6.150  1.00  0.00    -0.206 F 
ATOM     72  C   UNL     1      -9.953  -2.142   7.531  1.00  0.00     0.006 A 
ENDBRANCH  51  65
BRANCH  52  73
ATOM     73  C   UNL     1     -10.537   9.757   2.835  1.00  0.00     0.057 A 
ATOM     74  C   UNL     1     -11.564  10.176   1.982  1.00  0.00     0.134 A 
ATOM     75  C   UNL     1      -9.568  10.702   3.192  1.00  0.00     0.134 A 
ATOM     76  F   UNL     1     -12.520   9.316   1.599  1.00  0.00    -0.206 F 
ATOM     77  C   UNL     1     -11.626  11.483   1.500  1.00  0.00     0.040 A 
ATOM     78  C   UNL     1      -9.633  12.021   2.741  1.00  0.00     0.040 A 
ATOM     79  F   UNL     1      -8.569  10.366   4.022  1.00  0.00    -0.206 F 
ATOM     80  C   UNL     1     -10.664  12.413   1.889  1.00  0.00     0.006 A 
ENDBRANCH  52  73
BRANCH  64  81
ATOM     81  C   UNL     1     -11.222   7.147   9.228  1.00  0.00     0.057 A 
ATOM     82  C   UNL     1     -10.211   7.223  10.193  1.00  0.00     0.134 A 
ATOM     83  C   UNL     1     -12.460   7.723   9.543  1.00  0.00     0.134 A 
ATOM     84  F   UNL     1      -9.004   6.685   9.961  1.00  0.00    -0.206 F 
ATOM     85  C   UNL     1     -10.416   7.861  11.417  1.00  0.00     0.040 A 
ATOM     86  C   UNL     1     -12.668   8.392  10.751  1.00  0.00     0.040 A 
ATOM     87  F   UNL     1     -13.467   7.699   8.656  1.00  0.00    -0.206 F 
ATOM     88  C   UNL     1     -11.644   8.460  11.693  1.00  0.00     0.006 A 
ENDBRANCH  64  81
ENDBRANCH  38  39
ENDBRANCH  30  33
ENDBRANCH  28  29
ENDBRANCH  27  28
ENDBRANCH  26  27
ENDBRANCH   1  26
TORSDOF 19
