REMARK SMILES O=C(NCCCCCCNC(=O)[C@@H]1C[C@@H]2CC[C@H]1N2c1ncnc2c1CCCCC2)c1ccc(-c2c3nc(c(-c4c(F)cccc4F)c4ccc([nH]4)c(-c4c(F)cccc4F)c4nc(c(-c5c(F)cccc5F)c5ccc2[nH]5)C=C4)C=C3)cc1
REMARK SMILES IDX 8 1 7 2 6 3 5 4 4 5 3 6 1 7 2 8 31 10 32 11 84 12 33 13
REMARK SMILES IDX 83 14 34 15 35 16 36 17 77 18 37 19 82 20 76 21 78 22 38 23
REMARK SMILES IDX 81 24 75 25 74 26 39 28 65 29 48 30 64 31 49 32 52 33 63 34
REMARK SMILES IDX 79 35 50 36 51 37 62 39 80 40 53 41 40 42 41 43 46 44 42 45
REMARK SMILES IDX 43 46 45 47 47 48 44 49 66 50 67 51 72 52 68 53 69 54 71 55
REMARK SMILES IDX 73 56 70 57 54 58 55 59 60 60 56 61 57 62 59 63 61 64 58 65
REMARK SMILES IDX 9 66 10 67 11 68 12 70 13 71 14 72 18 73 15 74 17 75 19 76
REMARK SMILES IDX 16 77 20 78 21 79 25 80 22 81 24 82 23 83 26 84 27 85 28 86
REMARK SMILES IDX 29 87 30 89
REMARK H PARENT 3 9 78 27 52 38 10 69
REMARK Flexibility Score: 80.00
ROOT
ATOM      1  C   UNL     1       6.303  -0.018  -4.429  1.00  0.00     0.021 C 
ENDROOT
BRANCH   1   2
ATOM      2  C   UNL     1       4.781   0.171  -4.410  1.00  0.00     0.002 C 
BRANCH   2   3
ATOM      3  C   UNL     1       4.003  -0.967  -3.741  1.00  0.00     0.002 C 
BRANCH   3   4
ATOM      4  C   UNL     1       4.469  -1.311  -2.325  1.00  0.00     0.021 C 
BRANCH   4   5
ATOM      5  C   UNL     1       4.305  -0.167  -1.333  1.00  0.00     0.116 C 
BRANCH   5   6
ATOM      6  N   UNL     1       2.901   0.135  -1.101  1.00  0.00    -0.352 N 
ATOM      7  O   UNL     1       0.960   0.068   0.053  1.00  0.00    -0.269 OA
ATOM      8  C   UNL     1       2.184   0.042   0.066  1.00  0.00     0.251 C 
ATOM      9  H   UNL     1       2.397   0.448  -1.887  1.00  0.00     0.163 HD
BRANCH   8  10
ATOM     10  C   UNL     1       2.912  -0.092   1.343  1.00  0.00     0.039 A 
ATOM     11  C   UNL     1       4.018   0.722   1.601  1.00  0.00     0.014 A 
ATOM     12  C   UNL     1       2.481  -1.025   2.289  1.00  0.00     0.014 A 
ATOM     13  C   UNL     1       4.769   0.517   2.749  1.00  0.00     0.010 A 
ATOM     14  C   UNL     1       3.188  -1.171   3.484  1.00  0.00     0.010 A 
ATOM     15  C   UNL     1       4.349  -0.415   3.712  1.00  0.00    -0.014 A 
BRANCH  15  16
ATOM     16  C   UNL     1       5.104  -0.521   4.983  1.00  0.00     0.031 A 
ATOM     17  C   UNL     1       5.851  -1.771   5.343  1.00  0.00     0.074 A 
ATOM     18  C   UNL     1       5.133   0.550   5.799  1.00  0.00     0.049 A 
ATOM     19  N   UNL     1       6.586  -2.012   6.399  1.00  0.00    -0.248 NA
ATOM     20  C   UNL     1       5.762  -2.899   4.403  1.00  0.00     0.031 C 
ATOM     21  C   UNL     1       4.436   1.815   5.546  1.00  0.00     0.029 A 
ATOM     22  N   UNL     1       5.782   0.760   6.986  1.00  0.00    -0.354 N 
ATOM     23  C   UNL     1       7.039  -3.316   6.257  1.00  0.00     0.074 A 
ATOM     24  C   UNL     1       6.471  -3.829   5.029  1.00  0.00     0.031 C 
ATOM     25  C   UNL     1       4.735   2.683   6.522  1.00  0.00     0.029 A 
ATOM     26  C   UNL     1       5.586   2.018   7.501  1.00  0.00     0.049 A 
ATOM     27  H   UNL     1       6.335   0.076   7.428  1.00  0.00     0.167 HD
ATOM     28  C   UNL     1       7.863  -4.013   7.076  1.00  0.00     0.037 A 
ATOM     29  C   UNL     1       6.028   2.574   8.644  1.00  0.00     0.037 A 
ATOM     30  C   UNL     1       8.426  -3.486   8.293  1.00  0.00     0.049 A 
ATOM     31  C   UNL     1       6.902   1.763   9.555  1.00  0.00     0.074 A 
ATOM     32  C   UNL     1       9.300  -4.102   9.172  1.00  0.00     0.029 A 
ATOM     33  N   UNL     1       8.164  -2.225   8.808  1.00  0.00    -0.354 N 
ATOM     34  N   UNL     1       7.355   0.544   9.389  1.00  0.00    -0.248 NA
ATOM     35  C   UNL     1       7.321   2.398  10.810  1.00  0.00     0.031 C 
ATOM     36  C   UNL     1       9.520  -3.237  10.248  1.00  0.00     0.029 A 
ATOM     37  C   UNL     1       8.832  -2.057  10.011  1.00  0.00     0.049 A 
ATOM     38  H   UNL     1       7.589  -1.549   8.383  1.00  0.00     0.167 HD
ATOM     39  C   UNL     1       8.122   0.268  10.512  1.00  0.00     0.074 A 
ATOM     40  C   UNL     1       8.091   1.457  11.340  1.00  0.00     0.031 C 
ATOM     41  C   UNL     1       8.786  -0.870  10.829  1.00  0.00     0.037 A 
BRANCH  28  42
ATOM     42  C   UNL     1       8.199  -5.427   6.697  1.00  0.00     0.057 A 
ATOM     43  C   UNL     1       9.038  -5.725   5.615  1.00  0.00     0.134 A 
ATOM     44  C   UNL     1       7.734  -6.502   7.466  1.00  0.00     0.134 A 
ATOM     45  F   UNL     1       9.510  -4.745   4.830  1.00  0.00    -0.206 F 
ATOM     46  C   UNL     1       9.390  -7.040   5.304  1.00  0.00     0.040 A 
ATOM     47  C   UNL     1       8.100  -7.819   7.181  1.00  0.00     0.040 A 
ATOM     48  F   UNL     1       6.933  -6.288   8.521  1.00  0.00    -0.206 F 
ATOM     49  C   UNL     1       8.928  -8.091   6.095  1.00  0.00     0.006 A 
ENDBRANCH  28  42
BRANCH  29  50
ATOM     50  C   UNL     1       5.644   3.969   8.971  1.00  0.00     0.057 A 
ATOM     51  C   UNL     1       6.585   5.004   8.945  1.00  0.00     0.134 A 
ATOM     52  C   UNL     1       4.316   4.310   9.262  1.00  0.00     0.134 A 
ATOM     53  F   UNL     1       7.873   4.738   8.687  1.00  0.00    -0.206 F 
ATOM     54  C   UNL     1       6.220   6.327   9.197  1.00  0.00     0.040 A 
ATOM     55  C   UNL     1       3.933   5.633   9.487  1.00  0.00     0.040 A 
ATOM     56  F   UNL     1       3.365   3.365   9.290  1.00  0.00    -0.206 F 
ATOM     57  C   UNL     1       4.888   6.646   9.458  1.00  0.00     0.006 A 
ENDBRANCH  29  50
BRANCH  41  58
ATOM     58  C   UNL     1       9.543  -0.889  12.124  1.00  0.00     0.057 A 
ATOM     59  C   UNL     1       8.886  -0.950  13.359  1.00  0.00     0.134 A 
ATOM     60  C   UNL     1      10.944  -0.919  12.134  1.00  0.00     0.134 A 
ATOM     61  F   UNL     1       7.546  -0.912  13.419  1.00  0.00    -0.206 F 
ATOM     62  C   UNL     1       9.595  -1.028  14.559  1.00  0.00     0.040 A 
ATOM     63  C   UNL     1      11.663  -1.026  13.325  1.00  0.00     0.040 A 
ATOM     64  F   UNL     1      11.635  -0.872  10.985  1.00  0.00    -0.206 F 
ATOM     65  C   UNL     1      10.987  -1.078  14.543  1.00  0.00     0.006 A 
ENDBRANCH  41  58
ENDBRANCH  15  16
ENDBRANCH   8  10
ENDBRANCH   5   6
ENDBRANCH   4   5
ENDBRANCH   3   4
ENDBRANCH   2   3
ENDBRANCH   1   2
BRANCH   1  66
ATOM     66  C   UNL     1       6.766  -1.270  -5.183  1.00  0.00     0.116 C 
BRANCH  66  67
ATOM     67  N   UNL     1       6.753  -1.037  -6.608  1.00  0.00    -0.356 N 
ATOM     68  C   UNL     1       7.692  -0.549  -7.453  1.00  0.00     0.225 C 
ATOM     69  H   UNL     1       5.905  -1.278  -7.046  1.00  0.00     0.163 HD
ATOM     70  O   UNL     1       7.324  -0.377  -8.621  1.00  0.00    -0.275 OA
BRANCH  68  71
ATOM     71  C   UNL     1       9.146  -0.281  -7.074  1.00  0.00     0.103 C 
ATOM     72  C   UNL     1       9.626   0.016  -5.636  1.00  0.00     0.040 C 
ATOM     73  C   UNL     1       9.629   0.993  -7.829  1.00  0.00     0.096 C 
ATOM     74  C   UNL     1      10.350   1.365  -5.759  1.00  0.00     0.085 C 
ATOM     75  C   UNL     1       8.765   2.204  -7.375  1.00  0.00     0.028 C 
ATOM     76  N   UNL     1      10.849   1.329  -7.110  1.00  0.00    -0.349 N 
ATOM     77  C   UNL     1       9.288   2.471  -5.941  1.00  0.00     0.027 C 
BRANCH  76  78
ATOM     78  C   UNL     1      12.141   1.129  -7.463  1.00  0.00     0.135 A 
ATOM     79  N   UNL     1      12.827   0.171  -6.817  1.00  0.00    -0.219 NA
ATOM     80  C   UNL     1      12.767   2.022  -8.333  1.00  0.00     0.016 A 
ATOM     81  C   UNL     1      14.143   0.109  -7.059  1.00  0.00     0.224 A 
ATOM     82  C   UNL     1      14.147   1.907  -8.455  1.00  0.00     0.049 A 
ATOM     83  N   UNL     1      14.850   0.936  -7.838  1.00  0.00    -0.241 NA
BRANCH  80  84
ATOM     84  C   UNL     1      12.043   3.179  -8.965  1.00  0.00     0.041 C 
BRANCH  84  85
ATOM     85  C   UNL     1      12.349   4.487  -8.238  1.00  0.00     0.005 C 
BRANCH  85  86
ATOM     86  C   UNL     1      13.648   5.136  -8.714  1.00  0.00     0.001 C 
BRANCH  86  87
ATOM     87  C   UNL     1      14.920   4.314  -8.477  1.00  0.00     0.006 CG0
ATOM     88  G   UNL     1      14.951   2.955  -9.187  1.00  0.00     0.000 G0
ENDBRANCH  86  87
ENDBRANCH  85  86
ENDBRANCH  84  85
ENDBRANCH  80  84
BRANCH  82  89
ATOM     89  C   UNL     1      14.951   2.955  -9.187  1.00  0.00     0.057 CG0
ATOM     90  G   UNL     1      14.920   4.314  -8.477  1.00  0.00     0.000 G0
ENDBRANCH  82  89
ENDBRANCH  76  78
ENDBRANCH  68  71
ENDBRANCH  66  67
ENDBRANCH   1  66
TORSDOF 14
