REMARK SMILES C[C@@H](C[NH3+])S/C=C/C(=O)NCCCCCCNC(=O)c1ccc(-c2c3nc(c(-c4c(F)cccc4F)c4ccc([nH]4)c(-c4c(F)cccc4F)c4nc(c(-c5c(F)cccc5F)c5ccc2[nH]5)C=C4)C=C3)cc1
REMARK SMILES IDX 12 1 11 2 10 3 8 4 9 5 7 7 6 8 5 9 2 10 1 11 3 12 4 13 13 17
REMARK SMILES IDX 14 18 15 19 16 20 17 21 18 22 19 24 20 25 21 26 73 27 22 28
REMARK SMILES IDX 72 29 23 30 24 31 25 32 66 33 26 34 71 35 65 36 67 37 27 38
REMARK SMILES IDX 70 39 64 40 63 41 28 43 54 44 37 45 53 46 38 47 41 48 52 49
REMARK SMILES IDX 68 50 39 51 40 52 51 54 69 55 42 56 29 57 30 58 35 59 31 60
REMARK SMILES IDX 32 61 34 62 36 63 33 64 55 65 56 66 61 67 57 68 58 69 60 70
REMARK SMILES IDX 62 71 59 72 43 73 44 74 49 75 45 76 46 77 48 78 50 79 47 80
REMARK H PARENT 10 6 4 14 4 15 4 16 17 23 67 42 41 53
REMARK Flexibility Score: inf
ROOT
ATOM      1  C   UNL     1      -4.932   2.434  -2.920  1.00  0.00     0.021 C 
ENDROOT
BRANCH   1   2
ATOM      2  C   UNL     1      -4.116   1.157  -2.745  1.00  0.00     0.116 C 
BRANCH   2   3
ATOM      3  N   UNL     1      -2.933   1.196  -3.583  1.00  0.00    -0.353 N 
ATOM      4  C   UNL     1      -1.629   1.002  -3.255  1.00  0.00     0.244 C 
ATOM      5  O   UNL     1      -0.761   1.007  -4.123  1.00  0.00    -0.270 OA
ATOM      6  H   UNL     1      -3.100   1.393  -4.533  1.00  0.00     0.163 HD
BRANCH   4   7
ATOM      7  C   UNL     1      -1.283   0.671  -1.863  1.00  0.00     0.078 C 
ATOM      8  C   UNL     1      -1.522   1.516  -0.854  1.00  0.00     0.047 C 
BRANCH   8   9
ATOM      9  S   UNL     1      -1.081   1.167   0.778  1.00  0.00    -0.125 SA
BRANCH   9  10
ATOM     10  C   UNL     1       0.748   1.367   0.775  1.00  0.00     0.103 C 
ATOM     11  C   UNL     1       1.447   0.131   0.210  1.00  0.00     0.026 C 
BRANCH  10  12
ATOM     12  C   UNL     1       1.271   2.698   0.180  1.00  0.00     0.273 C 
BRANCH  12  13
ATOM     13  N   UNL     1       1.105   2.888  -1.259  1.00  0.00    -0.357 N 
ATOM     14  H   UNL     1       1.652   2.188  -1.760  1.00  0.00     0.344 HD
ATOM     15  H   UNL     1       1.426   3.820  -1.519  1.00  0.00     0.344 HD
ATOM     16  H   UNL     1       0.119   2.787  -1.504  1.00  0.00     0.344 HD
ENDBRANCH  12  13
ENDBRANCH  10  12
ENDBRANCH   9  10
ENDBRANCH   8   9
ENDBRANCH   4   7
ENDBRANCH   2   3
ENDBRANCH   1   2
BRANCH   1  17
ATOM     17  C   UNL     1      -5.670   2.506  -4.263  1.00  0.00     0.002 C 
BRANCH  17  18
ATOM     18  C   UNL     1      -6.640   1.347  -4.521  1.00  0.00     0.002 C 
BRANCH  18  19
ATOM     19  C   UNL     1      -7.656   1.102  -3.403  1.00  0.00     0.021 C 
BRANCH  19  20
ATOM     20  C   UNL     1      -8.538   2.305  -3.092  1.00  0.00     0.116 C 
BRANCH  20  21
ATOM     21  N   UNL     1      -9.372   2.663  -4.228  1.00  0.00    -0.352 N 
ATOM     22  C   UNL     1     -10.737   2.784  -4.292  1.00  0.00     0.251 C 
ATOM     23  H   UNL     1      -8.891   2.845  -5.067  1.00  0.00     0.163 HD
ATOM     24  O   UNL     1     -11.305   2.859  -5.375  1.00  0.00    -0.269 OA
BRANCH  22  25
ATOM     25  C   UNL     1     -11.521   2.812  -3.041  1.00  0.00     0.039 A 
ATOM     26  C   UNL     1     -12.687   2.049  -2.955  1.00  0.00     0.014 A 
ATOM     27  C   UNL     1     -11.106   3.595  -1.960  1.00  0.00     0.014 A 
ATOM     28  C   UNL     1     -13.413   2.035  -1.763  1.00  0.00     0.010 A 
ATOM     29  C   UNL     1     -11.787   3.521  -0.751  1.00  0.00     0.010 A 
ATOM     30  C   UNL     1     -12.953   2.748  -0.644  1.00  0.00    -0.014 A 
BRANCH  30  31
ATOM     31  C   UNL     1     -13.684   2.703   0.646  1.00  0.00     0.031 A 
ATOM     32  C   UNL     1     -14.299   3.954   1.208  1.00  0.00     0.074 A 
ATOM     33  C   UNL     1     -13.740   1.549   1.339  1.00  0.00     0.049 A 
ATOM     34  N   UNL     1     -14.924   4.130   2.345  1.00  0.00    -0.248 NA
ATOM     35  C   UNL     1     -14.173   5.176   0.398  1.00  0.00     0.031 C 
ATOM     36  C   UNL     1     -13.141   0.281   0.920  1.00  0.00     0.029 A 
ATOM     37  N   UNL     1     -14.322   1.258   2.546  1.00  0.00    -0.354 N 
ATOM     38  C   UNL     1     -15.252   5.479   2.391  1.00  0.00     0.074 A 
ATOM     39  C   UNL     1     -14.709   6.087   1.197  1.00  0.00     0.031 C 
ATOM     40  C   UNL     1     -13.407  -0.657   1.843  1.00  0.00     0.029 A 
ATOM     41  C   UNL     1     -14.159  -0.049   2.935  1.00  0.00     0.049 A 
ATOM     42  H   UNL     1     -14.811   1.923   3.083  1.00  0.00     0.167 HD
ATOM     43  C   UNL     1     -15.962   6.144   3.332  1.00  0.00     0.037 A 
ATOM     44  C   UNL     1     -14.564  -0.683   4.052  1.00  0.00     0.037 A 
ATOM     45  C   UNL     1     -16.518   5.529   4.508  1.00  0.00     0.049 A 
ATOM     46  C   UNL     1     -15.341   0.082   5.087  1.00  0.00     0.074 A 
ATOM     47  C   UNL     1     -17.303   6.103   5.492  1.00  0.00     0.029 A 
ATOM     48  N   UNL     1     -16.342   4.199   4.862  1.00  0.00    -0.354 N 
ATOM     49  N   UNL     1     -15.706   1.341   5.085  1.00  0.00    -0.248 NA
ATOM     50  C   UNL     1     -15.770  -0.665   6.278  1.00  0.00     0.031 C 
ATOM     51  C   UNL     1     -17.560   5.134   6.467  1.00  0.00     0.029 A 
ATOM     52  C   UNL     1     -16.983   3.941   6.062  1.00  0.00     0.049 A 
ATOM     53  H   UNL     1     -15.837   3.537   4.337  1.00  0.00     0.167 HD
ATOM     54  C   UNL     1     -16.430   1.531   6.254  1.00  0.00     0.074 A 
ATOM     55  C   UNL     1     -16.465   0.253   6.935  1.00  0.00     0.031 C 
ATOM     56  C   UNL     1     -17.014   2.661   6.723  1.00  0.00     0.037 A 
BRANCH  43  57
ATOM     57  C   UNL     1     -16.179   7.616   3.125  1.00  0.00     0.057 A 
ATOM     58  C   UNL     1     -17.010   8.107   2.109  1.00  0.00     0.134 A 
ATOM     59  C   UNL     1     -15.576   8.554   3.973  1.00  0.00     0.134 A 
ATOM     60  F   UNL     1     -17.609   7.264   1.254  1.00  0.00    -0.206 F 
ATOM     61  C   UNL     1     -17.210   9.477   1.926  1.00  0.00     0.040 A 
ATOM     62  C   UNL     1     -15.793   9.925   3.819  1.00  0.00     0.040 A 
ATOM     63  F   UNL     1     -14.773   8.154   4.971  1.00  0.00    -0.206 F 
ATOM     64  C   UNL     1     -16.606  10.389   2.788  1.00  0.00     0.006 A 
ENDBRANCH  43  57
BRANCH  44  65
ATOM     65  C   UNL     1     -14.259  -2.124   4.240  1.00  0.00     0.057 A 
ATOM     66  C   UNL     1     -15.274  -3.087   4.203  1.00  0.00     0.134 A 
ATOM     67  C   UNL     1     -12.953  -2.572   4.467  1.00  0.00     0.134 A 
ATOM     68  F   UNL     1     -16.548  -2.718   4.006  1.00  0.00    -0.206 F 
ATOM     69  C   UNL     1     -15.005  -4.442   4.405  1.00  0.00     0.040 A 
ATOM     70  C   UNL     1     -12.665  -3.927   4.644  1.00  0.00     0.040 A 
ATOM     71  F   UNL     1     -11.934  -1.701   4.506  1.00  0.00    -0.206 F 
ATOM     72  C   UNL     1     -13.695  -4.865   4.622  1.00  0.00     0.006 A 
ENDBRANCH  44  65
BRANCH  56  73
ATOM     73  C   UNL     1     -17.772   2.558   8.015  1.00  0.00     0.057 A 
ATOM     74  C   UNL     1     -17.123   2.394   9.245  1.00  0.00     0.134 A 
ATOM     75  C   UNL     1     -19.169   2.664   8.030  1.00  0.00     0.134 A 
ATOM     76  F   UNL     1     -15.788   2.272   9.299  1.00  0.00    -0.206 F 
ATOM     77  C   UNL     1     -17.838   2.314  10.441  1.00  0.00     0.040 A 
ATOM     78  C   UNL     1     -19.892   2.616   9.221  1.00  0.00     0.040 A 
ATOM     79  F   UNL     1     -19.852   2.832   6.887  1.00  0.00    -0.206 F 
ATOM     80  C   UNL     1     -19.227   2.434  10.432  1.00  0.00     0.006 A 
ENDBRANCH  56  73
ENDBRANCH  30  31
ENDBRANCH  22  25
ENDBRANCH  20  21
ENDBRANCH  19  20
ENDBRANCH  18  19
ENDBRANCH  17  18
ENDBRANCH   1  17
TORSDOF 17
