REMARK SMILES CC[C@H]1CC[C@](O)([C@H](F)C(=O)NCCCCCCNC(=O)c2ccc(-c3c4nc(c(-c5c(F)cccc5F)c5ccc([nH]5)c(-c5c(F)cccc5F)c5nc(c(-c6c(F)cccc6F)c6ccc3[nH]6)C=C5)C=C4)cc2)CC1
REMARK SMILES IDX 15 1 14 2 13 3 12 4 10 5 11 6 8 8 9 9 6 10 3 11 4 12 77 13
REMARK SMILES IDX 5 14 76 15 2 16 1 17 7 18 16 20 17 21 18 22 19 23 20 24
REMARK SMILES IDX 21 26 22 27 23 28 75 29 24 30 74 31 25 32 26 33 27 34 68 35
REMARK SMILES IDX 28 36 73 37 67 38 69 39 29 40 72 41 66 42 65 43 30 45 56 46
REMARK SMILES IDX 39 47 55 48 40 49 43 50 54 51 70 52 41 53 42 54 53 56 71 57
REMARK SMILES IDX 44 58 31 59 32 60 37 61 33 62 34 63 36 64 38 65 35 66 57 67
REMARK SMILES IDX 58 68 63 69 59 70 60 71 62 72 64 73 61 74 45 75 46 76 51 77
REMARK SMILES IDX 47 78 48 79 50 80 52 81 49 82
REMARK H PARENT 12 7 7 19 19 25 69 44 43 55
REMARK Flexibility Score: inf
ROOT
ATOM      1  C   UNL     1       2.973   7.374  -0.504  1.00  0.00     0.002 C 
ENDROOT
BRANCH   1   2
ATOM      2  C   UNL     1       2.717   5.890  -0.207  1.00  0.00     0.021 C 
BRANCH   2   3
ATOM      3  C   UNL     1       2.839   4.978  -1.419  1.00  0.00     0.116 C 
BRANCH   3   4
ATOM      4  N   UNL     1       4.170   5.046  -1.987  1.00  0.00    -0.353 N 
ATOM      5  C   UNL     1       4.920   4.031  -2.492  1.00  0.00     0.257 C 
ATOM      6  O   UNL     1       6.056   4.299  -2.893  1.00  0.00    -0.272 OA
ATOM      7  H   UNL     1       4.583   5.939  -2.010  1.00  0.00     0.163 HD
BRANCH   5   8
ATOM      8  C   UNL     1       4.353   2.625  -2.609  1.00  0.00     0.286 C 
ATOM      9  F   UNL     1       3.945   2.135  -1.394  1.00  0.00    -0.234 F 
BRANCH   8  10
ATOM     10  C   UNL     1       3.225   2.426  -3.674  1.00  0.00     0.105 C 
ATOM     11  C   UNL     1       4.402   2.543  -6.474  1.00  0.00    -0.011 C 
ATOM     12  C   UNL     1       4.652   1.367  -5.514  1.00  0.00     0.006 C 
ATOM     13  C   UNL     1       4.092   3.816  -5.673  1.00  0.00     0.006 C 
ATOM     14  C   UNL     1       3.526   1.153  -4.498  1.00  0.00     0.039 C 
ATOM     15  C   UNL     1       2.977   3.590  -4.657  1.00  0.00     0.039 C 
BRANCH  11  16
ATOM     16  C   UNL     1       3.317   2.332  -7.555  1.00  0.00    -0.000 C 
ATOM     17  C   UNL     1       3.104   0.904  -8.021  1.00  0.00     0.004 C 
ENDBRANCH  11  16
BRANCH  10  18
ATOM     18  O   UNL     1       1.970   2.215  -2.989  1.00  0.00    -0.386 OA
ATOM     19  H   UNL     1       1.263   2.090  -3.640  1.00  0.00     0.211 HD
ENDBRANCH  10  18
ENDBRANCH   8  10
ENDBRANCH   5   8
ENDBRANCH   3   4
ENDBRANCH   2   3
ENDBRANCH   1   2
BRANCH   1  20
ATOM     20  C   UNL     1       2.111   7.978  -1.617  1.00  0.00     0.002 C 
BRANCH  20  21
ATOM     21  C   UNL     1       0.602   7.817  -1.426  1.00  0.00     0.021 C 
BRANCH  21  22
ATOM     22  C   UNL     1       0.082   8.283  -0.073  1.00  0.00     0.116 C 
BRANCH  22  23
ATOM     23  N   UNL     1       0.360   9.688   0.175  1.00  0.00    -0.352 N 
ATOM     24  C   UNL     1      -0.480  10.661   0.648  1.00  0.00     0.251 C 
ATOM     25  H   UNL     1       1.280   9.980  -0.023  1.00  0.00     0.163 HD
ATOM     26  O   UNL     1      -0.132  11.839   0.648  1.00  0.00    -0.269 OA
BRANCH  24  27
ATOM     27  C   UNL     1      -1.824  10.287   1.132  1.00  0.00     0.039 A 
ATOM     28  C   UNL     1      -2.923  11.042   0.717  1.00  0.00     0.014 A 
ATOM     29  C   UNL     1      -2.000   9.187   1.976  1.00  0.00     0.014 A 
ATOM     30  C   UNL     1      -4.206  10.661   1.108  1.00  0.00     0.010 A 
ATOM     31  C   UNL     1      -3.284   8.760   2.295  1.00  0.00     0.010 A 
ATOM     32  C   UNL     1      -4.399   9.498   1.872  1.00  0.00    -0.014 A 
BRANCH  32  33
ATOM     33  C   UNL     1      -5.762   9.043   2.244  1.00  0.00     0.031 A 
ATOM     34  C   UNL     1      -6.170   8.982   3.689  1.00  0.00     0.074 A 
ATOM     35  C   UNL     1      -6.612   8.633   1.283  1.00  0.00     0.049 A 
ATOM     36  N   UNL     1      -7.295   8.568   4.215  1.00  0.00    -0.248 NA
ATOM     37  C   UNL     1      -5.170   9.418   4.678  1.00  0.00     0.031 C 
ATOM     38  C   UNL     1      -6.317   8.600  -0.150  1.00  0.00     0.029 A 
ATOM     39  N   UNL     1      -7.896   8.157   1.369  1.00  0.00    -0.354 N 
ATOM     40  C   UNL     1      -7.133   8.682   5.590  1.00  0.00     0.074 A 
ATOM     41  C   UNL     1      -5.782   9.144   5.820  1.00  0.00     0.031 C 
ATOM     42  C   UNL     1      -7.397   8.155  -0.811  1.00  0.00     0.029 A 
ATOM     43  C   UNL     1      -8.445   7.832   0.153  1.00  0.00     0.049 A 
ATOM     44  H   UNL     1      -8.378   8.058   2.222  1.00  0.00     0.167 HD
ATOM     45  C   UNL     1      -8.037   8.447   6.571  1.00  0.00     0.037 A 
ATOM     46  C   UNL     1      -9.654   7.323  -0.151  1.00  0.00     0.037 A 
ATOM     47  C   UNL     1      -9.385   7.999   6.335  1.00  0.00     0.049 A 
ATOM     48  C   UNL     1     -10.634   7.052   0.956  1.00  0.00     0.074 A 
ATOM     49  C   UNL     1     -10.396   7.786   7.255  1.00  0.00     0.029 A 
ATOM     50  N   UNL     1      -9.906   7.687   5.087  1.00  0.00    -0.354 N 
ATOM     51  N   UNL     1     -10.495   7.234   2.247  1.00  0.00    -0.248 NA
ATOM     52  C   UNL     1     -11.943   6.512   0.564  1.00  0.00     0.031 C 
ATOM     53  C   UNL     1     -11.511   7.290   6.571  1.00  0.00     0.029 A 
ATOM     54  C   UNL     1     -11.216   7.255   5.218  1.00  0.00     0.049 A 
ATOM     55  H   UNL     1      -9.418   7.762   4.236  1.00  0.00     0.167 HD
ATOM     56  C   UNL     1     -11.705   6.861   2.818  1.00  0.00     0.074 A 
ATOM     57  C   UNL     1     -12.571   6.455   1.730  1.00  0.00     0.031 C 
ATOM     58  C   UNL     1     -12.068   6.856   4.124  1.00  0.00     0.037 A 
BRANCH  45  59
ATOM     59  C   UNL     1      -7.589   8.664   7.989  1.00  0.00     0.057 A 
ATOM     60  C   UNL     1      -7.301   9.941   8.489  1.00  0.00     0.134 A 
ATOM     61  C   UNL     1      -7.462   7.584   8.872  1.00  0.00     0.134 A 
ATOM     62  F   UNL     1      -7.391  11.019   7.695  1.00  0.00    -0.206 F 
ATOM     63  C   UNL     1      -6.869  10.132   9.803  1.00  0.00     0.040 A 
ATOM     64  C   UNL     1      -7.062   7.766  10.197  1.00  0.00     0.040 A 
ATOM     65  F   UNL     1      -7.729   6.334   8.463  1.00  0.00    -0.206 F 
ATOM     66  C   UNL     1      -6.755   9.042  10.663  1.00  0.00     0.006 A 
ENDBRANCH  45  59
BRANCH  46  67
ATOM     67  C   UNL     1     -10.011   7.058  -1.568  1.00  0.00     0.057 A 
ATOM     68  C   UNL     1     -10.978   7.827  -2.226  1.00  0.00     0.134 A 
ATOM     69  C   UNL     1      -9.396   6.034  -2.298  1.00  0.00     0.134 A 
ATOM     70  F   UNL     1     -11.615   8.811  -1.575  1.00  0.00    -0.206 F 
ATOM     71  C   UNL     1     -11.335   7.576  -3.552  1.00  0.00     0.040 A 
ATOM     72  C   UNL     1      -9.723   5.789  -3.633  1.00  0.00     0.040 A 
ATOM     73  F   UNL     1      -8.455   5.267  -1.729  1.00  0.00    -0.206 F 
ATOM     74  C   UNL     1     -10.701   6.558  -4.261  1.00  0.00     0.006 A 
ENDBRANCH  46  67
BRANCH  58  75
ATOM     75  C   UNL     1     -13.473   6.435   4.448  1.00  0.00     0.057 A 
ATOM     76  C   UNL     1     -13.899   5.106   4.323  1.00  0.00     0.134 A 
ATOM     77  C   UNL     1     -14.401   7.368   4.928  1.00  0.00     0.134 A 
ATOM     78  F   UNL     1     -13.064   4.165   3.857  1.00  0.00    -0.206 F 
ATOM     79  C   UNL     1     -15.204   4.726   4.640  1.00  0.00     0.040 A 
ATOM     80  C   UNL     1     -15.699   6.995   5.277  1.00  0.00     0.040 A 
ATOM     81  F   UNL     1     -14.057   8.656   5.081  1.00  0.00    -0.206 F 
ATOM     82  C   UNL     1     -16.106   5.671   5.126  1.00  0.00     0.006 A 
ENDBRANCH  58  75
ENDBRANCH  32  33
ENDBRANCH  24  27
ENDBRANCH  22  23
ENDBRANCH  21  22
ENDBRANCH  20  21
ENDBRANCH   1  20
TORSDOF 16
