REMARK SMILES CCc1nnsc1C(=O)NC[C@@H](CC(C)C)C(=O)NCCCCCCNC(=O)c1ccc(-c2c3nc(c(-c4c(F)cccc4F)c4ccc([nH]4)c(-c4c(F)cccc4F)c4nc(c(-c5c(F)cccc5F)c5ccc2[nH]5)C=C4)C=C3)cc1
REMARK SMILES IDX 21 1 20 2 19 3 17 4 18 5 12 7 11 8 10 9 8 10 9 11 7 13 3 14
REMARK SMILES IDX 4 15 5 16 6 17 2 18 1 19 13 20 14 21 15 22 16 23 22 24 23 25
REMARK SMILES IDX 24 26 25 27 26 28 27 29 28 31 29 32 30 33 82 34 31 35 81 36
REMARK SMILES IDX 32 37 33 38 34 39 75 40 35 41 80 42 74 43 76 44 36 45 79 46
REMARK SMILES IDX 73 47 72 48 37 50 63 51 46 52 62 53 47 54 50 55 61 56 77 57
REMARK SMILES IDX 48 58 49 59 60 61 78 62 51 63 38 64 39 65 44 66 40 67 41 68
REMARK SMILES IDX 43 69 45 70 42 71 64 72 65 73 70 74 66 75 67 76 69 77 71 78
REMARK SMILES IDX 68 79 52 80 53 81 58 82 54 83 55 84 57 85 59 86 56 87
REMARK H PARENT 19 6 10 12 26 30 76 49 50 60
REMARK Flexibility Score: inf
ROOT
ATOM      1  C   UNL     1       2.462  -2.317  -2.207  1.00  0.00     0.021 C 
ENDROOT
BRANCH   1   2
ATOM      2  C   UNL     1       1.144  -1.550  -2.204  1.00  0.00     0.116 C 
BRANCH   2   3
ATOM      3  N   UNL     1       0.146  -2.132  -1.331  1.00  0.00    -0.356 N 
ATOM      4  C   UNL     1      -0.981  -1.618  -0.772  1.00  0.00     0.224 C 
ATOM      5  O   UNL     1      -1.741  -2.427  -0.230  1.00  0.00    -0.275 OA
ATOM      6  H   UNL     1       0.315  -3.074  -1.101  1.00  0.00     0.163 HD
BRANCH   4   7
ATOM      7  C   UNL     1      -1.351  -0.135  -0.791  1.00  0.00     0.098 C 
BRANCH   7   8
ATOM      8  C   UNL     1      -0.197   0.817  -0.454  1.00  0.00     0.129 C 
BRANCH   8   9
ATOM      9  N   UNL     1      -0.593   1.918   0.405  1.00  0.00    -0.350 N 
ATOM     10  C   UNL     1      -0.302   2.361   1.670  1.00  0.00     0.264 C 
ATOM     11  O   UNL     1      -0.789   3.485   1.864  1.00  0.00    -0.268 OA
ATOM     12  H   UNL     1      -1.246   2.505  -0.041  1.00  0.00     0.163 HD
BRANCH  10  13
ATOM     13  C   UNL     1       0.456   1.674   2.706  1.00  0.00     0.136 A 
ATOM     14  C   UNL     1       1.142   0.482   2.953  1.00  0.00     0.088 A 
ATOM     15  N   UNL     1       1.699   0.367   4.232  1.00  0.00    -0.142 NA
ATOM     16  N   UNL     1       1.475   1.420   4.982  1.00  0.00    -0.090 NA
ATOM     17  S   UNL     1       0.600   2.585   4.199  1.00  0.00    -0.006 S 
BRANCH  14  18
ATOM     18  C   UNL     1       1.430  -0.700   2.100  1.00  0.00     0.056 C 
ATOM     19  C   UNL     1       2.683  -0.481   1.263  1.00  0.00     0.011 C 
ENDBRANCH  14  18
ENDBRANCH  10  13
ENDBRANCH   8   9
ENDBRANCH   7   8
BRANCH   7  20
ATOM     20  C   UNL     1      -2.199   0.299  -2.015  1.00  0.00     0.018 C 
BRANCH  20  21
ATOM     21  C   UNL     1      -1.572   0.128  -3.415  1.00  0.00    -0.017 C 
ATOM     22  C   UNL     1      -1.893  -1.244  -4.021  1.00  0.00     0.007 C 
ATOM     23  C   UNL     1      -2.074   1.206  -4.382  1.00  0.00     0.007 C 
ENDBRANCH  20  21
ENDBRANCH   7  20
ENDBRANCH   4   7
ENDBRANCH   2   3
ENDBRANCH   1   2
BRANCH   1  24
ATOM     24  C   UNL     1       2.430  -3.688  -2.886  1.00  0.00     0.002 C 
BRANCH  24  25
ATOM     25  C   UNL     1       1.903  -3.726  -4.322  1.00  0.00     0.002 C 
BRANCH  25  26
ATOM     26  C   UNL     1       2.505  -2.710  -5.293  1.00  0.00     0.021 C 
BRANCH  26  27
ATOM     27  C   UNL     1       4.027  -2.657  -5.345  1.00  0.00     0.116 C 
BRANCH  27  28
ATOM     28  N   UNL     1       4.636  -3.910  -5.748  1.00  0.00    -0.352 N 
ATOM     29  C   UNL     1       5.665  -4.112  -6.635  1.00  0.00     0.251 C 
ATOM     30  H   UNL     1       4.262  -4.721  -5.333  1.00  0.00     0.163 HD
ATOM     31  O   UNL     1       6.016  -5.248  -6.939  1.00  0.00    -0.269 OA
BRANCH  29  32
ATOM     32  C   UNL     1       6.328  -2.945  -7.253  1.00  0.00     0.039 A 
ATOM     33  C   UNL     1       6.462  -2.902  -8.643  1.00  0.00     0.014 A 
ATOM     34  C   UNL     1       6.785  -1.884  -6.465  1.00  0.00     0.014 A 
ATOM     35  C   UNL     1       6.996  -1.764  -9.252  1.00  0.00     0.010 A 
ATOM     36  C   UNL     1       7.256  -0.727  -7.076  1.00  0.00     0.010 A 
ATOM     37  C   UNL     1       7.367  -0.656  -8.475  1.00  0.00    -0.014 A 
BRANCH  37  38
ATOM     38  C   UNL     1       7.902   0.586  -9.088  1.00  0.00     0.031 A 
ATOM     39  C   UNL     1       9.313   1.009  -8.789  1.00  0.00     0.074 A 
ATOM     40  C   UNL     1       7.102   1.375  -9.830  1.00  0.00     0.049 A 
ATOM     41  N   UNL     1       9.921   2.131  -9.076  1.00  0.00    -0.248 NA
ATOM     42  C   UNL     1      10.139   0.051  -8.038  1.00  0.00     0.031 C 
ATOM     43  C   UNL     1       5.708   1.088 -10.173  1.00  0.00     0.029 A 
ATOM     44  N   UNL     1       7.343   2.595 -10.410  1.00  0.00    -0.354 N 
ATOM     45  C   UNL     1      11.187   2.027  -8.514  1.00  0.00     0.074 A 
ATOM     46  C   UNL     1      11.246   0.750  -7.838  1.00  0.00     0.031 C 
ATOM     47  C   UNL     1       5.221   2.100 -10.910  1.00  0.00     0.029 A 
ATOM     48  C   UNL     1       6.251   3.124 -11.054  1.00  0.00     0.049 A 
ATOM     49  H   UNL     1       8.216   3.048 -10.369  1.00  0.00     0.167 HD
ATOM     50  C   UNL     1      12.212   2.909  -8.571  1.00  0.00     0.037 A 
ATOM     51  C   UNL     1       6.094   4.310 -11.674  1.00  0.00     0.037 A 
ATOM     52  C   UNL     1      12.162   4.162  -9.277  1.00  0.00     0.049 A 
ATOM     53  C   UNL     1       7.248   5.273 -11.725  1.00  0.00     0.074 A 
ATOM     54  C   UNL     1      13.163   5.104  -9.434  1.00  0.00     0.029 A 
ATOM     55  N   UNL     1      11.049   4.642  -9.950  1.00  0.00    -0.354 N 
ATOM     56  N   UNL     1       8.450   5.149 -11.219  1.00  0.00    -0.248 NA
ATOM     57  C   UNL     1       7.024   6.541 -12.435  1.00  0.00     0.031 C 
ATOM     58  C   UNL     1      12.646   6.170 -10.177  1.00  0.00     0.029 A 
ATOM     59  C   UNL     1      11.336   5.872 -10.517  1.00  0.00     0.049 A 
ATOM     60  H   UNL     1      10.183   4.178 -10.016  1.00  0.00     0.167 HD
ATOM     61  C   UNL     1       9.136   6.301 -11.579  1.00  0.00     0.074 A 
ATOM     62  C   UNL     1       8.216   7.113 -12.348  1.00  0.00     0.031 C 
ATOM     63  C   UNL     1      10.415   6.654 -11.301  1.00  0.00     0.037 A 
BRANCH  50  64
ATOM     64  C   UNL     1      13.474   2.547  -7.846  1.00  0.00     0.057 A 
ATOM     65  C   UNL     1      14.320   1.526  -8.300  1.00  0.00     0.134 A 
ATOM     66  C   UNL     1      13.860   3.240  -6.692  1.00  0.00     0.134 A 
ATOM     67  F   UNL     1      14.001   0.815  -9.392  1.00  0.00    -0.206 F 
ATOM     68  C   UNL     1      15.489   1.189  -7.616  1.00  0.00     0.040 A 
ATOM     69  C   UNL     1      15.040   2.929  -6.014  1.00  0.00     0.040 A 
ATOM     70  F   UNL     1      13.098   4.231  -6.206  1.00  0.00    -0.206 F 
ATOM     71  C   UNL     1      15.854   1.896  -6.473  1.00  0.00     0.006 A 
ENDBRANCH  50  64
BRANCH  51  72
ATOM     72  C   UNL     1       4.798   4.649 -12.313  1.00  0.00     0.057 A 
ATOM     73  C   UNL     1       4.674   4.693 -13.706  1.00  0.00     0.134 A 
ATOM     74  C   UNL     1       3.659   4.944 -11.554  1.00  0.00     0.134 A 
ATOM     75  F   UNL     1       5.735   4.439 -14.486  1.00  0.00    -0.206 F 
ATOM     76  C   UNL     1       3.470   5.036 -14.323  1.00  0.00     0.040 A 
ATOM     77  C   UNL     1       2.442   5.266 -12.157  1.00  0.00     0.040 A 
ATOM     78  F   UNL     1       3.711   4.911 -10.214  1.00  0.00    -0.206 F 
ATOM     79  C   UNL     1       2.348   5.320 -13.547  1.00  0.00     0.006 A 
ENDBRANCH  51  72
BRANCH  63  80
ATOM     80  C   UNL     1      10.917   7.943 -11.878  1.00  0.00     0.057 A 
ATOM     81  C   UNL     1      10.539   9.186 -11.357  1.00  0.00     0.134 A 
ATOM     82  C   UNL     1      11.840   7.934 -12.932  1.00  0.00     0.134 A 
ATOM     83  F   UNL     1       9.650   9.261 -10.355  1.00  0.00    -0.206 F 
ATOM     84  C   UNL     1      11.053  10.377 -11.873  1.00  0.00     0.040 A 
ATOM     85  C   UNL     1      12.377   9.117 -13.441  1.00  0.00     0.040 A 
ATOM     86  F   UNL     1      12.248   6.775 -13.471  1.00  0.00    -0.206 F 
ATOM     87  C   UNL     1      11.981  10.344 -12.912  1.00  0.00     0.006 A 
ENDBRANCH  63  80
ENDBRANCH  37  38
ENDBRANCH  29  32
ENDBRANCH  27  28
ENDBRANCH  26  27
ENDBRANCH  25  26
ENDBRANCH  24  25
ENDBRANCH   1  24
TORSDOF 19
