REMARK SMILES C=Cc1cccc(-c2ccc([C@@H](C)C(=O)NCCCCCCNC(=O)c3ccc(-c4c5nc(c(-c6c(F)cccc6F)c6ccc([nH]6)c(-c6c(F)cccc6F)c6nc(c(-c7c(F)cccc7F)c7ccc4[nH]7)C=C6)C=C5)cc3)cc2)c1
REMARK SMILES IDX 19 1 18 2 17 3 16 4 14 5 15 6 12 8 13 9 11 10 8 11 9 12
REMARK SMILES IDX 81 13 10 14 80 15 7 16 3 17 4 18 82 19 5 20 6 21 2 22 1 23
REMARK SMILES IDX 20 24 21 25 22 26 23 27 24 28 25 30 26 31 27 32 79 33 28 34
REMARK SMILES IDX 78 35 29 36 30 37 31 38 72 39 32 40 77 41 71 42 73 43 33 44
REMARK SMILES IDX 76 45 70 46 69 47 34 49 60 50 43 51 59 52 44 53 47 54 58 55
REMARK SMILES IDX 74 56 45 57 46 58 57 60 75 61 48 62 35 63 36 64 41 65 37 66
REMARK SMILES IDX 38 67 40 68 42 69 39 70 61 71 62 72 67 73 63 74 64 75 66 76
REMARK SMILES IDX 68 77 65 78 49 79 50 80 55 81 51 82 52 83 54 84 56 85 53 86
REMARK H PARENT 16 7 23 29 73 48 47 59
REMARK Flexibility Score: inf
ROOT
ATOM      1  C   UNL     1      -6.079   5.148   2.128  1.00  0.00     0.002 C 
ENDROOT
BRANCH   1   2
ATOM      2  C   UNL     1      -6.253   4.291   0.870  1.00  0.00     0.021 C 
BRANCH   2   3
ATOM      3  C   UNL     1      -7.109   4.948  -0.215  1.00  0.00     0.116 C 
BRANCH   3   4
ATOM      4  N   UNL     1      -6.314   5.766  -1.106  1.00  0.00    -0.356 N 
ATOM      5  C   UNL     1      -5.841   5.535  -2.361  1.00  0.00     0.227 C 
ATOM      6  O   UNL     1      -5.104   6.405  -2.841  1.00  0.00    -0.274 OA
ATOM      7  H   UNL     1      -6.071   6.647  -0.738  1.00  0.00     0.163 HD
BRANCH   5   8
ATOM      8  C   UNL     1      -6.191   4.287  -3.186  1.00  0.00     0.105 C 
ATOM      9  C   UNL     1      -7.685   4.139  -3.479  1.00  0.00     0.023 C 
BRANCH   8  10
ATOM     10  C   UNL     1      -5.468   3.032  -2.721  1.00  0.00    -0.036 A 
ATOM     11  C   UNL     1      -3.958   0.792  -1.776  1.00  0.00    -0.018 A 
ATOM     12  C   UNL     1      -5.262   1.050  -1.323  1.00  0.00     0.009 A 
ATOM     13  C   UNL     1      -3.443   1.663  -2.748  1.00  0.00     0.009 A 
ATOM     14  C   UNL     1      -6.013   2.128  -1.807  1.00  0.00     0.005 A 
ATOM     15  C   UNL     1      -4.174   2.772  -3.198  1.00  0.00     0.005 A 
BRANCH  11  16
ATOM     16  C   UNL     1      -3.166  -0.336  -1.231  1.00  0.00    -0.018 A 
ATOM     17  C   UNL     1      -1.020  -1.283  -0.486  1.00  0.00    -0.026 A 
ATOM     18  C   UNL     1      -1.669  -2.471  -0.138  1.00  0.00     0.008 A 
ATOM     19  C   UNL     1      -1.774  -0.231  -1.033  1.00  0.00     0.016 A 
ATOM     20  C   UNL     1      -3.042  -2.602  -0.321  1.00  0.00     0.001 A 
ATOM     21  C   UNL     1      -3.778  -1.549  -0.868  1.00  0.00     0.009 A 
BRANCH  17  22
ATOM     22  C   UNL     1       0.436  -1.200  -0.320  1.00  0.00     0.000 C 
ATOM     23  C   UNL     1       1.088  -0.107   0.096  1.00  0.00     0.009 C 
ENDBRANCH  17  22
ENDBRANCH  11  16
ENDBRANCH   8  10
ENDBRANCH   5   8
ENDBRANCH   3   4
ENDBRANCH   2   3
ENDBRANCH   1   2
BRANCH   1  24
ATOM     24  C   UNL     1      -7.370   5.444   2.903  1.00  0.00     0.002 C 
BRANCH  24  25
ATOM     25  C   UNL     1      -8.194   4.218   3.310  1.00  0.00     0.021 C 
BRANCH  25  26
ATOM     26  C   UNL     1      -7.463   3.223   4.209  1.00  0.00     0.116 C 
BRANCH  26  27
ATOM     27  N   UNL     1      -7.108   3.810   5.491  1.00  0.00    -0.352 N 
ATOM     28  C   UNL     1      -7.464   3.429   6.760  1.00  0.00     0.251 C 
ATOM     29  H   UNL     1      -6.523   4.600   5.441  1.00  0.00     0.163 HD
ATOM     30  O   UNL     1      -7.249   4.176   7.709  1.00  0.00    -0.269 OA
BRANCH  28  31
ATOM     31  C   UNL     1      -8.116   2.122   6.991  1.00  0.00     0.039 A 
ATOM     32  C   UNL     1      -9.196   2.052   7.876  1.00  0.00     0.014 A 
ATOM     33  C   UNL     1      -7.639   0.962   6.375  1.00  0.00     0.014 A 
ATOM     34  C   UNL     1      -9.829   0.829   8.104  1.00  0.00     0.010 A 
ATOM     35  C   UNL     1      -8.309  -0.245   6.554  1.00  0.00     0.010 A 
ATOM     36  C   UNL     1      -9.406  -0.326   7.426  1.00  0.00    -0.014 A 
BRANCH  36  37
ATOM     37  C   UNL     1     -10.086  -1.629   7.627  1.00  0.00     0.031 A 
ATOM     38  C   UNL     1      -9.351  -2.773   8.270  1.00  0.00     0.074 A 
ATOM     39  C   UNL     1     -11.342  -1.804   7.175  1.00  0.00     0.049 A 
ATOM     40  N   UNL     1      -9.744  -4.006   8.461  1.00  0.00    -0.248 NA
ATOM     41  C   UNL     1      -7.983  -2.499   8.736  1.00  0.00     0.031 C 
ATOM     42  C   UNL     1     -12.148  -0.785   6.500  1.00  0.00     0.029 A 
ATOM     43  N   UNL     1     -12.158  -2.907   7.206  1.00  0.00    -0.354 N 
ATOM     44  C   UNL     1      -8.669  -4.658   9.052  1.00  0.00     0.074 A 
ATOM     45  C   UNL     1      -7.591  -3.697   9.144  1.00  0.00     0.031 C 
ATOM     46  C   UNL     1     -13.349  -1.304   6.198  1.00  0.00     0.029 A 
ATOM     47  C   UNL     1     -13.386  -2.700   6.626  1.00  0.00     0.049 A 
ATOM     48  H   UNL     1     -11.889  -3.765   7.605  1.00  0.00     0.167 HD
ATOM     49  C   UNL     1      -8.594  -5.935   9.498  1.00  0.00     0.037 A 
ATOM     50  C   UNL     1     -14.422  -3.542   6.454  1.00  0.00     0.037 A 
ATOM     51  C   UNL     1      -9.676  -6.882   9.430  1.00  0.00     0.049 A 
ATOM     52  C   UNL     1     -14.314  -4.954   6.956  1.00  0.00     0.074 A 
ATOM     53  C   UNL     1      -9.716  -8.182   9.903  1.00  0.00     0.029 A 
ATOM     54  N   UNL     1     -10.911  -6.627   8.853  1.00  0.00    -0.354 N 
ATOM     55  N   UNL     1     -13.311  -5.541   7.563  1.00  0.00    -0.248 NA
ATOM     56  C   UNL     1     -15.484  -5.820   6.754  1.00  0.00     0.031 C 
ATOM     57  C   UNL     1     -10.964  -8.726   9.581  1.00  0.00     0.029 A 
ATOM     58  C   UNL     1     -11.715  -7.751   8.944  1.00  0.00     0.049 A 
ATOM     59  H   UNL     1     -11.177  -5.774   8.440  1.00  0.00     0.167 HD
ATOM     60  C   UNL     1     -13.737  -6.833   7.840  1.00  0.00     0.074 A 
ATOM     61  C   UNL     1     -15.094  -6.941   7.344  1.00  0.00     0.031 C 
ATOM     62  C   UNL     1     -13.066  -7.839   8.452  1.00  0.00     0.037 A 
BRANCH  49  63
ATOM     63  C   UNL     1      -7.293  -6.378  10.101  1.00  0.00     0.057 A 
ATOM     64  C   UNL     1      -6.862  -5.910  11.350  1.00  0.00     0.134 A 
ATOM     65  C   UNL     1      -6.473  -7.301   9.439  1.00  0.00     0.134 A 
ATOM     66  F   UNL     1      -7.595  -5.015  12.030  1.00  0.00    -0.206 F 
ATOM     67  C   UNL     1      -5.648  -6.320  11.904  1.00  0.00     0.040 A 
ATOM     68  C   UNL     1      -5.270  -7.739   9.996  1.00  0.00     0.040 A 
ATOM     69  F   UNL     1      -6.829  -7.794   8.244  1.00  0.00    -0.206 F 
ATOM     70  C   UNL     1      -4.851  -7.242  11.229  1.00  0.00     0.006 A 
ENDBRANCH  49  63
BRANCH  50  71
ATOM     71  C   UNL     1     -15.665  -3.062   5.802  1.00  0.00     0.057 A 
ATOM     72  C   UNL     1     -16.836  -2.867   6.544  1.00  0.00     0.134 A 
ATOM     73  C   UNL     1     -15.716  -2.790   4.430  1.00  0.00     0.134 A 
ATOM     74  F   UNL     1     -16.853  -3.130   7.859  1.00  0.00    -0.206 F 
ATOM     75  C   UNL     1     -18.018  -2.433   5.943  1.00  0.00     0.040 A 
ATOM     76  C   UNL     1     -16.886  -2.333   3.820  1.00  0.00     0.040 A 
ATOM     77  F   UNL     1     -14.626  -2.950   3.667  1.00  0.00    -0.206 F 
ATOM     78  C   UNL     1     -18.043  -2.160   4.577  1.00  0.00     0.006 A 
ENDBRANCH  50  71
BRANCH  62  79
ATOM     79  C   UNL     1     -13.802  -9.131   8.651  1.00  0.00     0.057 A 
ATOM     80  C   UNL     1     -14.056 -10.007   7.588  1.00  0.00     0.134 A 
ATOM     81  C   UNL     1     -14.226  -9.519   9.928  1.00  0.00     0.134 A 
ATOM     82  F   UNL     1     -13.686  -9.686   6.339  1.00  0.00    -0.206 F 
ATOM     83  C   UNL     1     -14.726 -11.215   7.786  1.00  0.00     0.040 A 
ATOM     84  C   UNL     1     -14.876 -10.735  10.142  1.00  0.00     0.040 A 
ATOM     85  F   UNL     1     -14.007  -8.727  10.989  1.00  0.00    -0.206 F 
ATOM     86  C   UNL     1     -15.131 -11.585   9.068  1.00  0.00     0.006 A 
ENDBRANCH  62  79
ENDBRANCH  36  37
ENDBRANCH  28  31
ENDBRANCH  26  27
ENDBRANCH  25  26
ENDBRANCH  24  25
ENDBRANCH   1  24
TORSDOF 16
