REMARK SMILES O=C(NCCCCCCNC(=O)c1ccc(-c2c3nc(c(-c4c(F)cccc4F)c4ccc([nH]4)c(-c4c(F)cccc4F)c4nc(c(-c5c(F)cccc5F)c5ccc2[nH]5)C=C4)C=C3)cc1)C1=Cc2cc(Cl)cc(C#Cc3ccccc3)c2O[C@@H]1C(F)(F)F
REMARK SMILES IDX 6 1 5 2 4 3 3 4 1 5 2 6 67 8 68 9 85 10 69 11 84 12 70 13
REMARK SMILES IDX 83 14 71 15 74 16 72 17 73 18 86 19 87 20 88 21 89 22 75 23
REMARK SMILES IDX 76 24 77 25 78 26 82 27 79 28 81 29 80 30 7 31 8 32 9 33
REMARK SMILES IDX 10 34 11 35 12 37 13 38 14 39 66 40 15 41 65 42 16 43 17 44
REMARK SMILES IDX 18 45 59 46 19 47 64 48 58 49 60 50 20 51 63 52 57 53 56 54
REMARK SMILES IDX 21 56 47 57 30 58 46 59 31 60 34 61 45 62 61 63 32 64 33 65
REMARK SMILES IDX 44 67 62 68 35 69 22 70 23 71 28 72 24 73 25 74 27 75 29 76
REMARK SMILES IDX 26 77 48 78 49 79 54 80 50 81 51 82 53 83 55 84 52 85 36 86
REMARK SMILES IDX 37 87 42 88 38 89 39 90 41 91 43 92 40 93
REMARK H PARENT 3 7 10 36 60 55 34 66
REMARK Flexibility Score: inf
ROOT
ATOM      1  C   UNL     1       3.935   3.733   2.458  1.00  0.00     0.002 C 
ENDROOT
BRANCH   1   2
ATOM      2  C   UNL     1       4.299   3.311   1.036  1.00  0.00     0.021 C 
BRANCH   2   3
ATOM      3  C   UNL     1       4.008   1.862   0.675  1.00  0.00     0.116 C 
BRANCH   3   4
ATOM      4  N   UNL     1       2.690   1.588   0.143  1.00  0.00    -0.352 N 
ATOM      5  O   UNL     1       1.055   0.403  -0.829  1.00  0.00    -0.270 OA
ATOM      6  C   UNL     1       2.257   0.517  -0.590  1.00  0.00     0.251 C 
ATOM      7  H   UNL     1       2.008   2.270   0.336  1.00  0.00     0.163 HD
BRANCH   6   8
ATOM      8  C   UNL     1       3.168  -0.585  -1.040  1.00  0.00     0.067 C 
ATOM      9  C   UNL     1       4.433  -0.387  -1.454  1.00  0.00     0.025 C 
ATOM     10  C   UNL     1       2.886  -1.864  -0.281  1.00  0.00     0.314 C 
ATOM     11  C   UNL     1       5.421  -0.754  -0.397  1.00  0.00     0.020 A 
ATOM     12  O   UNL     1       3.726  -1.927   0.908  1.00  0.00    -0.474 OA
ATOM     13  C   UNL     1       6.701  -0.192  -0.482  1.00  0.00     0.032 A 
ATOM     14  C   UNL     1       4.968  -1.336   0.806  1.00  0.00     0.143 A 
ATOM     15  C   UNL     1       7.486  -0.113   0.664  1.00  0.00     0.043 A 
ATOM     16  C   UNL     1       5.732  -1.165   1.969  1.00  0.00     0.069 A 
ATOM     17  Cl  UNL     1       8.978   0.743   0.616  1.00  0.00    -0.084 Cl
ATOM     18  C   UNL     1       7.002  -0.578   1.885  1.00  0.00     0.041 A 
BRANCH  10  19
ATOM     19  C   UNL     1       3.000  -3.108  -1.184  1.00  0.00     0.429 C 
ATOM     20  F   UNL     1       2.606  -4.232  -0.542  1.00  0.00    -0.167 F 
ATOM     21  F   UNL     1       2.215  -2.988  -2.284  1.00  0.00    -0.167 F 
ATOM     22  F   UNL     1       4.262  -3.321  -1.627  1.00  0.00    -0.167 F 
ENDBRANCH  10  19
BRANCH  16  23
ATOM     23  C   UNL     1       5.172  -1.308   3.285  1.00  0.00    -0.058 C 
ATOM     24  C   UNL     1       4.781  -1.260   4.421  1.00  0.00    -0.062 C 
BRANCH  24  25
ATOM     25  C   UNL     1       4.416  -1.189   5.806  1.00  0.00     0.025 A 
ATOM     26  C   UNL     1       4.220   0.038   6.451  1.00  0.00     0.017 A 
ATOM     27  C   UNL     1       4.308  -2.373   6.536  1.00  0.00     0.017 A 
ATOM     28  C   UNL     1       3.929   0.075   7.819  1.00  0.00     0.001 A 
ATOM     29  C   UNL     1       4.020  -2.336   7.902  1.00  0.00     0.001 A 
ATOM     30  C   UNL     1       3.833  -1.113   8.544  1.00  0.00     0.000 A 
ENDBRANCH  24  25
ENDBRANCH  16  23
ENDBRANCH   6   8
ENDBRANCH   3   4
ENDBRANCH   2   3
ENDBRANCH   1   2
BRANCH   1  31
ATOM     31  C   UNL     1       4.546   2.907   3.596  1.00  0.00     0.002 C 
BRANCH  31  32
ATOM     32  C   UNL     1       6.060   2.686   3.549  1.00  0.00     0.021 C 
BRANCH  32  33
ATOM     33  C   UNL     1       6.917   3.943   3.462  1.00  0.00     0.116 C 
BRANCH  33  34
ATOM     34  N   UNL     1       6.687   4.856   4.567  1.00  0.00    -0.352 N 
ATOM     35  C   UNL     1       7.580   5.443   5.427  1.00  0.00     0.251 C 
ATOM     36  H   UNL     1       5.743   5.089   4.724  1.00  0.00     0.163 HD
ATOM     37  O   UNL     1       7.167   6.056   6.407  1.00  0.00    -0.269 OA
BRANCH  35  38
ATOM     38  C   UNL     1       9.037   5.328   5.194  1.00  0.00     0.039 A 
ATOM     39  C   UNL     1       9.877   5.122   6.292  1.00  0.00     0.014 A 
ATOM     40  C   UNL     1       9.584   5.451   3.913  1.00  0.00     0.014 A 
ATOM     41  C   UNL     1      11.253   4.989   6.100  1.00  0.00     0.010 A 
ATOM     42  C   UNL     1      10.945   5.234   3.713  1.00  0.00     0.010 A 
ATOM     43  C   UNL     1      11.797   5.012   4.805  1.00  0.00    -0.014 A 
BRANCH  43  44
ATOM     44  C   UNL     1      13.252   4.814   4.582  1.00  0.00     0.031 A 
ATOM     45  C   UNL     1      14.085   5.911   3.975  1.00  0.00     0.074 A 
ATOM     46  C   UNL     1      13.816   3.628   4.886  1.00  0.00     0.049 A 
ATOM     47  N   UNL     1      15.358   5.911   3.672  1.00  0.00    -0.248 NA
ATOM     48  C   UNL     1      13.391   7.166   3.643  1.00  0.00     0.031 C 
ATOM     49  C   UNL     1      13.110   2.473   5.444  1.00  0.00     0.029 A 
ATOM     50  N   UNL     1      15.114   3.195   4.766  1.00  0.00    -0.354 N 
ATOM     51  C   UNL     1      15.612   7.153   3.102  1.00  0.00     0.074 A 
ATOM     52  C   UNL     1      14.352   7.861   3.052  1.00  0.00     0.031 C 
ATOM     53  C   UNL     1      13.987   1.477   5.649  1.00  0.00     0.029 A 
ATOM     54  C   UNL     1      15.306   1.903   5.194  1.00  0.00     0.049 A 
ATOM     55  H   UNL     1      15.838   3.757   4.407  1.00  0.00     0.167 HD
ATOM     56  C   UNL     1      16.792   7.664   2.676  1.00  0.00     0.037 A 
ATOM     57  C   UNL     1      16.419   1.145   5.209  1.00  0.00     0.037 A 
ATOM     58  C   UNL     1      18.047   6.963   2.747  1.00  0.00     0.049 A 
ATOM     59  C   UNL     1      17.710   1.730   4.703  1.00  0.00     0.074 A 
ATOM     60  C   UNL     1      19.308   7.419   2.405  1.00  0.00     0.029 A 
ATOM     61  N   UNL     1      18.200   5.654   3.180  1.00  0.00    -0.354 N 
ATOM     62  N   UNL     1      17.950   2.933   4.241  1.00  0.00    -0.248 NA
ATOM     63  C   UNL     1      18.887   0.850   4.724  1.00  0.00     0.031 C 
ATOM     64  C   UNL     1      20.213   6.365   2.566  1.00  0.00     0.029 A 
ATOM     65  C   UNL     1      19.528   5.275   3.078  1.00  0.00     0.049 A 
ATOM     66  H   UNL     1      17.472   5.080   3.512  1.00  0.00     0.167 HD
ATOM     67  C   UNL     1      19.309   2.967   3.954  1.00  0.00     0.074 A 
ATOM     68  C   UNL     1      19.842   1.668   4.307  1.00  0.00     0.031 C 
ATOM     69  C   UNL     1      20.049   3.982   3.444  1.00  0.00     0.037 A 
BRANCH  56  70
ATOM     70  C   UNL     1      16.785   9.046   2.086  1.00  0.00     0.057 A 
ATOM     71  C   UNL     1      16.541  10.187   2.862  1.00  0.00     0.134 A 
ATOM     72  C   UNL     1      17.077   9.241   0.729  1.00  0.00     0.134 A 
ATOM     73  F   UNL     1      16.245  10.073   4.165  1.00  0.00    -0.206 F 
ATOM     74  C   UNL     1      16.563  11.468   2.306  1.00  0.00     0.040 A 
ATOM     75  C   UNL     1      17.133  10.518   0.169  1.00  0.00     0.040 A 
ATOM     76  F   UNL     1      17.328   8.194  -0.072  1.00  0.00    -0.206 F 
ATOM     77  C   UNL     1      16.869  11.636   0.957  1.00  0.00     0.006 A 
ENDBRANCH  56  70
BRANCH  57  78
ATOM     78  C   UNL     1      16.374  -0.246   5.731  1.00  0.00     0.057 A 
ATOM     79  C   UNL     1      17.061  -0.602   6.899  1.00  0.00     0.134 A 
ATOM     80  C   UNL     1      15.676  -1.259   5.063  1.00  0.00     0.134 A 
ATOM     81  F   UNL     1      17.763   0.319   7.575  1.00  0.00    -0.206 F 
ATOM     82  C   UNL     1      17.081  -1.917   7.365  1.00  0.00     0.040 A 
ATOM     83  C   UNL     1      15.661  -2.573   5.535  1.00  0.00     0.040 A 
ATOM     84  F   UNL     1      14.991  -0.986   3.943  1.00  0.00    -0.206 F 
ATOM     85  C   UNL     1      16.376  -2.907   6.684  1.00  0.00     0.006 A 
ENDBRANCH  57  78
BRANCH  69  86
ATOM     86  C   UNL     1      21.524   3.748   3.284  1.00  0.00     0.057 A 
ATOM     87  C   UNL     1      22.041   2.870   2.322  1.00  0.00     0.134 A 
ATOM     88  C   UNL     1      22.443   4.444   4.082  1.00  0.00     0.134 A 
ATOM     89  F   UNL     1      21.216   2.164   1.534  1.00  0.00    -0.206 F 
ATOM     90  C   UNL     1      23.415   2.671   2.180  1.00  0.00     0.040 A 
ATOM     91  C   UNL     1      23.820   4.279   3.925  1.00  0.00     0.040 A 
ATOM     92  F   UNL     1      22.018   5.309   5.015  1.00  0.00    -0.206 F 
ATOM     93  C   UNL     1      24.309   3.383   2.977  1.00  0.00     0.006 A 
ENDBRANCH  69  86
ENDBRANCH  43  44
ENDBRANCH  35  38
ENDBRANCH  33  34
ENDBRANCH  32  33
ENDBRANCH  31  32
ENDBRANCH   1  31
TORSDOF 16
