REMARK SMILES CSc1ccc(/C=C2\C(C)=C(CC(=O)NCCCCCCNC(=O)c3ccc(-c4c5nc(c(-c6c(F)cccc6F)c6ccc([nH]6)c(-c6c(F)cccc6F)c6nc(c(-c7c(F)cccc7F)c7ccc4[nH]7)C=C6)C=C5)cc3)c3cc(F)ccc32)cc1
REMARK SMILES IDX 18 1 17 2 16 3 15 4 13 5 14 6 12 8 11 9 7 10 8 11 9 12 85 13
REMARK SMILES IDX 10 14 79 15 84 16 80 17 83 18 81 19 82 20 6 21 3 22 4 23
REMARK SMILES IDX 87 24 5 25 86 26 2 27 1 28 19 29 20 30 21 31 22 32 23 33
REMARK SMILES IDX 24 35 25 36 26 37 78 38 27 39 77 40 28 41 29 42 30 43 71 44
REMARK SMILES IDX 31 45 76 46 70 47 72 48 32 49 75 50 69 51 68 52 33 54 59 55
REMARK SMILES IDX 42 56 58 57 43 58 46 59 57 60 73 61 44 62 45 63 56 65 74 66
REMARK SMILES IDX 47 67 34 68 35 69 40 70 36 71 37 72 39 73 41 74 38 75 60 76
REMARK SMILES IDX 61 77 66 78 62 79 63 80 65 81 67 82 64 83 48 84 49 85 54 86
REMARK SMILES IDX 50 87 51 88 53 89 55 90 52 91
REMARK H PARENT 15 7 22 34 72 53 46 64
REMARK Flexibility Score: inf
ROOT
ATOM      1  C   UNL     1      -2.363   0.067   9.291  1.00  0.00     0.002 C 
ENDROOT
BRANCH   1   2
ATOM      2  C   UNL     1      -1.189   0.565   8.453  1.00  0.00     0.021 C 
BRANCH   2   3
ATOM      3  C   UNL     1      -0.306   1.597   9.154  1.00  0.00     0.116 C 
BRANCH   3   4
ATOM      4  N   UNL     1       0.455   0.995  10.225  1.00  0.00    -0.356 N 
ATOM      5  C   UNL     1       1.729   0.508  10.156  1.00  0.00     0.224 C 
ATOM      6  O   UNL     1       2.201  -0.090  11.122  1.00  0.00    -0.275 OA
ATOM      7  H   UNL     1       0.006   0.928  11.099  1.00  0.00     0.163 HD
BRANCH   5   8
ATOM      8  C   UNL     1       2.514   0.722   8.881  1.00  0.00     0.136 C 
BRANCH   8   9
ATOM      9  C   UNL     1       2.048  -0.283   7.844  1.00  0.00    -0.027 C 
ATOM     10  C   UNL     1       3.169   1.311   5.035  1.00  0.00     0.017 C 
ATOM     11  C   UNL     1       2.895   0.290   5.867  1.00  0.00    -0.014 C 
ATOM     12  C   UNL     1       1.628   0.076   6.598  1.00  0.00    -0.039 C 
ATOM     13  C   UNL     1       3.736  -0.853   6.317  1.00  0.00    -0.010 A 
ATOM     14  C   UNL     1       0.757  -0.909   5.783  1.00  0.00     0.045 C 
ATOM     15  C   UNL     1       3.107  -1.260   7.518  1.00  0.00    -0.011 A 
ATOM     16  C   UNL     1       4.412  -1.787   5.550  1.00  0.00     0.012 A 
ATOM     17  C   UNL     1       3.113  -2.565   7.979  1.00  0.00     0.048 A 
ATOM     18  C   UNL     1       4.397  -3.124   5.988  1.00  0.00     0.040 A 
ATOM     19  C   UNL     1       3.744  -3.498   7.176  1.00  0.00     0.123 A 
ATOM     20  F   UNL     1       3.615  -4.798   7.473  1.00  0.00    -0.207 F 
BRANCH  10  21
ATOM     21  C   UNL     1       2.198   2.221   4.346  1.00  0.00    -0.025 A 
ATOM     22  C   UNL     1       0.852   2.741   1.967  1.00  0.00     0.007 A 
ATOM     23  C   UNL     1       0.199   2.066   2.987  1.00  0.00     0.015 A 
ATOM     24  C   UNL     1       2.034   3.423   2.252  1.00  0.00     0.015 A 
ATOM     25  C   UNL     1       0.850   1.878   4.200  1.00  0.00     0.009 A 
ATOM     26  C   UNL     1       2.713   3.160   3.448  1.00  0.00     0.009 A 
BRANCH  22  27
ATOM     27  S   UNL     1       0.319   2.507   0.284  1.00  0.00    -0.130 SA
ATOM     28  C   UNL     1       0.908   0.787   0.091  1.00  0.00     0.091 C 
ENDBRANCH  22  27
ENDBRANCH  10  21
ENDBRANCH   8   9
ENDBRANCH   5   8
ENDBRANCH   3   4
ENDBRANCH   2   3
ENDBRANCH   1   2
BRANCH   1  29
ATOM     29  C   UNL     1      -3.234   1.178   9.874  1.00  0.00     0.002 C 
BRANCH  29  30
ATOM     30  C   UNL     1      -3.694   2.223   8.854  1.00  0.00     0.021 C 
BRANCH  30  31
ATOM     31  C   UNL     1      -4.482   1.641   7.687  1.00  0.00     0.116 C 
BRANCH  31  32
ATOM     32  N   UNL     1      -5.720   1.032   8.142  1.00  0.00    -0.352 N 
ATOM     33  C   UNL     1      -7.006   1.433   7.904  1.00  0.00     0.251 C 
ATOM     34  H   UNL     1      -5.620   0.223   8.694  1.00  0.00     0.163 HD
ATOM     35  O   UNL     1      -7.935   0.995   8.585  1.00  0.00    -0.269 OA
BRANCH  33  36
ATOM     36  C   UNL     1      -7.272   2.405   6.829  1.00  0.00     0.039 A 
ATOM     37  C   UNL     1      -8.102   3.498   7.085  1.00  0.00     0.014 A 
ATOM     38  C   UNL     1      -6.684   2.239   5.571  1.00  0.00     0.014 A 
ATOM     39  C   UNL     1      -8.292   4.462   6.094  1.00  0.00     0.010 A 
ATOM     40  C   UNL     1      -6.818   3.235   4.611  1.00  0.00     0.010 A 
ATOM     41  C   UNL     1      -7.622   4.356   4.864  1.00  0.00    -0.014 A 
BRANCH  41  42
ATOM     42  C   UNL     1      -7.727   5.419   3.834  1.00  0.00     0.031 A 
ATOM     43  C   UNL     1      -8.345   5.115   2.498  1.00  0.00     0.074 A 
ATOM     44  C   UNL     1      -7.185   6.629   4.073  1.00  0.00     0.049 A 
ATOM     45  N   UNL     1      -8.430   5.875   1.436  1.00  0.00    -0.248 NA
ATOM     46  C   UNL     1      -8.921   3.772   2.322  1.00  0.00     0.031 C 
ATOM     47  C   UNL     1      -6.513   7.026   5.313  1.00  0.00     0.029 A 
ATOM     48  N   UNL     1      -7.091   7.741   3.275  1.00  0.00    -0.354 N 
ATOM     49  C   UNL     1      -9.046   5.098   0.463  1.00  0.00     0.074 A 
ATOM     50  C   UNL     1      -9.284   3.796   1.047  1.00  0.00     0.031 C 
ATOM     51  C   UNL     1      -6.080   8.291   5.193  1.00  0.00     0.029 A 
ATOM     52  C   UNL     1      -6.403   8.779   3.857  1.00  0.00     0.049 A 
ATOM     53  H   UNL     1      -7.479   7.791   2.372  1.00  0.00     0.167 HD
ATOM     54  C   UNL     1      -9.395   5.448  -0.797  1.00  0.00     0.037 A 
ATOM     55  C   UNL     1      -6.051   9.980   3.360  1.00  0.00     0.037 A 
ATOM     56  C   UNL     1      -9.185   6.755  -1.361  1.00  0.00     0.049 A 
ATOM     57  C   UNL     1      -6.452  10.338   1.954  1.00  0.00     0.074 A 
ATOM     58  C   UNL     1      -9.584   7.231  -2.598  1.00  0.00     0.029 A 
ATOM     59  N   UNL     1      -8.514   7.791  -0.731  1.00  0.00    -0.354 N 
ATOM     60  N   UNL     1      -7.115   9.624   1.077  1.00  0.00    -0.248 NA
ATOM     61  C   UNL     1      -6.059  11.669   1.471  1.00  0.00     0.031 C 
ATOM     62  C   UNL     1      -9.105   8.536  -2.739  1.00  0.00     0.029 A 
ATOM     63  C   UNL     1      -8.457   8.893  -1.567  1.00  0.00     0.049 A 
ATOM     64  H   UNL     1      -8.134   7.749   0.177  1.00  0.00     0.167 HD
ATOM     65  C   UNL     1      -7.241  10.427  -0.049  1.00  0.00     0.074 A 
ATOM     66  C   UNL     1      -6.604  11.689   0.264  1.00  0.00     0.031 C 
ATOM     67  C   UNL     1      -7.827  10.145  -1.238  1.00  0.00     0.037 A 
BRANCH  54  68
ATOM     68  C   UNL     1     -10.040   4.407  -1.663  1.00  0.00     0.057 A 
ATOM     69  C   UNL     1     -11.355   3.975  -1.448  1.00  0.00     0.134 A 
ATOM     70  C   UNL     1      -9.363   3.889  -2.776  1.00  0.00     0.134 A 
ATOM     71  F   UNL     1     -12.055   4.424  -0.396  1.00  0.00    -0.206 F 
ATOM     72  C   UNL     1     -11.970   3.058  -2.303  1.00  0.00     0.040 A 
ATOM     73  C   UNL     1      -9.976   2.991  -3.651  1.00  0.00     0.040 A 
ATOM     74  F   UNL     1      -8.103   4.265  -3.042  1.00  0.00    -0.206 F 
ATOM     75  C   UNL     1     -11.284   2.572  -3.414  1.00  0.00     0.006 A 
ENDBRANCH  54  68
BRANCH  55  76
ATOM     76  C   UNL     1      -5.263  10.932   4.184  1.00  0.00     0.057 A 
ATOM     77  C   UNL     1      -5.814  12.141   4.625  1.00  0.00     0.134 A 
ATOM     78  C   UNL     1      -3.928  10.674   4.518  1.00  0.00     0.134 A 
ATOM     79  F   UNL     1      -7.082  12.455   4.321  1.00  0.00    -0.206 F 
ATOM     80  C   UNL     1      -5.058  13.074   5.338  1.00  0.00     0.040 A 
ATOM     81  C   UNL     1      -3.169  11.584   5.256  1.00  0.00     0.040 A 
ATOM     82  F   UNL     1      -3.341   9.530   4.136  1.00  0.00    -0.206 F 
ATOM     83  C   UNL     1      -3.731  12.794   5.657  1.00  0.00     0.006 A 
ENDBRANCH  55  76
BRANCH  67  84
ATOM     84  C   UNL     1      -7.836  11.230  -2.275  1.00  0.00     0.057 A 
ATOM     85  C   UNL     1      -6.672  11.619  -2.950  1.00  0.00     0.134 A 
ATOM     86  C   UNL     1      -9.033  11.867  -2.628  1.00  0.00     0.134 A 
ATOM     87  F   UNL     1      -5.491  11.057  -2.648  1.00  0.00    -0.206 F 
ATOM     88  C   UNL     1      -6.693  12.620  -3.922  1.00  0.00     0.040 A 
ATOM     89  C   UNL     1      -9.072  12.848  -3.620  1.00  0.00     0.040 A 
ATOM     90  F   UNL     1     -10.185  11.535  -2.028  1.00  0.00    -0.206 F 
ATOM     91  C   UNL     1      -7.898  13.232  -4.264  1.00  0.00     0.006 A 
ENDBRANCH  67  84
ENDBRANCH  41  42
ENDBRANCH  33  36
ENDBRANCH  31  32
ENDBRANCH  30  31
ENDBRANCH  29  30
ENDBRANCH   1  29
TORSDOF 16
