REMARK SMILES C#CCNC(=O)[C@H](C)S(=O)(=O)c1ccc(C(=O)NCCCCCCNC(=O)c2ccc(-c3c4nc(c(-c5c(F)cccc5F)c5ccc([nH]5)c(-c5c(F)cccc5F)c5nc(c(-c6c(F)cccc6F)c6ccc3[nH]6)C=C5)C=C4)cc2)cc1F
REMARK SMILES IDX 20 1 19 2 18 3 16 4 17 5 15 7 12 8 13 9 83 10 14 11 82 12
REMARK SMILES IDX 84 13 9 14 10 15 11 16 7 17 8 18 5 19 4 20 6 22 3 23 2 24
REMARK SMILES IDX 1 25 21 26 22 27 23 28 24 29 25 30 26 31 27 33 28 34 29 35
REMARK SMILES IDX 81 36 30 37 80 38 31 39 32 40 33 41 74 42 34 43 79 44 73 45
REMARK SMILES IDX 75 46 35 47 78 48 72 49 71 50 36 52 62 53 45 54 61 55 46 56
REMARK SMILES IDX 49 57 60 58 76 59 47 60 48 61 59 63 77 64 50 65 37 66 38 67
REMARK SMILES IDX 43 68 39 69 40 70 42 71 44 72 41 73 63 74 64 75 69 76 65 77
REMARK SMILES IDX 66 78 68 79 70 80 67 81 51 82 52 83 57 84 53 85 54 86 56 87
REMARK SMILES IDX 58 88 55 89
REMARK H PARENT 18 6 4 21 25 32 75 51 49 62
REMARK Flexibility Score: inf
ROOT
ATOM      1  C   UNL     1      -1.043  -1.300  -5.050  1.00  0.00     0.021 C 
ENDROOT
BRANCH   1   2
ATOM      2  C   UNL     1      -0.590  -0.291  -3.993  1.00  0.00     0.116 C 
BRANCH   2   3
ATOM      3  N   UNL     1      -1.010   1.046  -4.367  1.00  0.00    -0.352 N 
ATOM      4  C   UNL     1      -2.152   1.772  -4.147  1.00  0.00     0.251 C 
ATOM      5  O   UNL     1      -2.229   2.873  -4.693  1.00  0.00    -0.269 OA
ATOM      6  H   UNL     1      -0.333   1.534  -4.889  1.00  0.00     0.163 HD
BRANCH   4   7
ATOM      7  C   UNL     1      -3.236   1.361  -3.207  1.00  0.00     0.042 A 
ATOM      8  C   UNL     1      -4.913   0.878  -1.012  1.00  0.00     0.103 A 
ATOM      9  C   UNL     1      -4.828   2.167  -1.537  1.00  0.00     0.024 A 
ATOM     10  C   UNL     1      -4.347  -0.179  -1.710  1.00  0.00     0.142 A 
ATOM     11  C   UNL     1      -3.983   2.403  -2.627  1.00  0.00     0.015 A 
ATOM     12  C   UNL     1      -3.512   0.055  -2.805  1.00  0.00     0.054 A 
ATOM     13  F   UNL     1      -4.492  -1.442  -1.294  1.00  0.00    -0.206 F 
BRANCH   8  14
ATOM     14  S   UNL     1      -5.633   0.616   0.581  1.00  0.00     0.192 S 
ATOM     15  O   UNL     1      -6.594  -0.455   0.406  1.00  0.00    -0.223 OA
ATOM     16  O   UNL     1      -6.099   1.917   1.032  1.00  0.00    -0.223 OA
BRANCH  14  17
ATOM     17  C   UNL     1      -4.390   0.067   1.712  1.00  0.00     0.199 C 
ATOM     18  C   UNL     1      -3.566  -1.146   1.329  1.00  0.00     0.036 C 
BRANCH  17  19
ATOM     19  C   UNL     1      -3.552   1.154   2.335  1.00  0.00     0.239 C 
ATOM     20  N   UNL     1      -2.457   1.712   1.762  1.00  0.00    -0.344 N 
ATOM     21  H   UNL     1      -1.816   2.071   2.418  1.00  0.00     0.164 HD
ATOM     22  O   UNL     1      -3.750   1.473   3.514  1.00  0.00    -0.274 OA
BRANCH  20  23
ATOM     23  C   UNL     1      -2.029   1.895   0.389  1.00  0.00     0.206 C 
BRANCH  23  24
ATOM     24  C   UNL     1      -2.310   3.355   0.076  1.00  0.00    -0.085 C 
ATOM     25  C   UNL     1      -2.551   4.608  -0.192  1.00  0.00     0.006 C 
ENDBRANCH  23  24
ENDBRANCH  20  23
ENDBRANCH  17  19
ENDBRANCH  14  17
ENDBRANCH   8  14
ENDBRANCH   4   7
ENDBRANCH   2   3
ENDBRANCH   1   2
BRANCH   1  26
ATOM     26  C   UNL     1      -0.193  -1.275  -6.327  1.00  0.00     0.002 C 
BRANCH  26  27
ATOM     27  C   UNL     1       1.230  -1.824  -6.175  1.00  0.00     0.002 C 
BRANCH  27  28
ATOM     28  C   UNL     1       1.339  -3.224  -5.563  1.00  0.00     0.021 C 
BRANCH  28  29
ATOM     29  C   UNL     1       0.524  -4.309  -6.264  1.00  0.00     0.116 C 
BRANCH  29  30
ATOM     30  N   UNL     1       0.996  -4.571  -7.610  1.00  0.00    -0.352 N 
ATOM     31  C   UNL     1       1.190  -5.771  -8.246  1.00  0.00     0.251 C 
ATOM     32  H   UNL     1       1.207  -3.772  -8.145  1.00  0.00     0.163 HD
ATOM     33  O   UNL     1       1.750  -5.797  -9.338  1.00  0.00    -0.269 OA
BRANCH  31  34
ATOM     34  C   UNL     1       0.745  -7.040  -7.624  1.00  0.00     0.039 A 
ATOM     35  C   UNL     1       1.585  -8.155  -7.715  1.00  0.00     0.014 A 
ATOM     36  C   UNL     1      -0.512  -7.163  -7.024  1.00  0.00     0.014 A 
ATOM     37  C   UNL     1       1.178  -9.383  -7.188  1.00  0.00     0.010 A 
ATOM     38  C   UNL     1      -0.900  -8.378  -6.455  1.00  0.00     0.010 A 
ATOM     39  C   UNL     1      -0.066  -9.503  -6.550  1.00  0.00    -0.014 A 
BRANCH  39  40
ATOM     40  C   UNL     1      -0.531 -10.815  -6.036  1.00  0.00     0.031 A 
ATOM     41  C   UNL     1      -1.658 -11.534  -6.725  1.00  0.00     0.074 A 
ATOM     42  C   UNL     1       0.042 -11.353  -4.943  1.00  0.00     0.049 A 
ATOM     43  N   UNL     1      -2.234 -12.665  -6.406  1.00  0.00    -0.248 NA
ATOM     44  C   UNL     1      -2.223 -10.886  -7.919  1.00  0.00     0.031 C 
ATOM     45  C   UNL     1       1.128 -10.748  -4.172  1.00  0.00     0.029 A 
ATOM     46  N   UNL     1      -0.212 -12.535  -4.294  1.00  0.00    -0.354 N 
ATOM     47  C   UNL     1      -3.240 -12.853  -7.345  1.00  0.00     0.074 A 
ATOM     48  C   UNL     1      -3.217 -11.706  -8.227  1.00  0.00     0.031 C 
ATOM     49  C   UNL     1       1.464 -11.574  -3.167  1.00  0.00     0.029 A 
ATOM     50  C   UNL     1       0.605 -12.755  -3.212  1.00  0.00     0.049 A 
ATOM     51  H   UNL     1      -0.912 -13.166  -4.577  1.00  0.00     0.167 HD
ATOM     52  C   UNL     1      -4.095 -13.896  -7.473  1.00  0.00     0.037 A 
ATOM     53  C   UNL     1       0.659 -13.794  -2.358  1.00  0.00     0.037 A 
ATOM     54  C   UNL     1      -4.096 -15.055  -6.623  1.00  0.00     0.049 A 
ATOM     55  C   UNL     1      -0.275 -14.956  -2.542  1.00  0.00     0.074 A 
ATOM     56  C   UNL     1      -4.910 -16.173  -6.690  1.00  0.00     0.029 A 
ATOM     57  N   UNL     1      -3.230 -15.252  -5.559  1.00  0.00    -0.354 N 
ATOM     58  N   UNL     1      -1.209 -15.128  -3.444  1.00  0.00    -0.248 NA
ATOM     59  C   UNL     1      -0.141 -16.073  -1.594  1.00  0.00     0.031 C 
ATOM     60  C   UNL     1      -4.544 -17.042  -5.656  1.00  0.00     0.029 A 
ATOM     61  C   UNL     1      -3.486 -16.475  -4.964  1.00  0.00     0.049 A 
ATOM     62  H   UNL     1      -2.536 -14.617  -5.270  1.00  0.00     0.167 HD
ATOM     63  C   UNL     1      -1.758 -16.377  -3.191  1.00  0.00     0.074 A 
ATOM     64  C   UNL     1      -1.050 -16.925  -2.052  1.00  0.00     0.031 C 
ATOM     65  C   UNL     1      -2.760 -17.013  -3.844  1.00  0.00     0.037 A 
BRANCH  52  66
ATOM     66  C   UNL     1      -5.099 -13.831  -8.583  1.00  0.00     0.057 A 
ATOM     67  C   UNL     1      -6.450 -13.584  -8.312  1.00  0.00     0.134 A 
ATOM     68  C   UNL     1      -4.732 -14.049  -9.916  1.00  0.00     0.134 A 
ATOM     69  F   UNL     1      -6.865 -13.371  -7.055  1.00  0.00    -0.206 F 
ATOM     70  C   UNL     1      -7.404 -13.561  -9.331  1.00  0.00     0.040 A 
ATOM     71  C   UNL     1      -5.673 -14.008 -10.946  1.00  0.00     0.040 A 
ATOM     72  F   UNL     1      -3.450 -14.276 -10.240  1.00  0.00    -0.206 F 
ATOM     73  C   UNL     1      -7.015 -13.770 -10.653  1.00  0.00     0.006 A 
ENDBRANCH  52  66
BRANCH  53  74
ATOM     74  C   UNL     1       1.673 -13.801  -1.277  1.00  0.00     0.057 A 
ATOM     75  C   UNL     1       1.536 -12.998  -0.140  1.00  0.00     0.134 A 
ATOM     76  C   UNL     1       2.814 -14.604  -1.371  1.00  0.00     0.134 A 
ATOM     77  F   UNL     1       0.466 -12.203   0.003  1.00  0.00    -0.206 F 
ATOM     78  C   UNL     1       2.506 -12.986   0.864  1.00  0.00     0.040 A 
ATOM     79  C   UNL     1       3.784 -14.614  -0.368  1.00  0.00     0.040 A 
ATOM     80  F   UNL     1       2.989 -15.406  -2.432  1.00  0.00    -0.206 F 
ATOM     81  C   UNL     1       3.633 -13.799   0.752  1.00  0.00     0.006 A 
ENDBRANCH  53  74
BRANCH  65  82
ATOM     82  C   UNL     1      -3.131 -18.384  -3.373  1.00  0.00     0.057 A 
ATOM     83  C   UNL     1      -2.752 -19.515  -4.106  1.00  0.00     0.134 A 
ATOM     84  C   UNL     1      -3.921 -18.580  -2.234  1.00  0.00     0.134 A 
ATOM     85  F   UNL     1      -2.000 -19.390  -5.210  1.00  0.00    -0.206 F 
ATOM     86  C   UNL     1      -3.153 -20.796  -3.726  1.00  0.00     0.040 A 
ATOM     87  C   UNL     1      -4.316 -19.858  -1.836  1.00  0.00     0.040 A 
ATOM     88  F   UNL     1      -4.308 -17.535  -1.488  1.00  0.00    -0.206 F 
ATOM     89  C   UNL     1      -3.938 -20.970  -2.587  1.00  0.00     0.006 A 
ENDBRANCH  65  82
ENDBRANCH  39  40
ENDBRANCH  31  34
ENDBRANCH  29  30
ENDBRANCH  28  29
ENDBRANCH  27  28
ENDBRANCH  26  27
ENDBRANCH   1  26
TORSDOF 18
