REMARK SMILES CCCCCCNC(=O)Oc1cccc(-c2ccc([C@@H](C)C(=O)NCCCCCCNC(=O)c3ccc(-c4c5nc(c(-c6c(F)cccc6F)c6ccc([nH]6)c(-c6c(F)cccc6F)c6nc(c(-c7c(F)cccc7F)c7ccc4[nH]7)C=C6)C=C5)cc3)cc2F)c1
REMARK SMILES IDX 22 1 23 2 24 3 20 5 21 6 19 7 16 8 17 9 89 10 18 11 88 12
REMARK SMILES IDX 90 13 15 14 11 15 12 16 91 17 13 18 14 19 10 20 8 21 7 22
REMARK SMILES IDX 9 24 6 25 5 26 4 27 3 28 2 29 1 30 25 31 26 32 27 33 28 34
REMARK SMILES IDX 29 35 30 36 31 37 32 38 33 40 34 41 35 42 87 43 36 44 86 45
REMARK SMILES IDX 37 46 38 47 39 48 80 49 40 50 85 51 79 52 81 53 41 54 84 55
REMARK SMILES IDX 78 56 77 57 42 59 68 60 51 61 67 62 52 63 55 64 66 65 82 66
REMARK SMILES IDX 53 67 54 68 65 70 83 71 56 72 43 73 44 74 49 75 45 76 46 77
REMARK SMILES IDX 48 78 50 79 47 80 69 81 70 82 75 83 71 84 72 85 74 86 76 87
REMARK SMILES IDX 73 88 57 89 58 90 63 91 59 92 60 93 62 94 64 95 61 96
REMARK H PARENT 24 4 7 23 31 39 81 58 55 69
REMARK Flexibility Score: inf
ROOT
ATOM      1  C   UNL     1      -3.309   3.147 -13.861  1.00  0.00     0.227 C 
ATOM      2  O   UNL     1      -2.413   2.313 -14.036  1.00  0.00    -0.274 OA
ATOM      3  N   UNL     1      -2.991   4.442 -14.130  1.00  0.00    -0.356 N 
ATOM      4  H   UNL     1      -2.090   4.566 -14.508  1.00  0.00     0.163 HD
ENDROOT
BRANCH   1   5
ATOM      5  C   UNL     1      -4.695   2.691 -13.378  1.00  0.00     0.105 C 
ATOM      6  C   UNL     1      -5.826   3.000 -14.358  1.00  0.00     0.023 C 
BRANCH   5   7
ATOM      7  C   UNL     1      -4.965   3.019 -11.918  1.00  0.00    -0.033 A 
ATOM      8  C   UNL     1      -5.253   3.637  -9.137  1.00  0.00     0.018 A 
ATOM      9  C   UNL     1      -5.689   4.519 -10.139  1.00  0.00     0.012 A 
ATOM     10  C   UNL     1      -4.717   2.416  -9.570  1.00  0.00     0.131 A 
ATOM     11  C   UNL     1      -5.578   4.203 -11.499  1.00  0.00     0.005 A 
ATOM     12  C   UNL     1      -4.555   2.118 -10.926  1.00  0.00     0.044 A 
ATOM     13  F   UNL     1      -4.334   1.485  -8.682  1.00  0.00    -0.206 F 
BRANCH   8  14
ATOM     14  C   UNL     1      -5.334   4.017  -7.709  1.00  0.00    -0.012 A 
ATOM     15  C   UNL     1      -4.383   4.082  -5.469  1.00  0.00     0.133 A 
ATOM     16  C   UNL     1      -5.456   4.828  -4.995  1.00  0.00     0.047 A 
ATOM     17  C   UNL     1      -4.318   3.670  -6.802  1.00  0.00     0.056 A 
ATOM     18  C   UNL     1      -6.474   5.180  -5.872  1.00  0.00     0.004 A 
ATOM     19  C   UNL     1      -6.416   4.773  -7.210  1.00  0.00     0.009 A 
BRANCH  15  20
ATOM     20  O   UNL     1      -3.434   3.658  -4.527  1.00  0.00    -0.410 OA
BRANCH  20  21
ATOM     21  C   UNL     1      -2.099   3.935  -4.778  1.00  0.00     0.412 C 
ATOM     22  N   UNL     1      -1.261   3.410  -3.832  1.00  0.00    -0.321 N 
ATOM     23  H   UNL     1      -0.299   3.579  -3.951  1.00  0.00     0.167 HD
ATOM     24  O   UNL     1      -1.659   4.586  -5.718  1.00  0.00    -0.224 OA
BRANCH  22  25
ATOM     25  C   UNL     1      -1.646   2.630  -2.673  1.00  0.00     0.119 C 
BRANCH  25  26
ATOM     26  C   UNL     1      -1.036   1.229  -2.696  1.00  0.00     0.021 C 
BRANCH  26  27
ATOM     27  C   UNL     1       0.494   1.193  -2.599  1.00  0.00     0.002 C 
BRANCH  27  28
ATOM     28  C   UNL     1       1.094   1.862  -1.357  1.00  0.00    -0.000 C 
BRANCH  28  29
ATOM     29  C   UNL     1       0.607   1.311  -0.014  1.00  0.00    -0.003 C 
ATOM     30  C   UNL     1       0.967  -0.150   0.203  1.00  0.00     0.004 C 
ENDBRANCH  28  29
ENDBRANCH  27  28
ENDBRANCH  26  27
ENDBRANCH  25  26
ENDBRANCH  22  25
ENDBRANCH  20  21
ENDBRANCH  15  20
ENDBRANCH   8  14
ENDBRANCH   5   7
ENDBRANCH   1   5
BRANCH   3  31
ATOM     31  C   UNL     1      -3.737   5.671 -13.963  1.00  0.00     0.116 C 
BRANCH  31  32
ATOM     32  C   UNL     1      -3.279   6.450 -12.728  1.00  0.00     0.021 C 
BRANCH  32  33
ATOM     33  C   UNL     1      -2.126   7.422 -13.001  1.00  0.00     0.002 C 
BRANCH  33  34
ATOM     34  C   UNL     1      -2.450   8.558 -13.980  1.00  0.00     0.002 C 
BRANCH  34  35
ATOM     35  C   UNL     1      -3.670   9.412 -13.620  1.00  0.00     0.021 C 
BRANCH  35  36
ATOM     36  C   UNL     1      -3.576  10.124 -12.272  1.00  0.00     0.116 C 
BRANCH  36  37
ATOM     37  N   UNL     1      -2.473  11.071 -12.236  1.00  0.00    -0.352 N 
ATOM     38  C   UNL     1      -2.484  12.428 -12.037  1.00  0.00     0.251 C 
ATOM     39  H   UNL     1      -1.581  10.678 -12.375  1.00  0.00     0.163 HD
ATOM     40  O   UNL     1      -1.479  13.091 -12.274  1.00  0.00    -0.269 OA
BRANCH  38  41
ATOM     41  C   UNL     1      -3.706  13.101 -11.547  1.00  0.00     0.039 A 
ATOM     42  C   UNL     1      -4.081  14.319 -12.119  1.00  0.00     0.014 A 
ATOM     43  C   UNL     1      -4.456  12.557 -10.500  1.00  0.00     0.014 A 
ATOM     44  C   UNL     1      -5.238  14.965 -11.679  1.00  0.00     0.010 A 
ATOM     45  C   UNL     1      -5.646  13.167 -10.108  1.00  0.00     0.010 A 
ATOM     46  C   UNL     1      -6.045  14.380 -10.690  1.00  0.00    -0.014 A 
BRANCH  46  47
ATOM     47  C   UNL     1      -7.312  15.021 -10.257  1.00  0.00     0.031 A 
ATOM     48  C   UNL     1      -7.466  15.529  -8.851  1.00  0.00     0.074 A 
ATOM     49  C   UNL     1      -8.346  15.093 -11.117  1.00  0.00     0.049 A 
ATOM     50  N   UNL     1      -8.510  16.072  -8.277  1.00  0.00    -0.248 NA
ATOM     51  C   UNL     1      -6.301  15.385  -7.963  1.00  0.00     0.031 C 
ATOM     52  C   UNL     1      -8.338  14.591 -12.492  1.00  0.00     0.029 A 
ATOM     53  N   UNL     1      -9.608  15.607 -10.958  1.00  0.00    -0.354 N 
ATOM     54  C   UNL     1      -8.134  16.321  -6.963  1.00  0.00     0.074 A 
ATOM     55  C   UNL     1      -6.784  15.823  -6.810  1.00  0.00     0.031 C 
ATOM     56  C   UNL     1      -9.529  14.843 -13.058  1.00  0.00     0.029 A 
ATOM     57  C   UNL     1     -10.395  15.491 -12.078  1.00  0.00     0.049 A 
ATOM     58  H   UNL     1      -9.920  16.021 -10.121  1.00  0.00     0.167 HD
ATOM     59  C   UNL     1      -8.841  16.928  -5.981  1.00  0.00     0.037 A 
ATOM     60  C   UNL     1     -11.671  15.862 -12.290  1.00  0.00     0.037 A 
ATOM     61  C   UNL     1     -10.176  17.442  -6.143  1.00  0.00     0.049 A 
ATOM     62  C   UNL     1     -12.434  16.534 -11.184  1.00  0.00     0.074 A 
ATOM     63  C   UNL     1     -10.953  18.131  -5.227  1.00  0.00     0.029 A 
ATOM     64  N   UNL     1     -10.935  17.319  -7.297  1.00  0.00    -0.354 N 
ATOM     65  N   UNL     1     -12.042  16.827  -9.969  1.00  0.00    -0.248 NA
ATOM     66  C   UNL     1     -13.817  16.934 -11.483  1.00  0.00     0.031 C 
ATOM     67  C   UNL     1     -12.197  18.387  -5.814  1.00  0.00     0.029 A 
ATOM     68  C   UNL     1     -12.179  17.898  -7.110  1.00  0.00     0.049 A 
ATOM     69  H   UNL     1     -10.633  16.884  -8.127  1.00  0.00     0.167 HD
ATOM     70  C   UNL     1     -13.117  17.466  -9.365  1.00  0.00     0.074 A 
ATOM     71  C   UNL     1     -14.173  17.532 -10.354  1.00  0.00     0.031 C 
ATOM     72  C   UNL     1     -13.220  17.954  -8.105  1.00  0.00     0.037 A 
BRANCH  59  73
ATOM     73  C   UNL     1      -8.179  17.070  -4.640  1.00  0.00     0.057 A 
ATOM     74  C   UNL     1      -7.107  17.949  -4.435  1.00  0.00     0.134 A 
ATOM     75  C   UNL     1      -8.636  16.341  -3.535  1.00  0.00     0.134 A 
ATOM     76  F   UNL     1      -6.613  18.668  -5.454  1.00  0.00    -0.206 F 
ATOM     77  C   UNL     1      -6.494  18.075  -3.187  1.00  0.00     0.040 A 
ATOM     78  C   UNL     1      -8.049  16.480  -2.276  1.00  0.00     0.040 A 
ATOM     79  F   UNL     1      -9.664  15.488  -3.658  1.00  0.00    -0.206 F 
ATOM     80  C   UNL     1      -6.970  17.343  -2.101  1.00  0.00     0.006 A 
ENDBRANCH  59  73
BRANCH  60  81
ATOM     81  C   UNL     1     -12.299  15.628 -13.615  1.00  0.00     0.057 A 
ATOM     82  C   UNL     1     -12.578  16.694 -14.477  1.00  0.00     0.134 A 
ATOM     83  C   UNL     1     -12.629  14.340 -14.052  1.00  0.00     0.134 A 
ATOM     84  F   UNL     1     -12.300  17.953 -14.106  1.00  0.00    -0.206 F 
ATOM     85  C   UNL     1     -13.179  16.491 -15.720  1.00  0.00     0.040 A 
ATOM     86  C   UNL     1     -13.208  14.120 -15.302  1.00  0.00     0.040 A 
ATOM     87  F   UNL     1     -12.378  13.276 -13.275  1.00  0.00    -0.206 F 
ATOM     88  C   UNL     1     -13.491  15.198 -16.138  1.00  0.00     0.006 A 
ENDBRANCH  60  81
BRANCH  72  89
ATOM     89  C   UNL     1     -14.511  18.624  -7.735  1.00  0.00     0.057 A 
ATOM     90  C   UNL     1     -15.688  17.894  -7.525  1.00  0.00     0.134 A 
ATOM     91  C   UNL     1     -14.569  20.012  -7.555  1.00  0.00     0.134 A 
ATOM     92  F   UNL     1     -15.702  16.563  -7.695  1.00  0.00    -0.206 F 
ATOM     93  C   UNL     1     -16.883  18.524  -7.174  1.00  0.00     0.040 A 
ATOM     94  C   UNL     1     -15.751  20.650  -7.178  1.00  0.00     0.040 A 
ATOM     95  F   UNL     1     -13.475  20.768  -7.732  1.00  0.00    -0.206 F 
ATOM     96  C   UNL     1     -16.915  19.906  -6.993  1.00  0.00     0.006 A 
ENDBRANCH  72  89
ENDBRANCH  46  47
ENDBRANCH  38  41
ENDBRANCH  36  37
ENDBRANCH  35  36
ENDBRANCH  34  35
ENDBRANCH  33  34
ENDBRANCH  32  33
ENDBRANCH  31  32
ENDBRANCH   3  31
TORSDOF 22
