REMARK SMILES CCN(C(=O)Cc1c(C(=O)NCCCCCCNC(=O)c2ccc(-c3c4nc(c(-c5c(F)cccc5F)c5ccc([nH]5)c(-c5c(F)cccc5F)c5nc(c(-c6c(F)cccc6F)c6ccc3[nH]6)C=C5)C=C4)cc2)[nH]c2ccccc12)c1cccc(C)c1
REMARK SMILES IDX 13 1 12 2 11 3 9 4 10 5 8 7 7 8 81 9 75 10 76 11 80 12 77 14
REMARK SMILES IDX 79 15 78 16 6 17 4 18 5 19 3 20 2 21 1 22 82 23 83 24 88 25
REMARK SMILES IDX 84 26 86 27 85 28 87 29 14 30 15 31 16 32 17 33 18 34 19 35
REMARK SMILES IDX 20 37 21 38 22 39 74 40 23 41 73 42 24 43 25 44 26 45 67 46
REMARK SMILES IDX 27 47 72 48 66 49 68 50 28 51 71 52 65 53 64 54 29 56 55 57
REMARK SMILES IDX 38 58 54 59 39 60 42 61 53 62 69 63 40 64 41 65 52 67 70 68
REMARK SMILES IDX 43 69 30 70 31 71 36 72 32 73 33 74 35 75 37 76 34 77 56 78
REMARK SMILES IDX 57 79 62 80 58 81 59 82 61 83 63 84 60 85 44 86 45 87 50 88
REMARK SMILES IDX 46 89 47 90 49 91 51 92 48 93
REMARK H PARENT 11 6 75 13 18 36 68 55 42 66
REMARK Flexibility Score: inf
ROOT
ATOM      1  C   UNL     1      -1.762  -5.379  -3.486  1.00  0.00     0.021 C 
ENDROOT
BRANCH   1   2
ATOM      2  C   UNL     1      -0.728  -4.367  -2.985  1.00  0.00     0.116 C 
BRANCH   2   3
ATOM      3  N   UNL     1      -0.743  -3.200  -3.837  1.00  0.00    -0.351 N 
ATOM      4  C   UNL     1      -1.270  -1.944  -3.723  1.00  0.00     0.268 C 
ATOM      5  O   UNL     1      -1.254  -1.272  -4.752  1.00  0.00    -0.268 OA
ATOM      6  H   UNL     1      -0.269  -3.341  -4.688  1.00  0.00     0.163 HD
BRANCH   4   7
ATOM      7  C   UNL     1      -1.789  -1.426  -2.472  1.00  0.00     0.109 A 
ATOM      8  C   UNL     1      -1.872  -0.079  -2.095  1.00  0.00    -0.000 A 
ATOM      9  C   UNL     1      -2.525  -0.024  -0.819  1.00  0.00     0.004 A 
ATOM     10  N   UNL     1      -2.358  -2.144  -1.447  1.00  0.00    -0.350 N 
ATOM     11  C   UNL     1      -2.730  -1.334  -0.402  1.00  0.00     0.046 A 
ATOM     12  C   UNL     1      -2.925   1.022   0.041  1.00  0.00     0.010 A 
ATOM     13  H   UNL     1      -2.484  -3.120  -1.460  1.00  0.00     0.167 HD
ATOM     14  C   UNL     1      -3.249  -1.661   0.856  1.00  0.00     0.027 A 
ATOM     15  C   UNL     1      -3.458   0.717   1.298  1.00  0.00     0.001 A 
ATOM     16  C   UNL     1      -3.599  -0.607   1.705  1.00  0.00     0.002 A 
BRANCH   8  17
ATOM     17  C   UNL     1      -1.386   1.118  -2.873  1.00  0.00     0.139 C 
BRANCH  17  18
ATOM     18  C   UNL     1       0.099   1.105  -3.251  1.00  0.00     0.231 C 
ATOM     19  O   UNL     1       0.386   1.180  -4.452  1.00  0.00    -0.274 OA
BRANCH  18  20
ATOM     20  N   UNL     1       1.073   1.044  -2.235  1.00  0.00    -0.312 N 
BRANCH  20  21
ATOM     21  C   UNL     1       0.770   1.284  -0.811  1.00  0.00     0.122 C 
ATOM     22  C   UNL     1       0.732   0.053   0.086  1.00  0.00     0.028 C 
ENDBRANCH  20  21
BRANCH  20  23
ATOM     23  C   UNL     1       2.470   0.957  -2.582  1.00  0.00     0.044 A 
ATOM     24  C   UNL     1       3.008   1.694  -3.644  1.00  0.00     0.026 A 
ATOM     25  C   UNL     1       3.340   0.133  -1.853  1.00  0.00     0.029 A 
ATOM     26  C   UNL     1       4.368   1.622  -3.957  1.00  0.00     0.002 A 
ATOM     27  C   UNL     1       4.707   0.047  -2.159  1.00  0.00    -0.049 A 
ATOM     28  C   UNL     1       5.216   0.803  -3.217  1.00  0.00     0.003 A 
ATOM     29  C   UNL     1       5.608  -0.872  -1.389  1.00  0.00     0.044 C 
ENDBRANCH  20  23
ENDBRANCH  18  20
ENDBRANCH  17  18
ENDBRANCH   8  17
ENDBRANCH   4   7
ENDBRANCH   2   3
ENDBRANCH   1   2
BRANCH   1  30
ATOM     30  C   UNL     1      -1.356  -6.069  -4.799  1.00  0.00     0.002 C 
BRANCH  30  31
ATOM     31  C   UNL     1      -0.047  -6.866  -4.736  1.00  0.00     0.002 C 
BRANCH  31  32
ATOM     32  C   UNL     1       0.032  -7.891  -3.602  1.00  0.00     0.021 C 
BRANCH  32  33
ATOM     33  C   UNL     1      -1.061  -8.954  -3.631  1.00  0.00     0.116 C 
BRANCH  33  34
ATOM     34  N   UNL     1      -0.968  -9.795  -4.811  1.00  0.00    -0.352 N 
ATOM     35  C   UNL     1      -0.961 -11.162  -4.909  1.00  0.00     0.251 C 
ATOM     36  H   UNL     1      -0.899  -9.312  -5.666  1.00  0.00     0.163 HD
ATOM     37  O   UNL     1      -0.669 -11.695  -5.976  1.00  0.00    -0.269 OA
BRANCH  35  38
ATOM     38  C   UNL     1      -1.295 -12.002  -3.738  1.00  0.00     0.039 A 
ATOM     39  C   UNL     1      -0.564 -13.174  -3.528  1.00  0.00     0.014 A 
ATOM     40  C   UNL     1      -2.358 -11.679  -2.888  1.00  0.00     0.014 A 
ATOM     41  C   UNL     1      -0.886 -14.012  -2.459  1.00  0.00     0.010 A 
ATOM     42  C   UNL     1      -2.634 -12.480  -1.781  1.00  0.00     0.010 A 
ATOM     43  C   UNL     1      -1.919 -13.668  -1.572  1.00  0.00    -0.014 A 
BRANCH  43  44
ATOM     44  C   UNL     1      -2.289 -14.576  -0.459  1.00  0.00     0.031 A 
ATOM     45  C   UNL     1      -3.625 -15.268  -0.459  1.00  0.00     0.074 A 
ATOM     46  C   UNL     1      -1.430 -14.768   0.560  1.00  0.00     0.049 A 
ATOM     47  N   UNL     1      -4.123 -16.108   0.413  1.00  0.00    -0.248 NA
ATOM     48  C   UNL     1      -4.534 -14.955  -1.574  1.00  0.00     0.031 C 
ATOM     49  C   UNL     1      -0.127 -14.117   0.703  1.00  0.00     0.029 A 
ATOM     50  N   UNL     1      -1.524 -15.572   1.668  1.00  0.00    -0.354 N 
ATOM     51  C   UNL     1      -5.400 -16.413  -0.041  1.00  0.00     0.074 A 
ATOM     52  C   UNL     1      -5.624 -15.625  -1.233  1.00  0.00     0.031 C 
ATOM     53  C   UNL     1       0.470 -14.571   1.817  1.00  0.00     0.029 A 
ATOM     54  C   UNL     1      -0.415 -15.527   2.475  1.00  0.00     0.049 A 
ATOM     55  H   UNL     1      -2.313 -16.128   1.865  1.00  0.00     0.167 HD
ATOM     56  C   UNL     1      -6.296 -17.290   0.471  1.00  0.00     0.037 A 
ATOM     57  C   UNL     1      -0.138 -16.195   3.611  1.00  0.00     0.037 A 
ATOM     58  C   UNL     1      -6.061 -18.096   1.640  1.00  0.00     0.049 A 
ATOM     59  C   UNL     1      -1.134 -17.189   4.141  1.00  0.00     0.074 A 
ATOM     60  C   UNL     1      -6.885 -19.050   2.212  1.00  0.00     0.029 A 
ATOM     61  N   UNL     1      -4.911 -18.046   2.412  1.00  0.00    -0.354 N 
ATOM     62  N   UNL     1      -2.311 -17.515   3.665  1.00  0.00    -0.248 NA
ATOM     63  C   UNL     1      -0.753 -17.921   5.356  1.00  0.00     0.031 C 
ATOM     64  C   UNL     1      -6.245 -19.555   3.350  1.00  0.00     0.029 A 
ATOM     65  C   UNL     1      -5.006 -18.946   3.461  1.00  0.00     0.049 A 
ATOM     66  H   UNL     1      -4.140 -17.458   2.240  1.00  0.00     0.167 HD
ATOM     67  C   UNL     1      -2.798 -18.510   4.502  1.00  0.00     0.074 A 
ATOM     68  C   UNL     1      -1.780 -18.744   5.507  1.00  0.00     0.031 C 
ATOM     69  C   UNL     1      -3.980 -19.171   4.446  1.00  0.00     0.037 A 
BRANCH  56  70
ATOM     70  C   UNL     1      -7.611 -17.426  -0.241  1.00  0.00     0.057 A 
ATOM     71  C   UNL     1      -7.709 -18.040  -1.497  1.00  0.00     0.134 A 
ATOM     72  C   UNL     1      -8.795 -16.959   0.343  1.00  0.00     0.134 A 
ATOM     73  F   UNL     1      -6.611 -18.497  -2.118  1.00  0.00    -0.206 F 
ATOM     74  C   UNL     1      -8.932 -18.158  -2.160  1.00  0.00     0.040 A 
ATOM     75  C   UNL     1     -10.028 -17.095  -0.298  1.00  0.00     0.040 A 
ATOM     76  F   UNL     1      -8.774 -16.365   1.546  1.00  0.00    -0.206 F 
ATOM     77  C   UNL     1     -10.098 -17.689  -1.556  1.00  0.00     0.006 A 
ENDBRANCH  56  70
BRANCH  57  78
ATOM     78  C   UNL     1       1.160 -15.983   4.299  1.00  0.00     0.057 A 
ATOM     79  C   UNL     1       2.148 -16.975   4.293  1.00  0.00     0.134 A 
ATOM     80  C   UNL     1       1.439 -14.796   4.985  1.00  0.00     0.134 A 
ATOM     81  F   UNL     1       1.931 -18.140   3.667  1.00  0.00    -0.206 F 
ATOM     82  C   UNL     1       3.360 -16.803   4.964  1.00  0.00     0.040 A 
ATOM     83  C   UNL     1       2.656 -14.601   5.640  1.00  0.00     0.040 A 
ATOM     84  F   UNL     1       0.536 -13.805   5.019  1.00  0.00    -0.206 F 
ATOM     85  C   UNL     1       3.617 -15.610   5.638  1.00  0.00     0.006 A 
ENDBRANCH  57  78
BRANCH  69  86
ATOM     86  C   UNL     1      -4.214 -20.235   5.478  1.00  0.00     0.057 A 
ATOM     87  C   UNL     1      -4.465 -19.924   6.820  1.00  0.00     0.134 A 
ATOM     88  C   UNL     1      -4.198 -21.589   5.118  1.00  0.00     0.134 A 
ATOM     89  F   UNL     1      -4.480 -18.646   7.230  1.00  0.00    -0.206 F 
ATOM     90  C   UNL     1      -4.661 -20.923   7.775  1.00  0.00     0.040 A 
ATOM     91  C   UNL     1      -4.419 -22.595   6.059  1.00  0.00     0.040 A 
ATOM     92  F   UNL     1      -3.972 -21.955   3.848  1.00  0.00    -0.206 F 
ATOM     93  C   UNL     1      -4.642 -22.263   7.394  1.00  0.00     0.006 A 
ENDBRANCH  69  86
ENDBRANCH  43  44
ENDBRANCH  35  38
ENDBRANCH  33  34
ENDBRANCH  32  33
ENDBRANCH  31  32
ENDBRANCH  30  31
ENDBRANCH   1  30
TORSDOF 18
