REMARK SMILES COc1ccc(CCc2nnc(NC(=O)[C@@H]3[C@@H](C(=O)NCCCCCCNC(=O)c4ccc(-c5c6nc(c(-c7c(F)cccc7F)c7ccc([nH]7)c(-c7c(F)cccc7F)c7nc(c(-c8c(F)cccc8F)c8ccc5[nH]8)C=C7)C=C6)cc4)C3(C)C)s2)cc1
REMARK SMILES IDX 21 1 20 2 18 3 19 4 17 6 16 7 84 8 85 9 86 10 14 11 13 12
REMARK SMILES IDX 15 14 12 15 9 16 10 17 87 18 11 19 8 20 7 21 6 22 3 23 4 24
REMARK SMILES IDX 89 25 5 26 88 27 2 28 1 29 22 30 23 31 24 32 25 33 26 34
REMARK SMILES IDX 27 35 28 36 29 38 30 39 31 40 83 41 32 42 82 43 33 44 34 45
REMARK SMILES IDX 35 46 76 47 36 48 81 49 75 50 77 51 37 52 80 53 74 54 73 55
REMARK SMILES IDX 38 57 64 58 47 59 63 60 48 61 51 62 62 63 78 64 49 65 50 66
REMARK SMILES IDX 61 68 79 69 52 70 39 71 40 72 45 73 41 74 42 75 44 76 46 77
REMARK SMILES IDX 43 78 65 79 66 80 71 81 67 82 68 83 70 84 72 85 69 86 53 87
REMARK SMILES IDX 54 88 59 89 55 90 56 91 58 92 60 93 57 94
REMARK H PARENT 20 5 13 13 27 37 77 56 51 67
REMARK Flexibility Score: inf
ROOT
ATOM      1  C   UNL     1      -3.537   8.116  -0.800  1.00  0.00     0.116 C 
ENDROOT
BRANCH   1   2
ATOM      2  N   UNL     1      -2.307   7.389  -1.063  1.00  0.00    -0.356 N 
ATOM      3  C   UNL     1      -1.966   6.215  -1.684  1.00  0.00     0.224 C 
ATOM      4  O   UNL     1      -0.786   5.879  -1.556  1.00  0.00    -0.275 OA
ATOM      5  H   UNL     1      -1.519   7.857  -0.704  1.00  0.00     0.163 HD
BRANCH   3   6
ATOM      6  C   UNL     1      -2.809   5.332  -2.541  1.00  0.00     0.098 C 
ATOM      7  C   UNL     1      -4.186   5.532  -3.086  1.00  0.00     0.098 C 
ATOM      8  C   UNL     1      -3.945   4.433  -2.041  1.00  0.00    -0.011 C 
ATOM      9  C   UNL     1      -4.653   4.655  -0.726  1.00  0.00     0.013 C 
ATOM     10  C   UNL     1      -3.924   2.975  -2.453  1.00  0.00     0.013 C 
BRANCH   7  11
ATOM     11  C   UNL     1      -4.494   5.220  -4.526  1.00  0.00     0.230 C 
ATOM     12  N   UNL     1      -5.260   6.090  -5.258  1.00  0.00    -0.300 N 
ATOM     13  H   UNL     1      -5.723   5.743  -6.054  1.00  0.00     0.172 HD
ATOM     14  O   UNL     1      -4.162   4.149  -5.037  1.00  0.00    -0.274 OA
BRANCH  12  15
ATOM     15  C   UNL     1      -5.419   7.405  -4.947  1.00  0.00     0.212 A 
ATOM     16  C   UNL     1      -6.386   9.518  -4.609  1.00  0.00     0.119 A 
ATOM     17  N   UNL     1      -5.261   9.379  -3.940  1.00  0.00    -0.142 NA
ATOM     18  S   UNL     1      -6.738   8.206  -5.672  1.00  0.00    -0.080 S 
ATOM     19  N   UNL     1      -4.710   8.137  -4.125  1.00  0.00    -0.120 NA
BRANCH  16  20
ATOM     20  C   UNL     1      -7.317  10.660  -4.409  1.00  0.00     0.074 C 
BRANCH  20  21
ATOM     21  C   UNL     1      -8.408  10.373  -3.367  1.00  0.00     0.043 C 
BRANCH  21  22
ATOM     22  C   UNL     1      -8.005   9.862  -1.994  1.00  0.00    -0.047 A 
ATOM     23  C   UNL     1      -7.723   8.793   0.610  1.00  0.00     0.118 A 
ATOM     24  C   UNL     1      -7.507   7.984  -0.497  1.00  0.00     0.046 A 
ATOM     25  C   UNL     1      -8.039  10.135   0.417  1.00  0.00     0.046 A 
ATOM     26  C   UNL     1      -7.665   8.513  -1.788  1.00  0.00     0.007 A 
ATOM     27  C   UNL     1      -8.134  10.682  -0.870  1.00  0.00     0.007 A 
BRANCH  23  28
ATOM     28  O   UNL     1      -7.886   8.237   1.851  1.00  0.00    -0.497 OA
ATOM     29  C   UNL     1      -6.702   8.119   2.631  1.00  0.00     0.278 C 
ENDBRANCH  23  28
ENDBRANCH  21  22
ENDBRANCH  20  21
ENDBRANCH  16  20
ENDBRANCH  12  15
ENDBRANCH   7  11
ENDBRANCH   3   6
ENDBRANCH   1   2
BRANCH   1  30
ATOM     30  C   UNL     1      -3.871   8.166   0.698  1.00  0.00     0.021 C 
BRANCH  30  31
ATOM     31  C   UNL     1      -3.263   9.226   1.644  1.00  0.00     0.002 C 
BRANCH  31  32
ATOM     32  C   UNL     1      -3.394  10.749   1.435  1.00  0.00     0.002 C 
BRANCH  32  33
ATOM     33  C   UNL     1      -4.706  11.562   1.336  1.00  0.00     0.021 C 
BRANCH  33  34
ATOM     34  C   UNL     1      -5.858  11.612   2.362  1.00  0.00     0.116 C 
BRANCH  34  35
ATOM     35  N   UNL     1      -5.735  12.317   3.618  1.00  0.00    -0.352 N 
ATOM     36  C   UNL     1      -6.794  12.742   4.418  1.00  0.00     0.251 C 
ATOM     37  H   UNL     1      -4.824  12.515   3.934  1.00  0.00     0.163 HD
ATOM     38  O   UNL     1      -6.574  13.414   5.423  1.00  0.00    -0.269 OA
BRANCH  36  39
ATOM     39  C   UNL     1      -8.220  12.425   4.076  1.00  0.00     0.039 A 
ATOM     40  C   UNL     1      -9.132  13.471   3.894  1.00  0.00     0.014 A 
ATOM     41  C   UNL     1      -8.705  11.114   4.058  1.00  0.00     0.014 A 
ATOM     42  C   UNL     1     -10.498  13.207   3.664  1.00  0.00     0.010 A 
ATOM     43  C   UNL     1     -10.066  10.848   3.787  1.00  0.00     0.010 A 
ATOM     44  C   UNL     1     -10.990  11.891   3.600  1.00  0.00    -0.014 A 
BRANCH  44  45
ATOM     45  C   UNL     1     -12.456  11.636   3.377  1.00  0.00     0.031 A 
ATOM     46  C   UNL     1     -13.326  11.036   4.461  1.00  0.00     0.074 A 
ATOM     47  C   UNL     1     -13.042  11.966   2.205  1.00  0.00     0.049 A 
ATOM     48  N   UNL     1     -14.623  10.827   4.470  1.00  0.00    -0.248 NA
ATOM     49  C   UNL     1     -12.647  10.607   5.690  1.00  0.00     0.031 C 
ATOM     50  C   UNL     1     -12.345  12.519   1.045  1.00  0.00     0.029 A 
ATOM     51  N   UNL     1     -14.356  11.894   1.796  1.00  0.00    -0.354 N 
ATOM     52  C   UNL     1     -14.914  10.252   5.704  1.00  0.00     0.074 A 
ATOM     53  C   UNL     1     -13.649  10.092   6.390  1.00  0.00     0.031 C 
ATOM     54  C   UNL     1     -13.237  12.764   0.071  1.00  0.00     0.029 A 
ATOM     55  C   UNL     1     -14.569  12.361   0.519  1.00  0.00     0.049 A 
ATOM     56  H   UNL     1     -15.077  11.540   2.366  1.00  0.00     0.167 HD
ATOM     57  C   UNL     1     -16.116   9.908   6.234  1.00  0.00     0.037 A 
ATOM     58  C   UNL     1     -15.698  12.460  -0.214  1.00  0.00     0.037 A 
ATOM     59  C   UNL     1     -17.385  10.054   5.562  1.00  0.00     0.049 A 
ATOM     60  C   UNL     1     -17.021  12.047   0.379  1.00  0.00     0.074 A 
ATOM     61  C   UNL     1     -18.654   9.766   6.039  1.00  0.00     0.029 A 
ATOM     62  N   UNL     1     -17.547  10.514   4.264  1.00  0.00    -0.354 N 
ATOM     63  N   UNL     1     -17.280  11.576   1.574  1.00  0.00    -0.248 NA
ATOM     64  C   UNL     1     -18.210  12.189  -0.477  1.00  0.00     0.031 C 
ATOM     65  C   UNL     1     -19.576   9.997   5.011  1.00  0.00     0.029 A 
ATOM     66  C   UNL     1     -18.890  10.489   3.914  1.00  0.00     0.049 A 
ATOM     67  H   UNL     1     -16.816  10.814   3.676  1.00  0.00     0.167 HD
ATOM     68  C   UNL     1     -18.658  11.389   1.622  1.00  0.00     0.074 A 
ATOM     69  C   UNL     1     -19.183  11.815   0.343  1.00  0.00     0.031 C 
ATOM     70  C   UNL     1     -19.416  10.909   2.639  1.00  0.00     0.037 A 
BRANCH  57  71
ATOM     71  C   UNL     1     -16.119   9.325   7.623  1.00  0.00     0.057 A 
ATOM     72  C   UNL     1     -15.790  10.093   8.749  1.00  0.00     0.134 A 
ATOM     73  C   UNL     1     -16.482   7.989   7.845  1.00  0.00     0.134 A 
ATOM     74  F   UNL     1     -15.435  11.380   8.613  1.00  0.00    -0.206 F 
ATOM     75  C   UNL     1     -15.777   9.545  10.034  1.00  0.00     0.040 A 
ATOM     76  C   UNL     1     -16.504   7.438   9.129  1.00  0.00     0.040 A 
ATOM     77  F   UNL     1     -16.830   7.198   6.819  1.00  0.00    -0.206 F 
ATOM     78  C   UNL     1     -16.139   8.214  10.227  1.00  0.00     0.006 A 
ENDBRANCH  57  71
BRANCH  58  79
ATOM     79  C   UNL     1     -15.633  12.992  -1.603  1.00  0.00     0.057 A 
ATOM     80  C   UNL     1     -16.193  14.230  -1.939  1.00  0.00     0.134 A 
ATOM     81  C   UNL     1     -15.014  12.268  -2.630  1.00  0.00     0.134 A 
ATOM     82  F   UNL     1     -16.825  14.961  -1.009  1.00  0.00    -0.206 F 
ATOM     83  C   UNL     1     -16.148  14.726  -3.245  1.00  0.00     0.040 A 
ATOM     84  C   UNL     1     -14.937  12.763  -3.933  1.00  0.00     0.040 A 
ATOM     85  F   UNL     1     -14.458  11.074  -2.378  1.00  0.00    -0.206 F 
ATOM     86  C   UNL     1     -15.511  13.994  -4.245  1.00  0.00     0.006 A 
ENDBRANCH  58  79
BRANCH  70  87
ATOM     87  C   UNL     1     -20.903  10.838   2.426  1.00  0.00     0.057 A 
ATOM     88  C   UNL     1     -21.487   9.912   1.552  1.00  0.00     0.134 A 
ATOM     89  C   UNL     1     -21.767  11.683   3.137  1.00  0.00     0.134 A 
ATOM     90  F   UNL     1     -20.720   9.081   0.830  1.00  0.00    -0.206 F 
ATOM     91  C   UNL     1     -22.871   9.845   1.374  1.00  0.00     0.040 A 
ATOM     92  C   UNL     1     -23.154  11.606   2.989  1.00  0.00     0.040 A 
ATOM     93  F   UNL     1     -21.279  12.588   3.998  1.00  0.00    -0.206 F 
ATOM     94  C   UNL     1     -23.709  10.689   2.100  1.00  0.00     0.006 A 
ENDBRANCH  70  87
ENDBRANCH  44  45
ENDBRANCH  36  39
ENDBRANCH  34  35
ENDBRANCH  33  34
ENDBRANCH  32  33
ENDBRANCH  31  32
ENDBRANCH  30  31
ENDBRANCH   1  30
TORSDOF 19
