REMARK SMILES CCN(CCC(=O)NCCCCCCNC(=O)c1ccc(-c2c3nc(c(-c4c(F)cccc4F)c4ccc([nH]4)c(-c4c(F)cccc4F)c4nc(c(-c5c(F)cccc5F)c5ccc2[nH]5)C=C4)C=C3)cc1)C(=O)[C@@H]1C=C[C@@H]([NH3+])C1
REMARK SMILES IDX 10 1 9 2 8 3 6 4 7 5 5 7 4 8 3 9 2 10 1 11 72 12 73 13 74 14
REMARK SMILES IDX 75 15 79 16 76 17 77 18 78 19 11 23 12 24 13 25 14 26 15 27
REMARK SMILES IDX 16 28 17 30 18 31 19 32 71 33 20 34 70 35 21 36 22 37 23 38
REMARK SMILES IDX 64 39 24 40 69 41 63 42 65 43 25 44 68 45 62 46 61 47 26 49
REMARK SMILES IDX 52 50 35 51 51 52 36 53 39 54 50 55 66 56 37 57 38 58 49 60
REMARK SMILES IDX 67 61 40 62 27 63 28 64 33 65 29 66 30 67 32 68 34 69 31 70
REMARK SMILES IDX 53 71 54 72 59 73 55 74 56 75 58 76 60 77 57 78 41 79 42 80
REMARK SMILES IDX 47 81 43 82 44 83 46 84 48 85 45 86
REMARK H PARENT 8 6 78 20 78 21 78 22 15 29 65 48 39 59
REMARK Flexibility Score: inf
ROOT
ATOM      1  C   UNL     1       1.779   4.655   4.629  1.00  0.00     0.021 C 
ENDROOT
BRANCH   1   2
ATOM      2  C   UNL     1       0.511   3.818   4.460  1.00  0.00     0.116 C 
BRANCH   2   3
ATOM      3  N   UNL     1       0.404   3.224   3.136  1.00  0.00    -0.356 N 
ATOM      4  C   UNL     1       0.811   2.011   2.667  1.00  0.00     0.221 C 
ATOM      5  O   UNL     1       0.693   1.774   1.462  1.00  0.00    -0.275 OA
ATOM      6  H   UNL     1      -0.037   3.794   2.466  1.00  0.00     0.163 HD
BRANCH   4   7
ATOM      7  C   UNL     1       1.401   0.974   3.589  1.00  0.00     0.121 C 
BRANCH   7   8
ATOM      8  C   UNL     1       2.882   0.723   3.292  1.00  0.00     0.129 C 
BRANCH   8   9
ATOM      9  N   UNL     1       3.795   1.747   3.833  1.00  0.00    -0.342 N 
BRANCH   9  10
ATOM     10  C   UNL     1       3.856   1.770   5.313  1.00  0.00     0.116 C 
ATOM     11  C   UNL     1       5.027   2.431   6.021  1.00  0.00     0.027 C 
ENDBRANCH   9  10
BRANCH   9  12
ATOM     12  C   UNL     1       4.453   2.712   3.053  1.00  0.00     0.229 C 
ATOM     13  O   UNL     1       5.182   3.567   3.568  1.00  0.00    -0.274 OA
BRANCH  12  14
ATOM     14  C   UNL     1       4.198   2.776   1.523  1.00  0.00     0.107 C 
ATOM     15  C   UNL     1       5.388   3.255   0.729  1.00  0.00    -0.012 C 
ATOM     16  C   UNL     1       3.182   3.874   1.189  1.00  0.00     0.087 C 
ATOM     17  C   UNL     1       5.257   4.531   0.336  1.00  0.00     0.033 C 
ATOM     18  C   UNL     1       4.002   5.128   0.873  1.00  0.00     0.205 C 
BRANCH  18  19
ATOM     19  N   UNL     1       3.301   5.994  -0.054  1.00  0.00    -0.352 N 
ATOM     20  H   UNL     1       3.069   5.472  -0.899  1.00  0.00     0.345 HD
ATOM     21  H   UNL     1       3.897   6.786  -0.296  1.00  0.00     0.345 HD
ATOM     22  H   UNL     1       2.444   6.335   0.381  1.00  0.00     0.345 HD
ENDBRANCH  18  19
ENDBRANCH  12  14
ENDBRANCH   9  12
ENDBRANCH   8   9
ENDBRANCH   7   8
ENDBRANCH   4   7
ENDBRANCH   2   3
ENDBRANCH   1   2
BRANCH   1  23
ATOM     23  C   UNL     1       1.787   5.981   3.860  1.00  0.00     0.002 C 
BRANCH  23  24
ATOM     24  C   UNL     1       1.048   7.128   4.546  1.00  0.00     0.002 C 
BRANCH  24  25
ATOM     25  C   UNL     1       1.543   7.468   5.953  1.00  0.00     0.021 C 
BRANCH  25  26
ATOM     26  C   UNL     1       3.045   7.713   6.057  1.00  0.00     0.116 C 
BRANCH  26  27
ATOM     27  N   UNL     1       3.453   8.925   5.359  1.00  0.00    -0.352 N 
ATOM     28  C   UNL     1       3.863  10.124   5.892  1.00  0.00     0.251 C 
ATOM     29  H   UNL     1       3.432   8.880   4.376  1.00  0.00     0.163 HD
ATOM     30  O   UNL     1       3.982  11.126   5.196  1.00  0.00    -0.269 OA
BRANCH  28  31
ATOM     31  C   UNL     1       4.141  10.189   7.339  1.00  0.00     0.039 A 
ATOM     32  C   UNL     1       3.484  11.137   8.126  1.00  0.00     0.014 A 
ATOM     33  C   UNL     1       5.008   9.258   7.916  1.00  0.00     0.014 A 
ATOM     34  C   UNL     1       3.641  11.103   9.513  1.00  0.00     0.010 A 
ATOM     35  C   UNL     1       5.097   9.175   9.299  1.00  0.00     0.010 A 
ATOM     36  C   UNL     1       4.418  10.098  10.112  1.00  0.00    -0.014 A 
BRANCH  36  37
ATOM     37  C   UNL     1       4.571  10.000  11.585  1.00  0.00     0.031 A 
ATOM     38  C   UNL     1       5.937  10.157  12.195  1.00  0.00     0.074 A 
ATOM     39  C   UNL     1       3.514   9.683  12.358  1.00  0.00     0.049 A 
ATOM     40  N   UNL     1       6.319   9.971  13.432  1.00  0.00    -0.248 NA
ATOM     41  C   UNL     1       7.027  10.538  11.281  1.00  0.00     0.031 C 
ATOM     42  C   UNL     1       2.147   9.461  11.882  1.00  0.00     0.029 A 
ATOM     43  N   UNL     1       3.429   9.473  13.712  1.00  0.00    -0.354 N 
ATOM     44  C   UNL     1       7.692  10.182  13.437  1.00  0.00     0.074 A 
ATOM     45  C   UNL     1       8.085  10.459  12.074  1.00  0.00     0.031 C 
ATOM     46  C   UNL     1       1.359   9.162  12.928  1.00  0.00     0.029 A 
ATOM     47  C   UNL     1       2.169   9.131  14.142  1.00  0.00     0.049 A 
ATOM     48  H   UNL     1       4.200   9.559  14.319  1.00  0.00     0.167 HD
ATOM     49  C   UNL     1       8.545  10.172  14.488  1.00  0.00     0.037 A 
ATOM     50  C   UNL     1       1.723   8.818  15.373  1.00  0.00     0.037 A 
ATOM     51  C   UNL     1       8.142   9.941  15.848  1.00  0.00     0.049 A 
ATOM     52  C   UNL     1       2.690   8.828  16.527  1.00  0.00     0.074 A 
ATOM     53  C   UNL     1       8.918   9.970  16.993  1.00  0.00     0.029 A 
ATOM     54  N   UNL     1       6.847   9.648  16.247  1.00  0.00    -0.354 N 
ATOM     55  N   UNL     1       3.976   9.087  16.527  1.00  0.00    -0.248 NA
ATOM     56  C   UNL     1       2.145   8.509  17.855  1.00  0.00     0.031 C 
ATOM     57  C   UNL     1       8.099   9.660  18.082  1.00  0.00     0.029 A 
ATOM     58  C   UNL     1       6.804   9.484  17.620  1.00  0.00     0.049 A 
ATOM     59  H   UNL     1       6.074   9.569  15.643  1.00  0.00     0.167 HD
ATOM     60  C   UNL     1       4.382   9.004  17.852  1.00  0.00     0.074 A 
ATOM     61  C   UNL     1       3.207   8.673  18.630  1.00  0.00     0.031 C 
ATOM     62  C   UNL     1       5.617   9.187  18.379  1.00  0.00     0.037 A 
BRANCH  49  63
ATOM     63  C   UNL     1       9.996  10.428  14.206  1.00  0.00     0.057 A 
ATOM     64  C   UNL     1      10.461  11.693  13.824  1.00  0.00     0.134 A 
ATOM     65  C   UNL     1      10.944   9.409  14.354  1.00  0.00     0.134 A 
ATOM     66  F   UNL     1       9.603  12.710  13.651  1.00  0.00    -0.206 F 
ATOM     67  C   UNL     1      11.814  11.929  13.574  1.00  0.00     0.040 A 
ATOM     68  C   UNL     1      12.303   9.639  14.136  1.00  0.00     0.040 A 
ATOM     69  F   UNL     1      10.567   8.175  14.724  1.00  0.00    -0.206 F 
ATOM     70  C   UNL     1      12.741  10.901  13.738  1.00  0.00     0.006 A 
ENDBRANCH  49  63
BRANCH  50  71
ATOM     71  C   UNL     1       0.291   8.489  15.594  1.00  0.00     0.057 A 
ATOM     72  C   UNL     1      -0.545   9.353  16.311  1.00  0.00     0.134 A 
ATOM     73  C   UNL     1      -0.269   7.296  15.122  1.00  0.00     0.134 A 
ATOM     74  F   UNL     1      -0.062  10.502  16.805  1.00  0.00    -0.206 F 
ATOM     75  C   UNL     1      -1.877   9.032  16.576  1.00  0.00     0.040 A 
ATOM     76  C   UNL     1      -1.608   6.974  15.357  1.00  0.00     0.040 A 
ATOM     77  F   UNL     1       0.474   6.428  14.421  1.00  0.00    -0.206 F 
ATOM     78  C   UNL     1      -2.413   7.839  16.095  1.00  0.00     0.006 A 
ENDBRANCH  50  71
BRANCH  62  79
ATOM     79  C   UNL     1       5.755   9.100  19.869  1.00  0.00     0.057 A 
ATOM     80  C   UNL     1       5.709   7.877  20.549  1.00  0.00     0.134 A 
ATOM     81  C   UNL     1       6.004  10.254  20.624  1.00  0.00     0.134 A 
ATOM     82  F   UNL     1       5.463   6.738  19.885  1.00  0.00    -0.206 F 
ATOM     83  C   UNL     1       5.892   7.807  21.931  1.00  0.00     0.040 A 
ATOM     84  C   UNL     1       6.214  10.193  22.001  1.00  0.00     0.040 A 
ATOM     85  F   UNL     1       6.070  11.455  20.030  1.00  0.00    -0.206 F 
ATOM     86  C   UNL     1       6.154   8.967  22.659  1.00  0.00     0.006 A 
ENDBRANCH  62  79
ENDBRANCH  36  37
ENDBRANCH  28  31
ENDBRANCH  26  27
ENDBRANCH  25  26
ENDBRANCH  24  25
ENDBRANCH  23  24
ENDBRANCH   1  23
TORSDOF 19
