REMARK SMILES O=C(NCCCCCCNC(=O)[C@@H]1CCCCC[C@H]1NS(=O)(=O)C(F)F)c1ccc(-c2c3nc(c(-c4c(F)cccc4F)c4ccc([nH]4)c(-c4c(F)cccc4F)c4nc(c(-c5c(F)cccc5F)c5ccc2[nH]5)C=C4)C=C3)cc1
REMARK SMILES IDX 8 1 7 2 6 3 5 4 4 5 3 6 1 7 2 8 27 10 28 11 80 12 29 13
REMARK SMILES IDX 79 14 30 15 31 16 32 17 73 18 33 19 78 20 72 21 74 22 34 23
REMARK SMILES IDX 77 24 71 25 70 26 35 28 61 29 44 30 60 31 45 32 48 33 59 34
REMARK SMILES IDX 75 35 46 36 47 37 58 39 76 40 49 41 36 42 37 43 42 44 38 45
REMARK SMILES IDX 39 46 41 47 43 48 40 49 62 50 63 51 68 52 64 53 65 54 67 55
REMARK SMILES IDX 69 56 66 57 50 58 51 59 56 60 52 61 53 62 55 63 57 64 54 65
REMARK SMILES IDX 9 66 10 67 11 68 12 70 13 71 14 72 19 74 18 75 17 76 16 77
REMARK SMILES IDX 15 78 20 80 21 82 22 83 23 84 24 85 25 86 26 87
REMARK H PARENT 3 9 74 27 48 38 10 69 20 81
REMARK Flexibility Score: 90.00
ROOT
ATOM      1  C   UNL     1       6.086  -4.133  -1.803  1.00  0.00     0.021 C 
ENDROOT
BRANCH   1   2
ATOM      2  C   UNL     1       4.561  -3.994  -1.760  1.00  0.00     0.002 C 
BRANCH   2   3
ATOM      3  C   UNL     1       3.981  -3.745  -0.361  1.00  0.00     0.002 C 
BRANCH   3   4
ATOM      4  C   UNL     1       4.595  -2.561   0.387  1.00  0.00     0.021 C 
BRANCH   4   5
ATOM      5  C   UNL     1       4.457  -1.232  -0.345  1.00  0.00     0.116 C 
BRANCH   5   6
ATOM      6  N   UNL     1       3.062  -0.879  -0.570  1.00  0.00    -0.352 N 
ATOM      7  O   UNL     1       1.120   0.204  -0.185  1.00  0.00    -0.269 OA
ATOM      8  C   UNL     1       2.343   0.186  -0.091  1.00  0.00     0.251 C 
ATOM      9  H   UNL     1       2.562  -1.497  -1.150  1.00  0.00     0.163 HD
BRANCH   8  10
ATOM     10  C   UNL     1       3.054   1.308   0.552  1.00  0.00     0.039 A 
ATOM     11  C   UNL     1       4.232   1.805  -0.009  1.00  0.00     0.014 A 
ATOM     12  C   UNL     1       2.544   1.861   1.729  1.00  0.00     0.014 A 
ATOM     13  C   UNL     1       4.987   2.734   0.692  1.00  0.00     0.010 A 
ATOM     14  C   UNL     1       3.254   2.873   2.378  1.00  0.00     0.010 A 
ATOM     15  C   UNL     1       4.502   3.289   1.887  1.00  0.00    -0.014 A 
BRANCH  15  16
ATOM     16  C   UNL     1       5.304   4.328   2.578  1.00  0.00     0.031 A 
ATOM     17  C   UNL     1       5.850   4.097   3.959  1.00  0.00     0.074 A 
ATOM     18  C   UNL     1       5.567   5.479   1.930  1.00  0.00     0.049 A 
ATOM     19  N   UNL     1       6.594   4.885   4.694  1.00  0.00    -0.248 NA
ATOM     20  C   UNL     1       5.510   2.821   4.607  1.00  0.00     0.031 C 
ATOM     21  C   UNL     1       5.088   5.817   0.587  1.00  0.00     0.029 A 
ATOM     22  N   UNL     1       6.316   6.566   2.298  1.00  0.00    -0.354 N 
ATOM     23  C   UNL     1       6.789   4.215   5.896  1.00  0.00     0.074 A 
ATOM     24  C   UNL     1       6.060   2.968   5.803  1.00  0.00     0.031 C 
ATOM     25  C   UNL     1       5.601   7.001   0.222  1.00  0.00     0.029 A 
ATOM     26  C   UNL     1       6.383   7.537   1.329  1.00  0.00     0.049 A 
ATOM     27  H   UNL     1       6.762   6.643   3.172  1.00  0.00     0.167 HD
ATOM     28  C   UNL     1       7.514   4.604   6.973  1.00  0.00     0.037 A 
ATOM     29  C   UNL     1       6.995   8.734   1.335  1.00  0.00     0.037 A 
ATOM     30  C   UNL     1       8.245   5.845   7.051  1.00  0.00     0.049 A 
ATOM     31  C   UNL     1       7.762   9.153   2.555  1.00  0.00     0.074 A 
ATOM     32  C   UNL     1       9.043   6.312   8.080  1.00  0.00     0.029 A 
ATOM     33  N   UNL     1       8.257   6.821   6.064  1.00  0.00    -0.354 N 
ATOM     34  N   UNL     1       7.972   8.493   3.667  1.00  0.00    -0.248 NA
ATOM     35  C   UNL     1       8.376  10.486   2.518  1.00  0.00     0.031 C 
ATOM     36  C   UNL     1       9.485   7.596   7.744  1.00  0.00     0.029 A 
ATOM     37  C   UNL     1       9.024   7.900   6.474  1.00  0.00     0.049 A 
ATOM     38  H   UNL     1       7.789   6.756   5.200  1.00  0.00     0.167 HD
ATOM     39  C   UNL     1       8.774   9.313   4.449  1.00  0.00     0.074 A 
ATOM     40  C   UNL     1       9.019  10.514   3.677  1.00  0.00     0.031 C 
ATOM     41  C   UNL     1       9.267   9.088   5.692  1.00  0.00     0.037 A 
BRANCH  28  42
ATOM     42  C   UNL     1       7.523   3.694   8.170  1.00  0.00     0.057 A 
ATOM     43  C   UNL     1       8.158   2.445   8.159  1.00  0.00     0.134 A 
ATOM     44  C   UNL     1       6.904   4.088   9.365  1.00  0.00     0.134 A 
ATOM     45  F   UNL     1       8.762   1.999   7.046  1.00  0.00    -0.206 F 
ATOM     46  C   UNL     1       8.148   1.608   9.277  1.00  0.00     0.040 A 
ATOM     47  C   UNL     1       6.915   3.274  10.499  1.00  0.00     0.040 A 
ATOM     48  F   UNL     1       6.285   5.274   9.453  1.00  0.00    -0.206 F 
ATOM     49  C   UNL     1       7.530   2.025  10.454  1.00  0.00     0.006 A 
ENDBRANCH  28  42
BRANCH  29  50
ATOM     50  C   UNL     1       6.916   9.612   0.140  1.00  0.00     0.057 A 
ATOM     51  C   UNL     1       8.049   9.877  -0.637  1.00  0.00     0.134 A 
ATOM     52  C   UNL     1       5.708  10.200  -0.256  1.00  0.00     0.134 A 
ATOM     53  F   UNL     1       9.236   9.353  -0.300  1.00  0.00    -0.206 F 
ATOM     54  C   UNL     1       7.989  10.712  -1.754  1.00  0.00     0.040 A 
ATOM     55  C   UNL     1       5.628  11.011  -1.388  1.00  0.00     0.040 A 
ATOM     56  F   UNL     1       4.584   9.975   0.439  1.00  0.00    -0.206 F 
ATOM     57  C   UNL     1       6.774  11.276  -2.135  1.00  0.00     0.006 A 
ENDBRANCH  29  50
BRANCH  41  58
ATOM     58  C   UNL     1      10.174  10.139   6.268  1.00  0.00     0.057 A 
ATOM     59  C   UNL     1       9.705  11.399   6.660  1.00  0.00     0.134 A 
ATOM     60  C   UNL     1      11.538   9.874   6.444  1.00  0.00     0.134 A 
ATOM     61  F   UNL     1       8.412  11.724   6.505  1.00  0.00    -0.206 F 
ATOM     62  C   UNL     1      10.567  12.370   7.175  1.00  0.00     0.040 A 
ATOM     63  C   UNL     1      12.403  10.824   6.989  1.00  0.00     0.040 A 
ATOM     64  F   UNL     1      12.053   8.685   6.098  1.00  0.00    -0.206 F 
ATOM     65  C   UNL     1      11.919  12.080   7.347  1.00  0.00     0.006 A 
ENDBRANCH  41  58
ENDBRANCH  15  16
ENDBRANCH   8  10
ENDBRANCH   5   6
ENDBRANCH   4   5
ENDBRANCH   3   4
ENDBRANCH   2   3
ENDBRANCH   1   2
BRANCH   1  66
ATOM     66  C   UNL     1       6.599  -5.296  -0.957  1.00  0.00     0.116 C 
BRANCH  66  67
ATOM     67  N   UNL     1       6.800  -6.477  -1.758  1.00  0.00    -0.356 N 
ATOM     68  C   UNL     1       7.933  -7.086  -2.186  1.00  0.00     0.224 C 
ATOM     69  H   UNL     1       5.968  -6.919  -2.045  1.00  0.00     0.163 HD
ATOM     70  O   UNL     1       7.780  -8.086  -2.897  1.00  0.00    -0.275 OA
BRANCH  68  71
ATOM     71  C   UNL     1       9.346  -6.669  -1.750  1.00  0.00     0.096 C 
BRANCH  71  72
ATOM     72  C   UNL     1       9.617  -7.236  -0.349  1.00  0.00     0.015 CG0
ATOM     73  G   UNL     1      11.078  -7.120   0.087  1.00  0.00     0.000 G0
ENDBRANCH  71  72
BRANCH  71  74
ATOM     74  C   UNL     1       9.722  -5.182  -2.001  1.00  0.00     0.082 C 
BRANCH  74  75
ATOM     75  C   UNL     1      10.021  -4.338  -0.742  1.00  0.00     0.021 C 
BRANCH  75  76
ATOM     76  C   UNL     1      11.362  -4.577  -0.054  1.00  0.00     0.002 C 
BRANCH  76  77
ATOM     77  C   UNL     1      11.387  -5.822   0.822  1.00  0.00     0.000 C 
BRANCH  77  78
ATOM     78  C   UNL     1      11.078  -7.120   0.087  1.00  0.00     0.001 CG0
ATOM     79  G   UNL     1       9.617  -7.236  -0.349  1.00  0.00     0.000 G0
ENDBRANCH  77  78
ENDBRANCH  76  77
ENDBRANCH  75  76
ENDBRANCH  74  75
BRANCH  74  80
ATOM     80  N   UNL     1      10.880  -5.148  -2.934  1.00  0.00    -0.206 NA
ATOM     81  H   UNL     1      10.667  -5.824  -3.667  1.00  0.00     0.141 HD
BRANCH  80  82
ATOM     82  S   UNL     1      11.398  -3.759  -3.728  1.00  0.00     0.274 S 
ATOM     83  O   UNL     1      11.478  -2.686  -2.755  1.00  0.00    -0.206 OA
ATOM     84  O   UNL     1      12.601  -4.168  -4.424  1.00  0.00    -0.206 OA
BRANCH  82  85
ATOM     85  C   UNL     1      10.091  -3.371  -4.949  1.00  0.00     0.473 C 
ATOM     86  F   UNL     1       9.908  -4.371  -5.856  1.00  0.00    -0.191 F 
ATOM     87  F   UNL     1       8.878  -3.160  -4.357  1.00  0.00    -0.191 F 
ENDBRANCH  82  85
ENDBRANCH  80  82
ENDBRANCH  74  80
ENDBRANCH  71  74
ENDBRANCH  68  71
ENDBRANCH  66  67
ENDBRANCH   1  66
TORSDOF 16
