REMARK SMILES Cc1nn(CC(=O)NCCCCCCNC(=O)c2ccc(-c3c4nc(c(-c5c(F)cccc5F)c5ccc([nH]5)c(-c5c(F)cccc5F)c5nc(c(-c6c(F)cccc6F)c6ccc3[nH]6)C=C5)C=C4)cc2)c(C)c1NS(=O)(=O)c1cccc2cccnc12
REMARK SMILES IDX 10 1 9 2 8 3 6 4 7 5 5 7 4 8 1 9 2 10 3 11 74 12 72 13 73 14
REMARK SMILES IDX 75 15 76 17 77 18 78 19 79 20 80 21 88 22 81 23 83 24 87 25
REMARK SMILES IDX 82 26 84 27 86 28 85 29 11 30 12 31 13 32 14 33 15 34 16 35
REMARK SMILES IDX 17 37 18 38 19 39 71 40 20 41 70 42 21 43 22 44 23 45 64 46
REMARK SMILES IDX 24 47 69 48 63 49 65 50 25 51 68 52 62 53 61 54 26 56 52 57
REMARK SMILES IDX 35 58 51 59 36 60 39 61 50 62 66 63 37 64 38 65 49 67 67 68
REMARK SMILES IDX 40 69 27 70 28 71 33 72 29 73 30 74 32 75 34 76 31 77 53 78
REMARK SMILES IDX 54 79 59 80 55 81 56 82 58 83 60 84 57 85 41 86 42 87 47 88
REMARK SMILES IDX 43 89 44 90 46 91 48 92 45 93
REMARK H PARENT 8 6 75 16 15 36 65 55 39 66
REMARK Flexibility Score: inf
ROOT
ATOM      1  C   UNL     1       3.323  -0.265  -4.517  1.00  0.00     0.021 C 
ENDROOT
BRANCH   1   2
ATOM      2  C   UNL     1       1.871  -0.358  -4.982  1.00  0.00     0.116 C 
BRANCH   2   3
ATOM      3  N   UNL     1       1.344  -1.714  -5.098  1.00  0.00    -0.354 N 
ATOM      4  C   UNL     1       0.173  -2.318  -4.743  1.00  0.00     0.241 C 
ATOM      5  O   UNL     1       0.001  -3.421  -5.295  1.00  0.00    -0.273 OA
ATOM      6  H   UNL     1       1.976  -2.333  -5.529  1.00  0.00     0.163 HD
BRANCH   4   7
ATOM      7  C   UNL     1      -0.993  -1.777  -3.904  1.00  0.00     0.244 C 
BRANCH   7   8
ATOM      8  N   UNL     1      -0.701  -0.800  -2.886  1.00  0.00    -0.258 N 
ATOM      9  C   UNL     1       1.342   0.117  -0.191  1.00  0.00     0.071 C 
ATOM     10  C   UNL     1       0.496   0.050  -1.405  1.00  0.00     0.084 A 
ATOM     11  N   UNL     1       0.066  -1.143  -1.836  1.00  0.00    -0.175 NA
ATOM     12  C   UNL     1       0.001   1.086  -2.254  1.00  0.00     0.093 A 
ATOM     13  C   UNL     1      -1.123   0.509  -2.790  1.00  0.00     0.060 A 
ATOM     14  C   UNL     1      -2.416   1.065  -3.246  1.00  0.00     0.069 C 
BRANCH  12  15
ATOM     15  N   UNL     1       0.558   2.330  -2.446  1.00  0.00    -0.276 N 
ATOM     16  H   UNL     1       1.392   2.472  -1.944  1.00  0.00     0.180 HD
BRANCH  15  17
ATOM     17  S   UNL     1       0.099   3.632  -3.356  1.00  0.00     0.264 S 
ATOM     18  O   UNL     1      -0.982   4.277  -2.632  1.00  0.00    -0.201 OA
ATOM     19  O   UNL     1       1.365   4.341  -3.486  1.00  0.00    -0.201 OA
BRANCH  17  20
ATOM     20  C   UNL     1      -0.446   3.500  -5.053  1.00  0.00     0.114 A 
ATOM     21  C   UNL     1      -0.863   4.771  -5.521  1.00  0.00     0.024 A 
ATOM     22  C   UNL     1      -0.451   2.417  -5.955  1.00  0.00     0.091 A 
ATOM     23  C   UNL     1      -1.107   5.018  -6.861  1.00  0.00     0.002 A 
ATOM     24  C   UNL     1      -0.491   2.753  -7.339  1.00  0.00     0.002 A 
ATOM     25  N   UNL     1      -0.572   1.100  -5.666  1.00  0.00    -0.255 NA
ATOM     26  C   UNL     1      -0.809   4.033  -7.777  1.00  0.00     0.010 A 
ATOM     27  C   UNL     1      -0.348   1.779  -8.333  1.00  0.00     0.012 A 
ATOM     28  C   UNL     1      -0.745   0.202  -6.684  1.00  0.00     0.112 A 
ATOM     29  C   UNL     1      -0.528   0.461  -8.008  1.00  0.00     0.021 A 
ENDBRANCH  17  20
ENDBRANCH  15  17
ENDBRANCH  12  15
ENDBRANCH   7   8
ENDBRANCH   4   7
ENDBRANCH   2   3
ENDBRANCH   1   2
BRANCH   1  30
ATOM     30  C   UNL     1       4.384  -0.728  -5.525  1.00  0.00     0.002 C 
BRANCH  30  31
ATOM     31  C   UNL     1       4.501   0.028  -6.862  1.00  0.00     0.002 C 
BRANCH  31  32
ATOM     32  C   UNL     1       4.705   1.550  -6.832  1.00  0.00     0.021 C 
BRANCH  32  33
ATOM     33  C   UNL     1       5.899   2.044  -6.025  1.00  0.00     0.116 C 
BRANCH  33  34
ATOM     34  N   UNL     1       7.199   1.593  -6.535  1.00  0.00    -0.352 N 
ATOM     35  C   UNL     1       8.449   1.817  -5.990  1.00  0.00     0.251 C 
ATOM     36  H   UNL     1       7.178   1.066  -7.367  1.00  0.00     0.163 HD
ATOM     37  O   UNL     1       9.471   1.725  -6.684  1.00  0.00    -0.269 OA
BRANCH  35  38
ATOM     38  C   UNL     1       8.563   2.154  -4.563  1.00  0.00     0.039 A 
ATOM     39  C   UNL     1       9.494   3.076  -4.073  1.00  0.00     0.014 A 
ATOM     40  C   UNL     1       7.673   1.526  -3.699  1.00  0.00     0.014 A 
ATOM     41  C   UNL     1       9.457   3.415  -2.720  1.00  0.00     0.010 A 
ATOM     42  C   UNL     1       7.501   2.009  -2.434  1.00  0.00     0.010 A 
ATOM     43  C   UNL     1       8.441   2.885  -1.911  1.00  0.00    -0.014 A 
BRANCH  43  44
ATOM     44  C   UNL     1       8.244   3.309  -0.531  1.00  0.00     0.031 A 
ATOM     45  C   UNL     1       8.015   4.770  -0.381  1.00  0.00     0.074 A 
ATOM     46  C   UNL     1       8.009   2.422   0.463  1.00  0.00     0.049 A 
ATOM     47  N   UNL     1       8.794   5.637   0.174  1.00  0.00    -0.248 NA
ATOM     48  C   UNL     1       6.861   5.369  -1.075  1.00  0.00     0.031 C 
ATOM     49  C   UNL     1       7.882   0.961   0.360  1.00  0.00     0.029 A 
ATOM     50  N   UNL     1       7.711   2.646   1.772  1.00  0.00    -0.354 N 
ATOM     51  C   UNL     1       8.105   6.846   0.124  1.00  0.00     0.074 A 
ATOM     52  C   UNL     1       7.061   6.669  -0.848  1.00  0.00     0.031 C 
ATOM     53  C   UNL     1       7.303   0.470   1.478  1.00  0.00     0.029 A 
ATOM     54  C   UNL     1       7.180   1.545   2.443  1.00  0.00     0.049 A 
ATOM     55  H   UNL     1       7.858   3.515   2.210  1.00  0.00     0.167 HD
ATOM     56  C   UNL     1       8.258   7.768   1.115  1.00  0.00     0.037 A 
ATOM     57  C   UNL     1       6.658   1.529   3.695  1.00  0.00     0.037 A 
ATOM     58  C   UNL     1       9.438   7.479   1.899  1.00  0.00     0.049 A 
ATOM     59  C   UNL     1       7.151   2.744   4.386  1.00  0.00     0.074 A 
ATOM     60  C   UNL     1      10.786   7.338   1.635  1.00  0.00     0.029 A 
ATOM     61  N   UNL     1       9.238   6.904   3.130  1.00  0.00    -0.354 N 
ATOM     62  N   UNL     1       8.398   2.936   4.714  1.00  0.00    -0.248 NA
ATOM     63  C   UNL     1       6.337   3.945   4.296  1.00  0.00     0.031 C 
ATOM     64  C   UNL     1      11.223   6.281   2.490  1.00  0.00     0.029 A 
ATOM     65  C   UNL     1      10.142   5.889   3.281  1.00  0.00     0.049 A 
ATOM     66  H   UNL     1       8.560   7.175   3.790  1.00  0.00     0.167 HD
ATOM     67  C   UNL     1       8.633   4.271   4.425  1.00  0.00     0.074 A 
ATOM     68  C   UNL     1       7.306   4.864   4.267  1.00  0.00     0.031 C 
ATOM     69  C   UNL     1       9.876   4.693   4.046  1.00  0.00     0.037 A 
BRANCH  56  70
ATOM     70  C   UNL     1       7.134   8.622   1.673  1.00  0.00     0.057 A 
ATOM     71  C   UNL     1       7.439   9.542   2.696  1.00  0.00     0.134 A 
ATOM     72  C   UNL     1       5.758   8.361   1.508  1.00  0.00     0.134 A 
ATOM     73  F   UNL     1       8.710   9.892   2.951  1.00  0.00    -0.206 F 
ATOM     74  C   UNL     1       6.468  10.055   3.565  1.00  0.00     0.040 A 
ATOM     75  C   UNL     1       4.775   8.909   2.338  1.00  0.00     0.040 A 
ATOM     76  F   UNL     1       5.282   7.495   0.609  1.00  0.00    -0.206 F 
ATOM     77  C   UNL     1       5.131   9.724   3.398  1.00  0.00     0.006 A 
ENDBRANCH  56  70
BRANCH  57  78
ATOM     78  C   UNL     1       5.553   0.712   4.248  1.00  0.00     0.057 A 
ATOM     79  C   UNL     1       5.345   0.618   5.633  1.00  0.00     0.134 A 
ATOM     80  C   UNL     1       4.503   0.246   3.436  1.00  0.00     0.134 A 
ATOM     81  F   UNL     1       6.270   1.070   6.492  1.00  0.00    -0.206 F 
ATOM     82  C   UNL     1       4.152   0.124   6.179  1.00  0.00     0.040 A 
ATOM     83  C   UNL     1       3.310  -0.255   3.968  1.00  0.00     0.040 A 
ATOM     84  F   UNL     1       4.562   0.352   2.100  1.00  0.00    -0.206 F 
ATOM     85  C   UNL     1       3.123  -0.302   5.344  1.00  0.00     0.006 A 
ENDBRANCH  57  78
BRANCH  69  86
ATOM     86  C   UNL     1      11.028   3.745   4.242  1.00  0.00     0.057 A 
ATOM     87  C   UNL     1      11.171   2.516   3.581  1.00  0.00     0.134 A 
ATOM     88  C   UNL     1      12.103   4.165   5.033  1.00  0.00     0.134 A 
ATOM     89  F   UNL     1      10.238   2.071   2.731  1.00  0.00    -0.206 F 
ATOM     90  C   UNL     1      12.313   1.724   3.735  1.00  0.00     0.040 A 
ATOM     91  C   UNL     1      13.263   3.400   5.168  1.00  0.00     0.040 A 
ATOM     92  F   UNL     1      12.060   5.354   5.654  1.00  0.00    -0.206 F 
ATOM     93  C   UNL     1      13.367   2.170   4.526  1.00  0.00     0.006 A 
ENDBRANCH  69  86
ENDBRANCH  43  44
ENDBRANCH  35  38
ENDBRANCH  33  34
ENDBRANCH  32  33
ENDBRANCH  31  32
ENDBRANCH  30  31
ENDBRANCH   1  30
TORSDOF 17
