REMARK SMILES NC(=O)c1c(F)cccc1N1CCC[C@H](CC(=O)NCCCCCCNC(=O)c2ccc(-c3c4nc(c(-c5c(F)cccc5F)c5ccc([nH]5)c(-c5c(F)cccc5F)c5nc(c(-c6c(F)cccc6F)c6ccc3[nH]6)C=C5)C=C4)cc2)C1
REMARK SMILES IDX 22 1 21 2 20 3 19 4 17 5 18 6 16 8 15 9 11 10 12 11 83 12
REMARK SMILES IDX 13 13 14 14 10 15 4 16 5 17 6 18 7 19 9 20 8 21 2 22 1 23
REMARK SMILES IDX 3 26 23 27 24 28 25 29 26 30 27 31 28 33 29 34 30 35 82 36
REMARK SMILES IDX 31 37 81 38 32 39 33 40 34 41 75 42 35 43 80 44 74 45 76 46
REMARK SMILES IDX 36 47 79 48 73 49 72 50 37 52 63 53 46 54 62 55 47 56 50 57
REMARK SMILES IDX 61 58 77 59 48 60 49 61 60 63 78 64 51 65 38 66 39 67 44 68
REMARK SMILES IDX 40 69 41 70 43 71 45 72 42 73 64 74 65 75 70 76 66 77 67 78
REMARK SMILES IDX 69 79 71 80 68 81 52 82 53 83 58 84 54 85 55 86 57 87 59 88
REMARK SMILES IDX 56 89
REMARK H PARENT 19 7 1 24 1 25 26 32 76 51 50 62
REMARK Flexibility Score: inf
ROOT
ATOM      1  C   UNL     1      -3.842  -9.692   0.890  1.00  0.00     0.002 C 
ENDROOT
BRANCH   1   2
ATOM      2  C   UNL     1      -3.249  -8.284   0.839  1.00  0.00     0.021 C 
BRANCH   2   3
ATOM      3  C   UNL     1      -1.805  -8.212   1.338  1.00  0.00     0.116 C 
BRANCH   3   4
ATOM      4  N   UNL     1      -0.885  -8.184   0.218  1.00  0.00    -0.356 N 
ATOM      5  C   UNL     1      -0.149  -7.152  -0.277  1.00  0.00     0.220 C 
ATOM      6  O   UNL     1       0.457  -7.317  -1.336  1.00  0.00    -0.275 OA
ATOM      7  H   UNL     1      -0.776  -9.041  -0.255  1.00  0.00     0.163 HD
BRANCH   5   8
ATOM      8  C   UNL     1      -0.060  -5.843   0.475  1.00  0.00     0.105 C 
BRANCH   8   9
ATOM      9  C   UNL     1      -0.944  -4.731  -0.128  1.00  0.00     0.018 C 
ATOM     10  N   UNL     1      -0.477  -3.191   1.678  1.00  0.00    -0.371 N 
ATOM     11  C   UNL     1      -1.838  -3.114   2.204  1.00  0.00     0.116 C 
ATOM     12  C   UNL     1      -0.352  -3.359   0.232  1.00  0.00     0.120 C 
ATOM     13  C   UNL     1      -2.577  -4.402   1.832  1.00  0.00     0.022 C 
ATOM     14  C   UNL     1      -2.410  -4.759   0.348  1.00  0.00     0.008 C 
BRANCH  10  15
ATOM     15  C   UNL     1       0.533  -2.543   2.374  1.00  0.00     0.053 A 
ATOM     16  C   UNL     1       1.040  -1.263   2.079  1.00  0.00     0.098 A 
ATOM     17  C   UNL     1       2.148  -0.777   2.782  1.00  0.00     0.138 A 
ATOM     18  F   UNL     1       2.660   0.433   2.508  1.00  0.00    -0.206 F 
ATOM     19  C   UNL     1       2.757  -1.528   3.784  1.00  0.00     0.040 A 
ATOM     20  C   UNL     1       1.147  -3.274   3.410  1.00  0.00     0.027 A 
ATOM     21  C   UNL     1       2.250  -2.779   4.108  1.00  0.00     0.005 A 
BRANCH  16  22
ATOM     22  C   UNL     1       0.396  -0.384   1.075  1.00  0.00     0.253 C 
ATOM     23  N   UNL     1       1.222   0.223   0.169  1.00  0.00    -0.365 N 
ATOM     24  H   UNL     1       0.845   0.817  -0.520  1.00  0.00     0.159 HD
ATOM     25  H   UNL     1       2.193   0.065   0.205  1.00  0.00     0.159 HD
ATOM     26  O   UNL     1      -0.814  -0.202   1.037  1.00  0.00    -0.269 OA
ENDBRANCH  16  22
ENDBRANCH  10  15
ENDBRANCH   8   9
ENDBRANCH   5   8
ENDBRANCH   3   4
ENDBRANCH   2   3
ENDBRANCH   1   2
BRANCH   1  27
ATOM     27  C   UNL     1      -4.097 -10.224   2.304  1.00  0.00     0.002 C 
BRANCH  27  28
ATOM     28  C   UNL     1      -5.001  -9.356   3.187  1.00  0.00     0.021 C 
BRANCH  28  29
ATOM     29  C   UNL     1      -6.352  -8.984   2.577  1.00  0.00     0.116 C 
BRANCH  29  30
ATOM     30  N   UNL     1      -7.117 -10.155   2.184  1.00  0.00    -0.352 N 
ATOM     31  C   UNL     1      -8.344 -10.598   2.601  1.00  0.00     0.251 C 
ATOM     32  H   UNL     1      -6.682 -10.723   1.508  1.00  0.00     0.163 HD
ATOM     33  O   UNL     1      -8.718 -11.727   2.292  1.00  0.00    -0.269 OA
BRANCH  31  34
ATOM     34  C   UNL     1      -9.222  -9.741   3.426  1.00  0.00     0.039 A 
ATOM     35  C   UNL     1      -9.920 -10.331   4.484  1.00  0.00     0.014 A 
ATOM     36  C   UNL     1      -9.412  -8.387   3.133  1.00  0.00     0.014 A 
ATOM     37  C   UNL     1     -10.771  -9.556   5.274  1.00  0.00     0.010 A 
ATOM     38  C   UNL     1     -10.217  -7.601   3.958  1.00  0.00     0.010 A 
ATOM     39  C   UNL     1     -10.907  -8.179   5.033  1.00  0.00    -0.014 A 
BRANCH  39  40
ATOM     40  C   UNL     1     -11.763  -7.343   5.912  1.00  0.00     0.031 A 
ATOM     41  C   UNL     1     -13.030  -6.728   5.390  1.00  0.00     0.074 A 
ATOM     42  C   UNL     1     -11.381  -7.123   7.185  1.00  0.00     0.049 A 
ATOM     43  N   UNL     1     -13.902  -5.979   6.019  1.00  0.00    -0.248 NA
ATOM     44  C   UNL     1     -13.354  -6.967   3.976  1.00  0.00     0.031 C 
ATOM     45  C   UNL     1     -10.151  -7.631   7.795  1.00  0.00     0.029 A 
ATOM     46  N   UNL     1     -11.990  -6.423   8.195  1.00  0.00    -0.354 N 
ATOM     47  C   UNL     1     -14.872  -5.657   5.079  1.00  0.00     0.074 A 
ATOM     48  C   UNL     1     -14.460  -6.250   3.826  1.00  0.00     0.031 C 
ATOM     49  C   UNL     1     -10.114  -7.255   9.084  1.00  0.00     0.029 A 
ATOM     50  C   UNL     1     -11.301  -6.460   9.382  1.00  0.00     0.049 A 
ATOM     51  H   UNL     1     -12.840  -5.940   8.079  1.00  0.00     0.167 HD
ATOM     52  C   UNL     1     -16.014  -4.950   5.253  1.00  0.00     0.037 A 
ATOM     53  C   UNL     1     -11.595  -5.920  10.580  1.00  0.00     0.037 A 
ATOM     54  C   UNL     1     -16.436  -4.380   6.505  1.00  0.00     0.049 A 
ATOM     55  C   UNL     1     -12.870  -5.145  10.746  1.00  0.00     0.074 A 
ATOM     56  C   UNL     1     -17.604  -3.693   6.789  1.00  0.00     0.029 A 
ATOM     57  N   UNL     1     -15.706  -4.432   7.683  1.00  0.00    -0.354 N 
ATOM     58  N   UNL     1     -13.803  -4.893   9.861  1.00  0.00    -0.248 NA
ATOM     59  C   UNL     1     -13.136  -4.583  12.078  1.00  0.00     0.031 C 
ATOM     60  C   UNL     1     -17.565  -3.299   8.130  1.00  0.00     0.029 A 
ATOM     61  C   UNL     1     -16.391  -3.774   8.692  1.00  0.00     0.049 A 
ATOM     62  H   UNL     1     -14.831  -4.872   7.787  1.00  0.00     0.167 HD
ATOM     63  C   UNL     1     -14.771  -4.156  10.529  1.00  0.00     0.074 A 
ATOM     64  C   UNL     1     -14.322  -4.017  11.899  1.00  0.00     0.031 C 
ATOM     65  C   UNL     1     -15.927  -3.637  10.048  1.00  0.00     0.037 A 
BRANCH  52  66
ATOM     66  C   UNL     1     -16.904  -4.764   4.060  1.00  0.00     0.057 A 
ATOM     67  C   UNL     1     -17.045  -3.507   3.458  1.00  0.00     0.134 A 
ATOM     68  C   UNL     1     -17.674  -5.816   3.549  1.00  0.00     0.134 A 
ATOM     69  F   UNL     1     -16.342  -2.455   3.904  1.00  0.00    -0.206 F 
ATOM     70  C   UNL     1     -17.926  -3.303   2.395  1.00  0.00     0.040 A 
ATOM     71  C   UNL     1     -18.542  -5.630   2.472  1.00  0.00     0.040 A 
ATOM     72  F   UNL     1     -17.577  -7.047   4.075  1.00  0.00    -0.206 F 
ATOM     73  C   UNL     1     -18.676  -4.367   1.898  1.00  0.00     0.006 A 
ENDBRANCH  52  66
BRANCH  53  74
ATOM     74  C   UNL     1     -10.679  -6.136  11.726  1.00  0.00     0.057 A 
ATOM     75  C   UNL     1      -9.433  -5.503  11.796  1.00  0.00     0.134 A 
ATOM     76  C   UNL     1     -11.025  -7.004  12.767  1.00  0.00     0.134 A 
ATOM     77  F   UNL     1      -9.042  -4.666  10.824  1.00  0.00    -0.206 F 
ATOM     78  C   UNL     1      -8.555  -5.738  12.856  1.00  0.00     0.040 A 
ATOM     79  C   UNL     1     -10.166  -7.232  13.843  1.00  0.00     0.040 A 
ATOM     80  F   UNL     1     -12.213  -7.625  12.761  1.00  0.00    -0.206 F 
ATOM     81  C   UNL     1      -8.923  -6.602  13.885  1.00  0.00     0.006 A 
ENDBRANCH  53  74
BRANCH  65  82
ATOM     82  C   UNL     1     -16.790  -2.874  11.008  1.00  0.00     0.057 A 
ATOM     83  C   UNL     1     -17.998  -3.411  11.469  1.00  0.00     0.134 A 
ATOM     84  C   UNL     1     -16.448  -1.585  11.434  1.00  0.00     0.134 A 
ATOM     85  F   UNL     1     -18.386  -4.638  11.091  1.00  0.00    -0.206 F 
ATOM     86  C   UNL     1     -18.840  -2.689  12.316  1.00  0.00     0.040 A 
ATOM     87  C   UNL     1     -17.271  -0.862  12.298  1.00  0.00     0.040 A 
ATOM     88  F   UNL     1     -15.297  -1.020  11.036  1.00  0.00    -0.206 F 
ATOM     89  C   UNL     1     -18.475  -1.411  12.735  1.00  0.00     0.006 A 
ENDBRANCH  65  82
ENDBRANCH  39  40
ENDBRANCH  31  34
ENDBRANCH  29  30
ENDBRANCH  28  29
ENDBRANCH  27  28
ENDBRANCH   1  27
TORSDOF 16
