REMARK SMILES Cc1cc(OCC(=O)N[C@@H](Cc2ccc(Cl)cc2)C(=O)NCCCCCCNC(=O)c2ccc(-c3c4nc(c(-c5c(F)cccc5F)c5ccc([nH]5)c(-c5c(F)cccc5F)c5nc(c(-c6c(F)cccc6F)c6ccc3[nH]6)C=C5)C=C4)cc2)c2c(C)c(C)c(=O)oc2c1
REMARK SMILES IDX 23 1 22 2 21 3 19 4 20 5 10 7 9 8 7 9 8 10 6 12 5 13 4 14
REMARK SMILES IDX 1 15 2 16 3 17 94 18 93 19 85 20 92 21 86 22 90 23 87 24
REMARK SMILES IDX 88 25 91 26 89 27 11 28 12 29 13 30 18 31 14 32 17 33 15 34
REMARK SMILES IDX 16 35 24 36 25 37 26 38 27 39 28 40 29 41 30 43 31 44 32 45
REMARK SMILES IDX 84 46 33 47 83 48 34 49 35 50 36 51 77 52 37 53 82 54 76 55
REMARK SMILES IDX 78 56 38 57 81 58 75 59 74 60 39 62 65 63 48 64 64 65 49 66
REMARK SMILES IDX 52 67 63 68 79 69 50 70 51 71 62 73 80 74 53 75 40 76 41 77
REMARK SMILES IDX 46 78 42 79 43 80 45 81 47 82 44 83 66 84 67 85 72 86 68 87
REMARK SMILES IDX 69 88 71 89 73 90 70 91 54 92 55 93 60 94 56 95 57 96 59 97
REMARK SMILES IDX 61 98 58 99
REMARK H PARENT 21 6 9 11 28 42 78 61 52 72
REMARK Flexibility Score: inf
ROOT
ATOM      1  C   UNL     1      -3.876   7.140   1.145  1.00  0.00     0.021 C 
ENDROOT
BRANCH   1   2
ATOM      2  C   UNL     1      -3.950   6.420  -0.195  1.00  0.00     0.116 C 
BRANCH   2   3
ATOM      3  N   UNL     1      -3.242   7.092  -1.263  1.00  0.00    -0.354 N 
ATOM      4  C   UNL     1      -2.623   6.584  -2.367  1.00  0.00     0.242 C 
ATOM      5  O   UNL     1      -2.485   7.352  -3.326  1.00  0.00    -0.273 OA
ATOM      6  H   UNL     1      -3.200   8.072  -1.180  1.00  0.00     0.163 HD
BRANCH   4   7
ATOM      7  C   UNL     1      -2.197   5.102  -2.512  1.00  0.00     0.175 C 
BRANCH   7   8
ATOM      8  N   UNL     1      -1.599   4.536  -1.305  1.00  0.00    -0.341 N 
ATOM      9  C   UNL     1      -0.275   4.440  -0.996  1.00  0.00     0.258 C 
ATOM     10  O   UNL     1       0.040   4.258   0.182  1.00  0.00    -0.271 OA
ATOM     11  H   UNL     1      -2.228   4.181  -0.635  1.00  0.00     0.164 HD
BRANCH   9  12
ATOM     12  C   UNL     1       0.784   4.513  -2.109  1.00  0.00     0.329 C 
BRANCH  12  13
ATOM     13  O   UNL     1       0.642   3.614  -3.208  1.00  0.00    -0.483 OA
BRANCH  13  14
ATOM     14  C   UNL     1       0.426   2.283  -2.956  1.00  0.00     0.131 A 
ATOM     15  C   UNL     1       0.949  -0.182  -0.080  1.00  0.00     0.044 C 
ATOM     16  C   UNL     1       0.559   0.374  -1.416  1.00  0.00    -0.044 A 
ATOM     17  C   UNL     1       0.828   1.707  -1.730  1.00  0.00     0.050 A 
ATOM     18  C   UNL     1      -0.050  -0.415  -2.378  1.00  0.00     0.051 A 
ATOM     19  C   UNL     1      -0.395   0.141  -3.616  1.00  0.00     0.142 A 
ATOM     20  C   UNL     1      -0.190   1.487  -3.955  1.00  0.00     0.063 A 
ATOM     21  O   UNL     1      -0.964  -0.785  -4.507  1.00  0.00    -0.422 OA
ATOM     22  C   UNL     1      -0.646   1.913  -5.314  1.00  0.00    -0.026 A 
ATOM     23  C   UNL     1      -1.294  -0.443  -5.797  1.00  0.00     0.339 A 
ATOM     24  C   UNL     1      -0.568   3.349  -5.767  1.00  0.00     0.046 C 
ATOM     25  C   UNL     1      -1.141   0.986  -6.170  1.00  0.00     0.038 A 
ATOM     26  O   UNL     1      -1.719  -1.279  -6.586  1.00  0.00    -0.246 OA
ATOM     27  C   UNL     1      -1.587   1.248  -7.588  1.00  0.00     0.052 C 
ENDBRANCH  13  14
ENDBRANCH  12  13
ENDBRANCH   9  12
ENDBRANCH   7   8
BRANCH   7  28
ATOM     28  C   UNL     1      -3.262   4.205  -3.170  1.00  0.00     0.070 C 
BRANCH  28  29
ATOM     29  C   UNL     1      -4.538   3.962  -2.402  1.00  0.00    -0.045 A 
ATOM     30  C   UNL     1      -4.637   2.897  -1.495  1.00  0.00     0.005 A 
ATOM     31  C   UNL     1      -5.649   4.797  -2.594  1.00  0.00     0.005 A 
ATOM     32  C   UNL     1      -5.813   2.695  -0.766  1.00  0.00     0.021 A 
ATOM     33  C   UNL     1      -6.821   4.601  -1.859  1.00  0.00     0.021 A 
ATOM     34  C   UNL     1      -6.894   3.555  -0.942  1.00  0.00     0.041 A 
ATOM     35  Cl  UNL     1      -8.321   3.343  -0.004  1.00  0.00    -0.084 Cl
ENDBRANCH  28  29
ENDBRANCH   7  28
ENDBRANCH   4   7
ENDBRANCH   2   3
ENDBRANCH   1   2
BRANCH   1  36
ATOM     36  C   UNL     1      -4.743   8.399   1.255  1.00  0.00     0.002 C 
BRANCH  36  37
ATOM     37  C   UNL     1      -6.216   8.258   0.846  1.00  0.00     0.002 C 
BRANCH  37  38
ATOM     38  C   UNL     1      -6.984   7.077   1.446  1.00  0.00     0.021 C 
BRANCH  38  39
ATOM     39  C   UNL     1      -7.018   7.014   2.966  1.00  0.00     0.116 C 
BRANCH  39  40
ATOM     40  N   UNL     1      -7.715   8.131   3.579  1.00  0.00    -0.352 N 
ATOM     41  C   UNL     1      -8.556   8.137   4.671  1.00  0.00     0.251 C 
ATOM     42  H   UNL     1      -7.566   9.006   3.155  1.00  0.00     0.163 HD
ATOM     43  O   UNL     1      -9.139   9.166   4.990  1.00  0.00    -0.269 OA
BRANCH  41  44
ATOM     44  C   UNL     1      -8.793   6.887   5.433  1.00  0.00     0.039 A 
ATOM     45  C   UNL     1      -7.744   6.021   5.747  1.00  0.00     0.014 A 
ATOM     46  C   UNL     1     -10.097   6.568   5.825  1.00  0.00     0.014 A 
ATOM     47  C   UNL     1      -8.019   4.769   6.287  1.00  0.00     0.010 A 
ATOM     48  C   UNL     1     -10.361   5.344   6.450  1.00  0.00     0.010 A 
ATOM     49  C   UNL     1      -9.331   4.409   6.636  1.00  0.00    -0.014 A 
BRANCH  49  50
ATOM     50  C   UNL     1      -9.589   3.044   7.170  1.00  0.00     0.031 A 
ATOM     51  C   UNL     1     -10.427   2.058   6.398  1.00  0.00     0.074 A 
ATOM     52  C   UNL     1      -8.998   2.664   8.319  1.00  0.00     0.049 A 
ATOM     53  N   UNL     1     -10.690   0.804   6.674  1.00  0.00    -0.248 NA
ATOM     54  C   UNL     1     -11.055   2.540   5.158  1.00  0.00     0.031 C 
ATOM     55  C   UNL     1      -8.167   3.524   9.165  1.00  0.00     0.029 A 
ATOM     56  N   UNL     1      -8.974   1.449   8.956  1.00  0.00    -0.354 N 
ATOM     57  C   UNL     1     -11.524   0.355   5.657  1.00  0.00     0.074 A 
ATOM     58  C   UNL     1     -11.751   1.479   4.774  1.00  0.00     0.031 C 
ATOM     59  C   UNL     1      -7.663   2.794  10.172  1.00  0.00     0.029 A 
ATOM     60  C   UNL     1      -8.177   1.432  10.075  1.00  0.00     0.049 A 
ATOM     61  H   UNL     1      -9.480   0.665   8.642  1.00  0.00     0.167 HD
ATOM     62  C   UNL     1     -12.041  -0.883   5.464  1.00  0.00     0.037 A 
ATOM     63  C   UNL     1      -7.890   0.432  10.928  1.00  0.00     0.037 A 
ATOM     64  C   UNL     1     -11.799  -2.011   6.325  1.00  0.00     0.049 A 
ATOM     65  C   UNL     1      -8.495  -0.923  10.702  1.00  0.00     0.074 A 
ATOM     66  C   UNL     1     -12.257  -3.311   6.197  1.00  0.00     0.029 A 
ATOM     67  N   UNL     1     -11.027  -1.973   7.477  1.00  0.00    -0.354 N 
ATOM     68  N   UNL     1      -9.261  -1.335   9.722  1.00  0.00    -0.248 NA
ATOM     69  C   UNL     1      -8.197  -1.952  11.708  1.00  0.00     0.031 C 
ATOM     70  C   UNL     1     -11.792  -4.051   7.290  1.00  0.00     0.029 A 
ATOM     71  C   UNL     1     -11.012  -3.221   8.079  1.00  0.00     0.049 A 
ATOM     72  H   UNL     1     -10.559  -1.176   7.817  1.00  0.00     0.167 HD
ATOM     73  C   UNL     1      -9.531  -2.670   9.987  1.00  0.00     0.074 A 
ATOM     74  C   UNL     1      -8.820  -3.007  11.204  1.00  0.00     0.031 C 
ATOM     75  C   UNL     1     -10.306  -3.538   9.293  1.00  0.00     0.037 A 
BRANCH  62  76
ATOM     76  C   UNL     1     -12.933  -1.079   4.272  1.00  0.00     0.057 A 
ATOM     77  C   UNL     1     -14.313  -1.259   4.434  1.00  0.00     0.134 A 
ATOM     78  C   UNL     1     -12.425  -1.117   2.967  1.00  0.00     0.134 A 
ATOM     79  F   UNL     1     -14.863  -1.241   5.657  1.00  0.00    -0.206 F 
ATOM     80  C   UNL     1     -15.155  -1.468   3.341  1.00  0.00     0.040 A 
ATOM     81  C   UNL     1     -13.261  -1.302   1.863  1.00  0.00     0.040 A 
ATOM     82  F   UNL     1     -11.115  -0.940   2.742  1.00  0.00    -0.206 F 
ATOM     83  C   UNL     1     -14.630  -1.483   2.050  1.00  0.00     0.006 A 
ENDBRANCH  62  76
BRANCH  63  84
ATOM     84  C   UNL     1      -6.987   0.671  12.081  1.00  0.00     0.057 A 
ATOM     85  C   UNL     1      -7.379   1.474  13.159  1.00  0.00     0.134 A 
ATOM     86  C   UNL     1      -5.720   0.081  12.142  1.00  0.00     0.134 A 
ATOM     87  F   UNL     1      -8.580   2.070  13.158  1.00  0.00    -0.206 F 
ATOM     88  C   UNL     1      -6.541   1.685  14.254  1.00  0.00     0.040 A 
ATOM     89  C   UNL     1      -4.881   0.263  13.243  1.00  0.00     0.040 A 
ATOM     90  F   UNL     1      -5.297  -0.715  11.149  1.00  0.00    -0.206 F 
ATOM     91  C   UNL     1      -5.291   1.071  14.302  1.00  0.00     0.006 A 
ENDBRANCH  63  84
BRANCH  75  92
ATOM     92  C   UNL     1     -10.407  -4.933   9.834  1.00  0.00     0.057 A 
ATOM     93  C   UNL     1      -9.759  -5.998   9.196  1.00  0.00     0.134 A 
ATOM     94  C   UNL     1     -11.143  -5.221  10.991  1.00  0.00     0.134 A 
ATOM     95  F   UNL     1      -9.043  -5.791   8.081  1.00  0.00    -0.206 F 
ATOM     96  C   UNL     1      -9.834  -7.300   9.694  1.00  0.00     0.040 A 
ATOM     97  C   UNL     1     -11.204  -6.514  11.512  1.00  0.00     0.040 A 
ATOM     98  F   UNL     1     -11.771  -4.241  11.658  1.00  0.00    -0.206 F 
ATOM     99  C   UNL     1     -10.551  -7.559  10.861  1.00  0.00     0.006 A 
ENDBRANCH  75  92
ENDBRANCH  49  50
ENDBRANCH  41  44
ENDBRANCH  39  40
ENDBRANCH  38  39
ENDBRANCH  37  38
ENDBRANCH  36  37
ENDBRANCH   1  36
TORSDOF 19
