REMARK SMILES Nc1oc(-c2ccccc2)cc1C(=O)NCCCCCCNC(=O)c1ccc(-c2c3nc(c(-c4c(F)cccc4F)c4ccc([nH]4)c(-c4c(F)cccc4F)c4nc(c(-c5c(F)cccc5F)c5ccc2[nH]5)C=C4)C=C3)cc1
REMARK SMILES IDX 19 1 18 2 17 3 16 4 15 5 13 6 14 7 12 9 2 10 3 11 4 12 11 13
REMARK SMILES IDX 1 14 5 17 6 18 10 19 7 20 9 21 8 22 20 23 21 24 22 25 23 26
REMARK SMILES IDX 24 28 25 29 26 30 78 31 27 32 77 33 28 34 29 35 30 36 71 37
REMARK SMILES IDX 31 38 76 39 70 40 72 41 32 42 75 43 69 44 68 45 33 47 59 48
REMARK SMILES IDX 42 49 58 50 43 51 46 52 57 53 73 54 44 55 45 56 56 58 74 59
REMARK SMILES IDX 47 60 34 61 35 62 40 63 36 64 37 65 39 66 41 67 38 68 60 69
REMARK SMILES IDX 61 70 66 71 62 72 63 73 65 74 67 75 64 76 48 77 49 78 54 79
REMARK SMILES IDX 50 80 51 81 53 82 55 83 52 84
REMARK H PARENT 15 8 1 15 1 16 22 27 72 46 46 57
REMARK Flexibility Score: inf
ROOT
ATOM      1  C   UNL     1      -5.636  -2.332   3.927  1.00  0.00     0.002 C 
ENDROOT
BRANCH   1   2
ATOM      2  C   UNL     1      -5.536  -1.648   2.551  1.00  0.00     0.002 C 
BRANCH   2   3
ATOM      3  C   UNL     1      -4.694  -0.366   2.509  1.00  0.00     0.021 C 
BRANCH   3   4
ATOM      4  C   UNL     1      -3.295  -0.553   3.091  1.00  0.00     0.116 C 
BRANCH   4   5
ATOM      5  N   UNL     1      -2.432  -1.230   2.148  1.00  0.00    -0.352 N 
ATOM      6  C   UNL     1      -1.367  -0.821   1.387  1.00  0.00     0.256 C 
ATOM      7  O   UNL     1      -0.858  -1.682   0.664  1.00  0.00    -0.269 OA
ATOM      8  H   UNL     1      -2.656  -2.181   2.027  1.00  0.00     0.163 HD
BRANCH   6   9
ATOM      9  C   UNL     1      -0.835   0.532   1.462  1.00  0.00     0.103 A 
ATOM     10  C   UNL     1       0.374   0.907   0.889  1.00  0.00     0.203 A 
ATOM     11  O   UNL     1       0.698   2.193   1.192  1.00  0.00    -0.440 OA
ATOM     12  C   UNL     1      -0.320   2.671   1.952  1.00  0.00     0.137 A 
ATOM     13  C   UNL     1      -1.316   1.729   2.054  1.00  0.00     0.067 A 
BRANCH  10  14
ATOM     14  N   UNL     1       1.255   0.243   0.136  1.00  0.00    -0.369 N 
ATOM     15  H   UNL     1       2.071   0.693  -0.180  1.00  0.00     0.159 HD
ATOM     16  H   UNL     1       1.087  -0.698  -0.103  1.00  0.00     0.159 HD
ENDBRANCH  10  14
BRANCH  12  17
ATOM     17  C   UNL     1      -0.205   3.993   2.529  1.00  0.00     0.017 A 
ATOM     18  C   UNL     1      -0.152   5.134   1.728  1.00  0.00     0.012 A 
ATOM     19  C   UNL     1      -0.293   4.133   3.924  1.00  0.00     0.012 A 
ATOM     20  C   UNL     1      -0.225   6.401   2.314  1.00  0.00     0.001 A 
ATOM     21  C   UNL     1      -0.356   5.397   4.508  1.00  0.00     0.001 A 
ATOM     22  C   UNL     1      -0.335   6.531   3.700  1.00  0.00     0.000 A 
ENDBRANCH  12  17
ENDBRANCH   6   9
ENDBRANCH   4   5
ENDBRANCH   3   4
ENDBRANCH   2   3
ENDBRANCH   1   2
BRANCH   1  23
ATOM     23  C   UNL     1      -6.023  -1.436   5.115  1.00  0.00     0.021 C 
BRANCH  23  24
ATOM     24  C   UNL     1      -7.429  -0.877   5.014  1.00  0.00     0.116 C 
BRANCH  24  25
ATOM     25  N   UNL     1      -8.463  -1.921   5.066  1.00  0.00    -0.352 N 
ATOM     26  C   UNL     1      -9.842  -1.807   4.939  1.00  0.00     0.251 C 
ATOM     27  H   UNL     1      -8.128  -2.835   5.211  1.00  0.00     0.163 HD
ATOM     28  O   UNL     1     -10.588  -2.678   5.351  1.00  0.00    -0.269 OA
BRANCH  26  29
ATOM     29  C   UNL     1     -10.385  -0.609   4.274  1.00  0.00     0.039 A 
ATOM     30  C   UNL     1     -11.600  -0.007   4.612  1.00  0.00     0.014 A 
ATOM     31  C   UNL     1      -9.586  -0.052   3.293  1.00  0.00     0.014 A 
ATOM     32  C   UNL     1     -11.966   1.153   3.930  1.00  0.00     0.010 A 
ATOM     33  C   UNL     1      -9.741   1.259   2.993  1.00  0.00     0.010 A 
ATOM     34  C   UNL     1     -11.016   1.761   3.097  1.00  0.00    -0.014 A 
BRANCH  34  35
ATOM     35  C   UNL     1     -11.255   2.951   2.304  1.00  0.00     0.031 A 
ATOM     36  C   UNL     1     -11.551   4.149   3.112  1.00  0.00     0.074 A 
ATOM     37  C   UNL     1     -10.955   3.008   0.984  1.00  0.00     0.049 A 
ATOM     38  N   UNL     1     -12.685   4.746   3.234  1.00  0.00    -0.248 NA
ATOM     39  C   UNL     1     -10.514   4.632   4.037  1.00  0.00     0.031 C 
ATOM     40  C   UNL     1     -10.314   2.002   0.121  1.00  0.00     0.029 A 
ATOM     41  N   UNL     1     -11.099   4.061   0.137  1.00  0.00    -0.354 N 
ATOM     42  C   UNL     1     -12.458   5.816   4.091  1.00  0.00     0.074 A 
ATOM     43  C   UNL     1     -11.183   5.570   4.710  1.00  0.00     0.031 C 
ATOM     44  C   UNL     1      -9.939   2.569  -1.049  1.00  0.00     0.029 A 
ATOM     45  C   UNL     1     -10.457   3.922  -1.091  1.00  0.00     0.049 A 
ATOM     46  H   UNL     1     -11.619   4.863   0.374  1.00  0.00     0.167 HD
ATOM     47  C   UNL     1     -13.235   6.932   4.033  1.00  0.00     0.037 A 
ATOM     48  C   UNL     1     -10.352   4.884  -2.044  1.00  0.00     0.037 A 
ATOM     49  C   UNL     1     -14.415   6.692   3.237  1.00  0.00     0.049 A 
ATOM     50  C   UNL     1     -11.409   5.891  -1.755  1.00  0.00     0.074 A 
ATOM     51  C   UNL     1     -15.495   5.837   3.343  1.00  0.00     0.029 A 
ATOM     52  N   UNL     1     -14.381   7.093   1.921  1.00  0.00    -0.354 N 
ATOM     53  N   UNL     1     -12.686   5.641  -1.854  1.00  0.00    -0.248 NA
ATOM     54  C   UNL     1     -11.055   6.990  -0.867  1.00  0.00     0.031 C 
ATOM     55  C   UNL     1     -15.739   5.389   2.011  1.00  0.00     0.029 A 
ATOM     56  C   UNL     1     -14.857   6.056   1.159  1.00  0.00     0.049 A 
ATOM     57  H   UNL     1     -14.070   7.966   1.587  1.00  0.00     0.167 HD
ATOM     58  C   UNL     1     -13.258   6.250  -0.744  1.00  0.00     0.074 A 
ATOM     59  C   UNL     1     -12.209   7.116  -0.204  1.00  0.00     0.031 C 
ATOM     60  C   UNL     1     -14.411   5.772  -0.188  1.00  0.00     0.037 A 
BRANCH  47  61
ATOM     61  C   UNL     1     -12.774   8.325   4.373  1.00  0.00     0.057 A 
ATOM     62  C   UNL     1     -13.723   9.363   4.406  1.00  0.00     0.134 A 
ATOM     63  C   UNL     1     -11.429   8.743   4.392  1.00  0.00     0.134 A 
ATOM     64  F   UNL     1     -15.038   9.095   4.393  1.00  0.00    -0.206 F 
ATOM     65  C   UNL     1     -13.360  10.713   4.374  1.00  0.00     0.040 A 
ATOM     66  C   UNL     1     -11.055  10.089   4.413  1.00  0.00     0.040 A 
ATOM     67  F   UNL     1     -10.405   7.889   4.291  1.00  0.00    -0.206 F 
ATOM     68  C   UNL     1     -12.021  11.081   4.368  1.00  0.00     0.006 A 
ENDBRANCH  47  61
BRANCH  48  69
ATOM     69  C   UNL     1      -9.215   5.165  -2.952  1.00  0.00     0.057 A 
ATOM     70  C   UNL     1      -9.363   5.975  -4.088  1.00  0.00     0.134 A 
ATOM     71  C   UNL     1      -7.891   4.880  -2.570  1.00  0.00     0.134 A 
ATOM     72  F   UNL     1     -10.584   6.338  -4.508  1.00  0.00    -0.206 F 
ATOM     73  C   UNL     1      -8.261   6.491  -4.788  1.00  0.00     0.040 A 
ATOM     74  C   UNL     1      -6.784   5.387  -3.260  1.00  0.00     0.040 A 
ATOM     75  F   UNL     1      -7.631   4.176  -1.459  1.00  0.00    -0.206 F 
ATOM     76  C   UNL     1      -6.966   6.207  -4.366  1.00  0.00     0.006 A 
ENDBRANCH  48  69
BRANCH  60  77
ATOM     77  C   UNL     1     -15.162   4.696  -0.928  1.00  0.00     0.057 A 
ATOM     78  C   UNL     1     -14.671   3.399  -1.150  1.00  0.00     0.134 A 
ATOM     79  C   UNL     1     -16.500   4.924  -1.265  1.00  0.00     0.134 A 
ATOM     80  F   UNL     1     -13.435   3.053  -0.775  1.00  0.00    -0.206 F 
ATOM     81  C   UNL     1     -15.463   2.389  -1.708  1.00  0.00     0.040 A 
ATOM     82  C   UNL     1     -17.312   3.917  -1.793  1.00  0.00     0.040 A 
ATOM     83  F   UNL     1     -17.058   6.122  -1.030  1.00  0.00    -0.206 F 
ATOM     84  C   UNL     1     -16.793   2.646  -2.023  1.00  0.00     0.006 A 
ENDBRANCH  60  77
ENDBRANCH  34  35
ENDBRANCH  26  29
ENDBRANCH  24  25
ENDBRANCH  23  24
ENDBRANCH   1  23
TORSDOF 15
