REMARK SMILES Cn1cncc1COc1c(F)cc(C(=O)NCCCCCCNC(=O)c2ccc(-c3c4nc(c(-c5c(F)cccc5F)c5ccc([nH]5)c(-c5c(F)cccc5F)c5nc(c(-c6c(F)cccc6F)c6ccc3[nH]6)C=C5)C=C4)cc2)cc1F
REMARK SMILES IDX 19 1 18 2 17 3 16 4 14 5 15 6 13 8 9 9 10 10 81 11 11 12
REMARK SMILES IDX 12 13 80 14 82 15 8 16 7 17 6 18 1 19 2 20 3 21 4 22 5 23
REMARK SMILES IDX 20 24 21 25 22 26 23 27 24 28 25 30 26 31 27 32 79 33 28 34
REMARK SMILES IDX 78 35 29 36 30 37 31 38 72 39 32 40 77 41 71 42 73 43 33 44
REMARK SMILES IDX 76 45 70 46 69 47 34 49 60 50 43 51 59 52 44 53 47 54 58 55
REMARK SMILES IDX 74 56 45 57 46 58 57 60 75 61 48 62 35 63 36 64 41 65 37 66
REMARK SMILES IDX 38 67 40 68 42 69 39 70 61 71 62 72 67 73 63 74 64 75 66 76
REMARK SMILES IDX 68 77 65 78 49 79 50 80 55 81 51 82 52 83 54 84 56 85 53 86
REMARK H PARENT 16 7 23 29 73 48 47 59
REMARK Flexibility Score: inf
ROOT
ATOM      1  C   UNL     1      -0.534   2.654   7.544  1.00  0.00     0.002 C 
ENDROOT
BRANCH   1   2
ATOM      2  C   UNL     1      -0.472   1.782   6.285  1.00  0.00     0.021 C 
BRANCH   2   3
ATOM      3  C   UNL     1       0.884   1.099   6.077  1.00  0.00     0.116 C 
BRANCH   3   4
ATOM      4  N   UNL     1       0.956  -0.154   6.809  1.00  0.00    -0.352 N 
ATOM      5  C   UNL     1       0.853  -1.465   6.414  1.00  0.00     0.251 C 
ATOM      6  O   UNL     1       1.066  -2.341   7.251  1.00  0.00    -0.269 OA
ATOM      7  H   UNL     1       1.107  -0.042   7.775  1.00  0.00     0.163 HD
BRANCH   5   8
ATOM      8  C   UNL     1       0.525  -1.873   5.020  1.00  0.00     0.045 A 
ATOM      9  C   UNL     1      -0.028  -2.738   2.386  1.00  0.00     0.191 A 
ATOM     10  C   UNL     1      -0.486  -1.513   2.858  1.00  0.00     0.168 A 
ATOM     11  C   UNL     1       0.636  -3.571   3.281  1.00  0.00     0.168 A 
ATOM     12  F   UNL     1      -1.241  -0.712   2.100  1.00  0.00    -0.203 F 
ATOM     13  C   UNL     1      -0.222  -1.084   4.153  1.00  0.00     0.057 A 
ATOM     14  C   UNL     1       0.919  -3.149   4.585  1.00  0.00     0.057 A 
ATOM     15  F   UNL     1       1.008  -4.803   2.906  1.00  0.00    -0.203 F 
BRANCH   9  16
ATOM     16  O   UNL     1      -0.353  -3.181   1.132  1.00  0.00    -0.481 OA
BRANCH  16  17
ATOM     17  C   UNL     1       0.501  -2.658   0.098  1.00  0.00     0.285 C 
BRANCH  17  18
ATOM     18  C   UNL     1       0.004  -1.322  -0.331  1.00  0.00     0.075 A 
ATOM     19  C   UNL     1       2.170  -0.039  -0.141  1.00  0.00     0.151 C 
ATOM     20  N   UNL     1       0.755  -0.170  -0.377  1.00  0.00    -0.335 N 
ATOM     21  C   UNL     1      -0.083   0.864  -0.687  1.00  0.00     0.199 A 
ATOM     22  N   UNL     1      -1.303   0.441  -0.921  1.00  0.00    -0.245 NA
ATOM     23  C   UNL     1      -1.261  -0.912  -0.709  1.00  0.00     0.138 A 
ENDBRANCH  17  18
ENDBRANCH  16  17
ENDBRANCH   9  16
ENDBRANCH   5   8
ENDBRANCH   3   4
ENDBRANCH   2   3
ENDBRANCH   1   2
BRANCH   1  24
ATOM     24  C   UNL     1       0.435   3.842   7.552  1.00  0.00     0.002 C 
BRANCH  24  25
ATOM     25  C   UNL     1       0.296   4.797   6.364  1.00  0.00     0.021 C 
BRANCH  25  26
ATOM     26  C   UNL     1      -1.060   5.490   6.277  1.00  0.00     0.116 C 
BRANCH  26  27
ATOM     27  N   UNL     1      -1.297   6.346   7.430  1.00  0.00    -0.352 N 
ATOM     28  C   UNL     1      -1.443   7.710   7.488  1.00  0.00     0.251 C 
ATOM     29  H   UNL     1      -1.363   5.879   8.294  1.00  0.00     0.163 HD
ATOM     30  O   UNL     1      -1.373   8.299   8.559  1.00  0.00    -0.269 OA
BRANCH  28  31
ATOM     31  C   UNL     1      -1.673   8.468   6.241  1.00  0.00     0.039 A 
ATOM     32  C   UNL     1      -0.948   9.638   6.010  1.00  0.00     0.014 A 
ATOM     33  C   UNL     1      -2.604   8.014   5.303  1.00  0.00     0.014 A 
ATOM     34  C   UNL     1      -1.103  10.315   4.799  1.00  0.00     0.010 A 
ATOM     35  C   UNL     1      -2.703   8.648   4.069  1.00  0.00     0.010 A 
ATOM     36  C   UNL     1      -1.949   9.800   3.803  1.00  0.00    -0.014 A 
BRANCH  36  37
ATOM     37  C   UNL     1      -2.041  10.432   2.464  1.00  0.00     0.031 A 
ATOM     38  C   UNL     1      -3.341  11.019   1.994  1.00  0.00     0.074 A 
ATOM     39  C   UNL     1      -0.972  10.405   1.645  1.00  0.00     0.049 A 
ATOM     40  N   UNL     1      -3.642  11.525   0.826  1.00  0.00    -0.248 NA
ATOM     41  C   UNL     1      -4.456  11.018   2.955  1.00  0.00     0.031 C 
ATOM     42  C   UNL     1       0.334   9.833   1.980  1.00  0.00     0.029 A 
ATOM     43  N   UNL     1      -0.815  10.858   0.360  1.00  0.00    -0.354 N 
ATOM     44  C   UNL     1      -4.978  11.895   0.909  1.00  0.00     0.074 A 
ATOM     45  C   UNL     1      -5.445  11.508   2.222  1.00  0.00     0.031 C 
ATOM     46  C   UNL     1       1.164   9.993   0.938  1.00  0.00     0.029 A 
ATOM     47  C   UNL     1       0.439  10.631  -0.156  1.00  0.00     0.049 A 
ATOM     48  H   UNL     1      -1.533  11.304  -0.146  1.00  0.00     0.167 HD
ATOM     49  C   UNL     1      -5.737  12.523  -0.019  1.00  0.00     0.037 A 
ATOM     50  C   UNL     1       0.943  10.894  -1.377  1.00  0.00     0.037 A 
ATOM     51  C   UNL     1      -5.259  12.919  -1.317  1.00  0.00     0.049 A 
ATOM     52  C   UNL     1       0.065  11.551  -2.406  1.00  0.00     0.074 A 
ATOM     53  C   UNL     1      -5.938  13.604  -2.310  1.00  0.00     0.029 A 
ATOM     54  N   UNL     1      -3.987  12.661  -1.805  1.00  0.00    -0.354 N 
ATOM     55  N   UNL     1      -1.179  11.948  -2.295  1.00  0.00    -0.248 NA
ATOM     56  C   UNL     1       0.656  11.793  -3.730  1.00  0.00     0.031 C 
ATOM     57  C   UNL     1      -5.095  13.713  -3.418  1.00  0.00     0.029 A 
ATOM     58  C   UNL     1      -3.871  13.147  -3.097  1.00  0.00     0.049 A 
ATOM     59  H   UNL     1      -3.273  12.201  -1.307  1.00  0.00     0.167 HD
ATOM     60  C   UNL     1      -1.512  12.507  -3.521  1.00  0.00     0.074 A 
ATOM     61  C   UNL     1      -0.335  12.409  -4.359  1.00  0.00     0.031 C 
ATOM     62  C   UNL     1      -2.689  13.050  -3.916  1.00  0.00     0.037 A 
BRANCH  49  63
ATOM     63  C   UNL     1      -7.163  12.833   0.334  1.00  0.00     0.057 A 
ATOM     64  C   UNL     1      -8.220  12.195  -0.328  1.00  0.00     0.134 A 
ATOM     65  C   UNL     1      -7.491  13.814   1.279  1.00  0.00     0.134 A 
ATOM     66  F   UNL     1      -7.978  11.252  -1.250  1.00  0.00    -0.206 F 
ATOM     67  C   UNL     1      -9.551  12.532  -0.071  1.00  0.00     0.040 A 
ATOM     68  C   UNL     1      -8.818  14.139   1.564  1.00  0.00     0.040 A 
ATOM     69  F   UNL     1      -6.526  14.456   1.955  1.00  0.00    -0.206 F 
ATOM     70  C   UNL     1      -9.852  13.504   0.880  1.00  0.00     0.006 A 
ENDBRANCH  49  63
BRANCH  50  71
ATOM     71  C   UNL     1       2.356  10.552  -1.680  1.00  0.00     0.057 A 
ATOM     72  C   UNL     1       2.789   9.223  -1.773  1.00  0.00     0.134 A 
ATOM     73  C   UNL     1       3.316  11.555  -1.859  1.00  0.00     0.134 A 
ATOM     74  F   UNL     1       1.922   8.214  -1.603  1.00  0.00    -0.206 F 
ATOM     75  C   UNL     1       4.127   8.904  -2.014  1.00  0.00     0.040 A 
ATOM     76  C   UNL     1       4.652  11.251  -2.126  1.00  0.00     0.040 A 
ATOM     77  F   UNL     1       2.961  12.847  -1.798  1.00  0.00    -0.206 F 
ATOM     78  C   UNL     1       5.062   9.921  -2.196  1.00  0.00     0.006 A 
ENDBRANCH  50  71
BRANCH  62  79
ATOM     79  C   UNL     1      -2.773  13.604  -5.308  1.00  0.00     0.057 A 
ATOM     80  C   UNL     1      -2.887  14.985  -5.520  1.00  0.00     0.134 A 
ATOM     81  C   UNL     1      -2.845  12.768  -6.428  1.00  0.00     0.134 A 
ATOM     82  F   UNL     1      -2.836  15.839  -4.487  1.00  0.00    -0.206 F 
ATOM     83  C   UNL     1      -3.096  15.512  -6.795  1.00  0.00     0.040 A 
ATOM     84  C   UNL     1      -3.028  13.286  -7.712  1.00  0.00     0.040 A 
ATOM     85  F   UNL     1      -2.731  11.438  -6.294  1.00  0.00    -0.206 F 
ATOM     86  C   UNL     1      -3.168  14.661  -7.895  1.00  0.00     0.006 A 
ENDBRANCH  62  79
ENDBRANCH  36  37
ENDBRANCH  28  31
ENDBRANCH  26  27
ENDBRANCH  25  26
ENDBRANCH  24  25
ENDBRANCH   1  24
TORSDOF 16
