REMARK SMILES Cc1cc(C)c(C(=O)NCCCCCCNC(=O)c2ccc(-c3c4nc(c(-c5c(F)cccc5F)c5ccc([nH]5)c(-c5c(F)cccc5F)c5nc(c(-c6c(F)cccc6F)c6ccc3[nH]6)C=C5)C=C4)cc2)c(N[C@@H](CO)C(C)C)n1
REMARK SMILES IDX 11 1 10 2 9 3 7 4 8 5 6 7 1 8 2 9 3 10 81 11 4 12 73 13 5 14
REMARK SMILES IDX 74 15 75 17 76 18 77 19 78 21 79 22 80 23 12 24 13 25 14 26
REMARK SMILES IDX 15 27 16 28 17 29 18 31 19 32 20 33 72 34 21 35 71 36 22 37
REMARK SMILES IDX 23 38 24 39 65 40 25 41 70 42 64 43 66 44 26 45 69 46 63 47
REMARK SMILES IDX 62 48 27 50 53 51 36 52 52 53 37 54 40 55 51 56 67 57 38 58
REMARK SMILES IDX 39 59 50 61 68 62 41 63 28 64 29 65 34 66 30 67 31 68 33 69
REMARK SMILES IDX 35 70 32 71 54 72 55 73 60 74 56 75 57 76 59 77 61 78 58 79
REMARK SMILES IDX 42 80 43 81 48 82 44 83 45 84 47 85 49 86 46 87
REMARK H PARENT 9 6 74 16 77 20 16 30 66 49 40 60
REMARK Flexibility Score: inf
ROOT
ATOM      1  C   UNL     1       5.021  -0.122   1.867  1.00  0.00     0.021 C 
ENDROOT
BRANCH   1   2
ATOM      2  C   UNL     1       3.866  -0.039   0.872  1.00  0.00     0.116 C 
BRANCH   2   3
ATOM      3  N   UNL     1       3.496  -1.290   0.243  1.00  0.00    -0.352 N 
ATOM      4  C   UNL     1       2.306  -1.702  -0.323  1.00  0.00     0.255 C 
ATOM      5  O   UNL     1       2.288  -2.826  -0.831  1.00  0.00    -0.269 OA
ATOM      6  H   UNL     1       4.215  -1.961   0.215  1.00  0.00     0.163 HD
BRANCH   4   7
ATOM      7  C   UNL     1       1.041  -0.899  -0.282  1.00  0.00     0.085 A 
ATOM      8  C   UNL     1      -2.725   1.066   0.119  1.00  0.00     0.067 C 
ATOM      9  C   UNL     1      -1.397   0.398  -0.060  1.00  0.00     0.040 A 
ATOM     10  C   UNL     1      -0.279   1.128  -0.416  1.00  0.00     0.028 A 
ATOM     11  N   UNL     1      -1.348  -0.934   0.110  1.00  0.00    -0.236 NA
ATOM     12  C   UNL     1       0.949   0.473  -0.598  1.00  0.00    -0.033 A 
ATOM     13  C   UNL     1      -0.167  -1.589  -0.012  1.00  0.00     0.139 A 
ATOM     14  C   UNL     1       2.047   1.301  -1.195  1.00  0.00     0.045 C 
BRANCH  13  15
ATOM     15  N   UNL     1      -0.220  -2.966   0.140  1.00  0.00    -0.364 N 
ATOM     16  H   UNL     1       0.613  -3.465   0.303  1.00  0.00     0.162 HD
BRANCH  15  17
ATOM     17  C   UNL     1      -1.491  -3.699   0.062  1.00  0.00     0.108 C 
BRANCH  17  18
ATOM     18  C   UNL     1      -1.541  -4.467  -1.282  1.00  0.00     0.181 C 
BRANCH  18  19
ATOM     19  O   UNL     1      -0.544  -5.485  -1.360  1.00  0.00    -0.394 OA
ATOM     20  H   UNL     1       0.336  -5.082  -1.297  1.00  0.00     0.210 HD
ENDBRANCH  18  19
ENDBRANCH  17  18
BRANCH  17  21
ATOM     21  C   UNL     1      -1.630  -4.617   1.305  1.00  0.00     0.007 C 
ATOM     22  C   UNL     1      -1.540  -3.799   2.602  1.00  0.00     0.009 C 
ATOM     23  C   UNL     1      -2.961  -5.380   1.300  1.00  0.00     0.009 C 
ENDBRANCH  17  21
ENDBRANCH  15  17
ENDBRANCH  13  15
ENDBRANCH   4   7
ENDBRANCH   2   3
ENDBRANCH   1   2
BRANCH   1  24
ATOM     24  C   UNL     1       6.368  -0.630   1.335  1.00  0.00     0.002 C 
BRANCH  24  25
ATOM     25  C   UNL     1       6.895  -0.033   0.027  1.00  0.00     0.002 C 
BRANCH  25  26
ATOM     26  C   UNL     1       6.998   1.490  -0.064  1.00  0.00     0.021 C 
BRANCH  26  27
ATOM     27  C   UNL     1       7.733   2.195   1.069  1.00  0.00     0.116 C 
BRANCH  27  28
ATOM     28  N   UNL     1       9.114   1.774   1.222  1.00  0.00    -0.352 N 
ATOM     29  C   UNL     1      10.250   2.532   1.375  1.00  0.00     0.251 C 
ATOM     30  H   UNL     1       9.258   0.800   1.214  1.00  0.00     0.163 HD
ATOM     31  O   UNL     1      11.352   1.990   1.403  1.00  0.00    -0.269 OA
BRANCH  29  32
ATOM     32  C   UNL     1      10.160   4.008   1.467  1.00  0.00     0.039 A 
ATOM     33  C   UNL     1      11.049   4.782   0.715  1.00  0.00     0.014 A 
ATOM     34  C   UNL     1       9.212   4.631   2.283  1.00  0.00     0.014 A 
ATOM     35  C   UNL     1      10.938   6.175   0.722  1.00  0.00     0.010 A 
ATOM     36  C   UNL     1       9.056   6.016   2.233  1.00  0.00     0.010 A 
ATOM     37  C   UNL     1       9.915   6.802   1.449  1.00  0.00    -0.014 A 
BRANCH  37  38
ATOM     38  C   UNL     1       9.718   8.274   1.392  1.00  0.00     0.031 A 
ATOM     39  C   UNL     1       9.883   9.112   2.630  1.00  0.00     0.074 A 
ATOM     40  C   UNL     1       9.322   8.851   0.240  1.00  0.00     0.049 A 
ATOM     41  N   UNL     1       9.679  10.395   2.795  1.00  0.00    -0.248 NA
ATOM     42  C   UNL     1      10.308   8.410   3.851  1.00  0.00     0.031 C 
ATOM     43  C   UNL     1       9.083   8.146  -1.021  1.00  0.00     0.029 A 
ATOM     44  N   UNL     1       9.038  10.161  -0.055  1.00  0.00    -0.354 N 
ATOM     45  C   UNL     1       9.936  10.649   4.136  1.00  0.00     0.074 A 
ATOM     46  C   UNL     1      10.260   9.380   4.752  1.00  0.00     0.031 C 
ATOM     47  C   UNL     1       8.709   9.032  -1.957  1.00  0.00     0.029 A 
ATOM     48  C   UNL     1       8.643  10.361  -1.357  1.00  0.00     0.049 A 
ATOM     49  H   UNL     1       9.110  10.889   0.603  1.00  0.00     0.167 HD
ATOM     50  C   UNL     1       9.924  11.835   4.791  1.00  0.00     0.037 A 
ATOM     51  C   UNL     1       8.263  11.485  -1.993  1.00  0.00     0.037 A 
ATOM     52  C   UNL     1       9.625  13.100   4.172  1.00  0.00     0.049 A 
ATOM     53  C   UNL     1       8.252  12.789  -1.242  1.00  0.00     0.074 A 
ATOM     54  C   UNL     1       9.643  14.363   4.739  1.00  0.00     0.029 A 
ATOM     55  N   UNL     1       9.250  13.262   2.847  1.00  0.00    -0.354 N 
ATOM     56  N   UNL     1       8.559  13.023   0.010  1.00  0.00    -0.248 NA
ATOM     57  C   UNL     1       7.845  13.984  -1.995  1.00  0.00     0.031 C 
ATOM     58  C   UNL     1       9.237  15.284   3.768  1.00  0.00     0.029 A 
ATOM     59  C   UNL     1       9.015  14.601   2.583  1.00  0.00     0.049 A 
ATOM     60  H   UNL     1       9.165  12.533   2.191  1.00  0.00     0.167 HD
ATOM     61  C   UNL     1       8.417  14.394   0.186  1.00  0.00     0.074 A 
ATOM     62  C   UNL     1       8.003  14.939  -1.089  1.00  0.00     0.031 C 
ATOM     63  C   UNL     1       8.616  15.133   1.305  1.00  0.00     0.037 A 
BRANCH  50  64
ATOM     64  C   UNL     1      10.248  11.820   6.258  1.00  0.00     0.057 A 
ATOM     65  C   UNL     1      11.541  11.551   6.726  1.00  0.00     0.134 A 
ATOM     66  C   UNL     1       9.264  12.111   7.211  1.00  0.00     0.134 A 
ATOM     67  F   UNL     1      12.527  11.255   5.867  1.00  0.00    -0.206 F 
ATOM     68  C   UNL     1      11.837  11.544   8.091  1.00  0.00     0.040 A 
ATOM     69  C   UNL     1       9.554  12.135   8.576  1.00  0.00     0.040 A 
ATOM     70  F   UNL     1       8.007  12.385   6.832  1.00  0.00    -0.206 F 
ATOM     71  C   UNL     1      10.843  11.844   9.020  1.00  0.00     0.006 A 
ENDBRANCH  50  64
BRANCH  51  72
ATOM     72  C   UNL     1       7.885  11.435  -3.428  1.00  0.00     0.057 A 
ATOM     73  C   UNL     1       8.702  12.009  -4.410  1.00  0.00     0.134 A 
ATOM     74  C   UNL     1       6.701  10.821  -3.853  1.00  0.00     0.134 A 
ATOM     75  F   UNL     1       9.840  12.628  -4.062  1.00  0.00    -0.206 F 
ATOM     76  C   UNL     1       8.348  11.991  -5.759  1.00  0.00     0.040 A 
ATOM     77  C   UNL     1       6.346  10.773  -5.202  1.00  0.00     0.040 A 
ATOM     78  F   UNL     1       5.879  10.245  -2.963  1.00  0.00    -0.206 F 
ATOM     79  C   UNL     1       7.168  11.366  -6.159  1.00  0.00     0.006 A 
ENDBRANCH  51  72
BRANCH  63  80
ATOM     80  C   UNL     1       8.433  16.618   1.192  1.00  0.00     0.057 A 
ATOM     81  C   UNL     1       7.166  17.203   1.074  1.00  0.00     0.134 A 
ATOM     82  C   UNL     1       9.539  17.476   1.254  1.00  0.00     0.134 A 
ATOM     83  F   UNL     1       6.068  16.436   0.996  1.00  0.00    -0.206 F 
ATOM     84  C   UNL     1       7.007  18.588   1.002  1.00  0.00     0.040 A 
ATOM     85  C   UNL     1       9.390  18.863   1.210  1.00  0.00     0.040 A 
ATOM     86  F   UNL     1      10.779  16.981   1.376  1.00  0.00    -0.206 F 
ATOM     87  C   UNL     1       8.121  19.422   1.079  1.00  0.00     0.006 A 
ENDBRANCH  63  80
ENDBRANCH  37  38
ENDBRANCH  29  32
ENDBRANCH  27  28
ENDBRANCH  26  27
ENDBRANCH  25  26
ENDBRANCH  24  25
ENDBRANCH   1  24
TORSDOF 18
