REMARK SMILES O=C(CCN1C(=O)[C@@H]2[C@@H](C1=O)[C@H]1c3ccccc3[C@]2(Br)c2ccccc21)NCCCCCCNC(=O)c1ccc(-c2c3nc(c(-c4c(F)cccc4F)c4ccc([nH]4)c(-c4c(F)cccc4F)c4nc(c(-c5c(F)cccc5F)c5ccc2[nH]5)C=C4)C=C3)cc1
REMARK SMILES IDX 30 1 29 2 28 3 27 4 1 5 2 6 3 8 4 9 5 10 6 11 10 12 7 13
REMARK SMILES IDX 8 14 9 15 11 16 19 17 12 18 21 19 20 20 18 21 26 22 13 23
REMARK SMILES IDX 22 24 17 25 25 26 14 27 23 28 16 29 24 30 15 31 31 32 32 33
REMARK SMILES IDX 33 34 34 35 35 36 36 38 37 39 38 40 90 41 39 42 89 43 40 44
REMARK SMILES IDX 41 45 42 46 83 47 43 48 88 49 82 50 84 51 44 52 87 53 81 54
REMARK SMILES IDX 80 55 45 57 71 58 54 59 70 60 55 61 58 62 69 63 85 64 56 65
REMARK SMILES IDX 57 66 68 68 86 69 59 70 46 71 47 72 52 73 48 74 49 75 51 76
REMARK SMILES IDX 53 77 50 78 72 79 73 80 78 81 74 82 75 83 77 84 79 85 76 86
REMARK SMILES IDX 60 87 61 88 66 89 62 90 63 91 65 92 67 93 64 94
REMARK H PARENT 27 7 34 37 84 56 58 67
REMARK Flexibility Score: inf
ROOT
ATOM      1  C   UNL     1       3.647  -3.700   1.033  1.00  0.00     0.002 C 
ENDROOT
BRANCH   1   2
ATOM      2  C   UNL     1       2.165  -3.331   0.921  1.00  0.00     0.021 C 
BRANCH   2   3
ATOM      3  C   UNL     1       1.843  -1.875   1.253  1.00  0.00     0.116 C 
BRANCH   3   4
ATOM      4  N   UNL     1       2.588  -0.968   0.407  1.00  0.00    -0.356 N 
ATOM      5  O   UNL     1       0.881   0.516  -0.014  1.00  0.00    -0.275 OA
ATOM      6  C   UNL     1       2.057   0.189  -0.108  1.00  0.00     0.221 C 
ATOM      7  H   UNL     1       3.523  -1.190   0.190  1.00  0.00     0.163 HD
BRANCH   6   8
ATOM      8  C   UNL     1       3.084   1.049  -0.807  1.00  0.00     0.122 C 
BRANCH   8   9
ATOM      9  C   UNL     1       3.877   1.880   0.198  1.00  0.00     0.138 C 
BRANCH   9  10
ATOM     10  N   UNL     1       4.853   1.111   0.966  1.00  0.00    -0.281 N 
ATOM     11  C   UNL     1       4.648   0.673   2.279  1.00  0.00     0.235 C 
ATOM     12  C   UNL     1       6.118   0.777   0.499  1.00  0.00     0.234 C 
ATOM     13  O   UNL     1       3.616   0.684   2.914  1.00  0.00    -0.274 OA
ATOM     14  C   UNL     1       6.029   0.357   2.775  1.00  0.00     0.118 C 
ATOM     15  C   UNL     1       6.614  -0.224   1.488  1.00  0.00     0.105 C 
ATOM     16  O   UNL     1       6.641   1.083  -0.557  1.00  0.00    -0.274 OA
ATOM     17  C   UNL     1       6.592  -0.438   3.976  1.00  0.00     0.088 C 
ATOM     18  C   UNL     1       8.053  -0.660   1.752  1.00  0.00     0.063 C 
ATOM     19  C   UNL     1       7.982   0.247   4.099  1.00  0.00    -0.022 A 
ATOM     20  Br  UNL     1       5.458  -0.244   5.516  1.00  0.00    -0.074 Br
ATOM     21  C   UNL     1       7.010  -1.896   3.655  1.00  0.00    -0.022 A 
ATOM     22  C   UNL     1       8.726   0.180   2.861  1.00  0.00    -0.035 A 
ATOM     23  C   UNL     1       7.799  -2.014   2.456  1.00  0.00    -0.035 A 
ATOM     24  C   UNL     1       8.564   0.782   5.241  1.00  0.00     0.006 A 
ATOM     25  C   UNL     1       6.942  -2.994   4.508  1.00  0.00     0.006 A 
ATOM     26  C   UNL     1      10.022   0.664   2.797  1.00  0.00     0.005 A 
ATOM     27  C   UNL     1       8.377  -3.218   2.068  1.00  0.00     0.005 A 
ATOM     28  C   UNL     1       9.870   1.261   5.159  1.00  0.00     0.000 A 
ATOM     29  C   UNL     1       7.573  -4.187   4.140  1.00  0.00     0.000 A 
ATOM     30  C   UNL     1      10.587   1.208   3.953  1.00  0.00     0.000 A 
ATOM     31  C   UNL     1       8.252  -4.311   2.920  1.00  0.00     0.000 A 
ENDBRANCH   9  10
ENDBRANCH   8   9
ENDBRANCH   6   8
ENDBRANCH   3   4
ENDBRANCH   2   3
ENDBRANCH   1   2
BRANCH   1  32
ATOM     32  C   UNL     1       4.265  -3.487   2.411  1.00  0.00     0.002 C 
BRANCH  32  33
ATOM     33  C   UNL     1       3.681  -4.329   3.539  1.00  0.00     0.021 C 
BRANCH  33  34
ATOM     34  C   UNL     1       3.829  -5.831   3.340  1.00  0.00     0.116 C 
BRANCH  34  35
ATOM     35  N   UNL     1       5.217  -6.287   3.324  1.00  0.00    -0.352 N 
ATOM     36  C   UNL     1       5.801  -7.320   4.026  1.00  0.00     0.251 C 
ATOM     37  H   UNL     1       5.820  -5.787   2.728  1.00  0.00     0.163 HD
ATOM     38  O   UNL     1       7.014  -7.500   4.010  1.00  0.00    -0.269 OA
BRANCH  36  39
ATOM     39  C   UNL     1       4.935  -8.197   4.833  1.00  0.00     0.039 A 
ATOM     40  C   UNL     1       3.752  -8.667   4.270  1.00  0.00     0.014 A 
ATOM     41  C   UNL     1       5.252  -8.472   6.166  1.00  0.00     0.014 A 
ATOM     42  C   UNL     1       2.786  -9.213   5.093  1.00  0.00     0.010 A 
ATOM     43  C   UNL     1       4.324  -9.149   6.963  1.00  0.00     0.010 A 
ATOM     44  C   UNL     1       3.061  -9.474   6.446  1.00  0.00    -0.014 A 
BRANCH  44  45
ATOM     45  C   UNL     1       1.988 -10.098   7.262  1.00  0.00     0.031 A 
ATOM     46  C   UNL     1       1.378  -9.377   8.432  1.00  0.00     0.074 A 
ATOM     47  C   UNL     1       1.486 -11.279   6.851  1.00  0.00     0.049 A 
ATOM     48  N   UNL     1       0.362  -9.733   9.177  1.00  0.00    -0.248 NA
ATOM     49  C   UNL     1       1.984  -8.094   8.821  1.00  0.00     0.031 C 
ATOM     50  C   UNL     1       1.995 -12.059   5.717  1.00  0.00     0.029 A 
ATOM     51  N   UNL     1       0.411 -12.002   7.292  1.00  0.00    -0.354 N 
ATOM     52  C   UNL     1       0.215  -8.730  10.128  1.00  0.00     0.074 A 
ATOM     53  C   UNL     1       1.270  -7.769   9.890  1.00  0.00     0.031 C 
ATOM     54  C   UNL     1       1.180 -13.099   5.497  1.00  0.00     0.029 A 
ATOM     55  C   UNL     1       0.150 -13.113   6.527  1.00  0.00     0.049 A 
ATOM     56  H   UNL     1      -0.123 -11.751   8.081  1.00  0.00     0.167 HD
ATOM     57  C   UNL     1      -0.722  -8.617  11.102  1.00  0.00     0.037 A 
ATOM     58  C   UNL     1      -0.806 -14.050   6.649  1.00  0.00     0.037 A 
ATOM     59  C   UNL     1      -1.770  -9.580  11.328  1.00  0.00     0.049 A 
ATOM     60  C   UNL     1      -1.788 -13.930   7.776  1.00  0.00     0.074 A 
ATOM     61  C   UNL     1      -2.769  -9.563  12.286  1.00  0.00     0.029 A 
ATOM     62  N   UNL     1      -1.950 -10.740  10.586  1.00  0.00    -0.354 N 
ATOM     63  N   UNL     1      -1.918 -12.972   8.663  1.00  0.00    -0.248 NA
ATOM     64  C   UNL     1      -2.750 -15.027   7.926  1.00  0.00     0.031 C 
ATOM     65  C   UNL     1      -3.519 -10.738  12.158  1.00  0.00     0.029 A 
ATOM     66  C   UNL     1      -3.027 -11.458  11.081  1.00  0.00     0.049 A 
ATOM     67  H   UNL     1      -1.395 -11.012   9.820  1.00  0.00     0.167 HD
ATOM     68  C   UNL     1      -2.987 -13.343   9.465  1.00  0.00     0.074 A 
ATOM     69  C   UNL     1      -3.487 -14.597   8.938  1.00  0.00     0.031 C 
ATOM     70  C   UNL     1      -3.506 -12.707  10.545  1.00  0.00     0.037 A 
BRANCH  57  71
ATOM     71  C   UNL     1      -0.629  -7.426  12.015  1.00  0.00     0.057 A 
ATOM     72  C   UNL     1      -0.277  -7.584  13.362  1.00  0.00     0.134 A 
ATOM     73  C   UNL     1      -0.898  -6.123  11.572  1.00  0.00     0.134 A 
ATOM     74  F   UNL     1      -0.014  -8.803  13.859  1.00  0.00    -0.206 F 
ATOM     75  C   UNL     1      -0.189  -6.494  14.230  1.00  0.00     0.040 A 
ATOM     76  C   UNL     1      -0.784  -5.021  12.424  1.00  0.00     0.040 A 
ATOM     77  F   UNL     1      -1.230  -5.895  10.292  1.00  0.00    -0.206 F 
ATOM     78  C   UNL     1      -0.433  -5.207  13.759  1.00  0.00     0.006 A 
ENDBRANCH  57  71
BRANCH  58  79
ATOM     79  C   UNL     1      -0.858 -15.195   5.704  1.00  0.00     0.057 A 
ATOM     80  C   UNL     1       0.167 -16.149   5.661  1.00  0.00     0.134 A 
ATOM     81  C   UNL     1      -1.944 -15.377   4.840  1.00  0.00     0.134 A 
ATOM     82  F   UNL     1       1.240 -16.028   6.456  1.00  0.00    -0.206 F 
ATOM     83  C   UNL     1       0.118 -17.238   4.791  1.00  0.00     0.040 A 
ATOM     84  C   UNL     1      -2.023 -16.481   3.989  1.00  0.00     0.040 A 
ATOM     85  F   UNL     1      -2.964 -14.507   4.844  1.00  0.00    -0.206 F 
ATOM     86  C   UNL     1      -0.987 -17.413   3.961  1.00  0.00     0.006 A 
ENDBRANCH  58  79
BRANCH  70  87
ATOM     87  C   UNL     1      -4.697 -13.351  11.194  1.00  0.00     0.057 A 
ATOM     88  C   UNL     1      -5.965 -12.762  11.096  1.00  0.00     0.134 A 
ATOM     89  C   UNL     1      -4.596 -14.552  11.908  1.00  0.00     0.134 A 
ATOM     90  F   UNL     1      -6.131 -11.608  10.433  1.00  0.00    -0.206 F 
ATOM     91  C   UNL     1      -7.088 -13.349  11.678  1.00  0.00     0.040 A 
ATOM     92  C   UNL     1      -5.718 -15.166  12.466  1.00  0.00     0.040 A 
ATOM     93  F   UNL     1      -3.414 -15.177  12.024  1.00  0.00    -0.206 F 
ATOM     94  C   UNL     1      -6.969 -14.561  12.355  1.00  0.00     0.006 A 
ENDBRANCH  70  87
ENDBRANCH  44  45
ENDBRANCH  36  39
ENDBRANCH  34  35
ENDBRANCH  33  34
ENDBRANCH  32  33
ENDBRANCH   1  32
TORSDOF 15
