REMARK SMILES Cc1cc(C(=O)NCCCCCCNC(=O)c2ccc(-c3c4nc(c(-c5c(F)cccc5F)c5ccc([nH]5)c(-c5c(F)cccc5F)c5nc(c(-c6c(F)cccc6F)c6ccc3[nH]6)C=C5)C=C4)cc2)nc(N2CCN(c3ccccc3Cl)CC2)n1
REMARK SMILES IDX 10 1 9 2 8 3 7 4 5 5 6 6 4 8 1 9 2 10 3 11 86 12 72 13 71 14
REMARK SMILES IDX 73 15 74 16 85 17 75 18 84 19 76 20 77 21 78 22 82 23 79 24
REMARK SMILES IDX 81 25 83 26 80 27 11 28 12 29 13 30 14 31 15 32 16 34 17 35
REMARK SMILES IDX 18 36 70 37 19 38 69 39 20 40 21 41 22 42 63 43 23 44 68 45
REMARK SMILES IDX 62 46 64 47 24 48 67 49 61 50 60 51 25 53 51 54 34 55 50 56
REMARK SMILES IDX 35 57 38 58 49 59 65 60 36 61 37 62 48 64 66 65 39 66 26 67
REMARK SMILES IDX 27 68 32 69 28 70 29 71 31 72 33 73 30 74 52 75 53 76 58 77
REMARK SMILES IDX 54 78 55 79 57 80 59 81 56 82 40 83 41 84 46 85 42 86 43 87
REMARK SMILES IDX 45 88 47 89 44 90
REMARK H PARENT 7 7 14 33 64 52 38 63
REMARK Flexibility Score: inf
ROOT
ATOM      1  C   UNL     1       0.261  -6.074  -1.108  1.00  0.00     0.002 C 
ENDROOT
BRANCH   1   2
ATOM      2  C   UNL     1      -0.375  -4.689  -0.912  1.00  0.00     0.021 C 
BRANCH   2   3
ATOM      3  C   UNL     1       0.093  -4.010   0.375  1.00  0.00     0.116 C 
BRANCH   3   4
ATOM      4  N   UNL     1       1.404  -3.449   0.157  1.00  0.00    -0.351 N 
ATOM      5  C   UNL     1       1.835  -2.197  -0.198  1.00  0.00     0.270 C 
ATOM      6  O   UNL     1       3.034  -2.103  -0.478  1.00  0.00    -0.268 OA
ATOM      7  H   UNL     1       2.136  -4.094   0.289  1.00  0.00     0.163 HD
BRANCH   5   8
ATOM      8  C   UNL     1       0.970  -0.970  -0.188  1.00  0.00     0.133 A 
ATOM      9  C   UNL     1      -2.475   0.458  -0.090  1.00  0.00     0.067 C 
ATOM     10  C   UNL     1      -0.982   0.307  -0.080  1.00  0.00     0.044 A 
ATOM     11  C   UNL     1      -0.397  -0.925  -0.301  1.00  0.00     0.058 A 
ATOM     12  N   UNL     1      -0.259   1.429   0.118  1.00  0.00    -0.218 NA
ATOM     13  C   UNL     1       1.073   1.317   0.062  1.00  0.00     0.226 A 
ATOM     14  N   UNL     1       1.698   0.148  -0.046  1.00  0.00    -0.208 NA
BRANCH  13  15
ATOM     15  N   UNL     1       1.882   2.420   0.057  1.00  0.00    -0.337 N 
ATOM     16  C   UNL     1       1.430   3.682   0.633  1.00  0.00     0.141 C 
ATOM     17  C   UNL     1       2.725   2.517  -1.146  1.00  0.00     0.141 C 
ATOM     18  C   UNL     1       2.660   4.585   0.916  1.00  0.00     0.138 C 
ATOM     19  C   UNL     1       3.929   3.441  -0.896  1.00  0.00     0.138 C 
ATOM     20  N   UNL     1       3.477   4.704  -0.298  1.00  0.00    -0.367 N 
BRANCH  20  21
ATOM     21  C   UNL     1       4.021   5.902  -0.704  1.00  0.00     0.056 A 
ATOM     22  C   UNL     1       4.832   6.636   0.173  1.00  0.00     0.027 A 
ATOM     23  C   UNL     1       3.788   6.446  -1.986  1.00  0.00     0.064 A 
ATOM     24  C   UNL     1       5.393   7.860  -0.206  1.00  0.00     0.002 A 
ATOM     25  C   UNL     1       4.341   7.673  -2.364  1.00  0.00     0.023 A 
ATOM     26  Cl  UNL     1       2.747   5.667  -3.133  1.00  0.00    -0.082 Cl
ATOM     27  C   UNL     1       5.144   8.380  -1.473  1.00  0.00     0.002 A 
ENDBRANCH  20  21
ENDBRANCH  13  15
ENDBRANCH   5   8
ENDBRANCH   3   4
ENDBRANCH   2   3
ENDBRANCH   1   2
BRANCH   1  28
ATOM     28  C   UNL     1      -0.091  -7.092  -0.016  1.00  0.00     0.002 C 
BRANCH  28  29
ATOM     29  C   UNL     1      -1.592  -7.264   0.233  1.00  0.00     0.021 C 
BRANCH  29  30
ATOM     30  C   UNL     1      -2.367  -7.751  -0.985  1.00  0.00     0.116 C 
BRANCH  30  31
ATOM     31  N   UNL     1      -1.964  -9.095  -1.368  1.00  0.00    -0.352 N 
ATOM     32  C   UNL     1      -2.730 -10.225  -1.492  1.00  0.00     0.251 C 
ATOM     33  H   UNL     1      -1.006  -9.209  -1.565  1.00  0.00     0.163 HD
ATOM     34  O   UNL     1      -2.200 -11.326  -1.581  1.00  0.00    -0.269 OA
BRANCH  32  35
ATOM     35  C   UNL     1      -4.203 -10.109  -1.510  1.00  0.00     0.039 A 
ATOM     36  C   UNL     1      -4.962 -11.008  -0.759  1.00  0.00     0.014 A 
ATOM     37  C   UNL     1      -4.830  -9.125  -2.281  1.00  0.00     0.014 A 
ATOM     38  C   UNL     1      -6.353 -10.892  -0.743  1.00  0.00     0.010 A 
ATOM     39  C   UNL     1      -6.210  -8.967  -2.210  1.00  0.00     0.010 A 
ATOM     40  C   UNL     1      -6.985  -9.854  -1.447  1.00  0.00    -0.014 A 
BRANCH  40  41
ATOM     41  C   UNL     1      -8.458  -9.684  -1.405  1.00  0.00     0.031 A 
ATOM     42  C   UNL     1      -9.272  -9.854  -2.658  1.00  0.00     0.074 A 
ATOM     43  C   UNL     1      -9.053  -9.317  -0.254  1.00  0.00     0.049 A 
ATOM     44  N   UNL     1     -10.557  -9.680  -2.839  1.00  0.00    -0.248 NA
ATOM     45  C   UNL     1      -8.543 -10.246  -3.875  1.00  0.00     0.031 C 
ATOM     46  C   UNL     1      -8.366  -9.079   1.016  1.00  0.00     0.029 A 
ATOM     47  N   UNL     1     -10.372  -9.069   0.030  1.00  0.00    -0.354 N 
ATOM     48  C   UNL     1     -10.785  -9.924  -4.187  1.00  0.00     0.074 A 
ATOM     49  C   UNL     1      -9.501 -10.210  -4.789  1.00  0.00     0.031 C 
ATOM     50  C   UNL     1      -9.271  -8.742   1.949  1.00  0.00     0.029 A 
ATOM     51  C   UNL     1     -10.594  -8.703   1.336  1.00  0.00     0.049 A 
ATOM     52  H   UNL     1     -11.091  -9.146  -0.637  1.00  0.00     0.167 HD
ATOM     53  C   UNL     1     -11.961  -9.930  -4.858  1.00  0.00     0.037 A 
ATOM     54  C   UNL     1     -11.736  -8.367   1.964  1.00  0.00     0.037 A 
ATOM     55  C   UNL     1     -13.240  -9.676  -4.249  1.00  0.00     0.049 A 
ATOM     56  C   UNL     1     -13.028  -8.379   1.194  1.00  0.00     0.074 A 
ATOM     57  C   UNL     1     -14.496  -9.724  -4.829  1.00  0.00     0.029 A 
ATOM     58  N   UNL     1     -13.426  -9.326  -2.920  1.00  0.00    -0.354 N 
ATOM     59  N   UNL     1     -13.238  -8.678  -0.065  1.00  0.00    -0.248 NA
ATOM     60  C   UNL     1     -14.243  -8.012   1.935  1.00  0.00     0.031 C 
ATOM     61  C   UNL     1     -15.438  -9.360  -3.862  1.00  0.00     0.029 A 
ATOM     62  C   UNL     1     -14.774  -9.133  -2.667  1.00  0.00     0.049 A 
ATOM     63  H   UNL     1     -12.706  -9.229  -2.255  1.00  0.00     0.167 HD
ATOM     64  C   UNL     1     -14.608  -8.566  -0.259  1.00  0.00     0.074 A 
ATOM     65  C   UNL     1     -15.181  -8.184   1.015  1.00  0.00     0.031 C 
ATOM     66  C   UNL     1     -15.328  -8.763  -1.390  1.00  0.00     0.037 A 
BRANCH  53  67
ATOM     67  C   UNL     1     -11.921 -10.226  -6.329  1.00  0.00     0.057 A 
ATOM     68  C   UNL     1     -11.633 -11.507  -6.818  1.00  0.00     0.134 A 
ATOM     69  C   UNL     1     -12.219  -9.229  -7.267  1.00  0.00     0.134 A 
ATOM     70  F   UNL     1     -11.328 -12.504  -5.973  1.00  0.00    -0.206 F 
ATOM     71  C   UNL     1     -11.619 -11.781  -8.187  1.00  0.00     0.040 A 
ATOM     72  C   UNL     1     -12.235  -9.497  -8.637  1.00  0.00     0.040 A 
ATOM     73  F   UNL     1     -12.510  -7.982  -6.867  1.00  0.00    -0.206 F 
ATOM     74  C   UNL     1     -11.929 -10.775  -9.100  1.00  0.00     0.006 A 
ENDBRANCH  53  67
BRANCH  54  75
ATOM     75  C   UNL     1     -11.719  -8.012   3.406  1.00  0.00     0.057 A 
ATOM     76  C   UNL     1     -12.294  -8.857   4.362  1.00  0.00     0.134 A 
ATOM     77  C   UNL     1     -11.145  -6.819   3.860  1.00  0.00     0.134 A 
ATOM     78  F   UNL     1     -12.875 -10.005   3.986  1.00  0.00    -0.206 F 
ATOM     79  C   UNL     1     -12.322  -8.517   5.716  1.00  0.00     0.040 A 
ATOM     80  C   UNL     1     -11.143  -6.479   5.214  1.00  0.00     0.040 A 
ATOM     81  F   UNL     1     -10.570  -5.971   2.995  1.00  0.00    -0.206 F 
ATOM     82  C   UNL     1     -11.741  -7.326   6.145  1.00  0.00     0.006 A 
ENDBRANCH  54  75
BRANCH  66  83
ATOM     83  C   UNL     1     -16.817  -8.607  -1.292  1.00  0.00     0.057 A 
ATOM     84  C   UNL     1     -17.422  -7.351  -1.156  1.00  0.00     0.134 A 
ATOM     85  C   UNL     1     -17.656  -9.726  -1.374  1.00  0.00     0.134 A 
ATOM     86  F   UNL     1     -16.673  -6.242  -1.058  1.00  0.00    -0.206 F 
ATOM     87  C   UNL     1     -18.809  -7.216  -1.081  1.00  0.00     0.040 A 
ATOM     88  C   UNL     1     -19.045  -9.601  -1.328  1.00  0.00     0.040 A 
ATOM     89  F   UNL     1     -17.140 -10.956  -1.514  1.00  0.00    -0.206 F 
ATOM     90  C   UNL     1     -19.625  -8.343  -1.175  1.00  0.00     0.006 A 
ENDBRANCH  66  83
ENDBRANCH  40  41
ENDBRANCH  32  35
ENDBRANCH  30  31
ENDBRANCH  29  30
ENDBRANCH  28  29
ENDBRANCH   1  28
TORSDOF 15
