REMARK SMILES O=C(COc1ccccc1/C=N\N1CC[NH+](Cc2ccc(Cl)cc2)CC1)NCCCCCCNC(=O)c1ccc(-c2c3nc(c(-c4c(F)cccc4F)c4ccc([nH]4)c(-c4c(F)cccc4F)c4nc(c(-c5c(F)cccc5F)c5ccc2[nH]5)C=C4)C=C3)cc1
REMARK SMILES IDX 28 1 27 2 1 3 2 4 3 6 4 7 5 8 6 9 10 10 7 11 9 12 8 13 11 14
REMARK SMILES IDX 12 15 13 16 14 17 26 18 15 19 25 20 16 21 17 23 18 24 19 25
REMARK SMILES IDX 24 26 20 27 23 28 21 29 22 30 29 31 30 32 31 33 32 34 33 35
REMARK SMILES IDX 34 36 35 37 36 39 37 40 38 41 90 42 39 43 89 44 40 45 41 46
REMARK SMILES IDX 42 47 83 48 43 49 88 50 82 51 84 52 44 53 87 54 81 55 80 56
REMARK SMILES IDX 45 58 71 59 54 60 70 61 55 62 58 63 69 64 85 65 56 66 57 67
REMARK SMILES IDX 68 69 86 70 59 71 46 72 47 73 52 74 48 75 49 76 51 77 53 78
REMARK SMILES IDX 50 79 72 80 73 81 78 82 74 83 75 84 77 85 79 86 76 87 60 88
REMARK SMILES IDX 61 89 66 90 62 91 63 92 65 93 67 94 64 95
REMARK H PARENT 27 5 16 22 34 38 84 57 58 68
REMARK Flexibility Score: inf
ROOT
ATOM      1  C   UNL     1       2.526  -0.997  -1.957  1.00  0.00     0.116 C 
ENDROOT
BRANCH   1   2
ATOM      2  N   UNL     1       3.238  -0.261  -0.930  1.00  0.00    -0.353 N 
ATOM      3  O   UNL     1       2.000   1.663  -1.110  1.00  0.00    -0.271 OA
ATOM      4  C   UNL     1       2.789   0.963  -0.480  1.00  0.00     0.257 C 
ATOM      5  H   UNL     1       4.060  -0.643  -0.545  1.00  0.00     0.163 HD
BRANCH   4   6
ATOM      6  C   UNL     1       3.254   1.352   0.937  1.00  0.00     0.329 C 
BRANCH   6   7
ATOM      7  O   UNL     1       4.122   0.468   1.621  1.00  0.00    -0.483 OA
BRANCH   7   8
ATOM      8  C   UNL     1       3.660  -0.488   2.496  1.00  0.00     0.128 A 
ATOM      9  C   UNL     1       4.451  -0.573   3.657  1.00  0.00     0.047 A 
ATOM     10  C   UNL     1       2.798  -1.552   2.189  1.00  0.00     0.037 A 
ATOM     11  C   UNL     1       4.477  -1.730   4.436  1.00  0.00     0.004 A 
ATOM     12  C   UNL     1       2.990  -2.762   2.872  1.00  0.00     0.013 A 
ATOM     13  C   UNL     1       3.803  -2.854   3.998  1.00  0.00     0.001 A 
BRANCH  10  14
ATOM     14  C   UNL     1       1.645  -1.368   1.269  1.00  0.00     0.145 C 
ATOM     15  N   UNL     1       0.798  -2.185   0.708  1.00  0.00    -0.185 NA
BRANCH  15  16
ATOM     16  N   UNL     1       0.825  -3.481   1.066  1.00  0.00    -0.286 NA
ATOM     17  C   UNL     1       0.548  -4.429  -0.026  1.00  0.00     0.200 C 
ATOM     18  C   UNL     1      -0.064  -3.783   2.212  1.00  0.00     0.200 C 
ATOM     19  C   UNL     1       0.580  -5.908   0.422  1.00  0.00     0.286 C 
ATOM     20  C   UNL     1       0.063  -5.240   2.689  1.00  0.00     0.286 C 
ATOM     21  N   UNL     1      -0.144  -6.257   1.654  1.00  0.00    -0.328 N 
ATOM     22  H   UNL     1       0.283  -7.121   1.988  1.00  0.00     0.348 HD
BRANCH  21  23
ATOM     23  C   UNL     1      -1.539  -6.688   1.484  1.00  0.00     0.299 C 
BRANCH  23  24
ATOM     24  C   UNL     1      -2.544  -5.619   1.114  1.00  0.00     0.006 A 
ATOM     25  C   UNL     1      -3.229  -4.906   2.112  1.00  0.00     0.011 A 
ATOM     26  C   UNL     1      -2.731  -5.255  -0.227  1.00  0.00     0.011 A 
ATOM     27  C   UNL     1      -3.988  -3.780   1.783  1.00  0.00     0.021 A 
ATOM     28  C   UNL     1      -3.485  -4.127  -0.555  1.00  0.00     0.021 A 
ATOM     29  C   UNL     1      -4.090  -3.381   0.453  1.00  0.00     0.041 A 
ATOM     30  Cl  UNL     1      -4.942  -1.940   0.055  1.00  0.00    -0.084 Cl
ENDBRANCH  23  24
ENDBRANCH  21  23
ENDBRANCH  15  16
ENDBRANCH  10  14
ENDBRANCH   7   8
ENDBRANCH   6   7
ENDBRANCH   4   6
ENDBRANCH   1   2
BRANCH   1  31
ATOM     31  C   UNL     1       3.041  -0.731  -3.365  1.00  0.00     0.021 C 
BRANCH  31  32
ATOM     32  C   UNL     1       4.504  -1.127  -3.577  1.00  0.00     0.002 C 
BRANCH  32  33
ATOM     33  C   UNL     1       4.826  -2.606  -3.338  1.00  0.00     0.002 C 
BRANCH  33  34
ATOM     34  C   UNL     1       4.058  -3.598  -4.214  1.00  0.00     0.021 C 
BRANCH  34  35
ATOM     35  C   UNL     1       4.189  -3.372  -5.717  1.00  0.00     0.116 C 
BRANCH  35  36
ATOM     36  N   UNL     1       5.564  -3.473  -6.184  1.00  0.00    -0.352 N 
ATOM     37  C   UNL     1       6.067  -4.167  -7.257  1.00  0.00     0.251 C 
ATOM     38  H   UNL     1       6.228  -2.974  -5.656  1.00  0.00     0.163 HD
ATOM     39  O   UNL     1       7.280  -4.259  -7.426  1.00  0.00    -0.269 OA
BRANCH  37  40
ATOM     40  C   UNL     1       5.142  -4.831  -8.198  1.00  0.00     0.039 A 
ATOM     41  C   UNL     1       5.388  -6.156  -8.570  1.00  0.00     0.014 A 
ATOM     42  C   UNL     1       4.028  -4.154  -8.700  1.00  0.00     0.014 A 
ATOM     43  C   UNL     1       4.476  -6.825  -9.390  1.00  0.00     0.010 A 
ATOM     44  C   UNL     1       3.087  -4.842  -9.460  1.00  0.00     0.010 A 
ATOM     45  C   UNL     1       3.299  -6.185  -9.811  1.00  0.00    -0.014 A 
BRANCH  45  46
ATOM     46  C   UNL     1       2.272  -6.893 -10.618  1.00  0.00     0.031 A 
ATOM     47  C   UNL     1       1.954  -6.417 -12.010  1.00  0.00     0.074 A 
ATOM     48  C   UNL     1       1.566  -7.902 -10.071  1.00  0.00     0.049 A 
ATOM     49  N   UNL     1       1.008  -6.813 -12.823  1.00  0.00    -0.248 NA
ATOM     50  C   UNL     1       2.792  -5.333 -12.548  1.00  0.00     0.031 C 
ATOM     51  C   UNL     1       1.753  -8.434  -8.719  1.00  0.00     0.029 A 
ATOM     52  N   UNL     1       0.531  -8.649 -10.579  1.00  0.00    -0.354 N 
ATOM     53  C   UNL     1       1.119  -6.009 -13.951  1.00  0.00     0.074 A 
ATOM     54  C   UNL     1       2.200  -5.081 -13.706  1.00  0.00     0.031 C 
ATOM     55  C   UNL     1       0.871  -9.425  -8.510  1.00  0.00     0.029 A 
ATOM     56  C   UNL     1       0.027  -9.571  -9.691  1.00  0.00     0.049 A 
ATOM     57  H   UNL     1       0.183  -8.535 -11.492  1.00  0.00     0.167 HD
ATOM     58  C   UNL     1       0.394  -6.054 -15.093  1.00  0.00     0.037 A 
ATOM     59  C   UNL     1      -1.010 -10.422  -9.811  1.00  0.00     0.037 A 
ATOM     60  C   UNL     1      -0.651  -7.008 -15.352  1.00  0.00     0.049 A 
ATOM     61  C   UNL     1      -1.799 -10.443 -11.093  1.00  0.00     0.074 A 
ATOM     62  C   UNL     1      -1.386  -7.184 -16.512  1.00  0.00     0.029 A 
ATOM     63  N   UNL     1      -1.109  -7.946 -14.441  1.00  0.00    -0.354 N 
ATOM     64  N   UNL     1      -1.632  -9.730 -12.180  1.00  0.00    -0.248 NA
ATOM     65  C   UNL     1      -2.922 -11.391 -11.166  1.00  0.00     0.031 C 
ATOM     66  C   UNL     1      -2.322  -8.197 -16.286  1.00  0.00     0.029 A 
ATOM     67  C   UNL     1      -2.134  -8.687 -15.004  1.00  0.00     0.049 A 
ATOM     68  H   UNL     1      -0.757  -8.068 -13.529  1.00  0.00     0.167 HD
ATOM     69  C   UNL     1      -2.597 -10.171 -13.077  1.00  0.00     0.074 A 
ATOM     70  C   UNL     1      -3.342 -11.218 -12.411  1.00  0.00     0.031 C 
ATOM     71  C   UNL     1      -2.844  -9.748 -14.340  1.00  0.00     0.037 A 
BRANCH  58  72
ATOM     72  C   UNL     1       0.700  -5.046 -16.161  1.00  0.00     0.057 A 
ATOM     73  C   UNL     1       1.866  -5.119 -16.934  1.00  0.00     0.134 A 
ATOM     74  C   UNL     1      -0.221  -4.038 -16.473  1.00  0.00     0.134 A 
ATOM     75  F   UNL     1       2.792  -6.055 -16.681  1.00  0.00    -0.206 F 
ATOM     76  C   UNL     1       2.110  -4.217 -17.971  1.00  0.00     0.040 A 
ATOM     77  C   UNL     1       0.000  -3.146 -17.523  1.00  0.00     0.040 A 
ATOM     78  F   UNL     1      -1.361  -3.917 -15.775  1.00  0.00    -0.206 F 
ATOM     79  C   UNL     1       1.170  -3.234 -18.275  1.00  0.00     0.006 A 
ENDBRANCH  58  72
BRANCH  59  80
ATOM     80  C   UNL     1      -1.375 -11.333  -8.695  1.00  0.00     0.057 A 
ATOM     81  C   UNL     1      -1.223 -12.720  -8.816  1.00  0.00     0.134 A 
ATOM     82  C   UNL     1      -1.931 -10.849  -7.505  1.00  0.00     0.134 A 
ATOM     83  F   UNL     1      -0.714 -13.246  -9.940  1.00  0.00    -0.206 F 
ATOM     84  C   UNL     1      -1.644 -13.594  -7.813  1.00  0.00     0.040 A 
ATOM     85  C   UNL     1      -2.330 -11.710  -6.481  1.00  0.00     0.040 A 
ATOM     86  F   UNL     1      -2.097  -9.531  -7.321  1.00  0.00    -0.206 F 
ATOM     87  C   UNL     1      -2.199 -13.088  -6.639  1.00  0.00     0.006 A 
ENDBRANCH  59  80
BRANCH  71  88
ATOM     88  C   UNL     1      -3.920 -10.454 -15.111  1.00  0.00     0.057 A 
ATOM     89  C   UNL     1      -5.279 -10.273 -14.827  1.00  0.00     0.134 A 
ATOM     90  C   UNL     1      -3.588 -11.283 -16.191  1.00  0.00     0.134 A 
ATOM     91  F   UNL     1      -5.662  -9.502 -13.798  1.00  0.00    -0.206 F 
ATOM     92  C   UNL     1      -6.270 -10.905 -15.579  1.00  0.00     0.040 A 
ATOM     93  C   UNL     1      -4.570 -11.898 -16.967  1.00  0.00     0.040 A 
ATOM     94  F   UNL     1      -2.304 -11.491 -16.521  1.00  0.00    -0.206 F 
ATOM     95  C   UNL     1      -5.916 -11.713 -16.659  1.00  0.00     0.006 A 
ENDBRANCH  71  88
ENDBRANCH  45  46
ENDBRANCH  37  40
ENDBRANCH  35  36
ENDBRANCH  34  35
ENDBRANCH  33  34
ENDBRANCH  32  33
ENDBRANCH  31  32
ENDBRANCH   1  31
TORSDOF 19
