REMARK SMILES CCCc1cc(OC(F)(F)F)cc2c1O[C@H](C(F)(F)F)C(C(=O)NCCCCCCNC(=O)c1ccc(-c3c4nc(c(-c5c(F)cccc5F)c5ccc([nH]5)c(-c5c(F)cccc5F)c5nc(c(-c6c(F)cccc6F)c6ccc3[nH]6)C=C5)C=C4)cc1)=C2
REMARK SMILES IDX 27 1 26 2 25 3 24 4 22 5 23 6 21 8 4 9 5 10 14 11 6 12 13 13
REMARK SMILES IDX 15 14 12 15 88 16 16 17 3 18 2 19 1 20 7 21 8 22 9 23 10 24
REMARK SMILES IDX 11 25 17 26 18 27 19 28 20 29 28 30 29 31 30 32 31 33 32 34
REMARK SMILES IDX 33 36 34 37 35 38 87 39 36 40 86 41 37 42 38 43 39 44 80 45
REMARK SMILES IDX 40 46 85 47 79 48 81 49 41 50 84 51 78 52 77 53 42 55 68 56
REMARK SMILES IDX 51 57 67 58 52 59 55 60 66 61 82 62 53 63 54 64 65 66 83 67
REMARK SMILES IDX 56 68 43 69 44 70 49 71 45 72 46 73 48 74 50 75 47 76 69 77
REMARK SMILES IDX 70 78 75 79 71 80 72 81 74 82 76 83 73 84 57 85 58 86 63 87
REMARK SMILES IDX 59 88 60 89 62 90 64 91 61 92
REMARK H PARENT 24 7 31 35 81 54 55 65
REMARK Flexibility Score: inf
ROOT
ATOM      1  C   UNL     1      -2.696   0.820  -8.196  1.00  0.00     0.002 C 
ENDROOT
BRANCH   1   2
ATOM      2  C   UNL     1      -2.202   1.566  -6.948  1.00  0.00     0.021 C 
BRANCH   2   3
ATOM      3  C   UNL     1      -2.998   1.211  -5.692  1.00  0.00     0.116 C 
BRANCH   3   4
ATOM      4  N   UNL     1      -2.555  -0.066  -5.178  1.00  0.00    -0.352 N 
ATOM      5  C   UNL     1      -1.609  -0.417  -4.278  1.00  0.00     0.251 C 
ATOM      6  O   UNL     1      -1.421  -1.623  -4.106  1.00  0.00    -0.270 OA
ATOM      7  H   UNL     1      -3.040  -0.834  -5.560  1.00  0.00     0.163 HD
BRANCH   5   8
ATOM      8  C   UNL     1      -0.885   0.559  -3.412  1.00  0.00     0.067 C 
ATOM      9  C   UNL     1       0.594   2.849  -0.194  1.00  0.00    -0.002 A 
ATOM     10  C   UNL     1       0.835   4.226  -0.421  1.00  0.00     0.054 A 
ATOM     11  C   UNL     1       0.113   2.080  -1.265  1.00  0.00     0.131 A 
ATOM     12  C   UNL     1       0.595   4.819  -1.661  1.00  0.00     0.130 A 
ATOM     13  C   UNL     1      -0.113   2.663  -2.523  1.00  0.00     0.021 A 
ATOM     14  O   UNL     1      -0.202   0.767  -1.044  1.00  0.00    -0.475 OA
ATOM     15  C   UNL     1       0.129   4.027  -2.711  1.00  0.00     0.058 A 
ATOM     16  C   UNL     1      -0.709   1.874  -3.603  1.00  0.00     0.025 C 
ATOM     17  C   UNL     1      -0.259  -0.103  -2.201  1.00  0.00     0.314 C 
BRANCH   9  18
ATOM     18  C   UNL     1       0.887   2.357   1.216  1.00  0.00     0.039 C 
BRANCH  18  19
ATOM     19  C   UNL     1       0.551   0.925   1.648  1.00  0.00     0.001 C 
ATOM     20  C   UNL     1       1.590  -0.095   1.201  1.00  0.00     0.004 C 
ENDBRANCH  18  19
ENDBRANCH   9  18
BRANCH  12  21
ATOM     21  O   UNL     1       0.755   6.138  -1.978  1.00  0.00    -0.406 OA
BRANCH  21  22
ATOM     22  C   UNL     1       1.156   7.027  -0.949  1.00  0.00     0.573 C 
ATOM     23  F   UNL     1       0.270   7.027   0.069  1.00  0.00    -0.132 F 
ATOM     24  F   UNL     1       2.381   6.708  -0.483  1.00  0.00    -0.132 F 
ATOM     25  F   UNL     1       1.211   8.279  -1.456  1.00  0.00    -0.132 F 
ENDBRANCH  21  22
ENDBRANCH  12  21
BRANCH  17  26
ATOM     26  C   UNL     1       1.129  -0.701  -2.518  1.00  0.00     0.429 C 
ATOM     27  F   UNL     1       1.198  -1.285  -3.736  1.00  0.00    -0.167 F 
ATOM     28  F   UNL     1       2.105   0.241  -2.493  1.00  0.00    -0.167 F 
ATOM     29  F   UNL     1       1.469  -1.648  -1.608  1.00  0.00    -0.167 F 
ENDBRANCH  17  26
ENDBRANCH   5   8
ENDBRANCH   3   4
ENDBRANCH   2   3
ENDBRANCH   1   2
BRANCH   1  30
ATOM     30  C   UNL     1      -4.134   1.155  -8.613  1.00  0.00     0.002 C 
BRANCH  30  31
ATOM     31  C   UNL     1      -4.418   2.649  -8.789  1.00  0.00     0.021 C 
BRANCH  31  32
ATOM     32  C   UNL     1      -3.558   3.324  -9.851  1.00  0.00     0.116 C 
BRANCH  32  33
ATOM     33  N   UNL     1      -3.862   2.817 -11.180  1.00  0.00    -0.352 N 
ATOM     34  C   UNL     1      -4.307   3.502 -12.282  1.00  0.00     0.251 C 
ATOM     35  H   UNL     1      -3.732   1.850 -11.305  1.00  0.00     0.163 HD
ATOM     36  O   UNL     1      -4.757   2.899 -13.249  1.00  0.00    -0.269 OA
BRANCH  34  37
ATOM     37  C   UNL     1      -4.244   4.978 -12.296  1.00  0.00     0.039 A 
ATOM     38  C   UNL     1      -5.351   5.700 -12.746  1.00  0.00     0.014 A 
ATOM     39  C   UNL     1      -3.084   5.642 -11.884  1.00  0.00     0.014 A 
ATOM     40  C   UNL     1      -5.312   7.095 -12.740  1.00  0.00     0.010 A 
ATOM     41  C   UNL     1      -3.069   7.031 -11.820  1.00  0.00     0.010 A 
ATOM     42  C   UNL     1      -4.179   7.770 -12.256  1.00  0.00    -0.014 A 
BRANCH  42  43
ATOM     43  C   UNL     1      -4.131   9.251 -12.211  1.00  0.00     0.031 A 
ATOM     44  C   UNL     1      -3.162   9.998 -13.084  1.00  0.00     0.074 A 
ATOM     45  C   UNL     1      -4.913   9.917 -11.340  1.00  0.00     0.049 A 
ATOM     46  N   UNL     1      -2.923  11.283 -13.141  1.00  0.00    -0.248 NA
ATOM     47  C   UNL     1      -2.334   9.191 -13.995  1.00  0.00     0.031 C 
ATOM     48  C   UNL     1      -5.859   9.299 -10.409  1.00  0.00     0.029 A 
ATOM     49  N   UNL     1      -5.027  11.260 -11.089  1.00  0.00    -0.354 N 
ATOM     50  C   UNL     1      -1.910  11.437 -14.078  1.00  0.00     0.074 A 
ATOM     51  C   UNL     1      -1.546  10.112 -14.530  1.00  0.00     0.031 C 
ATOM     52  C   UNL     1      -6.470  10.263  -9.701  1.00  0.00     0.029 A 
ATOM     53  C   UNL     1      -5.936  11.560 -10.105  1.00  0.00     0.049 A 
ATOM     54  H   UNL     1      -4.506  11.944 -11.568  1.00  0.00     0.167 HD
ATOM     55  C   UNL     1      -1.350  12.581 -14.537  1.00  0.00     0.037 A 
ATOM     56  C   UNL     1      -6.295  12.749  -9.584  1.00  0.00     0.037 A 
ATOM     57  C   UNL     1      -1.737  13.899 -14.109  1.00  0.00     0.049 A 
ATOM     58  C   UNL     1      -5.659  14.004 -10.111  1.00  0.00     0.074 A 
ATOM     59  C   UNL     1      -1.283  15.123 -14.568  1.00  0.00     0.029 A 
ATOM     60  N   UNL     1      -2.673  14.163 -13.121  1.00  0.00    -0.354 N 
ATOM     61  N   UNL     1      -4.752  14.139 -11.048  1.00  0.00    -0.248 NA
ATOM     62  C   UNL     1      -6.096  15.272  -9.509  1.00  0.00     0.031 C 
ATOM     63  C   UNL     1      -1.917  16.128 -13.830  1.00  0.00     0.029 A 
ATOM     64  C   UNL     1      -2.793  15.530 -12.939  1.00  0.00     0.049 A 
ATOM     65  H   UNL     1      -3.177  13.479 -12.623  1.00  0.00     0.167 HD
ATOM     66  C   UNL     1      -4.526  15.504 -11.164  1.00  0.00     0.074 A 
ATOM     67  C   UNL     1      -5.400  16.156 -10.210  1.00  0.00     0.031 C 
ATOM     68  C   UNL     1      -3.671  16.159 -11.986  1.00  0.00     0.037 A 
BRANCH  55  69
ATOM     69  C   UNL     1      -0.262  12.455 -15.562  1.00  0.00     0.057 A 
ATOM     70  C   UNL     1      -0.533  12.067 -16.880  1.00  0.00     0.134 A 
ATOM     71  C   UNL     1       1.067  12.756 -15.236  1.00  0.00     0.134 A 
ATOM     72  F   UNL     1      -1.783  11.754 -17.253  1.00  0.00    -0.206 F 
ATOM     73  C   UNL     1       0.482  11.958 -17.832  1.00  0.00     0.040 A 
ATOM     74  C   UNL     1       2.087  12.674 -16.186  1.00  0.00     0.040 A 
ATOM     75  F   UNL     1       1.394  13.138 -13.993  1.00  0.00    -0.206 F 
ATOM     76  C   UNL     1       1.796  12.268 -17.487  1.00  0.00     0.006 A 
ENDBRANCH  55  69
BRANCH  56  77
ATOM     77  C   UNL     1      -7.325  12.809  -8.519  1.00  0.00     0.057 A 
ATOM     78  C   UNL     1      -8.604  13.313  -8.782  1.00  0.00     0.134 A 
ATOM     79  C   UNL     1      -7.060  12.367  -7.217  1.00  0.00     0.134 A 
ATOM     80  F   UNL     1      -8.911  13.768 -10.006  1.00  0.00    -0.206 F 
ATOM     81  C   UNL     1      -9.579  13.390  -7.787  1.00  0.00     0.040 A 
ATOM     82  C   UNL     1      -8.032  12.418  -6.217  1.00  0.00     0.040 A 
ATOM     83  F   UNL     1      -5.856  11.867  -6.904  1.00  0.00    -0.206 F 
ATOM     84  C   UNL     1      -9.294  12.936  -6.500  1.00  0.00     0.006 A 
ENDBRANCH  56  77
BRANCH  68  85
ATOM     85  C   UNL     1      -3.652  17.656 -11.904  1.00  0.00     0.057 A 
ATOM     86  C   UNL     1      -3.043  18.325 -10.836  1.00  0.00     0.134 A 
ATOM     87  C   UNL     1      -4.207  18.434 -12.928  1.00  0.00     0.134 A 
ATOM     88  F   UNL     1      -2.507  17.635  -9.818  1.00  0.00    -0.206 F 
ATOM     89  C   UNL     1      -2.996  19.719 -10.783  1.00  0.00     0.040 A 
ATOM     90  C   UNL     1      -4.147  19.828 -12.897  1.00  0.00     0.040 A 
ATOM     91  F   UNL     1      -4.799  17.852 -13.982  1.00  0.00    -0.206 F 
ATOM     92  C   UNL     1      -3.543  20.474 -11.820  1.00  0.00     0.006 A 
ENDBRANCH  68  85
ENDBRANCH  42  43
ENDBRANCH  34  37
ENDBRANCH  32  33
ENDBRANCH  31  32
ENDBRANCH  30  31
ENDBRANCH   1  30
TORSDOF 18
