REMARK SMILES O=C(NC1(C(=O)NCCCCCCNC(=O)c2ccc(-c3c4nc(c(-c5c(F)cccc5F)c5ccc([nH]5)c(-c5c(F)cccc5F)c5nc(c(-c6c(F)cccc6F)c6ccc3[nH]6)C=C5)C=C4)cc2)CC[NH2+]CC1)OCC1c2ccccc2-c2ccccc21
REMARK SMILES IDX 9 1 8 2 7 3 5 4 6 5 4 7 71 8 75 9 72 10 74 11 73 12 3 15
REMARK SMILES IDX 1 16 2 17 76 19 77 20 78 21 79 22 90 23 80 24 84 25 85 26
REMARK SMILES IDX 89 27 81 28 83 29 86 30 88 31 82 32 87 33 10 34 11 35 12 36
REMARK SMILES IDX 13 37 14 38 15 39 16 41 17 42 18 43 70 44 19 45 69 46 20 47
REMARK SMILES IDX 21 48 22 49 63 50 23 51 68 52 62 53 64 54 24 55 67 56 61 57
REMARK SMILES IDX 60 58 25 60 51 61 34 62 50 63 35 64 38 65 49 66 65 67 36 68
REMARK SMILES IDX 37 69 48 71 66 72 39 73 26 74 27 75 32 76 28 77 29 78 31 79
REMARK SMILES IDX 33 80 30 81 52 82 53 83 58 84 54 85 55 86 57 87 59 88 56 89
REMARK SMILES IDX 40 90 41 91 46 92 42 93 43 94 45 95 47 96 44 97
REMARK H PARENT 7 6 73 13 73 14 3 18 14 40 64 59 38 70
REMARK Flexibility Score: inf
ROOT
ATOM      1  C   UNL     1       8.173  -2.237  -1.065  1.00  0.00     0.021 C 
ENDROOT
BRANCH   1   2
ATOM      2  C   UNL     1       7.370  -1.967  -2.339  1.00  0.00     0.116 C 
BRANCH   2   3
ATOM      3  N   UNL     1       6.095  -2.644  -2.264  1.00  0.00    -0.354 N 
ATOM      4  C   UNL     1       4.874  -2.227  -1.834  1.00  0.00     0.246 C 
ATOM      5  O   UNL     1       3.996  -3.101  -1.810  1.00  0.00    -0.272 OA
ATOM      6  H   UNL     1       6.114  -3.575  -2.581  1.00  0.00     0.163 HD
BRANCH   4   7
ATOM      7  C   UNL     1       4.521  -0.729  -1.577  1.00  0.00     0.132 C 
ATOM      8  C   UNL     1       5.540   0.088  -0.776  1.00  0.00     0.100 C 
ATOM      9  C   UNL     1       4.389  -0.064  -2.973  1.00  0.00     0.100 C 
ATOM     10  C   UNL     1       5.087   1.536  -0.704  1.00  0.00     0.263 C 
ATOM     11  C   UNL     1       4.172   1.450  -2.913  1.00  0.00     0.263 C 
ATOM     12  N   UNL     1       5.134   2.114  -2.043  1.00  0.00    -0.346 N 
ATOM     13  H   UNL     1       6.072   1.997  -2.427  1.00  0.00     0.346 HD
ATOM     14  H   UNL     1       4.902   3.105  -1.985  1.00  0.00     0.346 HD
BRANCH   7  15
ATOM     15  N   UNL     1       3.179  -0.747  -0.907  1.00  0.00    -0.307 N 
ATOM     16  O   UNL     1       1.696  -0.627   0.806  1.00  0.00    -0.225 OA
ATOM     17  C   UNL     1       2.862  -0.675   0.421  1.00  0.00     0.408 C 
ATOM     18  H   UNL     1       2.409  -0.822  -1.516  1.00  0.00     0.168 HD
BRANCH  17  19
ATOM     19  O   UNL     1       3.937  -0.550   1.231  1.00  0.00    -0.449 OA
BRANCH  19  20
ATOM     20  C   UNL     1       3.754   0.133   2.479  1.00  0.00     0.248 C 
BRANCH  20  21
ATOM     21  C   UNL     1       5.090   0.669   3.078  1.00  0.00     0.088 C 
ATOM     22  C   UNL     1       6.399  -0.080   2.796  1.00  0.00    -0.029 A 
ATOM     23  C   UNL     1       5.458   2.089   2.624  1.00  0.00    -0.029 A 
ATOM     24  C   UNL     1       6.706  -1.423   2.947  1.00  0.00     0.005 A 
ATOM     25  C   UNL     1       7.394   0.828   2.353  1.00  0.00    -0.014 A 
ATOM     26  C   UNL     1       6.806   2.139   2.204  1.00  0.00    -0.014 A 
ATOM     27  C   UNL     1       4.653   3.216   2.550  1.00  0.00     0.005 A 
ATOM     28  C   UNL     1       8.022  -1.840   2.695  1.00  0.00     0.000 A 
ATOM     29  C   UNL     1       8.696   0.417   2.104  1.00  0.00     0.009 A 
ATOM     30  C   UNL     1       7.329   3.286   1.619  1.00  0.00     0.009 A 
ATOM     31  C   UNL     1       5.176   4.369   1.955  1.00  0.00     0.000 A 
ATOM     32  C   UNL     1       9.011  -0.927   2.295  1.00  0.00     0.001 A 
ATOM     33  C   UNL     1       6.494   4.397   1.472  1.00  0.00     0.001 A 
ENDBRANCH  20  21
ENDBRANCH  19  20
ENDBRANCH  17  19
ENDBRANCH   7  15
ENDBRANCH   4   7
ENDBRANCH   2   3
ENDBRANCH   1   2
BRANCH   1  34
ATOM     34  C   UNL     1       9.144  -3.405  -1.255  1.00  0.00     0.002 C 
BRANCH  34  35
ATOM     35  C   UNL     1      10.287  -3.095  -2.231  1.00  0.00     0.002 C 
BRANCH  35  36
ATOM     36  C   UNL     1      11.196  -1.944  -1.799  1.00  0.00     0.021 C 
BRANCH  36  37
ATOM     37  C   UNL     1      11.916  -2.196  -0.482  1.00  0.00     0.116 C 
BRANCH  37  38
ATOM     38  N   UNL     1      12.800  -3.348  -0.574  1.00  0.00    -0.352 N 
ATOM     39  C   UNL     1      14.168  -3.402  -0.508  1.00  0.00     0.251 C 
ATOM     40  H   UNL     1      12.351  -4.214  -0.703  1.00  0.00     0.163 HD
ATOM     41  O   UNL     1      14.765  -4.406  -0.882  1.00  0.00    -0.269 OA
BRANCH  39  42
ATOM     42  C   UNL     1      14.922  -2.248   0.020  1.00  0.00     0.039 A 
ATOM     43  C   UNL     1      16.116  -1.875  -0.601  1.00  0.00     0.014 A 
ATOM     44  C   UNL     1      14.472  -1.560   1.151  1.00  0.00     0.014 A 
ATOM     45  C   UNL     1      16.842  -0.792  -0.105  1.00  0.00     0.010 A 
ATOM     46  C   UNL     1      15.148  -0.428   1.588  1.00  0.00     0.010 A 
ATOM     47  C   UNL     1      16.355  -0.049   0.983  1.00  0.00    -0.014 A 
BRANCH  47  48
ATOM     48  C   UNL     1      17.120   1.096   1.534  1.00  0.00     0.031 A 
ATOM     49  C   UNL     1      17.649   1.037   2.941  1.00  0.00     0.074 A 
ATOM     50  C   UNL     1      17.300   2.203   0.789  1.00  0.00     0.049 A 
ATOM     51  N   UNL     1      18.310   1.943   3.617  1.00  0.00    -0.248 NA
ATOM     52  C   UNL     1      17.373  -0.193   3.701  1.00  0.00     0.031 C 
ATOM     53  C   UNL     1      16.804   2.396  -0.574  1.00  0.00     0.029 A 
ATOM     54  N   UNL     1      17.951   3.375   1.077  1.00  0.00    -0.354 N 
ATOM     55  C   UNL     1      18.508   1.401   4.881  1.00  0.00     0.074 A 
ATOM     56  C   UNL     1      17.845   0.116   4.898  1.00  0.00     0.031 C 
ATOM     57  C   UNL     1      17.201   3.600  -1.018  1.00  0.00     0.029 A 
ATOM     58  C   UNL     1      17.943   4.277   0.042  1.00  0.00     0.049 A 
ATOM     59  H   UNL     1      18.383   3.553   1.944  1.00  0.00     0.167 HD
ATOM     60  C   UNL     1      19.201   1.914   5.925  1.00  0.00     0.037 A 
ATOM     61  C   UNL     1      18.476   5.510  -0.043  1.00  0.00     0.037 A 
ATOM     62  C   UNL     1      19.877   3.184   5.894  1.00  0.00     0.049 A 
ATOM     63  C   UNL     1      19.228   6.067   1.135  1.00  0.00     0.074 A 
ATOM     64  C   UNL     1      20.658   3.770   6.875  1.00  0.00     0.029 A 
ATOM     65  N   UNL     1      19.846   4.070   4.827  1.00  0.00    -0.354 N 
ATOM     66  N   UNL     1      19.470   5.516   2.300  1.00  0.00    -0.248 NA
ATOM     67  C   UNL     1      19.790   7.415   0.980  1.00  0.00     0.031 C 
ATOM     68  C   UNL     1      21.048   5.035   6.425  1.00  0.00     0.029 A 
ATOM     69  C   UNL     1      20.569   5.210   5.136  1.00  0.00     0.049 A 
ATOM     70  H   UNL     1      19.378   3.911   3.975  1.00  0.00     0.167 HD
ATOM     71  C   UNL     1      20.247   6.430   3.000  1.00  0.00     0.074 A 
ATOM     72  C   UNL     1      20.439   7.569   2.125  1.00  0.00     0.031 C 
ATOM     73  C   UNL     1      20.762   6.332   4.251  1.00  0.00     0.037 A 
BRANCH  60  74
ATOM     74  C   UNL     1      19.242   1.104   7.191  1.00  0.00     0.057 A 
ATOM     75  C   UNL     1      19.913  -0.124   7.270  1.00  0.00     0.134 A 
ATOM     76  C   UNL     1      18.605   1.563   8.351  1.00  0.00     0.134 A 
ATOM     77  F   UNL     1      20.536  -0.630   6.194  1.00  0.00    -0.206 F 
ATOM     78  C   UNL     1      19.911  -0.886   8.440  1.00  0.00     0.040 A 
ATOM     79  C   UNL     1      18.626   0.827   9.537  1.00  0.00     0.040 A 
ATOM     80  F   UNL     1      17.951   2.734   8.353  1.00  0.00    -0.206 F 
ATOM     81  C   UNL     1      19.270  -0.407   9.581  1.00  0.00     0.006 A 
ENDBRANCH  60  74
BRANCH  61  82
ATOM     82  C   UNL     1      18.357   6.285  -1.304  1.00  0.00     0.057 A 
ATOM     83  C   UNL     1      19.479   6.529  -2.105  1.00  0.00     0.134 A 
ATOM     84  C   UNL     1      17.130   6.800  -1.738  1.00  0.00     0.134 A 
ATOM     85  F   UNL     1      20.685   6.075  -1.733  1.00  0.00    -0.206 F 
ATOM     86  C   UNL     1      19.390   7.273  -3.283  1.00  0.00     0.040 A 
ATOM     87  C   UNL     1      17.022   7.523  -2.928  1.00  0.00     0.040 A 
ATOM     88  F   UNL     1      16.016   6.593  -1.021  1.00  0.00    -0.206 F 
ATOM     89  C   UNL     1      18.156   7.768  -3.699  1.00  0.00     0.006 A 
ENDBRANCH  61  82
BRANCH  73  90
ATOM     90  C   UNL     1      21.634   7.459   4.728  1.00  0.00     0.057 A 
ATOM     91  C   UNL     1      21.122   8.727   5.029  1.00  0.00     0.134 A 
ATOM     92  C   UNL     1      23.008   7.257   4.919  1.00  0.00     0.134 A 
ATOM     93  F   UNL     1      19.818   8.993   4.857  1.00  0.00    -0.206 F 
ATOM     94  C   UNL     1      21.948   9.762   5.472  1.00  0.00     0.040 A 
ATOM     95  C   UNL     1      23.838   8.272   5.394  1.00  0.00     0.040 A 
ATOM     96  F   UNL     1      23.564   6.063   4.661  1.00  0.00    -0.206 F 
ATOM     97  C   UNL     1      23.310   9.533   5.663  1.00  0.00     0.006 A 
ENDBRANCH  73  90
ENDBRANCH  47  48
ENDBRANCH  39  42
ENDBRANCH  37  38
ENDBRANCH  36  37
ENDBRANCH  35  36
ENDBRANCH  34  35
ENDBRANCH   1  34
TORSDOF 17
