REMARK SMILES Cc1ccc(CN(CC(=O)NCCCCCCNC(=O)c2ccc(-c3c4nc(c(-c5c(F)cccc5F)c5ccc([nH]5)c(-c5c(F)cccc5F)c5nc(c(-c6c(F)cccc6F)c6ccc3[nH]6)C=C5)C=C4)cc2)C(=O)c2cc3c(s2)CCOC3)cc1
REMARK SMILES IDX 14 1 13 2 12 3 11 4 9 5 10 6 8 8 7 9 6 10 5 11 1 12 2 13
REMARK SMILES IDX 3 14 87 15 4 16 86 17 75 18 76 19 77 20 78 21 81 22 79 23
REMARK SMILES IDX 80 24 85 25 82 26 84 27 83 28 15 29 16 30 17 31 18 32 19 33
REMARK SMILES IDX 20 35 21 36 22 37 74 38 23 39 73 40 24 41 25 42 26 43 67 44
REMARK SMILES IDX 27 45 72 46 66 47 68 48 28 49 71 50 65 51 64 52 29 54 55 55
REMARK SMILES IDX 38 56 54 57 39 58 42 59 53 60 69 61 40 62 41 63 52 65 70 66
REMARK SMILES IDX 43 67 30 68 31 69 36 70 32 71 33 72 35 73 37 74 34 75 56 76
REMARK SMILES IDX 57 77 62 78 58 79 59 80 61 81 63 82 60 83 44 84 45 85 50 86
REMARK SMILES IDX 46 87 47 88 49 89 51 90 48 91
REMARK H PARENT 11 7 18 34 68 53 42 64
REMARK Flexibility Score: inf
ROOT
ATOM      1  C   UNL     1      -7.983   1.885  -1.235  1.00  0.00     0.002 C 
ENDROOT
BRANCH   1   2
ATOM      2  C   UNL     1      -6.630   1.420  -0.678  1.00  0.00     0.021 C 
BRANCH   2   3
ATOM      3  C   UNL     1      -6.600   0.028  -0.048  1.00  0.00     0.116 C 
BRANCH   3   4
ATOM      4  N   UNL     1      -6.774  -1.054  -0.987  1.00  0.00    -0.355 N 
ATOM      5  C   UNL     1      -5.885  -2.005  -1.395  1.00  0.00     0.239 C 
ATOM      6  O   UNL     1      -6.361  -3.041  -1.872  1.00  0.00    -0.273 OA
ATOM      7  H   UNL     1      -7.668  -1.115  -1.395  1.00  0.00     0.163 HD
BRANCH   5   8
ATOM      8  C   UNL     1      -4.365  -1.878  -1.173  1.00  0.00     0.220 C 
BRANCH   8   9
ATOM      9  N   UNL     1      -3.782  -0.542  -1.347  1.00  0.00    -0.324 N 
BRANCH   9  10
ATOM     10  C   UNL     1      -3.184   0.102  -0.181  1.00  0.00     0.156 C 
BRANCH  10  11
ATOM     11  C   UNL     1      -1.676   0.026  -0.139  1.00  0.00    -0.029 A 
ATOM     12  C   UNL     1       2.640  -0.094   0.038  1.00  0.00     0.044 C 
ATOM     13  C   UNL     1       1.142  -0.047  -0.008  1.00  0.00    -0.051 A 
ATOM     14  C   UNL     1       0.399  -1.233  -0.013  1.00  0.00     0.004 A 
ATOM     15  C   UNL     1       0.468   1.175  -0.070  1.00  0.00     0.004 A 
ATOM     16  C   UNL     1      -0.998  -1.198  -0.074  1.00  0.00     0.006 A 
ATOM     17  C   UNL     1      -0.925   1.210  -0.134  1.00  0.00     0.006 A 
ENDBRANCH  10  11
ENDBRANCH   9  10
BRANCH   9  18
ATOM     18  C   UNL     1      -3.597   0.081  -2.595  1.00  0.00     0.264 C 
ATOM     19  O   UNL     1      -3.177   1.237  -2.663  1.00  0.00    -0.268 OA
BRANCH  18  20
ATOM     20  C   UNL     1      -3.888  -0.698  -3.786  1.00  0.00     0.093 A 
ATOM     21  C   UNL     1      -5.090  -1.190  -4.260  1.00  0.00     0.032 A 
ATOM     22  S   UNL     1      -2.588  -1.115  -4.829  1.00  0.00    -0.135 S 
ATOM     23  C   UNL     1      -4.905  -2.106  -5.336  1.00  0.00    -0.008 A 
ATOM     24  C   UNL     1      -3.594  -2.109  -5.761  1.00  0.00     0.013 A 
ATOM     25  C   UNL     1      -5.923  -3.019  -5.949  1.00  0.00     0.196 C 
ATOM     26  C   UNL     1      -3.130  -2.934  -6.915  1.00  0.00     0.075 C 
ATOM     27  O   UNL     1      -5.460  -3.645  -7.166  1.00  0.00    -0.376 OA
ATOM     28  C   UNL     1      -4.104  -4.115  -7.062  1.00  0.00     0.166 C 
ENDBRANCH  18  20
ENDBRANCH   9  18
ENDBRANCH   8   9
ENDBRANCH   5   8
ENDBRANCH   3   4
ENDBRANCH   2   3
ENDBRANCH   1   2
BRANCH   1  29
ATOM     29  C   UNL     1      -9.216   1.712  -0.335  1.00  0.00     0.002 C 
BRANCH  29  30
ATOM     30  C   UNL     1      -9.080   2.167   1.120  1.00  0.00     0.021 C 
BRANCH  30  31
ATOM     31  C   UNL     1      -8.935   3.669   1.311  1.00  0.00     0.116 C 
BRANCH  31  32
ATOM     32  N   UNL     1     -10.171   4.351   1.667  1.00  0.00    -0.352 N 
ATOM     33  C   UNL     1     -10.420   5.705   1.857  1.00  0.00     0.251 C 
ATOM     34  H   UNL     1     -10.950   3.763   1.793  1.00  0.00     0.163 HD
ATOM     35  O   UNL     1     -11.517   6.075   2.208  1.00  0.00    -0.269 OA
BRANCH  33  36
ATOM     36  C   UNL     1      -9.378   6.703   1.480  1.00  0.00     0.039 A 
ATOM     37  C   UNL     1      -9.802   7.834   0.770  1.00  0.00     0.014 A 
ATOM     38  C   UNL     1      -8.021   6.436   1.609  1.00  0.00     0.014 A 
ATOM     39  C   UNL     1      -8.893   8.515  -0.037  1.00  0.00     0.010 A 
ATOM     40  C   UNL     1      -7.141   7.034   0.731  1.00  0.00     0.010 A 
ATOM     41  C   UNL     1      -7.597   8.019  -0.149  1.00  0.00    -0.014 A 
BRANCH  41  42
ATOM     42  C   UNL     1      -6.698   8.361  -1.244  1.00  0.00     0.031 A 
ATOM     43  C   UNL     1      -5.507   9.200  -1.015  1.00  0.00     0.074 A 
ATOM     44  C   UNL     1      -6.892   7.788  -2.452  1.00  0.00     0.049 A 
ATOM     45  N   UNL     1      -4.864   9.814  -1.948  1.00  0.00    -0.248 NA
ATOM     46  C   UNL     1      -4.958   9.434   0.313  1.00  0.00     0.031 C 
ATOM     47  C   UNL     1      -5.963   7.747  -3.578  1.00  0.00     0.029 A 
ATOM     48  N   UNL     1      -8.095   7.297  -2.978  1.00  0.00    -0.354 N 
ATOM     49  C   UNL     1      -3.687  10.282  -1.414  1.00  0.00     0.074 A 
ATOM     50  C   UNL     1      -3.822  10.070   0.010  1.00  0.00     0.031 C 
ATOM     51  C   UNL     1      -6.665   7.563  -4.707  1.00  0.00     0.029 A 
ATOM     52  C   UNL     1      -8.072   7.625  -4.354  1.00  0.00     0.049 A 
ATOM     53  H   UNL     1      -8.808   6.823  -2.491  1.00  0.00     0.167 HD
ATOM     54  C   UNL     1      -2.689  10.685  -2.254  1.00  0.00     0.037 A 
ATOM     55  C   UNL     1      -8.976   8.508  -4.870  1.00  0.00     0.037 A 
ATOM     56  C   UNL     1      -3.117  10.647  -3.654  1.00  0.00     0.049 A 
ATOM     57  C   UNL     1      -8.371   9.776  -5.441  1.00  0.00     0.074 A 
ATOM     58  C   UNL     1      -2.921   9.775  -4.713  1.00  0.00     0.029 A 
ATOM     59  N   UNL     1      -4.127  11.502  -4.056  1.00  0.00    -0.354 N 
ATOM     60  N   UNL     1      -7.098  10.060  -5.427  1.00  0.00    -0.248 NA
ATOM     61  C   UNL     1      -9.175  10.870  -5.990  1.00  0.00     0.031 C 
ATOM     62  C   UNL     1      -3.834  10.119  -5.752  1.00  0.00     0.029 A 
ATOM     63  C   UNL     1      -4.584  11.198  -5.322  1.00  0.00     0.049 A 
ATOM     64  H   UNL     1      -4.478  12.238  -3.505  1.00  0.00     0.167 HD
ATOM     65  C   UNL     1      -6.914  11.344  -5.867  1.00  0.00     0.074 A 
ATOM     66  C   UNL     1      -8.241  11.807  -6.225  1.00  0.00     0.031 C 
ATOM     67  C   UNL     1      -5.697  11.960  -5.860  1.00  0.00     0.037 A 
BRANCH  54  68
ATOM     68  C   UNL     1      -1.253  10.897  -1.828  1.00  0.00     0.057 A 
ATOM     69  C   UNL     1      -0.195  10.716  -2.742  1.00  0.00     0.134 A 
ATOM     70  C   UNL     1      -0.835  11.234  -0.529  1.00  0.00     0.134 A 
ATOM     71  F   UNL     1      -0.415  10.514  -4.047  1.00  0.00    -0.206 F 
ATOM     72  C   UNL     1       1.154  10.737  -2.364  1.00  0.00     0.040 A 
ATOM     73  C   UNL     1       0.507  11.202  -0.123  1.00  0.00     0.040 A 
ATOM     74  F   UNL     1      -1.696  11.682   0.392  1.00  0.00    -0.206 F 
ATOM     75  C   UNL     1       1.510  10.935  -1.040  1.00  0.00     0.006 A 
ENDBRANCH  54  68
BRANCH  55  76
ATOM     76  C   UNL     1     -10.304   8.415  -4.208  1.00  0.00     0.057 A 
ATOM     77  C   UNL     1     -11.024   7.212  -4.313  1.00  0.00     0.134 A 
ATOM     78  C   UNL     1     -10.685   9.300  -3.196  1.00  0.00     0.134 A 
ATOM     79  F   UNL     1     -10.708   6.317  -5.263  1.00  0.00    -0.206 F 
ATOM     80  C   UNL     1     -11.997   6.850  -3.379  1.00  0.00     0.040 A 
ATOM     81  C   UNL     1     -11.671   8.955  -2.265  1.00  0.00     0.040 A 
ATOM     82  F   UNL     1     -10.031  10.456  -3.016  1.00  0.00    -0.206 F 
ATOM     83  C   UNL     1     -12.299   7.712  -2.329  1.00  0.00     0.006 A 
ENDBRANCH  55  76
BRANCH  67  84
ATOM     84  C   UNL     1      -5.473  13.360  -6.353  1.00  0.00     0.057 A 
ATOM     85  C   UNL     1      -5.968  13.809  -7.584  1.00  0.00     0.134 A 
ATOM     86  C   UNL     1      -4.638  14.260  -5.662  1.00  0.00     0.134 A 
ATOM     87  F   UNL     1      -6.734  13.018  -8.350  1.00  0.00    -0.206 F 
ATOM     88  C   UNL     1      -5.675  15.084  -8.083  1.00  0.00     0.040 A 
ATOM     89  C   UNL     1      -4.299  15.515  -6.172  1.00  0.00     0.040 A 
ATOM     90  F   UNL     1      -4.135  13.966  -4.455  1.00  0.00    -0.206 F 
ATOM     91  C   UNL     1      -4.825  15.936  -7.384  1.00  0.00     0.006 A 
ENDBRANCH  67  84
ENDBRANCH  41  42
ENDBRANCH  33  36
ENDBRANCH  31  32
ENDBRANCH  30  31
ENDBRANCH  29  30
ENDBRANCH   1  29
TORSDOF 18
