REMARK SMILES C/C(=N/OCc1ccccc1Nc1c(Cl)cccc1Cl)C(=O)NCCCCCCNC(=O)c1ccc(-c2c3nc(c(-c4c(F)cccc4F)c4ccc([nH]4)c(-c4c(F)cccc4F)c4nc(c(-c5c(F)cccc5F)c5ccc2[nH]5)C=C4)C=C3)cc1
REMARK SMILES IDX 25 1 24 2 23 3 21 4 22 5 2 7 1 8 3 9 4 10 5 11 6 12 7 13
REMARK SMILES IDX 11 14 8 15 10 16 9 17 12 18 13 20 14 21 19 22 15 23 16 24
REMARK SMILES IDX 18 25 20 26 17 27 26 28 27 29 28 30 29 31 30 32 31 33 32 35
REMARK SMILES IDX 33 36 34 37 86 38 35 39 85 40 36 41 37 42 38 43 79 44 39 45
REMARK SMILES IDX 84 46 78 47 80 48 40 49 83 50 77 51 76 52 41 54 67 55 50 56
REMARK SMILES IDX 66 57 51 58 54 59 65 60 81 61 52 62 53 63 64 65 82 66 55 67
REMARK SMILES IDX 42 68 43 69 48 70 44 71 45 72 47 73 49 74 46 75 68 76 69 77
REMARK SMILES IDX 74 78 70 79 71 80 73 81 75 82 72 83 56 84 57 85 62 86 58 87
REMARK SMILES IDX 59 88 61 89 63 90 60 91
REMARK H PARENT 23 6 12 19 30 34 80 53 54 64
REMARK Flexibility Score: inf
ROOT
ATOM      1  C   UNL     1      -1.165  -1.185   4.966  1.00  0.00     0.021 C 
ENDROOT
BRANCH   1   2
ATOM      2  C   UNL     1       0.274  -0.781   4.628  1.00  0.00     0.116 C 
BRANCH   2   3
ATOM      3  N   UNL     1       0.784  -1.616   3.567  1.00  0.00    -0.351 N 
ATOM      4  C   UNL     1       0.632  -1.621   2.210  1.00  0.00     0.268 C 
ATOM      5  O   UNL     1       1.099  -2.608   1.629  1.00  0.00    -0.268 OA
ATOM      6  H   UNL     1       1.369  -2.339   3.893  1.00  0.00     0.163 HD
BRANCH   4   7
ATOM      7  C   UNL     1       0.012  -0.557   1.309  1.00  0.00     0.141 C 
ATOM      8  C   UNL     1       0.372  -0.752  -0.157  1.00  0.00     0.077 C 
ATOM      9  N   UNL     1      -0.730   0.493   1.534  1.00  0.00    -0.086 NA
BRANCH   9  10
ATOM     10  O   UNL     1      -1.037   0.769   2.856  1.00  0.00    -0.390 OA
BRANCH  10  11
ATOM     11  C   UNL     1      -1.754   2.010   2.973  1.00  0.00     0.302 C 
BRANCH  11  12
ATOM     12  C   UNL     1      -0.920   3.225   3.373  1.00  0.00     0.016 A 
ATOM     13  C   UNL     1      -1.559   4.213   4.155  1.00  0.00     0.009 A 
ATOM     14  C   UNL     1       0.391   3.477   2.904  1.00  0.00     0.045 A 
ATOM     15  C   UNL     1      -0.921   5.413   4.471  1.00  0.00     0.001 A 
ATOM     16  C   UNL     1       1.021   4.684   3.249  1.00  0.00     0.026 A 
ATOM     17  C   UNL     1       0.368   5.650   4.014  1.00  0.00     0.002 A 
BRANCH  14  18
ATOM     18  N   UNL     1       1.050   2.519   2.116  1.00  0.00    -0.353 N 
ATOM     19  H   UNL     1       0.512   1.715   1.937  1.00  0.00     0.167 HD
BRANCH  18  20
ATOM     20  C   UNL     1       2.332   2.488   1.534  1.00  0.00     0.076 A 
ATOM     21  C   UNL     1       2.454   2.531   0.130  1.00  0.00     0.066 A 
ATOM     22  C   UNL     1       3.514   2.362   2.287  1.00  0.00     0.066 A 
ATOM     23  Cl  UNL     1       1.063   2.742  -0.880  1.00  0.00    -0.082 Cl
ATOM     24  C   UNL     1       3.696   2.414  -0.499  1.00  0.00     0.023 A 
ATOM     25  C   UNL     1       4.761   2.258   1.655  1.00  0.00     0.023 A 
ATOM     26  Cl  UNL     1       3.494   2.240   4.014  1.00  0.00    -0.082 Cl
ATOM     27  C   UNL     1       4.851   2.274   0.264  1.00  0.00     0.003 A 
ENDBRANCH  18  20
ENDBRANCH  14  18
ENDBRANCH  11  12
ENDBRANCH  10  11
ENDBRANCH   9  10
ENDBRANCH   4   7
ENDBRANCH   2   3
ENDBRANCH   1   2
BRANCH   1  28
ATOM     28  C   UNL     1      -1.242  -2.356   5.954  1.00  0.00     0.002 C 
BRANCH  28  29
ATOM     29  C   UNL     1      -0.743  -2.023   7.365  1.00  0.00     0.002 C 
BRANCH  29  30
ATOM     30  C   UNL     1      -1.460  -0.850   8.040  1.00  0.00     0.021 C 
BRANCH  30  31
ATOM     31  C   UNL     1      -2.960  -1.059   8.226  1.00  0.00     0.116 C 
BRANCH  31  32
ATOM     32  N   UNL     1      -3.233  -2.180   9.113  1.00  0.00    -0.352 N 
ATOM     33  C   UNL     1      -3.870  -2.194  10.326  1.00  0.00     0.251 C 
ATOM     34  H   UNL     1      -2.913  -3.055   8.795  1.00  0.00     0.163 HD
ATOM     35  O   UNL     1      -3.772  -3.166  11.066  1.00  0.00    -0.269 OA
BRANCH  33  36
ATOM     36  C   UNL     1      -4.680  -1.030  10.743  1.00  0.00     0.039 A 
ATOM     37  C   UNL     1      -4.583  -0.573  12.059  1.00  0.00     0.014 A 
ATOM     38  C   UNL     1      -5.556  -0.414   9.844  1.00  0.00     0.014 A 
ATOM     39  C   UNL     1      -5.330   0.535  12.461  1.00  0.00     0.010 A 
ATOM     40  C   UNL     1      -6.249   0.730  10.227  1.00  0.00     0.010 A 
ATOM     41  C   UNL     1      -6.148   1.211  11.540  1.00  0.00    -0.014 A 
BRANCH  41  42
ATOM     42  C   UNL     1      -6.899   2.427  11.937  1.00  0.00     0.031 A 
ATOM     43  C   UNL     1      -8.402   2.421  11.953  1.00  0.00     0.074 A 
ATOM     44  C   UNL     1      -6.222   3.554  12.229  1.00  0.00     0.049 A 
ATOM     45  N   UNL     1      -9.228   3.397  12.233  1.00  0.00    -0.248 NA
ATOM     46  C   UNL     1      -9.064   1.162  11.579  1.00  0.00     0.031 C 
ATOM     47  C   UNL     1      -4.765   3.698  12.195  1.00  0.00     0.029 A 
ATOM     48  N   UNL     1      -6.670   4.795  12.604  1.00  0.00    -0.354 N 
ATOM     49  C   UNL     1     -10.503   2.873  12.061  1.00  0.00     0.074 A 
ATOM     50  C   UNL     1     -10.342   1.511  11.600  1.00  0.00     0.031 C 
ATOM     51  C   UNL     1      -4.439   4.948  12.560  1.00  0.00     0.029 A 
ATOM     52  C   UNL     1      -5.661   5.701  12.821  1.00  0.00     0.049 A 
ATOM     53  H   UNL     1      -7.624   5.014  12.708  1.00  0.00     0.167 HD
ATOM     54  C   UNL     1     -11.699   3.467  12.288  1.00  0.00     0.037 A 
ATOM     55  C   UNL     1      -5.717   6.995  13.187  1.00  0.00     0.037 A 
ATOM     56  C   UNL     1     -11.854   4.816  12.767  1.00  0.00     0.049 A 
ATOM     57  C   UNL     1      -7.056   7.629  13.436  1.00  0.00     0.074 A 
ATOM     58  C   UNL     1     -13.020   5.489  13.089  1.00  0.00     0.029 A 
ATOM     59  N   UNL     1     -10.808   5.699  12.989  1.00  0.00    -0.354 N 
ATOM     60  N   UNL     1      -8.252   7.100  13.339  1.00  0.00    -0.248 NA
ATOM     61  C   UNL     1      -7.053   9.038  13.852  1.00  0.00     0.031 C 
ATOM     62  C   UNL     1     -12.682   6.793  13.466  1.00  0.00     0.029 A 
ATOM     63  C   UNL     1     -11.303   6.919  13.422  1.00  0.00     0.049 A 
ATOM     64  H   UNL     1      -9.855   5.491  12.858  1.00  0.00     0.167 HD
ATOM     65  C   UNL     1      -9.141   8.102  13.703  1.00  0.00     0.074 A 
ATOM     66  C   UNL     1      -8.345   9.265  14.041  1.00  0.00     0.031 C 
ATOM     67  C   UNL     1     -10.495   8.066  13.751  1.00  0.00     0.037 A 
BRANCH  54  68
ATOM     68  C   UNL     1     -12.935   2.657  12.025  1.00  0.00     0.057 A 
ATOM     69  C   UNL     1     -13.300   1.580  12.844  1.00  0.00     0.134 A 
ATOM     70  C   UNL     1     -13.789   2.977  10.961  1.00  0.00     0.134 A 
ATOM     71  F   UNL     1     -12.520   1.213  13.872  1.00  0.00    -0.206 F 
ATOM     72  C   UNL     1     -14.455   0.834  12.599  1.00  0.00     0.040 A 
ATOM     73  C   UNL     1     -14.960   2.255  10.723  1.00  0.00     0.040 A 
ATOM     74  F   UNL     1     -13.503   3.999  10.141  1.00  0.00    -0.206 F 
ATOM     75  C   UNL     1     -15.292   1.176  11.540  1.00  0.00     0.006 A 
ENDBRANCH  54  68
BRANCH  55  76
ATOM     76  C   UNL     1      -4.463   7.769  13.365  1.00  0.00     0.057 A 
ATOM     77  C   UNL     1      -4.033   8.161  14.638  1.00  0.00     0.134 A 
ATOM     78  C   UNL     1      -3.669   8.137  12.273  1.00  0.00     0.134 A 
ATOM     79  F   UNL     1      -4.762   7.852  15.721  1.00  0.00    -0.206 F 
ATOM     80  C   UNL     1      -2.868   8.907  14.819  1.00  0.00     0.040 A 
ATOM     81  C   UNL     1      -2.488   8.862  12.441  1.00  0.00     0.040 A 
ATOM     82  F   UNL     1      -4.022   7.785  11.028  1.00  0.00    -0.206 F 
ATOM     83  C   UNL     1      -2.088   9.255  13.717  1.00  0.00     0.006 A 
ENDBRANCH  55  76
BRANCH  67  84
ATOM     84  C   UNL     1     -11.194   9.313  14.205  1.00  0.00     0.057 A 
ATOM     85  C   UNL     1     -11.266  10.455  13.396  1.00  0.00     0.134 A 
ATOM     86  C   UNL     1     -11.823   9.365  15.455  1.00  0.00     0.134 A 
ATOM     87  F   UNL     1     -10.672  10.474  12.193  1.00  0.00    -0.206 F 
ATOM     88  C   UNL     1     -11.915  11.613  13.826  1.00  0.00     0.040 A 
ATOM     89  C   UNL     1     -12.498  10.508  15.885  1.00  0.00     0.040 A 
ATOM     90  F   UNL     1     -11.799   8.303  16.275  1.00  0.00    -0.206 F 
ATOM     91  C   UNL     1     -12.539  11.639  15.072  1.00  0.00     0.006 A 
ENDBRANCH  67  84
ENDBRANCH  41  42
ENDBRANCH  33  36
ENDBRANCH  31  32
ENDBRANCH  30  31
ENDBRANCH  29  30
ENDBRANCH  28  29
ENDBRANCH   1  28
TORSDOF 18
