REMARK SMILES COc1cc(/C=C2\SC(=S)N(CC(=O)NCCCCCCNC(=O)c3ccc(-c4c5nc(c(-c6c(F)cccc6F)c6ccc([nH]6)c(-c6c(F)cccc6F)c6nc(c(-c7c(F)cccc7F)c7ccc4[nH]7)C=C6)C=C5)cc3)C2=O)cc2c1OCO2
REMARK SMILES IDX 18 1 17 2 16 3 15 4 13 5 14 6 12 8 11 9 6 10 7 11 8 12 79 13
REMARK SMILES IDX 9 14 80 15 10 16 5 17 3 18 4 19 83 20 82 21 84 22 81 23
REMARK SMILES IDX 86 24 85 25 2 26 1 27 19 28 20 29 21 30 22 31 23 32 24 34
REMARK SMILES IDX 25 35 26 36 78 37 27 38 77 39 28 40 29 41 30 42 71 43 31 44
REMARK SMILES IDX 76 45 70 46 72 47 32 48 75 49 69 50 68 51 33 53 59 54 42 55
REMARK SMILES IDX 58 56 43 57 46 58 57 59 73 60 44 61 45 62 56 64 74 65 47 66
REMARK SMILES IDX 34 67 35 68 40 69 36 70 37 71 39 72 41 73 38 74 60 75 61 76
REMARK SMILES IDX 66 77 62 78 63 79 65 80 67 81 64 82 48 83 49 84 54 85 50 86
REMARK SMILES IDX 51 87 53 88 55 89 52 90
REMARK H PARENT 15 7 22 33 72 52 46 63
REMARK Flexibility Score: inf
ROOT
ATOM      1  C   UNL     1      -4.190  -7.874   2.490  1.00  0.00     0.002 C 
ENDROOT
BRANCH   1   2
ATOM      2  C   UNL     1      -3.010  -8.249   1.583  1.00  0.00     0.021 C 
BRANCH   2   3
ATOM      3  C   UNL     1      -3.166  -9.599   0.886  1.00  0.00     0.116 C 
BRANCH   3   4
ATOM      4  N   UNL     1      -4.201  -9.569  -0.124  1.00  0.00    -0.355 N 
ATOM      5  C   UNL     1      -4.130  -9.691  -1.478  1.00  0.00     0.240 C 
ATOM      6  O   UNL     1      -5.196  -9.873  -2.075  1.00  0.00    -0.273 OA
ATOM      7  H   UNL     1      -5.111  -9.439   0.228  1.00  0.00     0.163 HD
BRANCH   5   8
ATOM      8  C   UNL     1      -2.796  -9.810  -2.226  1.00  0.00     0.227 C 
BRANCH   8   9
ATOM      9  N   UNL     1      -1.776  -8.826  -1.868  1.00  0.00    -0.283 N 
ATOM     10  C   UNL     1      -0.874  -5.324  -1.998  1.00  0.00     0.029 C 
ATOM     11  C   UNL     1      -0.873  -6.650  -1.796  1.00  0.00     0.081 C 
ATOM     12  S   UNL     1       0.361  -7.619  -1.100  1.00  0.00    -0.054 SA
ATOM     13  C   UNL     1      -2.034  -7.500  -2.172  1.00  0.00     0.266 C 
ATOM     14  C   UNL     1      -0.509  -9.114  -1.407  1.00  0.00     0.148 C 
ATOM     15  O   UNL     1      -3.050  -7.066  -2.688  1.00  0.00    -0.268 OA
ATOM     16  S   UNL     1       0.196 -10.605  -1.151  1.00  0.00    -0.052 S 
BRANCH  10  17
ATOM     17  C   UNL     1       0.211  -4.396  -1.655  1.00  0.00    -0.017 A 
ATOM     18  C   UNL     1       0.922  -2.374  -0.474  1.00  0.00     0.165 A 
ATOM     19  C   UNL     1      -0.076  -3.289  -0.830  1.00  0.00     0.058 A 
ATOM     20  C   UNL     1       2.209  -2.614  -0.920  1.00  0.00     0.207 A 
ATOM     21  C   UNL     1       2.485  -3.687  -1.737  1.00  0.00     0.170 A 
ATOM     22  O   UNL     1       3.334  -1.905  -0.628  1.00  0.00    -0.450 OA
ATOM     23  C   UNL     1       1.511  -4.576  -2.142  1.00  0.00     0.059 A 
ATOM     24  O   UNL     1       3.803  -3.773  -2.068  1.00  0.00    -0.453 OA
ATOM     25  C   UNL     1       4.345  -2.687  -1.293  1.00  0.00     0.468 C 
BRANCH  18  26
ATOM     26  O   UNL     1       0.537  -1.352   0.345  1.00  0.00    -0.493 OA
ATOM     27  C   UNL     1       1.064  -0.083  -0.036  1.00  0.00     0.278 C 
ENDBRANCH  18  26
ENDBRANCH  10  17
ENDBRANCH   8   9
ENDBRANCH   5   8
ENDBRANCH   3   4
ENDBRANCH   2   3
ENDBRANCH   1   2
BRANCH   1  28
ATOM     28  C   UNL     1      -4.504  -8.874   3.610  1.00  0.00     0.002 C 
BRANCH  28  29
ATOM     29  C   UNL     1      -3.331  -9.217   4.531  1.00  0.00     0.021 C 
BRANCH  29  30
ATOM     30  C   UNL     1      -2.730  -8.027   5.274  1.00  0.00     0.116 C 
BRANCH  30  31
ATOM     31  N   UNL     1      -3.674  -7.423   6.201  1.00  0.00    -0.352 N 
ATOM     32  C   UNL     1      -3.525  -7.136   7.535  1.00  0.00     0.251 C 
ATOM     33  H   UNL     1      -4.548  -7.184   5.815  1.00  0.00     0.163 HD
ATOM     34  O   UNL     1      -4.493  -6.789   8.204  1.00  0.00    -0.269 OA
BRANCH  32  35
ATOM     35  C   UNL     1      -2.198  -7.267   8.176  1.00  0.00     0.039 A 
ATOM     36  C   UNL     1      -2.110  -7.893   9.422  1.00  0.00     0.014 A 
ATOM     37  C   UNL     1      -1.049  -6.762   7.561  1.00  0.00     0.014 A 
ATOM     38  C   UNL     1      -0.862  -8.067  10.024  1.00  0.00     0.010 A 
ATOM     39  C   UNL     1       0.200  -6.994   8.130  1.00  0.00     0.010 A 
ATOM     40  C   UNL     1       0.307  -7.647   9.368  1.00  0.00    -0.014 A 
BRANCH  40  41
ATOM     41  C   UNL     1       1.649  -7.876   9.962  1.00  0.00     0.031 A 
ATOM     42  C   UNL     1       2.504  -6.708  10.366  1.00  0.00     0.074 A 
ATOM     43  C   UNL     1       2.122  -9.132  10.079  1.00  0.00     0.049 A 
ATOM     44  N   UNL     1       3.735  -6.699  10.813  1.00  0.00    -0.248 NA
ATOM     45  C   UNL     1       1.906  -5.370  10.228  1.00  0.00     0.031 C 
ATOM     46  C   UNL     1       1.407 -10.347   9.685  1.00  0.00     0.029 A 
ATOM     47  N   UNL     1       3.326  -9.594  10.550  1.00  0.00    -0.354 N 
ATOM     48  C   UNL     1       4.058  -5.361  11.003  1.00  0.00     0.074 A 
ATOM     49  C   UNL     1       2.916  -4.585  10.571  1.00  0.00     0.031 C 
ATOM     50  C   UNL     1       2.181 -11.415   9.937  1.00  0.00     0.029 A 
ATOM     51  C   UNL     1       3.459 -10.960  10.476  1.00  0.00     0.049 A 
ATOM     52  H   UNL     1       4.028  -9.002  10.905  1.00  0.00     0.167 HD
ATOM     53  C   UNL     1       5.192  -4.829  11.516  1.00  0.00     0.037 A 
ATOM     54  C   UNL     1       4.499 -11.753  10.795  1.00  0.00     0.037 A 
ATOM     55  C   UNL     1       6.323  -5.601  11.960  1.00  0.00     0.049 A 
ATOM     56  C   UNL     1       5.753 -11.136  11.350  1.00  0.00     0.074 A 
ATOM     57  C   UNL     1       7.508  -5.155  12.518  1.00  0.00     0.029 A 
ATOM     58  N   UNL     1       6.405  -6.984  11.899  1.00  0.00    -0.354 N 
ATOM     59  N   UNL     1       6.025  -9.872  11.568  1.00  0.00    -0.248 NA
ATOM     60  C   UNL     1       6.841 -12.055  11.712  1.00  0.00     0.031 C 
ATOM     61  C   UNL     1       8.321  -6.266  12.766  1.00  0.00     0.029 A 
ATOM     62  C   UNL     1       7.625  -7.406  12.402  1.00  0.00     0.049 A 
ATOM     63  H   UNL     1       5.701  -7.578  11.550  1.00  0.00     0.167 HD
ATOM     64  C   UNL     1       7.301  -9.847  12.117  1.00  0.00     0.074 A 
ATOM     65  C   UNL     1       7.742 -11.223  12.214  1.00  0.00     0.031 C 
ATOM     66  C   UNL     1       8.041  -8.781  12.505  1.00  0.00     0.037 A 
BRANCH  53  67
ATOM     67  C   UNL     1       5.259  -3.335  11.641  1.00  0.00     0.057 A 
ATOM     68  C   UNL     1       4.497  -2.645  12.593  1.00  0.00     0.134 A 
ATOM     69  C   UNL     1       6.121  -2.581  10.835  1.00  0.00     0.134 A 
ATOM     70  F   UNL     1       3.642  -3.306  13.389  1.00  0.00    -0.206 F 
ATOM     71  C   UNL     1       4.573  -1.257  12.724  1.00  0.00     0.040 A 
ATOM     72  C   UNL     1       6.226  -1.196  10.974  1.00  0.00     0.040 A 
ATOM     73  F   UNL     1       6.884  -3.179   9.908  1.00  0.00    -0.206 F 
ATOM     74  C   UNL     1       5.446  -0.530  11.917  1.00  0.00     0.006 A 
ENDBRANCH  53  67
BRANCH  54  75
ATOM     75  C   UNL     1       4.402 -13.223  10.604  1.00  0.00     0.057 A 
ATOM     76  C   UNL     1       4.352 -14.094  11.698  1.00  0.00     0.134 A 
ATOM     77  C   UNL     1       4.385 -13.792   9.325  1.00  0.00     0.134 A 
ATOM     78  F   UNL     1       4.385 -13.610  12.948  1.00  0.00    -0.206 F 
ATOM     79  C   UNL     1       4.316 -15.479  11.529  1.00  0.00     0.040 A 
ATOM     80  C   UNL     1       4.322 -15.174   9.140  1.00  0.00     0.040 A 
ATOM     81  F   UNL     1       4.422 -13.011   8.235  1.00  0.00    -0.206 F 
ATOM     82  C   UNL     1       4.298 -16.023  10.246  1.00  0.00     0.006 A 
ENDBRANCH  54  75
BRANCH  66  83
ATOM     83  C   UNL     1       9.386  -9.062  13.108  1.00  0.00     0.057 A 
ATOM     84  C   UNL     1      10.470  -9.488  12.331  1.00  0.00     0.134 A 
ATOM     85  C   UNL     1       9.607  -8.864  14.477  1.00  0.00     0.134 A 
ATOM     86  F   UNL     1      10.320  -9.708  11.016  1.00  0.00    -0.206 F 
ATOM     87  C   UNL     1      11.722  -9.730  12.899  1.00  0.00     0.040 A 
ATOM     88  C   UNL     1      10.860  -9.078  15.051  1.00  0.00     0.040 A 
ATOM     89  F   UNL     1       8.612  -8.448  15.275  1.00  0.00    -0.206 F 
ATOM     90  C   UNL     1      11.921  -9.518  14.262  1.00  0.00     0.006 A 
ENDBRANCH  66  83
ENDBRANCH  40  41
ENDBRANCH  32  35
ENDBRANCH  30  31
ENDBRANCH  29  30
ENDBRANCH  28  29
ENDBRANCH   1  28
TORSDOF 16
