REMARK SMILES CC[C@@]1(C(=O)NCCCCCCNC(=O)c2ccc(-c3c4nc(c(-c5c(F)cccc5F)c5ccc([nH]5)c(-c5c(F)cccc5F)c5nc(c(-c6c(F)cccc6F)c6ccc3[nH]6)C=C5)C=C4)cc2)CCC[N@@H+](Cc2ccc(C3CC3)cc2)C1
REMARK SMILES IDX 9 1 8 2 7 3 6 4 4 5 5 6 3 8 70 9 84 10 71 11 73 12 72 13
REMARK SMILES IDX 2 15 1 16 74 17 75 18 76 19 83 20 77 21 82 22 78 23 79 24
REMARK SMILES IDX 80 25 81 26 10 27 11 28 12 29 13 30 14 31 15 33 16 34 17 35
REMARK SMILES IDX 69 36 18 37 68 38 19 39 20 40 21 41 62 42 22 43 67 44 61 45
REMARK SMILES IDX 63 46 23 47 66 48 60 49 59 50 24 52 50 53 33 54 49 55 34 56
REMARK SMILES IDX 37 57 48 58 64 59 35 60 36 61 47 63 65 64 38 65 25 66 26 67
REMARK SMILES IDX 31 68 27 69 28 70 30 71 32 72 29 73 51 74 52 75 57 76 53 77
REMARK SMILES IDX 54 78 56 79 58 80 55 81 39 82 40 83 45 84 41 85 42 86 44 87
REMARK SMILES IDX 46 88 43 89
REMARK H PARENT 6 7 73 14 13 32 63 51 37 62
REMARK Flexibility Score: inf
ROOT
ATOM      1  C   UNL     1      -3.712  -1.278  -0.003  1.00  0.00     0.002 C 
ENDROOT
BRANCH   1   2
ATOM      2  C   UNL     1      -3.052  -0.747   1.276  1.00  0.00     0.021 C 
BRANCH   2   3
ATOM      3  C   UNL     1      -1.947  -1.655   1.816  1.00  0.00     0.116 C 
BRANCH   3   4
ATOM      4  N   UNL     1      -0.769  -1.558   0.988  1.00  0.00    -0.355 N 
ATOM      5  C   UNL     1       0.422  -0.926   1.111  1.00  0.00     0.231 C 
ATOM      6  O   UNL     1       1.123  -0.979   0.090  1.00  0.00    -0.274 OA
ATOM      7  H   UNL     1      -0.849  -2.064   0.147  1.00  0.00     0.163 HD
BRANCH   5   8
ATOM      8  C   UNL     1       1.003  -0.384   2.443  1.00  0.00     0.098 C 
ATOM      9  C   UNL     1       0.080   0.367   3.424  1.00  0.00     0.028 C 
ATOM     10  C   UNL     1       2.110   0.648   2.068  1.00  0.00     0.279 C 
ATOM     11  C   UNL     1      -0.487   1.637   2.802  1.00  0.00     0.063 C 
ATOM     12  N   UNL     1       1.608   1.927   1.521  1.00  0.00    -0.330 N 
ATOM     13  C   UNL     1       0.640   2.583   2.404  1.00  0.00     0.262 C 
ATOM     14  H   UNL     1       1.099   1.691   0.670  1.00  0.00     0.348 HD
BRANCH   8  15
ATOM     15  C   UNL     1       1.597  -1.650   3.150  1.00  0.00     0.019 C 
ATOM     16  C   UNL     1       2.868  -1.449   3.968  1.00  0.00     0.005 C 
ENDBRANCH   8  15
BRANCH  12  17
ATOM     17  C   UNL     1       2.710   2.835   1.125  1.00  0.00     0.299 C 
BRANCH  17  18
ATOM     18  C   UNL     1       3.565   3.355   2.267  1.00  0.00     0.006 A 
ATOM     19  C   UNL     1       3.312   4.604   2.843  1.00  0.00     0.010 A 
ATOM     20  C   UNL     1       4.558   2.552   2.839  1.00  0.00     0.010 A 
ATOM     21  C   UNL     1       3.973   4.991   4.015  1.00  0.00     0.004 A 
ATOM     22  C   UNL     1       5.189   2.933   4.026  1.00  0.00     0.004 A 
ATOM     23  C   UNL     1       4.897   4.151   4.661  1.00  0.00    -0.045 A 
BRANCH  23  24
ATOM     24  C   UNL     1       5.512   4.569   5.983  1.00  0.00     0.019 C 
ATOM     25  C   UNL     1       5.833   3.550   7.053  1.00  0.00     0.009 C 
ATOM     26  C   UNL     1       6.946   4.236   6.312  1.00  0.00     0.009 C 
ENDBRANCH  23  24
ENDBRANCH  17  18
ENDBRANCH  12  17
ENDBRANCH   5   8
ENDBRANCH   3   4
ENDBRANCH   2   3
ENDBRANCH   1   2
BRANCH   1  27
ATOM     27  C   UNL     1      -4.378  -2.650   0.140  1.00  0.00     0.002 C 
BRANCH  27  28
ATOM     28  C   UNL     1      -5.362  -2.767   1.306  1.00  0.00     0.021 C 
BRANCH  28  29
ATOM     29  C   UNL     1      -6.488  -1.739   1.287  1.00  0.00     0.116 C 
BRANCH  29  30
ATOM     30  N   UNL     1      -7.324  -1.872   0.107  1.00  0.00    -0.352 N 
ATOM     31  C   UNL     1      -8.684  -2.019   0.020  1.00  0.00     0.251 C 
ATOM     32  H   UNL     1      -6.846  -1.853  -0.753  1.00  0.00     0.163 HD
ATOM     33  O   UNL     1      -9.207  -2.326  -1.046  1.00  0.00    -0.269 OA
BRANCH  31  34
ATOM     34  C   UNL     1      -9.521  -1.823   1.222  1.00  0.00     0.039 A 
ATOM     35  C   UNL     1     -10.539  -2.741   1.489  1.00  0.00     0.014 A 
ATOM     36  C   UNL     1      -9.314  -0.731   2.071  1.00  0.00     0.014 A 
ATOM     37  C   UNL     1     -11.320  -2.590   2.635  1.00  0.00     0.010 A 
ATOM     38  C   UNL     1     -10.047  -0.622   3.250  1.00  0.00     0.010 A 
ATOM     39  C   UNL     1     -11.063  -1.544   3.538  1.00  0.00    -0.014 A 
BRANCH  39  40
ATOM     40  C   UNL     1     -11.853  -1.411   4.787  1.00  0.00     0.031 A 
ATOM     41  C   UNL     1     -12.744  -0.220   5.000  1.00  0.00     0.074 A 
ATOM     42  C   UNL     1     -11.733  -2.347   5.748  1.00  0.00     0.049 A 
ATOM     43  N   UNL     1     -13.504   0.070   6.026  1.00  0.00    -0.248 NA
ATOM     44  C   UNL     1     -12.767   0.793   3.933  1.00  0.00     0.031 C 
ATOM     45  C   UNL     1     -10.856  -3.518   5.683  1.00  0.00     0.029 A 
ATOM     46  N   UNL     1     -12.349  -2.460   6.968  1.00  0.00    -0.354 N 
ATOM     47  C   UNL     1     -14.084   1.297   5.732  1.00  0.00     0.074 A 
ATOM     48  C   UNL     1     -13.547   1.725   4.459  1.00  0.00     0.031 C 
ATOM     49  C   UNL     1     -11.014  -4.247   6.799  1.00  0.00     0.029 A 
ATOM     50  C   UNL     1     -11.978  -3.581   7.670  1.00  0.00     0.049 A 
ATOM     51  H   UNL     1     -12.996  -1.800   7.309  1.00  0.00     0.167 HD
ATOM     52  C   UNL     1     -15.001   1.992   6.447  1.00  0.00     0.037 A 
ATOM     53  C   UNL     1     -12.375  -4.025   8.877  1.00  0.00     0.037 A 
ATOM     54  C   UNL     1     -15.551   1.552   7.702  1.00  0.00     0.049 A 
ATOM     55  C   UNL     1     -13.405  -3.244   9.643  1.00  0.00     0.074 A 
ATOM     56  C   UNL     1     -16.528   2.154   8.475  1.00  0.00     0.029 A 
ATOM     57  N   UNL     1     -15.166   0.399   8.371  1.00  0.00    -0.354 N 
ATOM     58  N   UNL     1     -14.003  -2.124   9.318  1.00  0.00    -0.248 NA
ATOM     59  C   UNL     1     -13.824  -3.795  10.940  1.00  0.00     0.031 C 
ATOM     60  C   UNL     1     -16.706   1.387   9.632  1.00  0.00     0.029 A 
ATOM     61  C   UNL     1     -15.874   0.281   9.556  1.00  0.00     0.049 A 
ATOM     62  H   UNL     1     -14.491  -0.241   8.050  1.00  0.00     0.167 HD
ATOM     63  C   UNL     1     -14.890  -1.852  10.351  1.00  0.00     0.074 A 
ATOM     64  C   UNL     1     -14.759  -2.931  11.309  1.00  0.00     0.031 C 
ATOM     65  C   UNL     1     -15.737  -0.803  10.494  1.00  0.00     0.037 A 
BRANCH  52  66
ATOM     66  C   UNL     1     -15.472   3.301   5.881  1.00  0.00     0.057 A 
ATOM     67  C   UNL     1     -16.282   3.364   4.739  1.00  0.00     0.134 A 
ATOM     68  C   UNL     1     -15.137   4.512   6.501  1.00  0.00     0.134 A 
ATOM     69  F   UNL     1     -16.630   2.243   4.090  1.00  0.00    -0.206 F 
ATOM     70  C   UNL     1     -16.719   4.584   4.219  1.00  0.00     0.040 A 
ATOM     71  C   UNL     1     -15.592   5.736   6.007  1.00  0.00     0.040 A 
ATOM     72  F   UNL     1     -14.370   4.525   7.602  1.00  0.00    -0.206 F 
ATOM     73  C   UNL     1     -16.379   5.774   4.858  1.00  0.00     0.006 A 
ENDBRANCH  52  66
BRANCH  53  74
ATOM     74  C   UNL     1     -11.826  -5.295   9.415  1.00  0.00     0.057 A 
ATOM     75  C   UNL     1     -12.622  -6.443   9.509  1.00  0.00     0.134 A 
ATOM     76  C   UNL     1     -10.498  -5.394   9.845  1.00  0.00     0.134 A 
ATOM     77  F   UNL     1     -13.908  -6.405   9.128  1.00  0.00    -0.206 F 
ATOM     78  C   UNL     1     -12.123  -7.638  10.028  1.00  0.00     0.040 A 
ATOM     79  C   UNL     1      -9.978  -6.590  10.342  1.00  0.00     0.040 A 
ATOM     80  F   UNL     1      -9.681  -4.332   9.771  1.00  0.00    -0.206 F 
ATOM     81  C   UNL     1     -10.794  -7.715  10.441  1.00  0.00     0.006 A 
ENDBRANCH  53  74
BRANCH  65  82
ATOM     82  C   UNL     1     -16.616  -0.794  11.710  1.00  0.00     0.057 A 
ATOM     83  C   UNL     1     -16.110  -0.532  12.989  1.00  0.00     0.134 A 
ATOM     84  C   UNL     1     -17.994  -1.016  11.592  1.00  0.00     0.134 A 
ATOM     85  F   UNL     1     -14.797  -0.323  13.171  1.00  0.00    -0.206 F 
ATOM     86  C   UNL     1     -16.939  -0.516  14.112  1.00  0.00     0.040 A 
ATOM     87  C   UNL     1     -18.837  -0.977  12.703  1.00  0.00     0.040 A 
ATOM     88  F   UNL     1     -18.545  -1.264  10.394  1.00  0.00    -0.206 F 
ATOM     89  C   UNL     1     -18.309  -0.733  13.969  1.00  0.00     0.006 A 
ENDBRANCH  65  82
ENDBRANCH  39  40
ENDBRANCH  31  34
ENDBRANCH  29  30
ENDBRANCH  28  29
ENDBRANCH  27  28
ENDBRANCH   1  27
TORSDOF 17
