REMARK SMILES Cc1cc([N+](=O)[O-])ccc1NC(=O)[C@@H]1[C@@H](C(=O)NCCCCCCNC(=O)c2ccc(-c3c4nc(c(-c5c(F)cccc5F)c5ccc([nH]5)c(-c5c(F)cccc5F)c5nc(c(-c6c(F)cccc6F)c6ccc3[nH]6)C=C5)C=C4)cc2)[C@H]2C=C[C@@H]1C2
REMARK SMILES IDX 21 1 20 2 19 3 18 4 16 5 17 6 15 8 14 9 85 10 82 11 84 12
REMARK SMILES IDX 86 13 83 14 12 15 11 16 13 18 10 19 1 20 2 21 3 22 4 23 9 24
REMARK SMILES IDX 8 25 5 26 6 27 7 28 22 29 23 30 24 31 25 32 26 33 27 35
REMARK SMILES IDX 28 36 29 37 81 38 30 39 80 40 31 41 32 42 33 43 74 44 34 45
REMARK SMILES IDX 79 46 73 47 75 48 35 49 78 50 72 51 71 52 36 54 62 55 45 56
REMARK SMILES IDX 61 57 46 58 49 59 60 60 76 61 47 62 48 63 59 65 77 66 50 67
REMARK SMILES IDX 37 68 38 69 43 70 39 71 40 72 42 73 44 74 41 75 63 76 64 77
REMARK SMILES IDX 69 78 65 79 66 80 68 81 70 82 67 83 51 84 52 85 57 86 53 87
REMARK SMILES IDX 54 88 56 89 58 90 55 91
REMARK H PARENT 18 7 11 17 25 34 75 53 49 64
REMARK Flexibility Score: inf
ROOT
ATOM      1  C   UNL     1      -4.977   9.394  -1.059  1.00  0.00     0.002 C 
ENDROOT
BRANCH   1   2
ATOM      2  C   UNL     1      -3.817   9.158  -0.082  1.00  0.00     0.021 C 
BRANCH   2   3
ATOM      3  C   UNL     1      -3.538   7.716   0.340  1.00  0.00     0.116 C 
BRANCH   3   4
ATOM      4  N   UNL     1      -3.316   6.821  -0.770  1.00  0.00    -0.356 N 
ATOM      5  C   UNL     1      -2.644   5.638  -0.808  1.00  0.00     0.224 C 
ATOM      6  O   UNL     1      -2.655   5.032  -1.882  1.00  0.00    -0.275 OA
ATOM      7  H   UNL     1      -3.708   7.109  -1.626  1.00  0.00     0.163 HD
BRANCH   5   8
ATOM      8  C   UNL     1      -1.841   5.146   0.396  1.00  0.00     0.098 C 
ATOM      9  C   UNL     1      -1.360   3.654   0.182  1.00  0.00     0.099 C 
ATOM     10  C   UNL     1      -1.801   2.966   1.500  1.00  0.00     0.025 C 
ATOM     11  C   UNL     1      -2.613   5.032   1.737  1.00  0.00     0.025 C 
ATOM     12  C   UNL     1      -3.308   2.858   1.454  1.00  0.00    -0.027 C 
ATOM     13  C   UNL     1      -1.680   4.101   2.517  1.00  0.00     0.017 C 
ATOM     14  C   UNL     1      -3.795   4.101   1.584  1.00  0.00    -0.027 C 
BRANCH   9  15
ATOM     15  C   UNL     1       0.125   3.482  -0.079  1.00  0.00     0.228 C 
ATOM     16  N   UNL     1       0.685   2.248  -0.299  1.00  0.00    -0.326 N 
ATOM     17  H   UNL     1       1.659   2.285  -0.440  1.00  0.00     0.169 HD
ATOM     18  O   UNL     1       0.893   4.449  -0.052  1.00  0.00    -0.274 OA
BRANCH  16  19
ATOM     19  C   UNL     1       0.163   0.936  -0.366  1.00  0.00     0.044 A 
ATOM     20  C   UNL     1       2.496  -0.061   0.145  1.00  0.00     0.047 C 
ATOM     21  C   UNL     1       1.007  -0.161  -0.073  1.00  0.00    -0.021 A 
ATOM     22  C   UNL     1       0.455  -1.461   0.012  1.00  0.00     0.091 A 
ATOM     23  C   UNL     1      -0.909  -1.671  -0.207  1.00  0.00     0.269 A 
ATOM     24  C   UNL     1      -1.173   0.669  -0.696  1.00  0.00     0.033 A 
ATOM     25  C   UNL     1      -1.721  -0.612  -0.595  1.00  0.00     0.088 A 
BRANCH  23  26
ATOM     26  N   UNL     1      -1.491  -3.005  -0.033  1.00  0.00     0.062 N 
ATOM     27  O   UNL     1      -0.713  -3.957   0.118  1.00  0.00    -0.258 OA
ATOM     28  O   UNL     1      -2.727  -3.097  -0.031  1.00  0.00    -0.258 OA
ENDBRANCH  23  26
ENDBRANCH  16  19
ENDBRANCH   9  15
ENDBRANCH   5   8
ENDBRANCH   3   4
ENDBRANCH   2   3
ENDBRANCH   1   2
BRANCH   1  29
ATOM     29  C   UNL     1      -6.345   8.788  -0.715  1.00  0.00     0.002 C 
BRANCH  29  30
ATOM     30  C   UNL     1      -6.875   9.014   0.700  1.00  0.00     0.021 C 
BRANCH  30  31
ATOM     31  C   UNL     1      -6.990  10.467   1.134  1.00  0.00     0.116 C 
BRANCH  31  32
ATOM     32  N   UNL     1      -8.230  11.136   0.772  1.00  0.00    -0.352 N 
ATOM     33  C   UNL     1      -8.559  12.482   0.885  1.00  0.00     0.251 C 
ATOM     34  H   UNL     1      -8.931  10.557   0.395  1.00  0.00     0.163 HD
ATOM     35  O   UNL     1      -9.665  12.871   0.567  1.00  0.00    -0.269 OA
BRANCH  33  36
ATOM     36  C   UNL     1      -7.504  13.460   1.270  1.00  0.00     0.039 A 
ATOM     37  C   UNL     1      -7.392  14.630   0.510  1.00  0.00     0.014 A 
ATOM     38  C   UNL     1      -6.524  13.146   2.208  1.00  0.00     0.014 A 
ATOM     39  C   UNL     1      -6.184  15.325   0.499  1.00  0.00     0.010 A 
ATOM     40  C   UNL     1      -5.294  13.771   2.129  1.00  0.00     0.010 A 
ATOM     41  C   UNL     1      -5.104  14.816   1.223  1.00  0.00    -0.014 A 
BRANCH  41  42
ATOM     42  C   UNL     1      -3.729  15.236   0.988  1.00  0.00     0.031 A 
ATOM     43  C   UNL     1      -3.048  16.159   1.914  1.00  0.00     0.074 A 
ATOM     44  C   UNL     1      -3.057  14.785  -0.095  1.00  0.00     0.049 A 
ATOM     45  N   UNL     1      -2.196  17.049   1.529  1.00  0.00    -0.248 NA
ATOM     46  C   UNL     1      -3.292  16.168   3.351  1.00  0.00     0.031 C 
ATOM     47  C   UNL     1      -1.633  14.947  -0.375  1.00  0.00     0.029 A 
ATOM     48  N   UNL     1      -3.589  14.257  -1.275  1.00  0.00    -0.354 N 
ATOM     49  C   UNL     1      -1.592  17.556   2.654  1.00  0.00     0.074 A 
ATOM     50  C   UNL     1      -2.359  17.034   3.764  1.00  0.00     0.031 C 
ATOM     51  C   UNL     1      -1.431  14.795  -1.693  1.00  0.00     0.029 A 
ATOM     52  C   UNL     1      -2.731  14.651  -2.321  1.00  0.00     0.049 A 
ATOM     53  H   UNL     1      -4.406  13.714  -1.359  1.00  0.00     0.167 HD
ATOM     54  C   UNL     1      -0.419  18.242   2.548  1.00  0.00     0.037 A 
ATOM     55  C   UNL     1      -3.175  15.380  -3.384  1.00  0.00     0.037 A 
ATOM     56  C   UNL     1       0.069  18.262   1.175  1.00  0.00     0.049 A 
ATOM     57  C   UNL     1      -2.464  16.698  -3.562  1.00  0.00     0.074 A 
ATOM     58  C   UNL     1       0.985  17.459   0.514  1.00  0.00     0.029 A 
ATOM     59  N   UNL     1      -0.596  18.991   0.198  1.00  0.00    -0.354 N 
ATOM     60  N   UNL     1      -1.792  17.290  -2.616  1.00  0.00    -0.248 NA
ATOM     61  C   UNL     1      -2.474  17.467  -4.803  1.00  0.00     0.031 C 
ATOM     62  C   UNL     1       0.876  17.710  -0.871  1.00  0.00     0.029 A 
ATOM     63  C   UNL     1      -0.104  18.668  -1.053  1.00  0.00     0.049 A 
ATOM     64  H   UNL     1      -1.313  19.643   0.371  1.00  0.00     0.167 HD
ATOM     65  C   UNL     1      -1.309  18.491  -3.075  1.00  0.00     0.074 A 
ATOM     66  C   UNL     1      -1.745  18.544  -4.456  1.00  0.00     0.031 C 
ATOM     67  C   UNL     1      -0.598  19.324  -2.255  1.00  0.00     0.037 A 
BRANCH  54  68
ATOM     68  C   UNL     1       0.434  18.604   3.738  1.00  0.00     0.057 A 
ATOM     69  C   UNL     1       1.841  18.588   3.666  1.00  0.00     0.134 A 
ATOM     70  C   UNL     1      -0.083  18.953   4.996  1.00  0.00     0.134 A 
ATOM     71  F   UNL     1       2.490  18.384   2.513  1.00  0.00    -0.206 F 
ATOM     72  C   UNL     1       2.663  18.777   4.783  1.00  0.00     0.040 A 
ATOM     73  C   UNL     1       0.724  19.100   6.133  1.00  0.00     0.040 A 
ATOM     74  F   UNL     1      -1.391  19.195   5.166  1.00  0.00    -0.206 F 
ATOM     75  C   UNL     1       2.104  18.995   6.032  1.00  0.00     0.006 A 
ENDBRANCH  54  68
BRANCH  55  76
ATOM     76  C   UNL     1      -4.599  15.130  -3.714  1.00  0.00     0.057 A 
ATOM     77  C   UNL     1      -4.957  13.868  -4.219  1.00  0.00     0.134 A 
ATOM     78  C   UNL     1      -5.620  15.919  -3.179  1.00  0.00     0.134 A 
ATOM     79  F   UNL     1      -4.020  13.062  -4.743  1.00  0.00    -0.206 F 
ATOM     80  C   UNL     1      -6.253  13.364  -4.090  1.00  0.00     0.040 A 
ATOM     81  C   UNL     1      -6.924  15.428  -3.053  1.00  0.00     0.040 A 
ATOM     82  F   UNL     1      -5.350  17.125  -2.659  1.00  0.00    -0.206 F 
ATOM     83  C   UNL     1      -7.234  14.133  -3.471  1.00  0.00     0.006 A 
ENDBRANCH  55  76
BRANCH  67  84
ATOM     84  C   UNL     1      -0.189  20.761  -2.511  1.00  0.00     0.057 A 
ATOM     85  C   UNL     1      -0.785  21.614  -3.451  1.00  0.00     0.134 A 
ATOM     86  C   UNL     1       0.777  21.389  -1.683  1.00  0.00     0.134 A 
ATOM     87  F   UNL     1      -1.789  21.208  -4.236  1.00  0.00    -0.206 F 
ATOM     88  C   UNL     1      -0.416  22.962  -3.592  1.00  0.00     0.040 A 
ATOM     89  C   UNL     1       1.112  22.743  -1.778  1.00  0.00     0.040 A 
ATOM     90  F   UNL     1       1.429  20.723  -0.718  1.00  0.00    -0.206 F 
ATOM     91  C   UNL     1       0.525  23.535  -2.747  1.00  0.00     0.006 A 
ENDBRANCH  67  84
ENDBRANCH  41  42
ENDBRANCH  33  36
ENDBRANCH  31  32
ENDBRANCH  30  31
ENDBRANCH  29  30
ENDBRANCH   1  29
TORSDOF 16
