REMARK SMILES CCc1cccc(C)c1Nc1ccccc1CC(=O)NCCCCCCNC(=O)c1ccc(-c2c3nc(c(-c4c(F)cccc4F)c4ccc([nH]4)c(-c4c(F)cccc4F)c4nc(c(-c5c(F)cccc5F)c5ccc2[nH]5)C=C4)C=C3)cc1
REMARK SMILES IDX 22 1 21 2 20 3 18 4 19 5 17 7 16 8 11 9 12 10 13 11 15 12
REMARK SMILES IDX 14 13 10 14 9 16 3 17 4 18 5 19 7 20 6 21 8 22 2 23 1 24
REMARK SMILES IDX 23 25 24 26 25 27 26 28 27 29 28 30 29 32 30 33 31 34 83 35
REMARK SMILES IDX 32 36 82 37 33 38 34 39 35 40 76 41 36 42 81 43 75 44 77 45
REMARK SMILES IDX 37 46 80 47 74 48 73 49 38 51 64 52 47 53 63 54 48 55 51 56
REMARK SMILES IDX 62 57 78 58 49 59 50 60 61 62 79 63 52 64 39 65 40 66 45 67
REMARK SMILES IDX 41 68 42 69 44 70 46 71 43 72 65 73 66 74 71 75 67 76 68 77
REMARK SMILES IDX 70 78 72 79 69 80 53 81 54 82 59 83 55 84 56 85 58 86 60 87
REMARK SMILES IDX 57 88
REMARK H PARENT 20 6 10 15 27 31 77 50 51 61
REMARK Flexibility Score: inf
ROOT
ATOM      1  C   UNL     1       0.640   7.331  -0.522  1.00  0.00     0.021 C 
ENDROOT
BRANCH   1   2
ATOM      2  C   UNL     1      -0.702   6.859   0.042  1.00  0.00     0.116 C 
BRANCH   2   3
ATOM      3  N   UNL     1      -1.164   5.611  -0.531  1.00  0.00    -0.356 N 
ATOM      4  C   UNL     1      -1.321   4.368   0.002  1.00  0.00     0.224 C 
ATOM      5  O   UNL     1      -1.985   3.564  -0.661  1.00  0.00    -0.275 OA
ATOM      6  H   UNL     1      -1.411   5.673  -1.482  1.00  0.00     0.163 HD
BRANCH   4   7
ATOM      7  C   UNL     1      -0.865   4.024   1.402  1.00  0.00     0.137 C 
BRANCH   7   8
ATOM      8  C   UNL     1       0.616   4.086   1.718  1.00  0.00    -0.015 A 
ATOM      9  C   UNL     1       1.554   3.121   1.293  1.00  0.00     0.042 A 
ATOM     10  C   UNL     1       2.878   3.205   1.771  1.00  0.00     0.026 A 
ATOM     11  C   UNL     1       3.284   4.223   2.633  1.00  0.00     0.002 A 
ATOM     12  C   UNL     1       1.043   5.091   2.616  1.00  0.00     0.006 A 
ATOM     13  C   UNL     1       2.364   5.169   3.056  1.00  0.00     0.000 A 
BRANCH   9  14
ATOM     14  N   UNL     1       1.270   2.067   0.399  1.00  0.00    -0.355 N 
ATOM     15  H   UNL     1       1.286   1.174   0.813  1.00  0.00     0.167 HD
BRANCH  14  16
ATOM     16  C   UNL     1       0.964   2.057  -0.983  1.00  0.00     0.045 A 
ATOM     17  C   UNL     1       0.265   0.967  -1.561  1.00  0.00    -0.024 A 
ATOM     18  C   UNL     1      -0.266   1.115  -2.867  1.00  0.00     0.006 A 
ATOM     19  C   UNL     1      -0.069   2.265  -3.618  1.00  0.00     0.001 A 
ATOM     20  C   UNL     1       1.300   3.151  -1.827  1.00  0.00    -0.027 A 
ATOM     21  C   UNL     1       0.745   3.262  -3.114  1.00  0.00     0.005 A 
ATOM     22  C   UNL     1       2.343   4.166  -1.447  1.00  0.00     0.046 C 
BRANCH  17  23
ATOM     23  C   UNL     1       0.018  -0.415  -0.977  1.00  0.00     0.034 C 
ATOM     24  C   UNL     1       0.602  -0.856   0.354  1.00  0.00     0.009 C 
ENDBRANCH  17  23
ENDBRANCH  14  16
ENDBRANCH   9  14
ENDBRANCH   7   8
ENDBRANCH   4   7
ENDBRANCH   2   3
ENDBRANCH   1   2
BRANCH   1  25
ATOM     25  C   UNL     1       0.763   7.291  -2.053  1.00  0.00     0.002 C 
BRANCH  25  26
ATOM     26  C   UNL     1      -0.216   8.171  -2.843  1.00  0.00     0.002 C 
BRANCH  26  27
ATOM     27  C   UNL     1      -0.201   9.657  -2.489  1.00  0.00     0.021 C 
BRANCH  27  28
ATOM     28  C   UNL     1       1.106  10.367  -2.823  1.00  0.00     0.116 C 
BRANCH  28  29
ATOM     29  N   UNL     1       1.133  10.993  -4.136  1.00  0.00    -0.352 N 
ATOM     30  C   UNL     1       2.148  11.678  -4.784  1.00  0.00     0.251 C 
ATOM     31  H   UNL     1       0.294  10.917  -4.646  1.00  0.00     0.163 HD
ATOM     32  O   UNL     1       1.911  12.232  -5.844  1.00  0.00    -0.269 OA
BRANCH  30  33
ATOM     33  C   UNL     1       3.553  11.600  -4.290  1.00  0.00     0.039 A 
ATOM     34  C   UNL     1       4.563  11.512  -5.260  1.00  0.00     0.014 A 
ATOM     35  C   UNL     1       3.866  11.379  -2.954  1.00  0.00     0.014 A 
ATOM     36  C   UNL     1       5.780  10.920  -4.934  1.00  0.00     0.010 A 
ATOM     37  C   UNL     1       5.028  10.703  -2.645  1.00  0.00     0.010 A 
ATOM     38  C   UNL     1       5.940  10.396  -3.656  1.00  0.00    -0.014 A 
BRANCH  38  39
ATOM     39  C   UNL     1       6.965   9.425  -3.303  1.00  0.00     0.031 A 
ATOM     40  C   UNL     1       8.135   9.838  -2.512  1.00  0.00     0.074 A 
ATOM     41  C   UNL     1       6.770   8.124  -3.614  1.00  0.00     0.049 A 
ATOM     42  N   UNL     1       9.191   9.117  -2.351  1.00  0.00    -0.248 NA
ATOM     43  C   UNL     1       8.240  11.158  -1.900  1.00  0.00     0.031 C 
ATOM     44  C   UNL     1       7.489   6.963  -3.098  1.00  0.00     0.029 A 
ATOM     45  N   UNL     1       6.009   7.616  -4.676  1.00  0.00    -0.354 N 
ATOM     46  C   UNL     1       9.981   9.732  -1.411  1.00  0.00     0.074 A 
ATOM     47  C   UNL     1       9.414  11.050  -1.272  1.00  0.00     0.031 C 
ATOM     48  C   UNL     1       7.392   5.966  -3.990  1.00  0.00     0.029 A 
ATOM     49  C   UNL     1       6.743   6.510  -5.169  1.00  0.00     0.049 A 
ATOM     50  H   UNL     1       5.147   7.956  -5.009  1.00  0.00     0.167 HD
ATOM     51  C   UNL     1      10.938   8.988  -0.785  1.00  0.00     0.037 A 
ATOM     52  C   UNL     1       7.291   6.546  -6.420  1.00  0.00     0.037 A 
ATOM     53  C   UNL     1      11.177   7.736  -1.515  1.00  0.00     0.049 A 
ATOM     54  C   UNL     1       8.804   6.450  -6.455  1.00  0.00     0.074 A 
ATOM     55  C   UNL     1      10.854   6.402  -1.326  1.00  0.00     0.029 A 
ATOM     56  N   UNL     1      11.646   7.827  -2.816  1.00  0.00    -0.354 N 
ATOM     57  N   UNL     1       9.569   6.422  -5.397  1.00  0.00    -0.248 NA
ATOM     58  C   UNL     1       9.579   6.474  -7.697  1.00  0.00     0.031 C 
ATOM     59  C   UNL     1      11.084   5.712  -2.556  1.00  0.00     0.029 A 
ATOM     60  C   UNL     1      11.565   6.621  -3.481  1.00  0.00     0.049 A 
ATOM     61  H   UNL     1      11.996   8.655  -3.218  1.00  0.00     0.167 HD
ATOM     62  C   UNL     1      10.880   6.491  -5.783  1.00  0.00     0.074 A 
ATOM     63  C   UNL     1      10.840   6.510  -7.233  1.00  0.00     0.031 C 
ATOM     64  C   UNL     1      11.910   6.580  -4.894  1.00  0.00     0.037 A 
BRANCH  51  65
ATOM     65  C   UNL     1      11.547   9.293   0.574  1.00  0.00     0.057 A 
ATOM     66  C   UNL     1      12.353   8.330   1.218  1.00  0.00     0.134 A 
ATOM     67  C   UNL     1      11.307  10.439   1.361  1.00  0.00     0.134 A 
ATOM     68  F   UNL     1      12.706   7.189   0.611  1.00  0.00    -0.206 F 
ATOM     69  C   UNL     1      12.826   8.473   2.533  1.00  0.00     0.040 A 
ATOM     70  C   UNL     1      11.789  10.602   2.668  1.00  0.00     0.040 A 
ATOM     71  F   UNL     1      10.578  11.472   0.942  1.00  0.00    -0.206 F 
ATOM     72  C   UNL     1      12.539   9.610   3.268  1.00  0.00     0.006 A 
ENDBRANCH  51  65
BRANCH  52  73
ATOM     73  C   UNL     1       6.465   7.321  -7.385  1.00  0.00     0.057 A 
ATOM     74  C   UNL     1       5.160   6.874  -7.665  1.00  0.00     0.134 A 
ATOM     75  C   UNL     1       6.772   8.642  -7.721  1.00  0.00     0.134 A 
ATOM     76  F   UNL     1       4.799   5.616  -7.367  1.00  0.00    -0.206 F 
ATOM     77  C   UNL     1       4.172   7.738  -8.142  1.00  0.00     0.040 A 
ATOM     78  C   UNL     1       5.794   9.511  -8.218  1.00  0.00     0.040 A 
ATOM     79  F   UNL     1       7.986   9.148  -7.464  1.00  0.00    -0.206 F 
ATOM     80  C   UNL     1       4.481   9.072  -8.387  1.00  0.00     0.006 A 
ENDBRANCH  52  73
BRANCH  64  81
ATOM     81  C   UNL     1      13.346   6.657  -5.317  1.00  0.00     0.057 A 
ATOM     82  C   UNL     1      13.908   5.746  -6.222  1.00  0.00     0.134 A 
ATOM     83  C   UNL     1      14.239   7.574  -4.731  1.00  0.00     0.134 A 
ATOM     84  F   UNL     1      13.152   4.808  -6.813  1.00  0.00    -0.206 F 
ATOM     85  C   UNL     1      15.272   5.758  -6.537  1.00  0.00     0.040 A 
ATOM     86  C   UNL     1      15.609   7.565  -5.001  1.00  0.00     0.040 A 
ATOM     87  F   UNL     1      13.810   8.527  -3.890  1.00  0.00    -0.206 F 
ATOM     88  C   UNL     1      16.130   6.658  -5.913  1.00  0.00     0.006 A 
ENDBRANCH  64  81
ENDBRANCH  38  39
ENDBRANCH  30  33
ENDBRANCH  28  29
ENDBRANCH  27  28
ENDBRANCH  26  27
ENDBRANCH  25  26
ENDBRANCH   1  25
TORSDOF 17
