REMARK SMILES C[C@@H](CC(=O)NCCCCCCNC(=O)c1ccc(-c2c3nc(c(-c4c(F)cccc4F)c4ccc([nH]4)c(-c4c(F)cccc4F)c4nc(c(-c5c(F)cccc5F)c5ccc2[nH]5)C=C4)C=C3)cc1)c1ccc(Oc2ccccc2)cc1
REMARK SMILES IDX 8 1 7 2 6 3 4 4 5 5 3 7 2 8 1 9 70 10 71 11 82 12 72 13
REMARK SMILES IDX 81 14 73 15 74 16 75 17 76 18 80 19 77 20 79 21 78 22 9 23
REMARK SMILES IDX 10 24 11 25 12 26 13 27 14 28 15 30 16 31 17 32 69 33 18 34
REMARK SMILES IDX 68 35 19 36 20 37 21 38 62 39 22 40 67 41 61 42 63 43 23 44
REMARK SMILES IDX 66 45 60 46 59 47 24 49 50 50 33 51 49 52 34 53 37 54 48 55
REMARK SMILES IDX 64 56 35 57 36 58 47 60 65 61 38 62 25 63 26 64 31 65 27 66
REMARK SMILES IDX 28 67 30 68 32 69 29 70 51 71 52 72 57 73 53 74 54 75 56 76
REMARK SMILES IDX 58 77 55 78 39 79 40 80 45 81 41 82 42 83 44 84 46 85 43 86
REMARK H PARENT 6 6 13 29 63 48 37 59
REMARK Flexibility Score: inf
ROOT
ATOM      1  C   UNL     1       0.929  -1.821   1.622  1.00  0.00     0.021 C 
ENDROOT
BRANCH   1   2
ATOM      2  C   UNL     1       1.889  -2.001   0.446  1.00  0.00     0.116 C 
BRANCH   2   3
ATOM      3  N   UNL     1       1.244  -2.662  -0.662  1.00  0.00    -0.356 N 
ATOM      4  C   UNL     1       0.923  -2.199  -1.894  1.00  0.00     0.220 C 
ATOM      5  O   UNL     1       0.468  -3.017  -2.699  1.00  0.00    -0.275 OA
ATOM      6  H   UNL     1       0.997  -3.601  -0.496  1.00  0.00     0.163 HD
BRANCH   4   7
ATOM      7  C   UNL     1       1.149  -0.756  -2.311  1.00  0.00     0.108 C 
BRANCH   7   8
ATOM      8  C   UNL     1       0.280   0.412  -1.780  1.00  0.00     0.025 C 
ATOM      9  C   UNL     1       0.865   1.065  -0.517  1.00  0.00     0.013 C 
BRANCH   8  10
ATOM     10  C   UNL     1      -1.234   0.285  -1.661  1.00  0.00    -0.044 A 
ATOM     11  C   UNL     1      -1.999   1.463  -1.532  1.00  0.00     0.008 A 
ATOM     12  C   UNL     1      -1.931  -0.925  -1.653  1.00  0.00     0.008 A 
ATOM     13  C   UNL     1      -3.388   1.423  -1.364  1.00  0.00     0.047 A 
ATOM     14  C   UNL     1      -3.323  -0.968  -1.507  1.00  0.00     0.047 A 
ATOM     15  C   UNL     1      -4.059   0.203  -1.338  1.00  0.00     0.127 A 
BRANCH  15  16
ATOM     16  O   UNL     1      -5.423   0.275  -1.153  1.00  0.00    -0.457 OA
BRANCH  16  17
ATOM     17  C   UNL     1      -6.134  -0.899  -1.135  1.00  0.00     0.127 A 
ATOM     18  C   UNL     1      -6.946  -1.195  -2.229  1.00  0.00     0.047 A 
ATOM     19  C   UNL     1      -6.082  -1.757  -0.034  1.00  0.00     0.047 A 
ATOM     20  C   UNL     1      -7.666  -2.389  -2.249  1.00  0.00     0.004 A 
ATOM     21  C   UNL     1      -6.793  -2.956  -0.064  1.00  0.00     0.004 A 
ATOM     22  C   UNL     1      -7.580  -3.274  -1.172  1.00  0.00     0.000 A 
ENDBRANCH  16  17
ENDBRANCH  15  16
ENDBRANCH   8  10
ENDBRANCH   7   8
ENDBRANCH   4   7
ENDBRANCH   2   3
ENDBRANCH   1   2
BRANCH   1  23
ATOM     23  C   UNL     1       0.617  -3.104   2.400  1.00  0.00     0.002 C 
BRANCH  23  24
ATOM     24  C   UNL     1       1.830  -3.838   2.980  1.00  0.00     0.002 C 
BRANCH  24  25
ATOM     25  C   UNL     1       2.795  -2.973   3.794  1.00  0.00     0.021 C 
BRANCH  25  26
ATOM     26  C   UNL     1       2.163  -2.245   4.975  1.00  0.00     0.116 C 
BRANCH  26  27
ATOM     27  N   UNL     1       1.648  -3.166   5.974  1.00  0.00    -0.352 N 
ATOM     28  C   UNL     1       1.943  -3.253   7.309  1.00  0.00     0.251 C 
ATOM     29  H   UNL     1       0.992  -3.821   5.644  1.00  0.00     0.163 HD
ATOM     30  O   UNL     1       1.560  -4.225   7.962  1.00  0.00    -0.269 OA
BRANCH  28  31
ATOM     31  C   UNL     1       2.726  -2.190   7.972  1.00  0.00     0.039 A 
ATOM     32  C   UNL     1       3.724  -2.553   8.882  1.00  0.00     0.014 A 
ATOM     33  C   UNL     1       2.454  -0.840   7.732  1.00  0.00     0.014 A 
ATOM     34  C   UNL     1       4.469  -1.563   9.526  1.00  0.00     0.010 A 
ATOM     35  C   UNL     1       3.245   0.144   8.318  1.00  0.00     0.010 A 
ATOM     36  C   UNL     1       4.245  -0.207   9.238  1.00  0.00    -0.014 A 
BRANCH  36  37
ATOM     37  C   UNL     1       5.010   0.861   9.930  1.00  0.00     0.031 A 
ATOM     38  C   UNL     1       4.298   1.815  10.851  1.00  0.00     0.074 A 
ATOM     39  C   UNL     1       6.329   1.003   9.699  1.00  0.00     0.049 A 
ATOM     40  N   UNL     1       4.771   2.846  11.504  1.00  0.00    -0.248 NA
ATOM     41  C   UNL     1       2.855   1.597  11.040  1.00  0.00     0.031 C 
ATOM     42  C   UNL     1       7.126   0.168   8.799  1.00  0.00     0.029 A 
ATOM     43  N   UNL     1       7.230   1.907  10.201  1.00  0.00    -0.354 N 
ATOM     44  C   UNL     1       3.684   3.407  12.162  1.00  0.00     0.074 A 
ATOM     45  C   UNL     1       2.518   2.638  11.786  1.00  0.00     0.031 C 
ATOM     46  C   UNL     1       8.403   0.585   8.831  1.00  0.00     0.029 A 
ATOM     47  C   UNL     1       8.508   1.732   9.727  1.00  0.00     0.049 A 
ATOM     48  H   UNL     1       6.985   2.615  10.839  1.00  0.00     0.167 HD
ATOM     49  C   UNL     1       3.660   4.452  13.024  1.00  0.00     0.037 A 
ATOM     50  C   UNL     1       9.635   2.419   9.990  1.00  0.00     0.037 A 
ATOM     51  C   UNL     1       4.826   5.198  13.420  1.00  0.00     0.049 A 
ATOM     52  C   UNL     1       9.587   3.567  10.960  1.00  0.00     0.074 A 
ATOM     53  C   UNL     1       4.916   6.247  14.319  1.00  0.00     0.029 A 
ATOM     54  N   UNL     1       6.108   4.967  12.944  1.00  0.00    -0.354 N 
ATOM     55  N   UNL     1       8.562   4.054  11.616  1.00  0.00    -0.248 NA
ATOM     56  C   UNL     1      10.858   4.252  11.238  1.00  0.00     0.031 C 
ATOM     57  C   UNL     1       6.248   6.673  14.360  1.00  0.00     0.029 A 
ATOM     58  C   UNL     1       6.995   5.858  13.524  1.00  0.00     0.049 A 
ATOM     59  H   UNL     1       6.351   4.273  12.290  1.00  0.00     0.167 HD
ATOM     60  C   UNL     1       9.069   5.074  12.413  1.00  0.00     0.074 A 
ATOM     61  C   UNL     1      10.494   5.129  12.162  1.00  0.00     0.031 C 
ATOM     62  C   UNL     1       8.414   5.887  13.277  1.00  0.00     0.037 A 
BRANCH  49  63
ATOM     63  C   UNL     1       2.328   4.842  13.597  1.00  0.00     0.057 A 
ATOM     64  C   UNL     1       1.652   4.029  14.517  1.00  0.00     0.134 A 
ATOM     65  C   UNL     1       1.719   6.051  13.237  1.00  0.00     0.134 A 
ATOM     66  F   UNL     1       2.173   2.851  14.893  1.00  0.00    -0.206 F 
ATOM     67  C   UNL     1       0.405   4.387  15.032  1.00  0.00     0.040 A 
ATOM     68  C   UNL     1       0.486   6.434  13.768  1.00  0.00     0.040 A 
ATOM     69  F   UNL     1       2.313   6.881  12.366  1.00  0.00    -0.206 F 
ATOM     70  C   UNL     1      -0.178   5.596  14.662  1.00  0.00     0.006 A 
ENDBRANCH  49  63
BRANCH  50  71
ATOM     71  C   UNL     1      10.916   2.015   9.359  1.00  0.00     0.057 A 
ATOM     72  C   UNL     1      11.936   1.423  10.114  1.00  0.00     0.134 A 
ATOM     73  C   UNL     1      11.158   2.215   7.995  1.00  0.00     0.134 A 
ATOM     74  F   UNL     1      11.770   1.221  11.430  1.00  0.00    -0.206 F 
ATOM     75  C   UNL     1      13.158   1.066   9.543  1.00  0.00     0.040 A 
ATOM     76  C   UNL     1      12.366   1.841   7.405  1.00  0.00     0.040 A 
ATOM     77  F   UNL     1      10.218   2.769   7.215  1.00  0.00    -0.206 F 
ATOM     78  C   UNL     1      13.373   1.271   8.181  1.00  0.00     0.006 A 
ENDBRANCH  50  71
BRANCH  62  79
ATOM     79  C   UNL     1       9.242   6.865  14.059  1.00  0.00     0.057 A 
ATOM     80  C   UNL     1       9.820   7.993  13.465  1.00  0.00     0.134 A 
ATOM     81  C   UNL     1       9.438   6.685  15.434  1.00  0.00     0.134 A 
ATOM     82  F   UNL     1       9.680   8.217  12.149  1.00  0.00    -0.206 F 
ATOM     83  C   UNL     1      10.590   8.892  14.206  1.00  0.00     0.040 A 
ATOM     84  C   UNL     1      10.182   7.591  16.190  1.00  0.00     0.040 A 
ATOM     85  F   UNL     1       8.903   5.629  16.067  1.00  0.00    -0.206 F 
ATOM     86  C   UNL     1      10.767   8.694  15.574  1.00  0.00     0.006 A 
ENDBRANCH  62  79
ENDBRANCH  36  37
ENDBRANCH  28  31
ENDBRANCH  26  27
ENDBRANCH  25  26
ENDBRANCH  24  25
ENDBRANCH  23  24
ENDBRANCH   1  23
TORSDOF 17
