REMARK SMILES CC(C)[C@@H](NC(=O)/C(=C\c1ccccc1F)NC(=O)c1ccccc1)C(=O)NCCCCCCNC(=O)c1ccc(-c2c3nc(c(-c4c(F)cccc4F)c4ccc([nH]4)c(-c4c(F)cccc4F)c4nc(c(-c5c(F)cccc5F)c5ccc2[nH]5)C=C4)C=C3)cc1
REMARK SMILES IDX 30 1 29 2 28 3 26 4 27 5 4 7 2 8 1 9 3 10 5 11 6 12 7 14
REMARK SMILES IDX 8 15 9 16 17 17 18 18 19 20 20 21 21 22 25 23 22 24 24 25
REMARK SMILES IDX 23 26 10 27 11 28 15 29 12 30 14 31 16 32 13 33 31 34 32 35
REMARK SMILES IDX 33 36 34 37 35 38 36 39 37 41 38 42 39 43 91 44 40 45 90 46
REMARK SMILES IDX 41 47 42 48 43 49 84 50 44 51 89 52 83 53 85 54 45 55 88 56
REMARK SMILES IDX 82 57 81 58 46 60 72 61 55 62 71 63 56 64 59 65 70 66 86 67
REMARK SMILES IDX 57 68 58 69 69 71 87 72 60 73 47 74 48 75 53 76 49 77 50 78
REMARK SMILES IDX 52 79 54 80 51 81 73 82 74 83 79 84 75 85 76 86 78 87 80 88
REMARK SMILES IDX 77 89 61 90 62 91 67 92 63 93 64 94 66 95 68 96 65 97
REMARK H PARENT 28 6 5 13 17 19 35 40 85 59 59 70
REMARK Flexibility Score: inf
ROOT
ATOM      1  C   UNL     1       1.391  -5.098   0.995  1.00  0.00     0.021 C 
ENDROOT
BRANCH   1   2
ATOM      2  C   UNL     1       0.325  -4.157   0.453  1.00  0.00     0.116 C 
BRANCH   2   3
ATOM      3  N   UNL     1      -0.114  -3.331   1.548  1.00  0.00    -0.354 N 
ATOM      4  C   UNL     1       0.042  -1.985   1.622  1.00  0.00     0.242 C 
ATOM      5  O   UNL     1       0.490  -1.522   2.672  1.00  0.00    -0.273 OA
ATOM      6  H   UNL     1      -0.563  -3.777   2.301  1.00  0.00     0.163 HD
BRANCH   4   7
ATOM      7  C   UNL     1      -0.153  -1.117   0.380  1.00  0.00     0.174 C 
BRANCH   7   8
ATOM      8  C   UNL     1       1.228  -0.917  -0.340  1.00  0.00     0.015 C 
ATOM      9  C   UNL     1       1.296   0.419  -1.087  1.00  0.00     0.010 C 
ATOM     10  C   UNL     1       2.440  -0.976   0.613  1.00  0.00     0.010 C 
ENDBRANCH   7   8
BRANCH   7  11
ATOM     11  N   UNL     1      -1.211  -1.625  -0.531  1.00  0.00    -0.339 N 
ATOM     12  C   UNL     1      -2.559  -1.711  -0.236  1.00  0.00     0.268 C 
ATOM     13  H   UNL     1      -0.927  -1.927  -1.424  1.00  0.00     0.164 HD
ATOM     14  O   UNL     1      -3.350  -1.063  -0.923  1.00  0.00    -0.268 OA
BRANCH  12  15
ATOM     15  C   UNL     1      -3.087  -2.780   0.700  1.00  0.00     0.107 C 
ATOM     16  C   UNL     1      -3.201  -2.624   2.039  1.00  0.00     0.043 C 
BRANCH  15  17
ATOM     17  N   UNL     1      -3.580  -3.985   0.206  1.00  0.00    -0.317 N 
ATOM     18  C   UNL     1      -3.771  -4.532  -1.037  1.00  0.00     0.255 C 
ATOM     19  H   UNL     1      -3.862  -4.594   0.927  1.00  0.00     0.170 HD
ATOM     20  O   UNL     1      -4.257  -5.660  -1.128  1.00  0.00    -0.269 OA
BRANCH  18  21
ATOM     21  C   UNL     1      -3.426  -3.831  -2.271  1.00  0.00     0.040 A 
ATOM     22  C   UNL     1      -4.448  -3.251  -3.026  1.00  0.00     0.014 A 
ATOM     23  C   UNL     1      -2.107  -3.833  -2.726  1.00  0.00     0.014 A 
ATOM     24  C   UNL     1      -4.129  -2.595  -4.213  1.00  0.00     0.001 A 
ATOM     25  C   UNL     1      -1.792  -3.168  -3.909  1.00  0.00     0.001 A 
ATOM     26  C   UNL     1      -2.801  -2.541  -4.644  1.00  0.00     0.000 A 
ENDBRANCH  18  21
ENDBRANCH  15  17
BRANCH  16  27
ATOM     27  C   UNL     1      -2.754  -1.542   2.924  1.00  0.00     0.012 A 
ATOM     28  C   UNL     1      -2.028  -1.911   4.070  1.00  0.00     0.011 A 
ATOM     29  C   UNL     1      -2.958  -0.187   2.674  1.00  0.00     0.130 A 
ATOM     30  C   UNL     1      -1.394  -0.941   4.851  1.00  0.00     0.001 A 
ATOM     31  C   UNL     1      -2.340   0.785   3.457  1.00  0.00     0.040 A 
ATOM     32  F   UNL     1      -3.730   0.208   1.654  1.00  0.00    -0.206 F 
ATOM     33  C   UNL     1      -1.525   0.407   4.524  1.00  0.00     0.003 A 
ENDBRANCH  16  27
ENDBRANCH  12  15
ENDBRANCH   7  11
ENDBRANCH   4   7
ENDBRANCH   2   3
ENDBRANCH   1   2
BRANCH   1  34
ATOM     34  C   UNL     1       0.787  -6.232   1.833  1.00  0.00     0.002 C 
BRANCH  34  35
ATOM     35  C   UNL     1      -0.177  -7.138   1.061  1.00  0.00     0.002 C 
BRANCH  35  36
ATOM     36  C   UNL     1       0.367  -7.641  -0.277  1.00  0.00     0.021 C 
BRANCH  36  37
ATOM     37  C   UNL     1       1.743  -8.285  -0.185  1.00  0.00     0.116 C 
BRANCH  37  38
ATOM     38  N   UNL     1       1.743  -9.470   0.651  1.00  0.00    -0.352 N 
ATOM     39  C   UNL     1       2.377 -10.664   0.420  1.00  0.00     0.251 C 
ATOM     40  H   UNL     1       1.225  -9.409   1.486  1.00  0.00     0.163 HD
ATOM     41  O   UNL     1       2.178 -11.632   1.139  1.00  0.00    -0.269 OA
BRANCH  39  42
ATOM     42  C   UNL     1       3.282 -10.767  -0.742  1.00  0.00     0.039 A 
ATOM     43  C   UNL     1       3.095 -11.816  -1.643  1.00  0.00     0.014 A 
ATOM     44  C   UNL     1       4.274  -9.806  -0.960  1.00  0.00     0.014 A 
ATOM     45  C   UNL     1       3.881 -11.878  -2.793  1.00  0.00     0.010 A 
ATOM     46  C   UNL     1       5.005  -9.829  -2.143  1.00  0.00     0.010 A 
ATOM     47  C   UNL     1       4.822 -10.870  -3.065  1.00  0.00    -0.014 A 
BRANCH  47  48
ATOM     48  C   UNL     1       5.631 -10.900  -4.308  1.00  0.00     0.031 A 
ATOM     49  C   UNL     1       7.122 -11.067  -4.230  1.00  0.00     0.074 A 
ATOM     50  C   UNL     1       5.028 -10.738  -5.501  1.00  0.00     0.049 A 
ATOM     51  N   UNL     1       8.003 -11.074  -5.198  1.00  0.00    -0.248 NA
ATOM     52  C   UNL     1       7.705 -11.222  -2.887  1.00  0.00     0.031 C 
ATOM     53  C   UNL     1       3.592 -10.531  -5.701  1.00  0.00     0.029 A 
ATOM     54  N   UNL     1       5.546 -10.722  -6.771  1.00  0.00    -0.354 N 
ATOM     55  C   UNL     1       9.238 -11.228  -4.582  1.00  0.00     0.074 A 
ATOM     56  C   UNL     1       9.002 -11.251  -3.156  1.00  0.00     0.031 C 
ATOM     57  C   UNL     1       3.341 -10.443  -7.016  1.00  0.00     0.029 A 
ATOM     58  C   UNL     1       4.598 -10.546  -7.750  1.00  0.00     0.049 A 
ATOM     59  H   UNL     1       6.506 -10.826  -6.963  1.00  0.00     0.167 HD
ATOM     60  C   UNL     1      10.455 -11.367  -5.157  1.00  0.00     0.037 A 
ATOM     61  C   UNL     1       4.729 -10.475  -9.089  1.00  0.00     0.037 A 
ATOM     62  C   UNL     1      10.680 -11.372  -6.578  1.00  0.00     0.049 A 
ATOM     63  C   UNL     1       6.094 -10.614  -9.703  1.00  0.00     0.074 A 
ATOM     64  C   UNL     1      11.871 -11.558  -7.257  1.00  0.00     0.029 A 
ATOM     65  N   UNL     1       9.696 -11.185  -7.536  1.00  0.00    -0.354 N 
ATOM     66  N   UNL     1       7.247 -10.809  -9.111  1.00  0.00    -0.248 NA
ATOM     67  C   UNL     1       6.178 -10.525 -11.168  1.00  0.00     0.031 C 
ATOM     68  C   UNL     1      11.616 -11.436  -8.625  1.00  0.00     0.029 A 
ATOM     69  C   UNL     1      10.257 -11.228  -8.801  1.00  0.00     0.049 A 
ATOM     70  H   UNL     1       8.740 -11.043  -7.345  1.00  0.00     0.167 HD
ATOM     71  C   UNL     1       8.189 -10.890 -10.129  1.00  0.00     0.074 A 
ATOM     72  C   UNL     1       7.471 -10.734 -11.377  1.00  0.00     0.031 C 
ATOM     73  C   UNL     1       9.528 -11.076 -10.035  1.00  0.00     0.037 A 
BRANCH  60  74
ATOM     74  C   UNL     1      11.639 -11.541  -4.252  1.00  0.00     0.057 A 
ATOM     75  C   UNL     1      12.620 -10.546  -4.156  1.00  0.00     0.134 A 
ATOM     76  C   UNL     1      11.845 -12.723  -3.528  1.00  0.00     0.134 A 
ATOM     77  F   UNL     1      12.488  -9.392  -4.827  1.00  0.00    -0.206 F 
ATOM     78  C   UNL     1      13.768 -10.725  -3.383  1.00  0.00     0.040 A 
ATOM     79  C   UNL     1      12.975 -12.903  -2.729  1.00  0.00     0.040 A 
ATOM     80  F   UNL     1      10.938 -13.711  -3.567  1.00  0.00    -0.206 F 
ATOM     81  C   UNL     1      13.946 -11.906  -2.664  1.00  0.00     0.006 A 
ENDBRANCH  60  74
BRANCH  61  82
ATOM     82  C   UNL     1       3.522 -10.296  -9.935  1.00  0.00     0.057 A 
ATOM     83  C   UNL     1       2.804  -9.094  -9.946  1.00  0.00     0.134 A 
ATOM     84  C   UNL     1       3.041 -11.341 -10.733  1.00  0.00     0.134 A 
ATOM     85  F   UNL     1       3.209  -8.057  -9.197  1.00  0.00    -0.206 F 
ATOM     86  C   UNL     1       1.642  -8.943 -10.703  1.00  0.00     0.040 A 
ATOM     87  C   UNL     1       1.894 -11.196 -11.514  1.00  0.00     0.040 A 
ATOM     88  F   UNL     1       3.695 -12.511 -10.778  1.00  0.00    -0.206 F 
ATOM     89  C   UNL     1       1.185  -9.996 -11.494  1.00  0.00     0.006 A 
ENDBRANCH  61  82
BRANCH  73  90
ATOM     90  C   UNL     1      10.314 -11.146 -11.311  1.00  0.00     0.057 A 
ATOM     91  C   UNL     1      10.890 -12.353 -11.729  1.00  0.00     0.134 A 
ATOM     92  C   UNL     1      10.576 -10.003 -12.077  1.00  0.00     0.134 A 
ATOM     93  F   UNL     1      10.687 -13.481 -11.032  1.00  0.00    -0.206 F 
ATOM     94  C   UNL     1      11.714 -12.417 -12.852  1.00  0.00     0.040 A 
ATOM     95  C   UNL     1      11.378 -10.061 -13.218  1.00  0.00     0.040 A 
ATOM     96  F   UNL     1      10.046  -8.819 -11.735  1.00  0.00    -0.206 F 
ATOM     97  C   UNL     1      11.959 -11.268 -13.601  1.00  0.00     0.006 A 
ENDBRANCH  73  90
ENDBRANCH  47  48
ENDBRANCH  39  42
ENDBRANCH  37  38
ENDBRANCH  36  37
ENDBRANCH  35  36
ENDBRANCH  34  35
ENDBRANCH   1  34
TORSDOF 19
