REMARK SMILES CC[C@@H](C)[C@H](NC(=O)[C@H](C)N1C(=O)N2CCC3=c4cc(OC)ccc4=N[C@H]3[C@@]2(C)C1=O)C(=O)NCCCCCCNC(=O)c1ccc(-c2c3nc(c(-c4c(F)cccc4F)c4ccc([nH]4)c(-c4c(F)cccc4F)c4nc(c(-c5c(F)cccc5F)c5ccc2[nH]5)C=C4)C=C3)cc1
REMARK SMILES IDX 36 1 35 2 34 3 32 4 33 5 5 7 3 8 4 9 2 10 1 11 6 12 7 13
REMARK SMILES IDX 8 15 9 16 10 17 11 18 12 19 30 20 14 21 13 22 28 23 31 24
REMARK SMILES IDX 15 25 27 26 29 27 16 28 17 29 26 30 18 31 25 32 19 33 24 34
REMARK SMILES IDX 20 35 23 36 21 37 22 38 37 39 38 40 39 41 40 42 41 43 42 44
REMARK SMILES IDX 43 46 44 47 45 48 97 49 46 50 96 51 47 52 48 53 49 54 90 55
REMARK SMILES IDX 50 56 95 57 89 58 91 59 51 60 94 61 88 62 87 63 52 65 78 66
REMARK SMILES IDX 61 67 77 68 62 69 65 70 76 71 92 72 63 73 64 74 75 76 93 77
REMARK SMILES IDX 66 78 53 79 54 80 59 81 55 82 56 83 58 84 60 85 57 86 79 87
REMARK SMILES IDX 80 88 85 89 81 90 82 91 84 92 86 93 83 94 67 95 68 96 73 97
REMARK SMILES IDX 69 98 70 99 72 100 74 101 71 102
REMARK H PARENT 34 6 6 14 41 45 91 64 65 75
REMARK Flexibility Score: inf
ROOT
ATOM      1  C   UNL     1      -0.365  -5.959  -4.744  1.00  0.00     0.021 C 
ENDROOT
BRANCH   1   2
ATOM      2  C   UNL     1       1.121  -5.678  -4.577  1.00  0.00     0.116 C 
BRANCH   2   3
ATOM      3  N   UNL     1       1.678  -4.648  -5.429  1.00  0.00    -0.354 N 
ATOM      4  C   UNL     1       2.289  -3.466  -5.140  1.00  0.00     0.242 C 
ATOM      5  O   UNL     1       2.955  -2.949  -6.044  1.00  0.00    -0.273 OA
ATOM      6  H   UNL     1       1.599  -4.837  -6.392  1.00  0.00     0.163 HD
BRANCH   4   7
ATOM      7  C   UNL     1       2.266  -2.828  -3.740  1.00  0.00     0.174 C 
BRANCH   7   8
ATOM      8  C   UNL     1       3.463  -3.375  -2.864  1.00  0.00     0.018 C 
ATOM      9  C   UNL     1       3.263  -4.762  -2.226  1.00  0.00     0.010 C 
BRANCH   8  10
ATOM     10  C   UNL     1       3.884  -2.368  -1.766  1.00  0.00     0.002 C 
ATOM     11  C   UNL     1       5.258  -2.685  -1.165  1.00  0.00     0.004 C 
ENDBRANCH   8  10
ENDBRANCH   7   8
BRANCH   7  12
ATOM     12  N   UNL     1       0.963  -2.953  -3.113  1.00  0.00    -0.342 N 
ATOM     13  C   UNL     1      -0.242  -2.364  -3.268  1.00  0.00     0.243 C 
ATOM     14  H   UNL     1       0.955  -3.633  -2.402  1.00  0.00     0.164 HD
ATOM     15  O   UNL     1      -0.936  -2.623  -2.275  1.00  0.00    -0.273 OA
BRANCH  13  16
ATOM     16  C   UNL     1      -0.773  -1.351  -4.393  1.00  0.00     0.181 C 
ATOM     17  C   UNL     1      -0.034  -1.314  -5.707  1.00  0.00     0.042 C 
BRANCH  16  18
ATOM     18  N   UNL     1      -1.038  -0.005  -3.831  1.00  0.00    -0.250 N 
ATOM     19  C   UNL     1      -2.125   0.875  -3.981  1.00  0.00     0.328 C 
ATOM     20  C   UNL     1      -0.402   0.291  -2.675  1.00  0.00     0.259 C 
ATOM     21  N   UNL     1      -2.199   1.685  -2.741  1.00  0.00    -0.307 N 
ATOM     22  O   UNL     1      -2.968   0.876  -4.866  1.00  0.00    -0.248 OA
ATOM     23  C   UNL     1      -1.464   0.867  -1.802  1.00  0.00     0.147 C 
ATOM     24  O   UNL     1       0.743   0.005  -2.358  1.00  0.00    -0.271 OA
ATOM     25  C   UNL     1      -3.490   2.260  -2.115  1.00  0.00     0.127 C 
ATOM     26  C   UNL     1      -2.582  -0.190  -1.455  1.00  0.00     0.168 C 
ATOM     27  C   UNL     1      -0.804   1.712  -0.713  1.00  0.00     0.048 C 
ATOM     28  C   UNL     1      -3.938   1.561  -0.597  1.00  0.00     0.055 C 
ATOM     29  C   UNL     1      -3.394   0.102  -0.262  1.00  0.00    -0.032 C 
ATOM     30  N   UNL     1      -3.126  -1.381  -2.189  1.00  0.00    -0.274 NA
ATOM     31  C   UNL     1      -4.010  -1.078   0.029  1.00  0.00     0.005 A 
ATOM     32  C   UNL     1      -4.134  -1.628  -1.391  1.00  0.00     0.066 A 
ATOM     33  C   UNL     1      -3.317  -2.259   0.681  1.00  0.00     0.056 A 
ATOM     34  C   UNL     1      -5.110  -2.716  -1.520  1.00  0.00     0.032 A 
ATOM     35  C   UNL     1      -3.639  -3.502   0.218  1.00  0.00     0.119 A 
ATOM     36  C   UNL     1      -4.823  -3.676  -0.630  1.00  0.00     0.048 A 
BRANCH  35  37
ATOM     37  O   UNL     1      -2.728  -4.546   0.202  1.00  0.00    -0.497 OA
ATOM     38  C   UNL     1      -2.411  -4.974  -1.144  1.00  0.00     0.278 C 
ENDBRANCH  35  37
ENDBRANCH  16  18
ENDBRANCH  13  16
ENDBRANCH   7  12
ENDBRANCH   4   7
ENDBRANCH   2   3
ENDBRANCH   1   2
BRANCH   1  39
ATOM     39  C   UNL     1      -0.951  -5.836  -6.148  1.00  0.00     0.002 C 
BRANCH  39  40
ATOM     40  C   UNL     1      -0.393  -6.774  -7.220  1.00  0.00     0.002 C 
BRANCH  40  41
ATOM     41  C   UNL     1      -0.355  -8.259  -6.871  1.00  0.00     0.021 C 
BRANCH  41  42
ATOM     42  C   UNL     1      -1.631  -8.837  -6.275  1.00  0.00     0.116 C 
BRANCH  42  43
ATOM     43  N   UNL     1      -2.729  -8.934  -7.222  1.00  0.00    -0.352 N 
ATOM     44  C   UNL     1      -3.610  -9.984  -7.359  1.00  0.00     0.251 C 
ATOM     45  H   UNL     1      -2.857  -8.169  -7.828  1.00  0.00     0.163 HD
ATOM     46  O   UNL     1      -4.469  -9.998  -8.230  1.00  0.00    -0.269 OA
BRANCH  44  47
ATOM     47  C   UNL     1      -3.461 -11.126  -6.434  1.00  0.00     0.039 A 
ATOM     48  C   UNL     1      -3.573 -10.917  -5.057  1.00  0.00     0.014 A 
ATOM     49  C   UNL     1      -3.074 -12.367  -6.944  1.00  0.00     0.014 A 
ATOM     50  C   UNL     1      -3.177 -11.922  -4.181  1.00  0.00     0.010 A 
ATOM     51  C   UNL     1      -2.733 -13.393  -6.060  1.00  0.00     0.010 A 
ATOM     52  C   UNL     1      -2.744 -13.166  -4.673  1.00  0.00    -0.014 A 
BRANCH  52  53
ATOM     53  C   UNL     1      -2.313 -14.222  -3.723  1.00  0.00     0.031 A 
ATOM     54  C   UNL     1      -0.877 -14.668  -3.659  1.00  0.00     0.074 A 
ATOM     55  C   UNL     1      -3.221 -14.755  -2.885  1.00  0.00     0.049 A 
ATOM     56  N   UNL     1      -0.331 -15.585  -2.900  1.00  0.00    -0.248 NA
ATOM     57  C   UNL     1       0.069 -14.001  -4.567  1.00  0.00     0.031 C 
ATOM     58  C   UNL     1      -4.640 -14.397  -2.843  1.00  0.00     0.029 A 
ATOM     59  N   UNL     1      -3.085 -15.699  -1.900  1.00  0.00    -0.354 N 
ATOM     60  C   UNL     1       1.014 -15.619  -3.248  1.00  0.00     0.074 A 
ATOM     61  C   UNL     1       1.199 -14.644  -4.303  1.00  0.00     0.031 C 
ATOM     62  C   UNL     1      -5.236 -15.082  -1.855  1.00  0.00     0.029 A 
ATOM     63  C   UNL     1      -4.256 -15.966  -1.235  1.00  0.00     0.049 A 
ATOM     64  H   UNL     1      -2.231 -16.141  -1.690  1.00  0.00     0.167 HD
ATOM     65  C   UNL     1       2.004 -16.387  -2.732  1.00  0.00     0.037 A 
ATOM     66  C   UNL     1      -4.516 -16.840  -0.247  1.00  0.00     0.037 A 
ATOM     67  C   UNL     1       1.822 -17.346  -1.672  1.00  0.00     0.049 A 
ATOM     68  C   UNL     1      -3.411 -17.711   0.273  1.00  0.00     0.074 A 
ATOM     69  C   UNL     1       2.769 -18.154  -1.065  1.00  0.00     0.029 A 
ATOM     70  N   UNL     1       0.609 -17.629  -1.062  1.00  0.00    -0.354 N 
ATOM     71  N   UNL     1      -2.145 -17.728  -0.064  1.00  0.00    -0.248 NA
ATOM     72  C   UNL     1      -3.776 -18.695   1.301  1.00  0.00     0.031 C 
ATOM     73  C   UNL     1       2.123 -18.949  -0.111  1.00  0.00     0.029 A 
ATOM     74  C   UNL     1       0.779 -18.612  -0.101  1.00  0.00     0.049 A 
ATOM     75  H   UNL     1      -0.247 -17.194  -1.281  1.00  0.00     0.167 HD
ATOM     76  C   UNL     1      -1.561 -18.720   0.711  1.00  0.00     0.074 A 
ATOM     77  C   UNL     1      -2.606 -19.263   1.555  1.00  0.00     0.031 C 
ATOM     78  C   UNL     1      -0.276 -19.150   0.719  1.00  0.00     0.037 A 
BRANCH  65  79
ATOM     79  C   UNL     1       3.377 -16.233  -3.318  1.00  0.00     0.057 A 
ATOM     80  C   UNL     1       3.920 -17.232  -4.136  1.00  0.00     0.134 A 
ATOM     81  C   UNL     1       4.177 -15.118  -3.041  1.00  0.00     0.134 A 
ATOM     82  F   UNL     1       3.208 -18.329  -4.435  1.00  0.00    -0.206 F 
ATOM     83  C   UNL     1       5.211 -17.127  -4.657  1.00  0.00     0.040 A 
ATOM     84  C   UNL     1       5.463 -14.993  -3.573  1.00  0.00     0.040 A 
ATOM     85  F   UNL     1       3.712 -14.120  -2.275  1.00  0.00    -0.206 F 
ATOM     86  C   UNL     1       5.985 -16.003  -4.380  1.00  0.00     0.006 A 
ENDBRANCH  65  79
BRANCH  66  87
ATOM     87  C   UNL     1      -5.889 -16.948   0.302  1.00  0.00     0.057 A 
ATOM     88  C   UNL     1      -6.933 -17.501  -0.449  1.00  0.00     0.134 A 
ATOM     89  C   UNL     1      -6.186 -16.500   1.594  1.00  0.00     0.134 A 
ATOM     90  F   UNL     1      -6.709 -17.944  -1.695  1.00  0.00    -0.206 F 
ATOM     91  C   UNL     1      -8.227 -17.595   0.060  1.00  0.00     0.040 A 
ATOM     92  C   UNL     1      -7.471 -16.610   2.125  1.00  0.00     0.040 A 
ATOM     93  F   UNL     1      -5.221 -15.980   2.366  1.00  0.00    -0.206 F 
ATOM     94  C   UNL     1      -8.498 -17.154   1.354  1.00  0.00     0.006 A 
ENDBRANCH  66  87
BRANCH  78  95
ATOM     95  C   UNL     1       0.057 -20.256   1.673  1.00  0.00     0.057 A 
ATOM     96  C   UNL     1       0.776 -19.999   2.846  1.00  0.00     0.134 A 
ATOM     97  C   UNL     1      -0.338 -21.577   1.428  1.00  0.00     0.134 A 
ATOM     98  F   UNL     1       1.185 -18.755   3.136  1.00  0.00    -0.206 F 
ATOM     99  C   UNL     1       1.086 -21.019   3.747  1.00  0.00     0.040 A 
ATOM    100  C   UNL     1      -0.052 -22.601   2.331  1.00  0.00     0.040 A 
ATOM    101  F   UNL     1      -1.046 -21.882   0.330  1.00  0.00    -0.206 F 
ATOM    102  C   UNL     1       0.666 -22.323   3.493  1.00  0.00     0.006 A 
ENDBRANCH  78  95
ENDBRANCH  52  53
ENDBRANCH  44  47
ENDBRANCH  42  43
ENDBRANCH  41  42
ENDBRANCH  40  41
ENDBRANCH  39  40
ENDBRANCH   1  39
TORSDOF 19
