REMARK SMILES CC1(C)CCN(C(=O)CC(C)(C)C(=O)NCCCCCCNC(=O)c2ccc(-c3c4nc(c(-c5c(F)cccc5F)c5ccc([nH]5)c(-c5c(F)cccc5F)c5nc(c(-c6c(F)cccc6F)c6ccc3[nH]6)C=C5)C=C4)cc2)C1
REMARK SMILES IDX 18 1 17 2 16 3 15 4 13 5 14 6 10 8 11 9 12 10 9 11 7 12 8 13
REMARK SMILES IDX 6 14 1 15 2 16 3 17 4 18 79 19 5 20 19 21 20 22 21 23 22 24
REMARK SMILES IDX 23 25 24 27 25 28 26 29 78 30 27 31 77 32 28 33 29 34 30 35
REMARK SMILES IDX 71 36 31 37 76 38 70 39 72 40 32 41 75 42 69 43 68 44 33 46
REMARK SMILES IDX 59 47 42 48 58 49 43 50 46 51 57 52 73 53 44 54 45 55 56 57
REMARK SMILES IDX 74 58 47 59 34 60 35 61 40 62 36 63 37 64 39 65 41 66 38 67
REMARK SMILES IDX 60 68 61 69 66 70 62 71 63 72 65 73 67 74 64 75 48 76 49 77
REMARK SMILES IDX 54 78 50 79 51 80 53 81 55 82 52 83
REMARK H PARENT 15 7 22 26 72 45 46 56
REMARK Flexibility Score: inf
ROOT
ATOM      1  C   UNL     1      -0.187   4.619  -6.531  1.00  0.00     0.002 C 
ENDROOT
BRANCH   1   2
ATOM      2  C   UNL     1      -0.190   5.256  -5.143  1.00  0.00     0.021 C 
BRANCH   2   3
ATOM      3  C   UNL     1      -0.290   4.281  -3.979  1.00  0.00     0.116 C 
BRANCH   3   4
ATOM      4  N   UNL     1       0.902   3.478  -3.818  1.00  0.00    -0.356 N 
ATOM      5  C   UNL     1       1.644   3.145  -2.727  1.00  0.00     0.226 C 
ATOM      6  O   UNL     1       2.658   2.489  -2.967  1.00  0.00    -0.274 OA
ATOM      7  H   UNL     1       1.243   3.100  -4.661  1.00  0.00     0.163 HD
BRANCH   5   8
ATOM      8  C   UNL     1       1.301   3.630  -1.302  1.00  0.00     0.052 C 
ATOM      9  C   UNL     1      -0.180   3.445  -0.958  1.00  0.00     0.022 C 
ATOM     10  C   UNL     1       1.630   5.137  -1.216  1.00  0.00     0.022 C 
BRANCH   8  11
ATOM     11  C   UNL     1       2.182   2.908  -0.222  1.00  0.00     0.116 C 
BRANCH  11  12
ATOM     12  C   UNL     1       2.425   1.395  -0.289  1.00  0.00     0.223 C 
ATOM     13  O   UNL     1       3.502   0.964  -0.711  1.00  0.00    -0.275 OA
BRANCH  12  14
ATOM     14  N   UNL     1       1.485   0.519   0.203  1.00  0.00    -0.342 N 
ATOM     15  C   UNL     1      -1.065  -0.194  -1.146  1.00  0.00     0.013 C 
ATOM     16  C   UNL     1      -0.665  -0.372   0.334  1.00  0.00    -0.016 C 
ATOM     17  C   UNL     1      -1.931  -0.523   1.170  1.00  0.00     0.013 C 
ATOM     18  C   UNL     1       0.328  -1.541   0.469  1.00  0.00     0.030 C 
ATOM     19  C   UNL     1       0.220   0.767   0.858  1.00  0.00     0.126 C 
ATOM     20  C   UNL     1       1.669  -0.922   0.044  1.00  0.00     0.120 C 
ENDBRANCH  12  14
ENDBRANCH  11  12
ENDBRANCH   8  11
ENDBRANCH   5   8
ENDBRANCH   3   4
ENDBRANCH   2   3
ENDBRANCH   1   2
BRANCH   1  21
ATOM     21  C   UNL     1      -1.363   3.686  -6.833  1.00  0.00     0.002 C 
BRANCH  21  22
ATOM     22  C   UNL     1      -2.756   4.256  -6.556  1.00  0.00     0.021 C 
BRANCH  22  23
ATOM     23  C   UNL     1      -3.052   5.606  -7.200  1.00  0.00     0.116 C 
BRANCH  23  24
ATOM     24  N   UNL     1      -2.925   5.574  -8.645  1.00  0.00    -0.352 N 
ATOM     25  C   UNL     1      -3.805   6.000  -9.607  1.00  0.00     0.251 C 
ATOM     26  H   UNL     1      -2.085   5.189  -8.985  1.00  0.00     0.163 HD
ATOM     27  O   UNL     1      -3.597   5.745 -10.788  1.00  0.00    -0.269 OA
BRANCH  25  28
ATOM     28  C   UNL     1      -5.022   6.745  -9.218  1.00  0.00     0.039 A 
ATOM     29  C   UNL     1      -6.237   6.396  -9.812  1.00  0.00     0.014 A 
ATOM     30  C   UNL     1      -4.969   7.786  -8.286  1.00  0.00     0.014 A 
ATOM     31  C   UNL     1      -7.407   7.054  -9.431  1.00  0.00     0.010 A 
ATOM     32  C   UNL     1      -6.147   8.392  -7.855  1.00  0.00     0.010 A 
ATOM     33  C   UNL     1      -7.378   8.035  -8.426  1.00  0.00    -0.014 A 
BRANCH  33  34
ATOM     34  C   UNL     1      -8.629   8.684  -7.959  1.00  0.00     0.031 A 
ATOM     35  C   UNL     1      -8.841  10.160  -8.156  1.00  0.00     0.074 A 
ATOM     36  C   UNL     1      -9.552   7.950  -7.306  1.00  0.00     0.049 A 
ATOM     37  N   UNL     1      -9.848  10.907  -7.781  1.00  0.00    -0.248 NA
ATOM     38  C   UNL     1      -7.770  10.901  -8.843  1.00  0.00     0.031 C 
ATOM     39  C   UNL     1      -9.437   6.522  -7.002  1.00  0.00     0.029 A 
ATOM     40  N   UNL     1     -10.764   8.306  -6.769  1.00  0.00    -0.354 N 
ATOM     41  C   UNL     1      -9.526  12.202  -8.167  1.00  0.00     0.074 A 
ATOM     42  C   UNL     1      -8.211  12.149  -8.767  1.00  0.00     0.031 C 
ATOM     43  C   UNL     1     -10.540   6.121  -6.350  1.00  0.00     0.029 A 
ATOM     44  C   UNL     1     -11.422   7.267  -6.157  1.00  0.00     0.049 A 
ATOM     45  H   UNL     1     -11.127   9.220  -6.818  1.00  0.00     0.167 HD
ATOM     46  C   UNL     1     -10.268  13.328  -8.048  1.00  0.00     0.037 A 
ATOM     47  C   UNL     1     -12.600   7.242  -5.505  1.00  0.00     0.037 A 
ATOM     48  C   UNL     1     -11.591  13.370  -7.482  1.00  0.00     0.049 A 
ATOM     49  C   UNL     1     -13.407   8.507  -5.400  1.00  0.00     0.074 A 
ATOM     50  C   UNL     1     -12.457  14.446  -7.400  1.00  0.00     0.029 A 
ATOM     51  N   UNL     1     -12.235  12.292  -6.896  1.00  0.00    -0.354 N 
ATOM     52  N   UNL     1     -13.130   9.704  -5.855  1.00  0.00    -0.248 NA
ATOM     53  C   UNL     1     -14.695   8.415  -4.699  1.00  0.00     0.031 C 
ATOM     54  C   UNL     1     -13.604  14.033  -6.715  1.00  0.00     0.029 A 
ATOM     55  C   UNL     1     -13.475  12.685  -6.421  1.00  0.00     0.049 A 
ATOM     56  H   UNL     1     -11.867  11.381  -6.829  1.00  0.00     0.167 HD
ATOM     57  C   UNL     1     -14.218  10.500  -5.520  1.00  0.00     0.074 A 
ATOM     58  C   UNL     1     -15.169   9.644  -4.841  1.00  0.00     0.031 C 
ATOM     59  C   UNL     1     -14.413  11.821  -5.752  1.00  0.00     0.037 A 
BRANCH  46  60
ATOM     60  C   UNL     1      -9.671  14.616  -8.537  1.00  0.00     0.057 A 
ATOM     61  C   UNL     1      -9.500  14.884  -9.902  1.00  0.00     0.134 A 
ATOM     62  C   UNL     1      -9.326  15.629  -7.633  1.00  0.00     0.134 A 
ATOM     63  F   UNL     1      -9.802  13.954 -10.820  1.00  0.00    -0.206 F 
ATOM     64  C   UNL     1      -8.991  16.105 -10.348  1.00  0.00     0.040 A 
ATOM     65  C   UNL     1      -8.842  16.864  -8.068  1.00  0.00     0.040 A 
ATOM     66  F   UNL     1      -9.471  15.442  -6.312  1.00  0.00    -0.206 F 
ATOM     67  C   UNL     1      -8.670  17.103  -9.430  1.00  0.00     0.006 A 
ENDBRANCH  46  60
BRANCH  47  68
ATOM     68  C   UNL     1     -13.095   5.978  -4.901  1.00  0.00     0.057 A 
ATOM     69  C   UNL     1     -14.226   5.326  -5.405  1.00  0.00     0.134 A 
ATOM     70  C   UNL     1     -12.466   5.407  -3.787  1.00  0.00     0.134 A 
ATOM     71  F   UNL     1     -14.883   5.832  -6.459  1.00  0.00    -0.206 F 
ATOM     72  C   UNL     1     -14.733   4.171  -4.807  1.00  0.00     0.040 A 
ATOM     73  C   UNL     1     -12.945   4.237  -3.197  1.00  0.00     0.040 A 
ATOM     74  F   UNL     1     -11.372   5.976  -3.260  1.00  0.00    -0.206 F 
ATOM     75  C   UNL     1     -14.089   3.621  -3.700  1.00  0.00     0.006 A 
ENDBRANCH  47  68
BRANCH  59  76
ATOM     76  C   UNL     1     -15.716  12.413  -5.298  1.00  0.00     0.057 A 
ATOM     77  C   UNL     1     -16.007  12.610  -3.942  1.00  0.00     0.134 A 
ATOM     78  C   UNL     1     -16.676  12.822  -6.231  1.00  0.00     0.134 A 
ATOM     79  F   UNL     1     -15.135  12.228  -2.996  1.00  0.00    -0.206 F 
ATOM     80  C   UNL     1     -17.218  13.168  -3.530  1.00  0.00     0.040 A 
ATOM     81  C   UNL     1     -17.878  13.409  -5.833  1.00  0.00     0.040 A 
ATOM     82  F   UNL     1     -16.456  12.672  -7.546  1.00  0.00    -0.206 F 
ATOM     83  C   UNL     1     -18.155  13.576  -4.478  1.00  0.00     0.006 A 
ENDBRANCH  59  76
ENDBRANCH  33  34
ENDBRANCH  25  28
ENDBRANCH  23  24
ENDBRANCH  22  23
ENDBRANCH  21  22
ENDBRANCH   1  21
TORSDOF 16
