REMARK SMILES Cc1cc(C)nc(N2CCCC[C@H]2C(=O)NCCCCCCNC(=O)c2ccc(-c3c4nc(c(-c5c(F)cccc5F)c5ccc([nH]5)c(-c5c(F)cccc5F)c5nc(c(-c6c(F)cccc6F)c6ccc3[nH]6)C=C5)C=C4)cc2)n1
REMARK SMILES IDX 20 1 19 2 18 3 17 4 16 5 14 6 15 7 13 9 8 10 9 11 10 12
REMARK SMILES IDX 12 13 11 14 7 15 1 16 2 17 3 18 80 19 4 20 5 21 6 22 21 23
REMARK SMILES IDX 22 24 23 25 24 26 25 28 26 29 27 30 79 31 28 32 78 33 29 34
REMARK SMILES IDX 30 35 31 36 72 37 32 38 77 39 71 40 73 41 33 42 76 43 70 44
REMARK SMILES IDX 69 45 34 47 60 48 43 49 59 50 44 51 47 52 58 53 74 54 45 55
REMARK SMILES IDX 46 56 57 58 75 59 48 60 35 61 36 62 41 63 37 64 38 65 40 66
REMARK SMILES IDX 42 67 39 68 61 69 62 70 67 71 63 72 64 73 66 74 68 75 65 76
REMARK SMILES IDX 49 77 50 78 55 79 51 80 52 81 54 82 56 83 53 84
REMARK H PARENT 16 8 23 27 73 46 47 57
REMARK Flexibility Score: inf
ROOT
ATOM      1  C   UNL     1       5.647  -0.146  -0.666  1.00  0.00     0.002 C 
ENDROOT
BRANCH   1   2
ATOM      2  C   UNL     1       5.544  -0.589   0.798  1.00  0.00     0.002 C 
BRANCH   2   3
ATOM      3  C   UNL     1       4.170  -0.481   1.472  1.00  0.00     0.021 C 
BRANCH   3   4
ATOM      4  C   UNL     1       3.046  -1.307   0.853  1.00  0.00     0.116 C 
BRANCH   4   5
ATOM      5  N   UNL     1       3.228  -2.735   0.975  1.00  0.00    -0.354 N 
ATOM      6  C   UNL     1       2.272  -3.713   1.025  1.00  0.00     0.242 C 
ATOM      7  O   UNL     1       2.686  -4.874   0.925  1.00  0.00    -0.273 OA
ATOM      8  H   UNL     1       4.161  -3.044   1.029  1.00  0.00     0.163 HD
BRANCH   6   9
ATOM      9  C   UNL     1       0.764  -3.376   1.240  1.00  0.00     0.174 C 
ATOM     10  N   UNL     1       0.091  -2.978   0.005  1.00  0.00    -0.329 N 
ATOM     11  C   UNL     1      -0.108  -3.940  -1.054  1.00  0.00     0.120 C 
ATOM     12  C   UNL     1      -0.861  -5.154  -0.514  1.00  0.00     0.022 C 
ATOM     13  C   UNL     1       0.012  -4.602   1.807  1.00  0.00     0.035 C 
ATOM     14  C   UNL     1      -0.237  -5.705   0.767  1.00  0.00     0.004 C 
BRANCH  10  15
ATOM     15  C   UNL     1      -0.329  -1.691  -0.171  1.00  0.00     0.226 A 
ATOM     16  C   UNL     1       1.290   1.452  -1.084  1.00  0.00     0.067 C 
ATOM     17  C   UNL     1       0.217   0.489  -0.694  1.00  0.00     0.043 A 
ATOM     18  C   UNL     1      -1.039   0.926  -0.358  1.00  0.00     0.047 A 
ATOM     19  N   UNL     1       0.571  -0.807  -0.614  1.00  0.00    -0.218 NA
ATOM     20  C   UNL     1      -1.933  -0.049   0.029  1.00  0.00     0.043 A 
ATOM     21  C   UNL     1      -3.342   0.345   0.358  1.00  0.00     0.067 C 
ATOM     22  N   UNL     1      -1.588  -1.353   0.145  1.00  0.00    -0.218 NA
ENDBRANCH  10  15
ENDBRANCH   6   9
ENDBRANCH   4   5
ENDBRANCH   3   4
ENDBRANCH   2   3
ENDBRANCH   1   2
BRANCH   1  23
ATOM     23  C   UNL     1       5.104   1.240  -1.014  1.00  0.00     0.021 C 
BRANCH  23  24
ATOM     24  C   UNL     1       5.535   2.401  -0.127  1.00  0.00     0.116 C 
BRANCH  24  25
ATOM     25  N   UNL     1       6.907   2.813  -0.356  1.00  0.00    -0.352 N 
ATOM     26  C   UNL     1       7.401   4.040  -0.731  1.00  0.00     0.251 C 
ATOM     27  H   UNL     1       7.584   2.110  -0.223  1.00  0.00     0.163 HD
ATOM     28  O   UNL     1       8.587   4.157  -1.024  1.00  0.00    -0.269 OA
BRANCH  26  29
ATOM     29  C   UNL     1       6.514   5.228  -0.805  1.00  0.00     0.039 A 
ATOM     30  C   UNL     1       6.650   6.102  -1.889  1.00  0.00     0.014 A 
ATOM     31  C   UNL     1       5.591   5.518   0.204  1.00  0.00     0.014 A 
ATOM     32  C   UNL     1       5.840   7.239  -1.982  1.00  0.00     0.010 A 
ATOM     33  C   UNL     1       4.737   6.614   0.077  1.00  0.00     0.010 A 
ATOM     34  C   UNL     1       4.864   7.497  -1.007  1.00  0.00    -0.014 A 
BRANCH  34  35
ATOM     35  C   UNL     1       4.003   8.709  -1.070  1.00  0.00     0.031 A 
ATOM     36  C   UNL     1       4.116   9.764  -0.002  1.00  0.00     0.074 A 
ATOM     37  C   UNL     1       3.080   8.840  -2.041  1.00  0.00     0.049 A 
ATOM     38  N   UNL     1       3.387  10.835   0.187  1.00  0.00    -0.248 NA
ATOM     39  C   UNL     1       5.172   9.570   1.003  1.00  0.00     0.031 C 
ATOM     40  C   UNL     1       2.844   7.881  -3.121  1.00  0.00     0.029 A 
ATOM     41  N   UNL     1       2.154   9.829  -2.265  1.00  0.00    -0.354 N 
ATOM     42  C   UNL     1       3.881  11.428   1.343  1.00  0.00     0.074 A 
ATOM     43  C   UNL     1       4.937  10.572   1.838  1.00  0.00     0.031 C 
ATOM     44  C   UNL     1       1.843   8.331  -3.896  1.00  0.00     0.029 A 
ATOM     45  C   UNL     1       1.345   9.591  -3.350  1.00  0.00     0.049 A 
ATOM     46  H   UNL     1       2.077  10.633  -1.702  1.00  0.00     0.167 HD
ATOM     47  C   UNL     1       3.507  12.591   1.929  1.00  0.00     0.037 A 
ATOM     48  C   UNL     1       0.311  10.300  -3.842  1.00  0.00     0.037 A 
ATOM     49  C   UNL     1       2.479  13.461   1.422  1.00  0.00     0.049 A 
ATOM     50  C   UNL     1      -0.089  11.590  -3.180  1.00  0.00     0.074 A 
ATOM     51  C   UNL     1       2.062  14.685   1.916  1.00  0.00     0.029 A 
ATOM     52  N   UNL     1       1.706  13.198   0.301  1.00  0.00    -0.354 N 
ATOM     53  N   UNL     1       0.417  12.161  -2.114  1.00  0.00    -0.248 NA
ATOM     54  C   UNL     1      -1.198  12.336  -3.792  1.00  0.00     0.031 C 
ATOM     55  C   UNL     1       1.012  15.146   1.115  1.00  0.00     0.029 A 
ATOM     56  C   UNL     1       0.804  14.230   0.097  1.00  0.00     0.049 A 
ATOM     57  H   UNL     1       1.786  12.398  -0.265  1.00  0.00     0.167 HD
ATOM     58  C   UNL     1      -0.290  13.345  -1.944  1.00  0.00     0.074 A 
ATOM     59  C   UNL     1      -1.257  13.413  -3.019  1.00  0.00     0.031 C 
ATOM     60  C   UNL     1      -0.147  14.290  -0.984  1.00  0.00     0.037 A 
BRANCH  47  61
ATOM     61  C   UNL     1       4.220  12.984   3.191  1.00  0.00     0.057 A 
ATOM     62  C   UNL     1       5.562  13.389   3.187  1.00  0.00     0.134 A 
ATOM     63  C   UNL     1       3.556  12.963   4.424  1.00  0.00     0.134 A 
ATOM     64  F   UNL     1       6.259  13.419   2.041  1.00  0.00    -0.206 F 
ATOM     65  C   UNL     1       6.228  13.723   4.367  1.00  0.00     0.040 A 
ATOM     66  C   UNL     1       4.204  13.323   5.607  1.00  0.00     0.040 A 
ATOM     67  F   UNL     1       2.269  12.594   4.499  1.00  0.00    -0.206 F 
ATOM     68  C   UNL     1       5.547  13.694   5.582  1.00  0.00     0.006 A 
ENDBRANCH  47  61
BRANCH  48  69
ATOM     69  C   UNL     1      -0.408   9.810  -5.044  1.00  0.00     0.057 A 
ATOM     70  C   UNL     1      -0.257  10.441  -6.284  1.00  0.00     0.134 A 
ATOM     71  C   UNL     1      -1.250   8.692  -4.987  1.00  0.00     0.134 A 
ATOM     72  F   UNL     1       0.520  11.528  -6.397  1.00  0.00    -0.206 F 
ATOM     73  C   UNL     1      -0.923   9.985  -7.422  1.00  0.00     0.040 A 
ATOM     74  C   UNL     1      -1.905   8.212  -6.121  1.00  0.00     0.040 A 
ATOM     75  F   UNL     1      -1.430   8.040  -3.829  1.00  0.00    -0.206 F 
ATOM     76  C   UNL     1      -1.745   8.862  -7.344  1.00  0.00     0.006 A 
ENDBRANCH  48  69
BRANCH  60  77
ATOM     77  C   UNL     1      -1.029  15.501  -1.069  1.00  0.00     0.057 A 
ATOM     78  C   UNL     1      -2.387  15.453  -0.732  1.00  0.00     0.134 A 
ATOM     79  C   UNL     1      -0.497  16.744  -1.438  1.00  0.00     0.134 A 
ATOM     80  F   UNL     1      -2.960  14.291  -0.382  1.00  0.00    -0.206 F 
ATOM     81  C   UNL     1      -3.189  16.595  -0.773  1.00  0.00     0.040 A 
ATOM     82  C   UNL     1      -1.282  17.896  -1.460  1.00  0.00     0.040 A 
ATOM     83  F   UNL     1       0.799  16.859  -1.764  1.00  0.00    -0.206 F 
ATOM     84  C   UNL     1      -2.634  17.823  -1.130  1.00  0.00     0.006 A 
ENDBRANCH  60  77
ENDBRANCH  34  35
ENDBRANCH  26  29
ENDBRANCH  24  25
ENDBRANCH  23  24
ENDBRANCH   1  23
TORSDOF 14
