REMARK SMILES C[C@@](NC(=O)CCOC1CC[NH2+]CC1)(C(=O)NCCCCCCNC(=O)c1ccc(-c2c3nc(c(-c4c(F)cccc4F)c4ccc([nH]4)c(-c4c(F)cccc4F)c4nc(c(-c5c(F)cccc5F)c5ccc2[nH]5)C=C4)C=C3)cc1)C(F)(F)F
REMARK SMILES IDX 19 1 18 2 17 3 15 4 16 5 2 7 1 8 3 9 4 10 5 12 6 13 7 14
REMARK SMILES IDX 8 15 9 16 10 17 14 18 11 19 13 20 12 21 81 24 82 25 83 26
REMARK SMILES IDX 84 27 20 28 21 29 22 30 23 31 24 32 25 33 26 35 27 36 28 37
REMARK SMILES IDX 80 38 29 39 79 40 30 41 31 42 32 43 73 44 33 45 78 46 72 47
REMARK SMILES IDX 74 48 34 49 77 50 71 51 70 52 35 54 61 55 44 56 60 57 45 58
REMARK SMILES IDX 48 59 59 60 75 61 46 62 47 63 58 65 76 66 49 67 36 68 37 69
REMARK SMILES IDX 42 70 38 71 39 72 41 73 43 74 40 75 62 76 63 77 68 78 64 79
REMARK SMILES IDX 65 80 67 81 69 82 66 83 50 84 51 85 56 86 52 87 53 88 55 89
REMARK SMILES IDX 57 90 54 91
REMARK H PARENT 17 6 3 11 12 22 12 23 24 34 74 53 48 64
REMARK Flexibility Score: inf
ROOT
ATOM      1  C   UNL     1      -2.288  -0.796  -2.347  1.00  0.00     0.021 C 
ENDROOT
BRANCH   1   2
ATOM      2  C   UNL     1      -1.634   0.021  -1.225  1.00  0.00     0.116 C 
BRANCH   2   3
ATOM      3  N   UNL     1      -1.989  -0.369   0.127  1.00  0.00    -0.354 N 
ATOM      4  C   UNL     1      -1.494   0.036   1.338  1.00  0.00     0.254 C 
ATOM      5  O   UNL     1      -2.362   0.095   2.220  1.00  0.00    -0.272 OA
ATOM      6  H   UNL     1      -2.708  -1.039   0.183  1.00  0.00     0.163 HD
BRANCH   4   7
ATOM      7  C   UNL     1      -0.028   0.485   1.653  1.00  0.00     0.212 C 
ATOM      8  C   UNL     1       1.000  -0.452   0.979  1.00  0.00     0.056 C 
BRANCH   7   9
ATOM      9  N   UNL     1       0.416   1.889   1.347  1.00  0.00    -0.334 N 
ATOM     10  C   UNL     1      -0.245   3.068   1.481  1.00  0.00     0.223 C 
ATOM     11  H   UNL     1       1.331   1.965   0.992  1.00  0.00     0.164 HD
ATOM     12  O   UNL     1       0.335   4.017   2.006  1.00  0.00    -0.275 OA
BRANCH  10  13
ATOM     13  C   UNL     1      -1.537   3.245   0.753  1.00  0.00     0.128 C 
BRANCH  13  14
ATOM     14  C   UNL     1      -1.308   3.670  -0.698  1.00  0.00     0.170 C 
BRANCH  14  15
ATOM     15  O   UNL     1      -0.677   2.772  -1.604  1.00  0.00    -0.377 OA
BRANCH  15  16
ATOM     16  C   UNL     1       0.722   2.479  -1.584  1.00  0.00     0.129 C 
ATOM     17  C   UNL     1       1.683   3.602  -1.221  1.00  0.00     0.093 C 
ATOM     18  C   UNL     1       1.076   1.987  -2.992  1.00  0.00     0.093 C 
ATOM     19  C   UNL     1       1.617   4.730  -2.235  1.00  0.00     0.263 C 
ATOM     20  C   UNL     1       0.979   3.150  -3.974  1.00  0.00     0.263 C 
ATOM     21  N   UNL     1       1.865   4.253  -3.595  1.00  0.00    -0.346 N 
ATOM     22  H   UNL     1       2.832   3.932  -3.658  1.00  0.00     0.346 HD
ATOM     23  H   UNL     1       1.684   5.028  -4.233  1.00  0.00     0.346 HD
ENDBRANCH  15  16
ENDBRANCH  14  15
ENDBRANCH  13  14
ENDBRANCH  10  13
ENDBRANCH   7   9
BRANCH   7  24
ATOM     24  C   UNL     1       0.133   0.259   3.186  1.00  0.00     0.420 C 
ATOM     25  F   UNL     1      -0.129  -1.014   3.556  1.00  0.00    -0.168 F 
ATOM     26  F   UNL     1       1.430   0.500   3.536  1.00  0.00    -0.168 F 
ATOM     27  F   UNL     1      -0.618   1.094   3.932  1.00  0.00    -0.168 F 
ENDBRANCH   7  24
ENDBRANCH   4   7
ENDBRANCH   2   3
ENDBRANCH   1   2
BRANCH   1  28
ATOM     28  C   UNL     1      -3.653  -0.278  -2.833  1.00  0.00     0.002 C 
BRANCH  28  29
ATOM     29  C   UNL     1      -3.707   1.150  -3.401  1.00  0.00     0.002 C 
BRANCH  29  30
ATOM     30  C   UNL     1      -2.817   1.462  -4.607  1.00  0.00     0.021 C 
BRANCH  30  31
ATOM     31  C   UNL     1      -2.995   0.573  -5.836  1.00  0.00     0.116 C 
BRANCH  31  32
ATOM     32  N   UNL     1      -4.363   0.524  -6.326  1.00  0.00    -0.352 N 
ATOM     33  C   UNL     1      -4.850   0.600  -7.607  1.00  0.00     0.251 C 
ATOM     34  H   UNL     1      -5.050   0.419  -5.628  1.00  0.00     0.163 HD
ATOM     35  O   UNL     1      -6.068   0.635  -7.793  1.00  0.00    -0.269 OA
BRANCH  33  36
ATOM     36  C   UNL     1      -3.937   0.668  -8.770  1.00  0.00     0.039 A 
ATOM     37  C   UNL     1      -4.248   1.542  -9.818  1.00  0.00     0.014 A 
ATOM     38  C   UNL     1      -2.797  -0.134  -8.853  1.00  0.00     0.014 A 
ATOM     39  C   UNL     1      -3.385   1.659 -10.911  1.00  0.00     0.010 A 
ATOM     40  C   UNL     1      -1.900   0.037  -9.907  1.00  0.00     0.010 A 
ATOM     41  C   UNL     1      -2.184   0.934 -10.948  1.00  0.00    -0.014 A 
BRANCH  41  42
ATOM     42  C   UNL     1      -1.214   1.104 -12.062  1.00  0.00     0.031 A 
ATOM     43  C   UNL     1      -0.886  -0.054 -12.966  1.00  0.00     0.074 A 
ATOM     44  C   UNL     1      -0.581   2.284 -12.220  1.00  0.00     0.049 A 
ATOM     45  N   UNL     1      -0.021  -0.118 -13.946  1.00  0.00    -0.248 NA
ATOM     46  C   UNL     1      -1.606  -1.313 -12.720  1.00  0.00     0.031 C 
ATOM     47  C   UNL     1      -0.777   3.469 -11.382  1.00  0.00     0.029 A 
ATOM     48  N   UNL     1       0.366   2.679 -13.132  1.00  0.00    -0.354 N 
ATOM     49  C   UNL     1      -0.077  -1.425 -14.417  1.00  0.00     0.074 A 
ATOM     50  C   UNL     1      -1.027  -2.132 -13.586  1.00  0.00     0.031 C 
ATOM     51  C   UNL     1       0.006   4.462 -11.832  1.00  0.00     0.029 A 
ATOM     52  C   UNL     1       0.792   3.975 -12.961  1.00  0.00     0.049 A 
ATOM     53  H   UNL     1       0.709   2.089 -13.842  1.00  0.00     0.167 HD
ATOM     54  C   UNL     1       0.588  -1.979 -15.459  1.00  0.00     0.037 A 
ATOM     55  C   UNL     1       1.719   4.686 -13.631  1.00  0.00     0.037 A 
ATOM     56  C   UNL     1       1.509  -1.262 -16.302  1.00  0.00     0.049 A 
ATOM     57  C   UNL     1       2.448   4.041 -14.778  1.00  0.00     0.074 A 
ATOM     58  C   UNL     1       2.173  -1.713 -17.430  1.00  0.00     0.029 A 
ATOM     59  N   UNL     1       1.901   0.053 -16.105  1.00  0.00    -0.354 N 
ATOM     60  N   UNL     1       2.320   2.831 -15.265  1.00  0.00    -0.248 NA
ATOM     61  C   UNL     1       3.449   4.864 -15.473  1.00  0.00     0.031 C 
ATOM     62  C   UNL     1       3.013  -0.690 -17.880  1.00  0.00     0.029 A 
ATOM     63  C   UNL     1       2.825   0.419 -17.071  1.00  0.00     0.049 A 
ATOM     64  H   UNL     1       1.573   0.640 -15.386  1.00  0.00     0.167 HD
ATOM     65  C   UNL     1       3.195   2.759 -16.342  1.00  0.00     0.074 A 
ATOM     66  C   UNL     1       3.836   4.053 -16.447  1.00  0.00     0.031 C 
ATOM     67  C   UNL     1       3.445   1.716 -17.171  1.00  0.00     0.037 A 
BRANCH  54  68
ATOM     68  C   UNL     1       0.352  -3.434 -15.748  1.00  0.00     0.057 A 
ATOM     69  C   UNL     1      -0.866  -3.902 -16.260  1.00  0.00     0.134 A 
ATOM     70  C   UNL     1       1.376  -4.372 -15.564  1.00  0.00     0.134 A 
ATOM     71  F   UNL     1      -1.892  -3.060 -16.452  1.00  0.00    -0.206 F 
ATOM     72  C   UNL     1      -1.062  -5.253 -16.556  1.00  0.00     0.040 A 
ATOM     73  C   UNL     1       1.201  -5.719 -15.885  1.00  0.00     0.040 A 
ATOM     74  F   UNL     1       2.570  -3.991 -15.085  1.00  0.00    -0.206 F 
ATOM     75  C   UNL     1      -0.023  -6.164 -16.377  1.00  0.00     0.006 A 
ENDBRANCH  54  68
BRANCH  55  76
ATOM     76  C   UNL     1       2.010   6.093 -13.247  1.00  0.00     0.057 A 
ATOM     77  C   UNL     1       1.697   7.156 -14.103  1.00  0.00     0.134 A 
ATOM     78  C   UNL     1       2.638   6.407 -12.036  1.00  0.00     0.134 A 
ATOM     79  F   UNL     1       1.111   6.920 -15.287  1.00  0.00    -0.206 F 
ATOM     80  C   UNL     1       2.025   8.475 -13.785  1.00  0.00     0.040 A 
ATOM     81  C   UNL     1       2.945   7.725 -11.691  1.00  0.00     0.040 A 
ATOM     82  F   UNL     1       2.958   5.438 -11.166  1.00  0.00    -0.206 F 
ATOM     83  C   UNL     1       2.649   8.762 -12.572  1.00  0.00     0.006 A 
ENDBRANCH  55  76
BRANCH  67  84
ATOM     84  C   UNL     1       4.418   1.943 -18.291  1.00  0.00     0.057 A 
ATOM     85  C   UNL     1       5.792   2.092 -18.065  1.00  0.00     0.134 A 
ATOM     86  C   UNL     1       3.976   1.973 -19.621  1.00  0.00     0.134 A 
ATOM     87  F   UNL     1       6.280   2.085 -16.815  1.00  0.00    -0.206 F 
ATOM     88  C   UNL     1       6.688   2.289 -19.117  1.00  0.00     0.040 A 
ATOM     89  C   UNL     1       4.865   2.137 -20.683  1.00  0.00     0.040 A 
ATOM     90  F   UNL     1       2.674   1.826 -19.910  1.00  0.00    -0.206 F 
ATOM     91  C   UNL     1       6.225   2.303 -20.432  1.00  0.00     0.006 A 
ENDBRANCH  67  84
ENDBRANCH  41  42
ENDBRANCH  33  36
ENDBRANCH  31  32
ENDBRANCH  30  31
ENDBRANCH  29  30
ENDBRANCH  28  29
ENDBRANCH   1  28
TORSDOF 19
