REMARK SMILES CC(C)n1ncnc1C[C@@H](C(=O)NCCCCCCNC(=O)c1ccc(-c2c3nc(c(-c4c(F)cccc4F)c4ccc([nH]4)c(-c4c(F)cccc4F)c4nc(c(-c5c(F)cccc5F)c5ccc2[nH]5)C=C4)C=C3)cc1)c1cccc(Br)c1
REMARK SMILES IDX 16 1 15 2 14 3 13 4 11 5 12 6 10 8 9 9 8 10 4 11 5 12 6 13
REMARK SMILES IDX 7 14 2 15 1 16 3 17 77 18 78 19 83 20 79 21 81 22 80 23
REMARK SMILES IDX 82 24 17 25 18 26 19 27 20 28 21 29 22 31 23 32 24 33 76 34
REMARK SMILES IDX 25 35 75 36 26 37 27 38 28 39 69 40 29 41 74 42 68 43 70 44
REMARK SMILES IDX 30 45 73 46 67 47 66 48 31 50 57 51 40 52 56 53 41 54 44 55
REMARK SMILES IDX 55 56 71 57 42 58 43 59 54 61 72 62 45 63 32 64 33 65 38 66
REMARK SMILES IDX 34 67 35 68 37 69 39 70 36 71 58 72 59 73 64 74 60 75 61 76
REMARK SMILES IDX 63 77 65 78 62 79 46 80 47 81 52 82 48 83 49 84 51 85 53 86
REMARK SMILES IDX 50 87
REMARK H PARENT 13 7 20 30 70 49 44 60
REMARK Flexibility Score: inf
ROOT
ATOM      1  C   UNL     1      -5.730   1.131  -0.677  1.00  0.00     0.002 C 
ENDROOT
BRANCH   1   2
ATOM      2  C   UNL     1      -4.253   1.470  -0.483  1.00  0.00     0.021 C 
BRANCH   2   3
ATOM      3  C   UNL     1      -3.596   2.296  -1.593  1.00  0.00     0.116 C 
BRANCH   3   4
ATOM      4  N   UNL     1      -3.885   3.701  -1.384  1.00  0.00    -0.356 N 
ATOM      5  C   UNL     1      -3.163   4.583  -0.624  1.00  0.00     0.228 C 
ATOM      6  O   UNL     1      -3.808   5.410   0.026  1.00  0.00    -0.274 OA
ATOM      7  H   UNL     1      -4.683   4.059  -1.836  1.00  0.00     0.163 HD
BRANCH   5   8
ATOM      8  C   UNL     1      -1.613   4.602  -0.696  1.00  0.00     0.116 C 
BRANCH   8   9
ATOM      9  C   UNL     1      -1.022   4.047   0.630  1.00  0.00     0.095 C 
BRANCH   9  10
ATOM     10  C   UNL     1      -1.242   2.597   0.917  1.00  0.00     0.128 A 
ATOM     11  N   UNL     1      -0.453   1.527   0.529  1.00  0.00    -0.248 N 
ATOM     12  N   UNL     1      -1.009   0.371   0.964  1.00  0.00    -0.159 NA
ATOM     13  C   UNL     1      -1.967   0.807   1.775  1.00  0.00     0.246 A 
ATOM     14  N   UNL     1      -2.159   2.151   1.754  1.00  0.00    -0.220 NA
BRANCH  11  15
ATOM     15  C   UNL     1       0.939   1.508   0.076  1.00  0.00     0.103 C 
ATOM     16  C   UNL     1       1.533   0.086   0.020  1.00  0.00     0.033 C 
ATOM     17  C   UNL     1       1.172   2.175  -1.278  1.00  0.00     0.033 C 
ENDBRANCH  11  15
ENDBRANCH   9  10
ENDBRANCH   8   9
BRANCH   8  18
ATOM     18  C   UNL     1      -1.075   6.048  -0.944  1.00  0.00    -0.034 A 
ATOM     19  C   UNL     1       0.269   6.380  -0.681  1.00  0.00     0.004 A 
ATOM     20  C   UNL     1      -1.906   7.093  -1.399  1.00  0.00     0.020 A 
ATOM     21  C   UNL     1       0.716   7.706  -0.706  1.00  0.00     0.001 A 
ATOM     22  C   UNL     1      -1.455   8.418  -1.425  1.00  0.00     0.018 A 
ATOM     23  C   UNL     1      -0.155   8.733  -1.051  1.00  0.00     0.016 A 
ATOM     24  Br  UNL     1      -2.638   9.806  -1.928  1.00  0.00    -0.051 Br
ENDBRANCH   8  18
ENDBRANCH   5   8
ENDBRANCH   3   4
ENDBRANCH   2   3
ENDBRANCH   1   2
BRANCH   1  25
ATOM     25  C   UNL     1      -6.046   0.210  -1.860  1.00  0.00     0.002 C 
BRANCH  25  26
ATOM     26  C   UNL     1      -5.214  -1.077  -1.966  1.00  0.00     0.021 C 
BRANCH  26  27
ATOM     27  C   UNL     1      -5.328  -1.988  -0.754  1.00  0.00     0.116 C 
BRANCH  27  28
ATOM     28  N   UNL     1      -6.665  -2.553  -0.592  1.00  0.00    -0.352 N 
ATOM     29  C   UNL     1      -7.082  -3.542   0.281  1.00  0.00     0.251 C 
ATOM     30  H   UNL     1      -7.361  -2.180  -1.180  1.00  0.00     0.163 HD
ATOM     31  O   UNL     1      -8.123  -4.147   0.093  1.00  0.00    -0.269 OA
BRANCH  29  32
ATOM     32  C   UNL     1      -6.249  -3.844   1.461  1.00  0.00     0.039 A 
ATOM     33  C   UNL     1      -6.126  -5.149   1.951  1.00  0.00     0.014 A 
ATOM     34  C   UNL     1      -5.600  -2.788   2.093  1.00  0.00     0.014 A 
ATOM     35  C   UNL     1      -5.305  -5.378   3.052  1.00  0.00     0.010 A 
ATOM     36  C   UNL     1      -4.665  -3.035   3.059  1.00  0.00     0.010 A 
ATOM     37  C   UNL     1      -4.575  -4.311   3.596  1.00  0.00    -0.014 A 
BRANCH  37  38
ATOM     38  C   UNL     1      -3.617  -4.512   4.674  1.00  0.00     0.031 A 
ATOM     39  C   UNL     1      -2.528  -5.464   4.337  1.00  0.00     0.074 A 
ATOM     40  C   UNL     1      -3.584  -3.715   5.765  1.00  0.00     0.049 A 
ATOM     41  N   UNL     1      -2.307  -6.624   4.858  1.00  0.00    -0.248 NA
ATOM     42  C   UNL     1      -1.674  -5.161   3.175  1.00  0.00     0.031 C 
ATOM     43  C   UNL     1      -4.404  -2.529   6.052  1.00  0.00     0.029 A 
ATOM     44  N   UNL     1      -2.722  -3.733   6.817  1.00  0.00    -0.354 N 
ATOM     45  C   UNL     1      -1.149  -7.099   4.248  1.00  0.00     0.074 A 
ATOM     46  C   UNL     1      -0.933  -6.268   3.094  1.00  0.00     0.031 C 
ATOM     47  C   UNL     1      -3.848  -1.822   7.061  1.00  0.00     0.029 A 
ATOM     48  C   UNL     1      -2.742  -2.586   7.606  1.00  0.00     0.049 A 
ATOM     49  H   UNL     1      -2.130  -4.497   7.005  1.00  0.00     0.167 HD
ATOM     50  C   UNL     1      -0.320  -7.958   4.904  1.00  0.00     0.037 A 
ATOM     51  C   UNL     1      -1.889  -2.284   8.617  1.00  0.00     0.037 A 
ATOM     52  C   UNL     1      -0.989  -8.547   6.039  1.00  0.00     0.049 A 
ATOM     53  C   UNL     1      -1.233  -3.549   9.028  1.00  0.00     0.074 A 
ATOM     54  C   UNL     1      -2.120  -9.322   6.212  1.00  0.00     0.029 A 
ATOM     55  N   UNL     1      -0.700  -8.027   7.277  1.00  0.00    -0.354 N 
ATOM     56  N   UNL     1      -1.858  -4.529   9.616  1.00  0.00    -0.248 NA
ATOM     57  C   UNL     1       0.007  -3.909   8.360  1.00  0.00     0.031 C 
ATOM     58  C   UNL     1      -2.717  -8.839   7.414  1.00  0.00     0.029 A 
ATOM     59  C   UNL     1      -1.882  -7.857   7.949  1.00  0.00     0.049 A 
ATOM     60  H   UNL     1       0.198  -7.815   7.621  1.00  0.00     0.167 HD
ATOM     61  C   UNL     1      -1.349  -5.675   9.023  1.00  0.00     0.074 A 
ATOM     62  C   UNL     1      -0.142  -5.236   8.325  1.00  0.00     0.031 C 
ATOM     63  C   UNL     1      -2.113  -6.801   8.907  1.00  0.00     0.037 A 
BRANCH  50  64
ATOM     64  C   UNL     1       1.188  -7.948   4.788  1.00  0.00     0.057 A 
ATOM     65  C   UNL     1       1.925  -8.938   5.465  1.00  0.00     0.134 A 
ATOM     66  C   UNL     1       1.951  -6.861   4.315  1.00  0.00     0.134 A 
ATOM     67  F   UNL     1       1.320 -10.025   5.967  1.00  0.00    -0.206 F 
ATOM     68  C   UNL     1       3.293  -8.806   5.736  1.00  0.00     0.040 A 
ATOM     69  C   UNL     1       3.327  -6.745   4.535  1.00  0.00     0.040 A 
ATOM     70  F   UNL     1       1.406  -5.803   3.705  1.00  0.00    -0.206 F 
ATOM     71  C   UNL     1       3.996  -7.700   5.280  1.00  0.00     0.006 A 
ENDBRANCH  50  64
BRANCH  51  72
ATOM     72  C   UNL     1      -1.381  -0.964   9.058  1.00  0.00     0.057 A 
ATOM     73  C   UNL     1      -0.758  -0.807  10.305  1.00  0.00     0.134 A 
ATOM     74  C   UNL     1      -1.226   0.100   8.153  1.00  0.00     0.134 A 
ATOM     75  F   UNL     1      -0.816  -1.783  11.222  1.00  0.00    -0.206 F 
ATOM     76  C   UNL     1       0.002   0.328  10.623  1.00  0.00     0.040 A 
ATOM     77  C   UNL     1      -0.474   1.240   8.459  1.00  0.00     0.040 A 
ATOM     78  F   UNL     1      -1.720   0.026   6.909  1.00  0.00    -0.206 F 
ATOM     79  C   UNL     1       0.157   1.350   9.692  1.00  0.00     0.006 A 
ENDBRANCH  51  72
BRANCH  63  80
ATOM     80  C   UNL     1      -3.410  -6.849   9.671  1.00  0.00     0.057 A 
ATOM     81  C   UNL     1      -4.498  -5.991   9.446  1.00  0.00     0.134 A 
ATOM     82  C   UNL     1      -3.613  -7.897  10.574  1.00  0.00     0.134 A 
ATOM     83  F   UNL     1      -4.438  -5.016   8.531  1.00  0.00    -0.206 F 
ATOM     84  C   UNL     1      -5.714  -6.144  10.121  1.00  0.00     0.040 A 
ATOM     85  C   UNL     1      -4.832  -8.082  11.229  1.00  0.00     0.040 A 
ATOM     86  F   UNL     1      -2.638  -8.791  10.800  1.00  0.00    -0.206 F 
ATOM     87  C   UNL     1      -5.885  -7.197  11.013  1.00  0.00     0.006 A 
ENDBRANCH  63  80
ENDBRANCH  37  38
ENDBRANCH  29  32
ENDBRANCH  27  28
ENDBRANCH  26  27
ENDBRANCH  25  26
ENDBRANCH   1  25
TORSDOF 17
