REMARK SMILES CC(C)CCc1cc2c(cc1Cl)C=C(C(=O)NCCCCCCNC(=O)c1ccc(-c3c4nc(c(-c5c(F)cccc5F)c5ccc([nH]5)c(-c5c(F)cccc5F)c5nc(c(-c6c(F)cccc6F)c6ccc3[nH]6)C=C5)C=C4)cc1)[C@@H](C(F)(F)F)O2
REMARK SMILES IDX 20 1 19 2 18 3 17 4 15 5 16 6 14 8 6 9 7 10 11 11 8 12 10 13
REMARK SMILES IDX 12 14 9 15 86 16 13 17 81 18 5 19 4 20 2 21 1 22 3 23 82 24
REMARK SMILES IDX 83 25 84 26 85 27 21 28 22 29 23 30 24 31 25 32 26 34 27 35
REMARK SMILES IDX 28 36 80 37 29 38 79 39 30 40 31 41 32 42 73 43 33 44 78 45
REMARK SMILES IDX 72 46 74 47 34 48 77 49 71 50 70 51 35 53 61 54 44 55 60 56
REMARK SMILES IDX 45 57 48 58 59 59 75 60 46 61 47 62 58 64 76 65 49 66 36 67
REMARK SMILES IDX 37 68 42 69 38 70 39 71 41 72 43 73 40 74 62 75 63 76 68 77
REMARK SMILES IDX 64 78 65 79 67 80 69 81 66 82 50 83 51 84 56 85 52 86 53 87
REMARK SMILES IDX 55 88 57 89 54 90
REMARK H PARENT 17 7 24 33 74 52 48 63
REMARK Flexibility Score: inf
ROOT
ATOM      1  C   UNL     1       6.002  -9.739   2.348  1.00  0.00     0.002 C 
ENDROOT
BRANCH   1   2
ATOM      2  C   UNL     1       5.233  -8.417   2.336  1.00  0.00     0.021 C 
BRANCH   2   3
ATOM      3  C   UNL     1       4.577  -8.075   1.002  1.00  0.00     0.116 C 
BRANCH   3   4
ATOM      4  N   UNL     1       3.306  -8.754   0.812  1.00  0.00    -0.352 N 
ATOM      5  C   UNL     1       2.039  -8.402   0.480  1.00  0.00     0.251 C 
ATOM      6  O   UNL     1       1.237  -9.336   0.382  1.00  0.00    -0.270 OA
ATOM      7  H   UNL     1       3.385  -9.723   0.966  1.00  0.00     0.163 HD
BRANCH   5   8
ATOM      8  C   UNL     1       1.568  -7.003   0.243  1.00  0.00     0.067 C 
ATOM      9  C   UNL     1      -1.253  -2.809  -0.067  1.00  0.00    -0.026 A 
ATOM     10  C   UNL     1       0.100  -3.125  -0.214  1.00  0.00     0.052 A 
ATOM     11  C   UNL     1      -2.147  -3.881   0.089  1.00  0.00     0.045 A 
ATOM     12  C   UNL     1       0.567  -4.424  -0.072  1.00  0.00     0.128 A 
ATOM     13  C   UNL     1      -1.679  -5.207   0.165  1.00  0.00     0.032 A 
ATOM     14  Cl  UNL     1      -3.854  -3.641   0.199  1.00  0.00    -0.084 Cl
ATOM     15  C   UNL     1      -0.308  -5.480   0.118  1.00  0.00     0.019 A 
ATOM     16  O   UNL     1       1.917  -4.535  -0.076  1.00  0.00    -0.475 OA
ATOM     17  C   UNL     1       0.234  -6.820   0.300  1.00  0.00     0.025 C 
ATOM     18  C   UNL     1       2.496  -5.857  -0.058  1.00  0.00     0.314 C 
BRANCH   9  19
ATOM     19  C   UNL     1      -1.638  -1.345  -0.075  1.00  0.00     0.037 C 
BRANCH  19  20
ATOM     20  C   UNL     1      -1.151  -0.541   1.153  1.00  0.00     0.008 C 
BRANCH  20  21
ATOM     21  C   UNL     1       0.370  -0.287   1.294  1.00  0.00    -0.017 C 
ATOM     22  C   UNL     1       0.979   0.414   0.076  1.00  0.00     0.007 C 
ATOM     23  C   UNL     1       0.664   0.540   2.549  1.00  0.00     0.007 C 
ENDBRANCH  20  21
ENDBRANCH  19  20
ENDBRANCH   9  19
BRANCH  18  24
ATOM     24  C   UNL     1       3.277  -6.008  -1.372  1.00  0.00     0.429 C 
ATOM     25  F   UNL     1       4.348  -5.173  -1.375  1.00  0.00    -0.167 F 
ATOM     26  F   UNL     1       3.765  -7.251  -1.567  1.00  0.00    -0.167 F 
ATOM     27  F   UNL     1       2.523  -5.701  -2.452  1.00  0.00    -0.167 F 
ENDBRANCH  18  24
ENDBRANCH   5   8
ENDBRANCH   3   4
ENDBRANCH   2   3
ENDBRANCH   1   2
BRANCH   1  28
ATOM     28  C   UNL     1       7.091  -9.887   1.278  1.00  0.00     0.002 C 
BRANCH  28  29
ATOM     29  C   UNL     1       8.070  -8.718   1.149  1.00  0.00     0.021 C 
BRANCH  29  30
ATOM     30  C   UNL     1       8.819  -8.352   2.425  1.00  0.00     0.116 C 
BRANCH  30  31
ATOM     31  N   UNL     1       9.675  -9.424   2.904  1.00  0.00    -0.352 N 
ATOM     32  C   UNL     1      10.998  -9.382   3.271  1.00  0.00     0.251 C 
ATOM     33  H   UNL     1       9.245 -10.307   2.976  1.00  0.00     0.163 HD
ATOM     34  O   UNL     1      11.606 -10.418   3.523  1.00  0.00    -0.269 OA
BRANCH  32  35
ATOM     35  C   UNL     1      11.702  -8.083   3.325  1.00  0.00     0.039 A 
ATOM     36  C   UNL     1      11.116  -6.979   3.948  1.00  0.00     0.014 A 
ATOM     37  C   UNL     1      12.955  -7.964   2.718  1.00  0.00     0.014 A 
ATOM     38  C   UNL     1      11.704  -5.724   3.823  1.00  0.00     0.010 A 
ATOM     39  C   UNL     1      13.582  -6.716   2.660  1.00  0.00     0.010 A 
ATOM     40  C   UNL     1      12.937  -5.577   3.167  1.00  0.00    -0.014 A 
BRANCH  40  41
ATOM     41  C   UNL     1      13.521  -4.221   3.000  1.00  0.00     0.031 A 
ATOM     42  C   UNL     1      13.668  -3.615   1.629  1.00  0.00     0.074 A 
ATOM     43  C   UNL     1      13.871  -3.512   4.090  1.00  0.00     0.049 A 
ATOM     44  N   UNL     1      14.148  -2.444   1.290  1.00  0.00    -0.248 NA
ATOM     45  C   UNL     1      13.220  -4.430   0.489  1.00  0.00     0.031 C 
ATOM     46  C   UNL     1      13.766  -3.982   5.472  1.00  0.00     0.029 A 
ATOM     47  N   UNL     1      14.366  -2.238   4.207  1.00  0.00    -0.354 N 
ATOM     48  C   UNL     1      14.078  -2.390  -0.097  1.00  0.00     0.074 A 
ATOM     49  C   UNL     1      13.535  -3.656  -0.540  1.00  0.00     0.031 C 
ATOM     50  C   UNL     1      14.141  -2.995   6.301  1.00  0.00     0.029 A 
ATOM     51  C   UNL     1      14.567  -1.847   5.508  1.00  0.00     0.049 A 
ATOM     52  H   UNL     1      14.559  -1.661   3.434  1.00  0.00     0.167 HD
ATOM     53  C   UNL     1      14.421  -1.374  -0.925  1.00  0.00     0.037 A 
ATOM     54  C   UNL     1      15.056  -0.696   6.007  1.00  0.00     0.037 A 
ATOM     55  C   UNL     1      14.943  -0.106  -0.484  1.00  0.00     0.049 A 
ATOM     56  C   UNL     1      15.475   0.393   5.062  1.00  0.00     0.074 A 
ATOM     57  C   UNL     1      15.299   0.994  -1.246  1.00  0.00     0.029 A 
ATOM     58  N   UNL     1      15.183   0.231   0.839  1.00  0.00    -0.354 N 
ATOM     59  N   UNL     1      15.392   0.433   3.755  1.00  0.00    -0.248 NA
ATOM     60  C   UNL     1      16.067   1.595   5.666  1.00  0.00     0.031 C 
ATOM     61  C   UNL     1      15.789   1.983  -0.386  1.00  0.00     0.029 A 
ATOM     62  C   UNL     1      15.701   1.514   0.914  1.00  0.00     0.049 A 
ATOM     63  H   UNL     1      15.011  -0.355   1.611  1.00  0.00     0.167 HD
ATOM     64  C   UNL     1      15.908   1.665   3.380  1.00  0.00     0.074 A 
ATOM     65  C   UNL     1      16.279   2.353   4.600  1.00  0.00     0.031 C 
ATOM     66  C   UNL     1      16.068   2.180   2.137  1.00  0.00     0.037 A 
BRANCH  53  67
ATOM     67  C   UNL     1      14.257  -1.599  -2.400  1.00  0.00     0.057 A 
ATOM     68  C   UNL     1      15.376  -1.764  -3.227  1.00  0.00     0.134 A 
ATOM     69  C   UNL     1      12.995  -1.624  -3.009  1.00  0.00     0.134 A 
ATOM     70  F   UNL     1      16.613  -1.746  -2.709  1.00  0.00    -0.206 F 
ATOM     71  C   UNL     1      15.246  -1.945  -4.605  1.00  0.00     0.040 A 
ATOM     72  C   UNL     1      12.851  -1.826  -4.383  1.00  0.00     0.040 A 
ATOM     73  F   UNL     1      11.883  -1.486  -2.272  1.00  0.00    -0.206 F 
ATOM     74  C   UNL     1      13.980  -1.982  -5.186  1.00  0.00     0.006 A 
ENDBRANCH  53  67
BRANCH  54  75
ATOM     75  C   UNL     1      15.192  -0.518   7.473  1.00  0.00     0.057 A 
ATOM     76  C   UNL     1      16.140  -1.238   8.210  1.00  0.00     0.134 A 
ATOM     77  C   UNL     1      14.390   0.394   8.168  1.00  0.00     0.134 A 
ATOM     78  F   UNL     1      16.936  -2.129   7.601  1.00  0.00    -0.206 F 
ATOM     79  C   UNL     1      16.281  -1.063   9.586  1.00  0.00     0.040 A 
ATOM     80  C   UNL     1      14.538   0.598   9.541  1.00  0.00     0.040 A 
ATOM     81  F   UNL     1      13.478   1.127   7.513  1.00  0.00    -0.206 F 
ATOM     82  C   UNL     1      15.484  -0.136  10.254  1.00  0.00     0.006 A 
ENDBRANCH  54  75
BRANCH  66  83
ATOM     83  C   UNL     1      16.651   3.559   2.047  1.00  0.00     0.057 A 
ATOM     84  C   UNL     1      15.848   4.654   1.707  1.00  0.00     0.134 A 
ATOM     85  C   UNL     1      18.009   3.800   2.293  1.00  0.00     0.134 A 
ATOM     86  F   UNL     1      14.541   4.489   1.454  1.00  0.00    -0.206 F 
ATOM     87  C   UNL     1      16.375   5.943   1.619  1.00  0.00     0.040 A 
ATOM     88  C   UNL     1      18.542   5.088   2.232  1.00  0.00     0.040 A 
ATOM     89  F   UNL     1      18.826   2.794   2.641  1.00  0.00    -0.206 F 
ATOM     90  C   UNL     1      17.724   6.164   1.890  1.00  0.00     0.006 A 
ENDBRANCH  66  83
ENDBRANCH  40  41
ENDBRANCH  32  35
ENDBRANCH  30  31
ENDBRANCH  29  30
ENDBRANCH  28  29
ENDBRANCH   1  28
TORSDOF 17
