REMARK SMILES O=C(Cc1ccccc1Nc1c(F)cccc1C(F)(F)F)NCCCCCCNC(=O)c1ccc(-c2c3nc(c(-c4c(F)cccc4F)c4ccc([nH]4)c(-c4c(F)cccc4F)c4nc(c(-c5c(F)cccc5F)c5ccc2[nH]5)C=C4)C=C3)cc1
REMARK SMILES IDX 24 1 23 2 22 3 1 4 2 5 3 7 4 8 5 9 9 10 6 11 8 12 7 13 10 14
REMARK SMILES IDX 11 16 12 17 17 18 13 19 14 20 16 21 15 22 18 23 19 24 20 25
REMARK SMILES IDX 21 26 25 27 26 28 27 29 28 30 29 31 30 32 31 34 32 35 33 36
REMARK SMILES IDX 85 37 34 38 84 39 35 40 36 41 37 42 78 43 38 44 83 45 77 46
REMARK SMILES IDX 79 47 39 48 82 49 76 50 75 51 40 53 66 54 49 55 65 56 50 57
REMARK SMILES IDX 53 58 64 59 80 60 51 61 52 62 63 64 81 65 54 66 41 67 42 68
REMARK SMILES IDX 47 69 43 70 44 71 46 72 48 73 45 74 67 75 68 76 73 77 69 78
REMARK SMILES IDX 70 79 72 80 74 81 71 82 55 83 56 84 61 85 57 86 58 87 60 88
REMARK SMILES IDX 62 89 59 90
REMARK H PARENT 22 6 10 15 29 33 79 52 53 63
REMARK Flexibility Score: inf
ROOT
ATOM      1  C   UNL     1       2.263   3.370   1.119  1.00  0.00     0.021 C 
ENDROOT
BRANCH   1   2
ATOM      2  C   UNL     1       1.837   2.271   0.144  1.00  0.00     0.116 C 
BRANCH   2   3
ATOM      3  N   UNL     1       2.594   1.046   0.321  1.00  0.00    -0.356 N 
ATOM      4  O   UNL     1       1.198  -0.241  -0.974  1.00  0.00    -0.275 OA
ATOM      5  C   UNL     1       2.212  -0.135  -0.293  1.00  0.00     0.224 C 
ATOM      6  H   UNL     1       3.397   1.055   0.891  1.00  0.00     0.163 HD
BRANCH   5   7
ATOM      7  C   UNL     1       3.186  -1.272  -0.058  1.00  0.00     0.137 C 
BRANCH   7   8
ATOM      8  C   UNL     1       4.049  -1.652  -1.248  1.00  0.00    -0.015 A 
ATOM      9  C   UNL     1       4.117  -3.026  -1.565  1.00  0.00     0.006 A 
ATOM     10  C   UNL     1       4.849  -0.742  -1.978  1.00  0.00     0.042 A 
ATOM     11  C   UNL     1       4.966  -3.502  -2.561  1.00  0.00     0.000 A 
ATOM     12  C   UNL     1       5.723  -1.255  -2.956  1.00  0.00     0.026 A 
ATOM     13  C   UNL     1       5.781  -2.616  -3.249  1.00  0.00     0.002 A 
BRANCH  10  14
ATOM     14  N   UNL     1       4.840   0.643  -1.719  1.00  0.00    -0.352 N 
ATOM     15  H   UNL     1       4.396   0.919  -0.885  1.00  0.00     0.167 HD
BRANCH  14  16
ATOM     16  C   UNL     1       5.384   1.686  -2.501  1.00  0.00     0.087 A 
ATOM     17  C   UNL     1       6.434   2.453  -1.963  1.00  0.00     0.147 A 
ATOM     18  C   UNL     1       4.788   2.117  -3.702  1.00  0.00     0.082 A 
ATOM     19  F   UNL     1       6.948   2.128  -0.766  1.00  0.00    -0.205 F 
ATOM     20  C   UNL     1       6.927   3.585  -2.606  1.00  0.00     0.041 A 
ATOM     21  C   UNL     1       5.303   3.261  -4.351  1.00  0.00     0.015 A 
ATOM     22  C   UNL     1       6.360   3.991  -3.807  1.00  0.00     0.004 A 
BRANCH  18  23
ATOM     23  C   UNL     1       3.621   1.394  -4.333  1.00  0.00     0.418 C 
ATOM     24  F   UNL     1       2.925   2.194  -5.197  1.00  0.00    -0.166 F 
ATOM     25  F   UNL     1       4.007   0.321  -5.074  1.00  0.00    -0.166 F 
ATOM     26  F   UNL     1       2.693   0.953  -3.444  1.00  0.00    -0.166 F 
ENDBRANCH  18  23
ENDBRANCH  14  16
ENDBRANCH  10  14
ENDBRANCH   7   8
ENDBRANCH   5   7
ENDBRANCH   2   3
ENDBRANCH   1   2
BRANCH   1  27
ATOM     27  C   UNL     1       3.739   3.778   1.038  1.00  0.00     0.002 C 
BRANCH  27  28
ATOM     28  C   UNL     1       4.181   4.343  -0.310  1.00  0.00     0.002 C 
BRANCH  28  29
ATOM     29  C   UNL     1       3.573   5.680  -0.714  1.00  0.00     0.021 C 
BRANCH  29  30
ATOM     30  C   UNL     1       3.889   6.832   0.229  1.00  0.00     0.116 C 
BRANCH  30  31
ATOM     31  N   UNL     1       5.312   7.131   0.321  1.00  0.00    -0.352 N 
ATOM     32  C   UNL     1       5.948   8.352   0.290  1.00  0.00     0.251 C 
ATOM     33  H   UNL     1       5.903   6.349   0.419  1.00  0.00     0.163 HD
ATOM     34  O   UNL     1       7.169   8.416   0.260  1.00  0.00    -0.269 OA
BRANCH  32  35
ATOM     35  C   UNL     1       5.137   9.589   0.248  1.00  0.00     0.039 A 
ATOM     36  C   UNL     1       5.473  10.590  -0.667  1.00  0.00     0.014 A 
ATOM     37  C   UNL     1       4.021   9.738   1.074  1.00  0.00     0.014 A 
ATOM     38  C   UNL     1       4.637  11.699  -0.815  1.00  0.00     0.010 A 
ATOM     39  C   UNL     1       3.142  10.792   0.861  1.00  0.00     0.010 A 
ATOM     40  C   UNL     1       3.440  11.783  -0.086  1.00  0.00    -0.014 A 
BRANCH  40  41
ATOM     41  C   UNL     1       2.477  12.893  -0.297  1.00  0.00     0.031 A 
ATOM     42  C   UNL     1       2.138  13.820   0.837  1.00  0.00     0.074 A 
ATOM     43  C   UNL     1       1.836  13.008  -1.476  1.00  0.00     0.049 A 
ATOM     44  N   UNL     1       1.248  14.778   0.885  1.00  0.00    -0.248 NA
ATOM     45  C   UNL     1       2.869  13.614   2.097  1.00  0.00     0.031 C 
ATOM     46  C   UNL     1       2.024  12.130  -2.633  1.00  0.00     0.029 A 
ATOM     47  N   UNL     1       0.882  13.903  -1.891  1.00  0.00    -0.354 N 
ATOM     48  C   UNL     1       1.295  15.269   2.184  1.00  0.00     0.074 A 
ATOM     49  C   UNL     1       2.258  14.466   2.906  1.00  0.00     0.031 C 
ATOM     50  C   UNL     1       1.229  12.544  -3.633  1.00  0.00     0.029 A 
ATOM     51  C   UNL     1       0.452  13.692  -3.178  1.00  0.00     0.049 A 
ATOM     52  H   UNL     1       0.539  14.627  -1.320  1.00  0.00     0.167 HD
ATOM     53  C   UNL     1       0.617  16.311   2.721  1.00  0.00     0.037 A 
ATOM     54  C   UNL     1      -0.470  14.348  -3.908  1.00  0.00     0.037 A 
ATOM     55  C   UNL     1      -0.311  17.132   1.990  1.00  0.00     0.049 A 
ATOM     56  C   UNL     1      -1.188  15.521  -3.304  1.00  0.00     0.074 A 
ATOM     57  C   UNL     1      -0.990  18.259   2.419  1.00  0.00     0.029 A 
ATOM     58  N   UNL     1      -0.688  16.913   0.673  1.00  0.00    -0.354 N 
ATOM     59  N   UNL     1      -1.081  16.021  -2.097  1.00  0.00    -0.248 NA
ATOM     60  C   UNL     1      -2.149  16.225  -4.164  1.00  0.00     0.031 C 
ATOM     61  C   UNL     1      -1.805  18.702   1.372  1.00  0.00     0.029 A 
ATOM     62  C   UNL     1      -1.603  17.875   0.278  1.00  0.00     0.049 A 
ATOM     63  H   UNL     1      -0.354  16.183   0.104  1.00  0.00     0.167 HD
ATOM     64  C   UNL     1      -1.942  17.109  -2.058  1.00  0.00     0.074 A 
ATOM     65  C   UNL     1      -2.554  17.204  -3.368  1.00  0.00     0.031 C 
ATOM     66  C   UNL     1      -2.202  17.954  -1.030  1.00  0.00     0.037 A 
BRANCH  53  67
ATOM     67  C   UNL     1       0.867  16.617   4.169  1.00  0.00     0.057 A 
ATOM     68  C   UNL     1       2.089  17.138   4.614  1.00  0.00     0.134 A 
ATOM     69  C   UNL     1      -0.126  16.389   5.130  1.00  0.00     0.134 A 
ATOM     70  F   UNL     1       3.087  17.366   3.746  1.00  0.00    -0.206 F 
ATOM     71  C   UNL     1       2.329  17.386   5.966  1.00  0.00     0.040 A 
ATOM     72  C   UNL     1       0.093  16.660   6.482  1.00  0.00     0.040 A 
ATOM     73  F   UNL     1      -1.321  15.896   4.773  1.00  0.00    -0.206 F 
ATOM     74  C   UNL     1       1.327  17.150   6.905  1.00  0.00     0.006 A 
ENDBRANCH  53  67
BRANCH  54  75
ATOM     75  C   UNL     1      -0.736  13.929  -5.307  1.00  0.00     0.057 A 
ATOM     76  C   UNL     1      -0.286  14.700  -6.385  1.00  0.00     0.134 A 
ATOM     77  C   UNL     1      -1.423  12.745  -5.599  1.00  0.00     0.134 A 
ATOM     78  F   UNL     1       0.364  15.852  -6.165  1.00  0.00    -0.206 F 
ATOM     79  C   UNL     1      -0.520  14.315  -7.706  1.00  0.00     0.040 A 
ATOM     80  C   UNL     1      -1.645  12.338  -6.916  1.00  0.00     0.040 A 
ATOM     81  F   UNL     1      -1.870  11.959  -4.609  1.00  0.00    -0.206 F 
ATOM     82  C   UNL     1      -1.196  13.126  -7.974  1.00  0.00     0.006 A 
ENDBRANCH  54  75
BRANCH  66  83
ATOM     83  C   UNL     1      -3.171  19.069  -1.289  1.00  0.00     0.057 A 
ATOM     84  C   UNL     1      -4.549  18.840  -1.387  1.00  0.00     0.134 A 
ATOM     85  C   UNL     1      -2.723  20.391  -1.398  1.00  0.00     0.134 A 
ATOM     86  F   UNL     1      -5.038  17.593  -1.304  1.00  0.00    -0.206 F 
ATOM     87  C   UNL     1      -5.447  19.886  -1.604  1.00  0.00     0.040 A 
ATOM     88  C   UNL     1      -3.613  21.448  -1.591  1.00  0.00     0.040 A 
ATOM     89  F   UNL     1      -1.416  20.678  -1.305  1.00  0.00    -0.206 F 
ATOM     90  C   UNL     1      -4.979  21.196  -1.699  1.00  0.00     0.006 A 
ENDBRANCH  66  83
ENDBRANCH  40  41
ENDBRANCH  32  35
ENDBRANCH  30  31
ENDBRANCH  29  30
ENDBRANCH  28  29
ENDBRANCH  27  28
ENDBRANCH   1  27
TORSDOF 17
