REMARK SMILES Cc1cc(C)n2ncc(C(=O)N(C)CCCC(=O)NCCCCCCNC(=O)c3ccc(-c4c5nc(c(-c6c(F)cccc6F)c6ccc([nH]6)c(-c6c(F)cccc6F)c6nc(c(-c7c(F)cccc7F)c7ccc4[nH]7)C=C6)C=C5)cc3)c2n1
REMARK SMILES IDX 21 1 20 2 19 3 17 4 18 5 16 7 15 8 14 9 12 10 13 11 10 12
REMARK SMILES IDX 11 13 9 14 1 15 2 16 3 17 84 18 4 19 83 20 5 21 6 22 7 23
REMARK SMILES IDX 8 24 22 25 23 26 24 27 25 28 26 29 27 30 28 32 29 33 30 34
REMARK SMILES IDX 82 35 31 36 81 37 32 38 33 39 34 40 75 41 35 42 80 43 74 44
REMARK SMILES IDX 76 45 36 46 79 47 73 48 72 49 37 51 63 52 46 53 62 54 47 55
REMARK SMILES IDX 50 56 61 57 77 58 48 59 49 60 60 62 78 63 51 64 38 65 39 66
REMARK SMILES IDX 44 67 40 68 41 69 43 70 45 71 42 72 64 73 65 74 70 75 66 76
REMARK SMILES IDX 67 77 69 78 71 79 68 80 52 81 53 82 58 83 54 84 55 85 57 86
REMARK SMILES IDX 59 87 56 88
REMARK H PARENT 19 6 26 31 76 50 50 61
REMARK Flexibility Score: inf
ROOT
ATOM      1  C   UNL     1      -0.544   7.958  -0.511  1.00  0.00     0.021 C 
ENDROOT
BRANCH   1   2
ATOM      2  C   UNL     1       0.225   6.639  -0.633  1.00  0.00     0.116 C 
BRANCH   2   3
ATOM      3  N   UNL     1       1.221   6.713  -1.671  1.00  0.00    -0.356 N 
ATOM      4  C   UNL     1       2.567   6.588  -1.654  1.00  0.00     0.220 C 
ATOM      5  O   UNL     1       3.115   6.618  -2.765  1.00  0.00    -0.275 OA
ATOM      6  H   UNL     1       0.850   6.889  -2.565  1.00  0.00     0.163 HD
BRANCH   4   7
ATOM      7  C   UNL     1       3.414   6.310  -0.421  1.00  0.00     0.102 C 
BRANCH   7   8
ATOM      8  C   UNL     1       3.465   7.196   0.832  1.00  0.00     0.031 C 
BRANCH   8   9
ATOM      9  C   UNL     1       2.285   7.523   1.762  1.00  0.00     0.120 C 
BRANCH   9  10
ATOM     10  N   UNL     1       1.570   6.558   2.643  1.00  0.00    -0.342 N 
ATOM     11  C   UNL     1       0.791   7.234   3.670  1.00  0.00     0.147 C 
BRANCH  10  12
ATOM     12  C   UNL     1       1.533   5.177   2.363  1.00  0.00     0.259 C 
ATOM     13  O   UNL     1       2.213   4.751   1.439  1.00  0.00    -0.269 OA
BRANCH  12  14
ATOM     14  C   UNL     1       0.718   4.195   3.091  1.00  0.00     0.104 A 
ATOM     15  C   UNL     1       0.911   0.332   0.014  1.00  0.00     0.067 C 
ATOM     16  C   UNL     1       0.507   1.034   1.289  1.00  0.00     0.042 A 
ATOM     17  C   UNL     1      -0.133   0.199   2.349  1.00  0.00     0.047 A 
ATOM     18  N   UNL     1       0.752   2.308   1.398  1.00  0.00    -0.233 NA
ATOM     19  C   UNL     1      -0.484   0.839   3.478  1.00  0.00     0.043 A 
ATOM     20  C   UNL     1       0.438   2.917   2.590  1.00  0.00     0.168 A 
ATOM     21  C   UNL     1      -1.121   0.135   4.636  1.00  0.00     0.067 C 
ATOM     22  N   UNL     1      -0.212   2.209   3.606  1.00  0.00    -0.219 N 
ATOM     23  N   UNL     1      -0.470   3.008   4.668  1.00  0.00    -0.174 NA
ATOM     24  C   UNL     1       0.143   4.155   4.376  1.00  0.00     0.151 A 
ENDBRANCH  12  14
ENDBRANCH  10  12
ENDBRANCH   9  10
ENDBRANCH   8   9
ENDBRANCH   7   8
ENDBRANCH   4   7
ENDBRANCH   2   3
ENDBRANCH   1   2
BRANCH   1  25
ATOM     25  C   UNL     1      -1.772   8.033  -1.423  1.00  0.00     0.002 C 
BRANCH  25  26
ATOM     26  C   UNL     1      -2.837   6.951  -1.174  1.00  0.00     0.002 C 
BRANCH  26  27
ATOM     27  C   UNL     1      -3.392   6.856   0.255  1.00  0.00     0.021 C 
BRANCH  27  28
ATOM     28  C   UNL     1      -4.181   8.084   0.666  1.00  0.00     0.116 C 
BRANCH  28  29
ATOM     29  N   UNL     1      -5.374   8.293  -0.164  1.00  0.00    -0.352 N 
ATOM     30  C   UNL     1      -6.349   9.272  -0.044  1.00  0.00     0.251 C 
ATOM     31  H   UNL     1      -5.499   7.654  -0.902  1.00  0.00     0.163 HD
ATOM     32  O   UNL     1      -7.429   9.180  -0.593  1.00  0.00    -0.269 OA
BRANCH  30  33
ATOM     33  C   UNL     1      -6.011  10.459   0.756  1.00  0.00     0.039 A 
ATOM     34  C   UNL     1      -6.898  11.049   1.659  1.00  0.00     0.014 A 
ATOM     35  C   UNL     1      -4.715  10.930   0.607  1.00  0.00     0.014 A 
ATOM     36  C   UNL     1      -6.434  12.102   2.444  1.00  0.00     0.010 A 
ATOM     37  C   UNL     1      -4.197  11.745   1.562  1.00  0.00     0.010 A 
ATOM     38  C   UNL     1      -5.076  12.441   2.377  1.00  0.00    -0.014 A 
BRANCH  38  39
ATOM     39  C   UNL     1      -4.481  13.512   3.156  1.00  0.00     0.031 A 
ATOM     40  C   UNL     1      -4.574  13.339   4.628  1.00  0.00     0.074 A 
ATOM     41  C   UNL     1      -3.668  14.412   2.552  1.00  0.00     0.049 A 
ATOM     42  N   UNL     1      -5.160  14.111   5.481  1.00  0.00    -0.248 NA
ATOM     43  C   UNL     1      -4.067  12.085   5.215  1.00  0.00     0.031 C 
ATOM     44  C   UNL     1      -3.245  14.476   1.141  1.00  0.00     0.029 A 
ATOM     45  N   UNL     1      -2.923  15.395   3.117  1.00  0.00    -0.354 N 
ATOM     46  C   UNL     1      -4.922  13.551   6.733  1.00  0.00     0.074 A 
ATOM     47  C   UNL     1      -4.404  12.229   6.498  1.00  0.00     0.031 C 
ATOM     48  C   UNL     1      -2.148  15.256   1.024  1.00  0.00     0.029 A 
ATOM     49  C   UNL     1      -1.912  15.898   2.298  1.00  0.00     0.049 A 
ATOM     50  H   UNL     1      -3.084  15.727   4.030  1.00  0.00     0.167 HD
ATOM     51  C   UNL     1      -4.953  14.307   7.865  1.00  0.00     0.037 A 
ATOM     52  C   UNL     1      -0.931  16.747   2.692  1.00  0.00     0.037 A 
ATOM     53  C   UNL     1      -5.587  15.578   7.630  1.00  0.00     0.049 A 
ATOM     54  C   UNL     1      -1.398  17.378   3.956  1.00  0.00     0.074 A 
ATOM     55  C   UNL     1      -6.854  15.964   7.238  1.00  0.00     0.029 A 
ATOM     56  N   UNL     1      -4.776  16.660   7.389  1.00  0.00    -0.354 N 
ATOM     57  N   UNL     1      -2.428  18.179   4.021  1.00  0.00    -0.248 NA
ATOM     58  C   UNL     1      -1.044  16.709   5.199  1.00  0.00     0.031 C 
ATOM     59  C   UNL     1      -6.641  17.037   6.323  1.00  0.00     0.029 A 
ATOM     60  C   UNL     1      -5.271  17.299   6.278  1.00  0.00     0.049 A 
ATOM     61  H   UNL     1      -3.988  16.929   7.914  1.00  0.00     0.167 HD
ATOM     62  C   UNL     1      -3.098  17.804   5.177  1.00  0.00     0.074 A 
ATOM     63  C   UNL     1      -2.170  16.922   5.886  1.00  0.00     0.031 C 
ATOM     64  C   UNL     1      -4.445  17.988   5.313  1.00  0.00     0.037 A 
BRANCH  51  65
ATOM     65  C   UNL     1      -4.108  14.044   9.080  1.00  0.00     0.057 A 
ATOM     66  C   UNL     1      -4.395  14.709  10.283  1.00  0.00     0.134 A 
ATOM     67  C   UNL     1      -2.866  13.380   9.038  1.00  0.00     0.134 A 
ATOM     68  F   UNL     1      -5.536  15.399  10.432  1.00  0.00    -0.206 F 
ATOM     69  C   UNL     1      -3.488  14.751  11.349  1.00  0.00     0.040 A 
ATOM     70  C   UNL     1      -1.976  13.371  10.114  1.00  0.00     0.040 A 
ATOM     71  F   UNL     1      -2.407  12.794   7.925  1.00  0.00    -0.206 F 
ATOM     72  C   UNL     1      -2.272  14.082  11.266  1.00  0.00     0.006 A 
ENDBRANCH  51  65
BRANCH  52  73
ATOM     73  C   UNL     1       0.495  16.738   2.291  1.00  0.00     0.057 A 
ATOM     74  C   UNL     1       1.321  17.843   2.537  1.00  0.00     0.134 A 
ATOM     75  C   UNL     1       1.150  15.544   1.933  1.00  0.00     0.134 A 
ATOM     76  F   UNL     1       0.791  19.013   2.921  1.00  0.00    -0.206 F 
ATOM     77  C   UNL     1       2.719  17.760   2.463  1.00  0.00     0.040 A 
ATOM     78  C   UNL     1       2.543  15.449   1.853  1.00  0.00     0.040 A 
ATOM     79  F   UNL     1       0.463  14.408   1.742  1.00  0.00    -0.206 F 
ATOM     80  C   UNL     1       3.335  16.555   2.135  1.00  0.00     0.006 A 
ENDBRANCH  52  73
BRANCH  64  81
ATOM     81  C   UNL     1      -5.167  18.778   4.251  1.00  0.00     0.057 A 
ATOM     82  C   UNL     1      -5.299  18.370   2.913  1.00  0.00     0.134 A 
ATOM     83  C   UNL     1      -5.905  19.900   4.636  1.00  0.00     0.134 A 
ATOM     84  F   UNL     1      -4.712  17.255   2.468  1.00  0.00    -0.206 F 
ATOM     85  C   UNL     1      -6.101  19.063   1.999  1.00  0.00     0.040 A 
ATOM     86  C   UNL     1      -6.734  20.584   3.743  1.00  0.00     0.040 A 
ATOM     87  F   UNL     1      -5.877  20.319   5.911  1.00  0.00    -0.206 F 
ATOM     88  C   UNL     1      -6.829  20.171   2.417  1.00  0.00     0.006 A 
ENDBRANCH  64  81
ENDBRANCH  38  39
ENDBRANCH  30  33
ENDBRANCH  28  29
ENDBRANCH  27  28
ENDBRANCH  26  27
ENDBRANCH  25  26
ENDBRANCH   1  25
TORSDOF 18
