REMARK SMILES Cc1c(Cl)cccc1NC(=O)NCc1cn([C@@H]2C[NH2+][C@H](C(=O)NCCCCCCNC(=O)c3ccc(-c4c5nc(c(-c6c(F)cccc6F)c6ccc([nH]6)c(-c6c(F)cccc6F)c6nc(c(-c7c(F)cccc7F)c7ccc4[nH]7)C=C6)C=C5)cc3)C2)nn1
REMARK SMILES IDX 25 1 24 2 23 3 21 4 22 5 20 7 17 8 18 9 87 10 19 11 16 14
REMARK SMILES IDX 14 15 15 16 89 17 88 18 13 19 12 20 9 21 10 22 11 24 8 26
REMARK SMILES IDX 1 27 2 28 3 29 4 30 5 31 7 32 6 33 26 34 27 35 28 36 29 37
REMARK SMILES IDX 30 38 31 39 32 41 33 42 34 43 86 44 35 45 85 46 36 47 37 48
REMARK SMILES IDX 38 49 79 50 39 51 84 52 78 53 80 54 40 55 83 56 77 57 76 58
REMARK SMILES IDX 41 60 67 61 50 62 66 63 51 64 54 65 65 66 81 67 52 68 53 69
REMARK SMILES IDX 64 71 82 72 55 73 42 74 43 75 48 76 44 77 45 78 47 79 49 80
REMARK SMILES IDX 46 81 68 82 69 83 74 84 70 85 71 86 73 87 75 88 72 89 56 90
REMARK SMILES IDX 57 91 62 92 58 93 59 94 61 95 63 96 60 97
REMARK H PARENT 23 6 19 12 19 13 9 23 12 25 30 40 80 59 54 70
REMARK Flexibility Score: inf
ROOT
ATOM      1  C   UNL     1      -0.802  -7.260   1.573  1.00  0.00     0.021 C 
ENDROOT
BRANCH   1   2
ATOM      2  C   UNL     1      -1.922  -6.222   1.536  1.00  0.00     0.116 C 
BRANCH   2   3
ATOM      3  N   UNL     1      -3.206  -6.820   1.232  1.00  0.00    -0.351 N 
ATOM      4  C   UNL     1      -4.398  -6.831   1.880  1.00  0.00     0.278 C 
ATOM      5  O   UNL     1      -5.291  -7.503   1.344  1.00  0.00    -0.268 OA
ATOM      6  H   UNL     1      -3.216  -7.319   0.384  1.00  0.00     0.163 HD
BRANCH   4   7
ATOM      7  C   UNL     1      -4.758  -6.003   3.131  1.00  0.00     0.274 C 
ATOM      8  C   UNL     1      -5.076  -3.628   3.530  1.00  0.00     0.170 C 
ATOM      9  C   UNL     1      -3.618  -4.017   3.724  1.00  0.00     0.288 C 
ATOM     10  C   UNL     1      -5.627  -4.809   2.734  1.00  0.00     0.109 C 
ATOM     11  N   UNL     1      -3.626  -5.476   3.927  1.00  0.00    -0.334 N 
ATOM     12  H   UNL     1      -3.758  -5.695   4.914  1.00  0.00     0.347 HD
ATOM     13  H   UNL     1      -2.743  -5.895   3.635  1.00  0.00     0.347 HD
BRANCH   8  14
ATOM     14  N   UNL     1      -5.235  -2.352   2.876  1.00  0.00    -0.243 N 
ATOM     15  C   UNL     1      -5.074  -0.699   1.494  1.00  0.00     0.102 A 
ATOM     16  C   UNL     1      -5.004  -2.073   1.571  1.00  0.00     0.137 A 
ATOM     17  N   UNL     1      -5.399  -0.198   2.720  1.00  0.00    -0.134 NA
ATOM     18  N   UNL     1      -5.508  -1.227   3.563  1.00  0.00    -0.067 NA
BRANCH  15  19
ATOM     19  C   UNL     1      -4.558   0.038   0.330  1.00  0.00     0.178 C 
BRANCH  19  20
ATOM     20  N   UNL     1      -4.526   1.459   0.339  1.00  0.00    -0.332 N 
ATOM     21  N   UNL     1      -2.305   2.035  -0.408  1.00  0.00    -0.308 N 
ATOM     22  C   UNL     1      -3.595   2.313  -0.114  1.00  0.00     0.319 C 
ATOM     23  H   UNL     1      -1.823   2.860  -0.646  1.00  0.00     0.171 HD
ATOM     24  O   UNL     1      -3.925   3.504  -0.183  1.00  0.00    -0.248 OA
ATOM     25  H   UNL     1      -5.316   1.887   0.743  1.00  0.00     0.165 HD
BRANCH  21  26
ATOM     26  C   UNL     1      -1.434   0.920  -0.477  1.00  0.00     0.047 A 
ATOM     27  C   UNL     1       0.577   2.397   0.148  1.00  0.00     0.048 C 
ATOM     28  C   UNL     1      -0.082   1.058  -0.077  1.00  0.00    -0.009 A 
ATOM     29  C   UNL     1       0.705  -0.112   0.064  1.00  0.00     0.046 A 
ATOM     30  Cl  UNL     1       2.360  -0.052   0.573  1.00  0.00    -0.084 Cl
ATOM     31  C   UNL     1       0.184  -1.376  -0.209  1.00  0.00     0.021 A 
ATOM     32  C   UNL     1      -1.840  -0.326  -0.967  1.00  0.00     0.026 A 
ATOM     33  C   UNL     1      -1.080  -1.480  -0.764  1.00  0.00     0.004 A 
ENDBRANCH  21  26
ENDBRANCH  19  20
ENDBRANCH  15  19
ENDBRANCH   8  14
ENDBRANCH   4   7
ENDBRANCH   2   3
ENDBRANCH   1   2
BRANCH   1  34
ATOM     34  C   UNL     1      -0.397  -7.827   0.210  1.00  0.00     0.002 C 
BRANCH  34  35
ATOM     35  C   UNL     1      -0.061  -6.799  -0.882  1.00  0.00     0.002 C 
BRANCH  35  36
ATOM     36  C   UNL     1       0.928  -5.683  -0.511  1.00  0.00     0.021 C 
BRANCH  36  37
ATOM     37  C   UNL     1       2.310  -6.179  -0.123  1.00  0.00     0.116 C 
BRANCH  37  38
ATOM     38  N   UNL     1       3.014  -6.827  -1.230  1.00  0.00    -0.352 N 
ATOM     39  C   UNL     1       4.271  -7.410  -1.223  1.00  0.00     0.251 C 
ATOM     40  H   UNL     1       2.534  -6.851  -2.089  1.00  0.00     0.163 HD
ATOM     41  O   UNL     1       4.896  -7.585  -2.253  1.00  0.00    -0.269 OA
BRANCH  39  42
ATOM     42  C   UNL     1       4.830  -7.836   0.073  1.00  0.00     0.039 A 
ATOM     43  C   UNL     1       6.183  -7.684   0.390  1.00  0.00     0.014 A 
ATOM     44  C   UNL     1       3.939  -8.376   0.992  1.00  0.00     0.014 A 
ATOM     45  C   UNL     1       6.609  -8.028   1.671  1.00  0.00     0.010 A 
ATOM     46  C   UNL     1       4.308  -8.494   2.298  1.00  0.00     0.010 A 
ATOM     47  C   UNL     1       5.655  -8.423   2.621  1.00  0.00    -0.014 A 
BRANCH  47  48
ATOM     48  C   UNL     1       6.003  -8.687   4.008  1.00  0.00     0.031 A 
ATOM     49  C   UNL     1       6.650  -7.544   4.701  1.00  0.00     0.074 A 
ATOM     50  C   UNL     1       5.530  -9.771   4.663  1.00  0.00     0.049 A 
ATOM     51  N   UNL     1       7.851  -7.486   5.168  1.00  0.00    -0.248 NA
ATOM     52  C   UNL     1       5.929  -6.259   4.751  1.00  0.00     0.031 C 
ATOM     53  C   UNL     1       4.613 -10.812   4.176  1.00  0.00     0.029 A 
ATOM     54  N   UNL     1       5.682 -10.109   5.971  1.00  0.00    -0.354 N 
ATOM     55  C   UNL     1       7.964  -6.237   5.770  1.00  0.00     0.074 A 
ATOM     56  C   UNL     1       6.841  -5.463   5.312  1.00  0.00     0.031 C 
ATOM     57  C   UNL     1       4.110 -11.504   5.221  1.00  0.00     0.029 A 
ATOM     58  C   UNL     1       4.791 -11.078   6.427  1.00  0.00     0.049 A 
ATOM     59  H   UNL     1       6.366  -9.701   6.549  1.00  0.00     0.167 HD
ATOM     60  C   UNL     1       8.829  -6.032   6.801  1.00  0.00     0.037 A 
ATOM     61  C   UNL     1       4.616 -11.457   7.718  1.00  0.00     0.037 A 
ATOM     62  C   UNL     1       9.810  -7.086   6.877  1.00  0.00     0.049 A 
ATOM     63  C   UNL     1       5.830 -11.026   8.462  1.00  0.00     0.074 A 
ATOM     64  C   UNL     1      10.743  -7.594   5.992  1.00  0.00     0.029 A 
ATOM     65  N   UNL     1       9.634  -8.063   7.828  1.00  0.00    -0.354 N 
ATOM     66  N   UNL     1       7.013 -11.541   8.266  1.00  0.00    -0.248 NA
ATOM     67  C   UNL     1       5.817  -9.689   9.039  1.00  0.00     0.031 C 
ATOM     68  C   UNL     1      10.666  -9.009   6.155  1.00  0.00     0.029 A 
ATOM     69  C   UNL     1       9.773  -9.274   7.193  1.00  0.00     0.049 A 
ATOM     70  H   UNL     1       9.444  -7.922   8.784  1.00  0.00     0.167 HD
ATOM     71  C   UNL     1       7.877 -10.456   8.278  1.00  0.00     0.074 A 
ATOM     72  C   UNL     1       7.090  -9.348   8.821  1.00  0.00     0.031 C 
ATOM     73  C   UNL     1       9.044 -10.465   7.568  1.00  0.00     0.037 A 
BRANCH  60  74
ATOM     74  C   UNL     1       8.560  -5.091   7.946  1.00  0.00     0.057 A 
ATOM     75  C   UNL     1       9.592  -4.790   8.850  1.00  0.00     0.134 A 
ATOM     76  C   UNL     1       7.270  -4.689   8.351  1.00  0.00     0.134 A 
ATOM     77  F   UNL     1      10.859  -5.149   8.592  1.00  0.00    -0.206 F 
ATOM     78  C   UNL     1       9.350  -4.181  10.088  1.00  0.00     0.040 A 
ATOM     79  C   UNL     1       7.025  -4.031   9.559  1.00  0.00     0.040 A 
ATOM     80  F   UNL     1       6.169  -5.000   7.657  1.00  0.00    -0.206 F 
ATOM     81  C   UNL     1       8.062  -3.800  10.446  1.00  0.00     0.006 A 
ENDBRANCH  60  74
BRANCH  61  82
ATOM     82  C   UNL     1       3.366 -11.866   8.404  1.00  0.00     0.057 A 
ATOM     83  C   UNL     1       3.395 -12.463   9.673  1.00  0.00     0.134 A 
ATOM     84  C   UNL     1       2.103 -11.431   7.962  1.00  0.00     0.134 A 
ATOM     85  F   UNL     1       4.556 -12.877  10.203  1.00  0.00    -0.206 F 
ATOM     86  C   UNL     1       2.246 -12.593  10.466  1.00  0.00     0.040 A 
ATOM     87  C   UNL     1       0.947 -11.560   8.741  1.00  0.00     0.040 A 
ATOM     88  F   UNL     1       1.961 -10.784   6.796  1.00  0.00    -0.206 F 
ATOM     89  C   UNL     1       1.018 -12.129  10.005  1.00  0.00     0.006 A 
ENDBRANCH  61  82
BRANCH  73  90
ATOM     90  C   UNL     1       9.484 -11.757   6.926  1.00  0.00     0.057 A 
ATOM     91  C   UNL     1       8.760 -12.436   5.933  1.00  0.00     0.134 A 
ATOM     92  C   UNL     1      10.769 -12.237   7.199  1.00  0.00     0.134 A 
ATOM     93  F   UNL     1       7.564 -12.000   5.524  1.00  0.00    -0.206 F 
ATOM     94  C   UNL     1       9.274 -13.559   5.274  1.00  0.00     0.040 A 
ATOM     95  C   UNL     1      11.309 -13.336   6.525  1.00  0.00     0.040 A 
ATOM     96  F   UNL     1      11.548 -11.609   8.094  1.00  0.00    -0.206 F 
ATOM     97  C   UNL     1      10.557 -14.007   5.565  1.00  0.00     0.006 A 
ENDBRANCH  73  90
ENDBRANCH  47  48
ENDBRANCH  39  42
ENDBRANCH  37  38
ENDBRANCH  36  37
ENDBRANCH  35  36
ENDBRANCH  34  35
ENDBRANCH   1  34
TORSDOF 17
