REMARK SMILES C[C@@H](C(=O)NCCCCCCNC(=O)c1ccc(-c2c3nc(c(-c4c(F)cccc4F)c4ccc([nH]4)c(-c4c(F)cccc4F)c4nc(c(-c5c(F)cccc5F)c5ccc2[nH]5)C=C4)C=C3)cc1)c1ccc(C[C@H]2CCCC2=O)c(-c2ccc(F)cc2)c1
REMARK SMILES IDX 8 1 7 2 6 3 5 4 3 5 4 6 2 8 1 9 69 10 70 11 88 12 71 13
REMARK SMILES IDX 80 14 72 15 81 16 82 17 87 18 83 19 86 20 84 21 85 22 73 23
REMARK SMILES IDX 74 24 75 25 78 26 76 27 77 28 79 29 9 30 10 31 11 32 12 33
REMARK SMILES IDX 13 34 14 36 15 37 16 38 68 39 17 40 67 41 18 42 19 43 20 44
REMARK SMILES IDX 61 45 21 46 66 47 60 48 62 49 22 50 65 51 59 52 58 53 23 55
REMARK SMILES IDX 49 56 32 57 48 58 33 59 36 60 47 61 63 62 34 63 35 64 46 66
REMARK SMILES IDX 64 67 37 68 24 69 25 70 30 71 26 72 27 73 29 74 31 75 28 76
REMARK SMILES IDX 50 77 51 78 56 79 52 80 53 81 55 82 57 83 54 84 38 85 39 86
REMARK SMILES IDX 44 87 40 88 41 89 43 90 45 91 42 92
REMARK H PARENT 5 7 12 35 62 54 36 65
REMARK Flexibility Score: inf
ROOT
ATOM      1  C   UNL     1       4.984  -2.628   0.839  1.00  0.00     0.002 C 
ENDROOT
BRANCH   1   2
ATOM      2  C   UNL     1       4.255  -1.364   0.360  1.00  0.00     0.021 C 
BRANCH   2   3
ATOM      3  C   UNL     1       3.432  -1.567  -0.918  1.00  0.00     0.116 C 
BRANCH   3   4
ATOM      4  N   UNL     1       2.369  -2.517  -0.667  1.00  0.00    -0.356 N 
ATOM      5  C   UNL     1       1.090  -2.252  -0.266  1.00  0.00     0.227 C 
ATOM      6  O   UNL     1       0.550  -3.103   0.443  1.00  0.00    -0.274 OA
ATOM      7  H   UNL     1       2.594  -3.466  -0.800  1.00  0.00     0.163 HD
BRANCH   5   8
ATOM      8  C   UNL     1       0.427  -0.933  -0.704  1.00  0.00     0.105 C 
ATOM      9  C   UNL     1       0.802   0.147   0.325  1.00  0.00     0.023 C 
BRANCH   8  10
ATOM     10  C   UNL     1      -1.093  -0.983  -0.898  1.00  0.00    -0.035 A 
ATOM     11  C   UNL     1      -1.808   0.201  -1.105  1.00  0.00     0.005 A 
ATOM     12  C   UNL     1      -1.834  -2.174  -0.870  1.00  0.00     0.013 A 
ATOM     13  C   UNL     1      -3.202   0.204  -1.118  1.00  0.00     0.004 A 
ATOM     14  C   UNL     1      -3.247  -2.202  -0.831  1.00  0.00    -0.015 A 
ATOM     15  C   UNL     1      -3.939  -0.974  -0.904  1.00  0.00    -0.039 A 
BRANCH  14  16
ATOM     16  C   UNL     1      -3.906  -3.512  -0.648  1.00  0.00    -0.018 A 
ATOM     17  C   UNL     1      -4.844  -4.005  -1.572  1.00  0.00     0.012 A 
ATOM     18  C   UNL     1      -3.587  -4.316   0.465  1.00  0.00     0.012 A 
ATOM     19  C   UNL     1      -5.489  -5.226  -1.356  1.00  0.00     0.040 A 
ATOM     20  C   UNL     1      -4.219  -5.543   0.673  1.00  0.00     0.040 A 
ATOM     21  C   UNL     1      -5.175  -5.980  -0.233  1.00  0.00     0.123 A 
ATOM     22  F   UNL     1      -5.801  -7.144  -0.022  1.00  0.00    -0.207 F 
ENDBRANCH  14  16
BRANCH  15  23
ATOM     23  C   UNL     1      -5.437  -0.837  -0.712  1.00  0.00     0.047 C 
BRANCH  23  24
ATOM     24  C   UNL     1      -5.911  -0.284   0.640  1.00  0.00     0.060 C 
ATOM     25  C   UNL     1      -5.412  -0.999   1.899  1.00  0.00     0.012 C 
ATOM     26  C   UNL     1      -5.463   1.138   0.884  1.00  0.00     0.136 C 
ATOM     27  C   UNL     1      -4.249  -0.173   2.435  1.00  0.00     0.009 C 
ATOM     28  C   UNL     1      -4.578   1.273   2.093  1.00  0.00     0.076 C 
ATOM     29  O   UNL     1      -5.798   2.087   0.183  1.00  0.00    -0.299 OA
ENDBRANCH  23  24
ENDBRANCH  15  23
ENDBRANCH   8  10
ENDBRANCH   5   8
ENDBRANCH   3   4
ENDBRANCH   2   3
ENDBRANCH   1   2
BRANCH   1  30
ATOM     30  C   UNL     1       5.936  -3.244  -0.189  1.00  0.00     0.002 C 
BRANCH  30  31
ATOM     31  C   UNL     1       6.985  -2.276  -0.736  1.00  0.00     0.021 C 
BRANCH  31  32
ATOM     32  C   UNL     1       7.887  -1.672   0.333  1.00  0.00     0.116 C 
BRANCH  32  33
ATOM     33  N   UNL     1       8.720  -2.679   0.972  1.00  0.00    -0.352 N 
ATOM     34  C   UNL     1      10.084  -2.699   1.113  1.00  0.00     0.251 C 
ATOM     35  H   UNL     1       8.240  -3.450   1.353  1.00  0.00     0.163 HD
ATOM     36  O   UNL     1      10.660  -3.717   1.486  1.00  0.00    -0.269 OA
BRANCH  34  37
ATOM     37  C   UNL     1      10.857  -1.483   0.794  1.00  0.00     0.039 A 
ATOM     38  C   UNL     1      12.007  -1.592   0.010  1.00  0.00     0.014 A 
ATOM     39  C   UNL     1      10.432  -0.236   1.260  1.00  0.00     0.014 A 
ATOM     40  C   UNL     1      12.704  -0.438  -0.353  1.00  0.00     0.010 A 
ATOM     41  C   UNL     1      11.079   0.916   0.831  1.00  0.00     0.010 A 
ATOM     42  C   UNL     1      12.229   0.826   0.031  1.00  0.00    -0.014 A 
BRANCH  42  43
ATOM     43  C   UNL     1      12.929   2.073  -0.366  1.00  0.00     0.031 A 
ATOM     44  C   UNL     1      13.513   2.969   0.691  1.00  0.00     0.074 A 
ATOM     45  C   UNL     1      12.973   2.436  -1.662  1.00  0.00     0.049 A 
ATOM     46  N   UNL     1      14.068   4.146   0.564  1.00  0.00    -0.248 NA
ATOM     47  C   UNL     1      13.432   2.488   2.079  1.00  0.00     0.031 C 
ATOM     48  C   UNL     1      12.410   1.673  -2.776  1.00  0.00     0.029 A 
ATOM     49  N   UNL     1      13.504   3.553  -2.258  1.00  0.00    -0.354 N 
ATOM     50  C   UNL     1      14.383   4.554   1.854  1.00  0.00     0.074 A 
ATOM     51  C   UNL     1      13.903   3.527   2.752  1.00  0.00     0.031 C 
ATOM     52  C   UNL     1      12.641   2.333  -3.922  1.00  0.00     0.029 A 
ATOM     53  C   UNL     1      13.327   3.586  -3.620  1.00  0.00     0.049 A 
ATOM     54  H   UNL     1      13.967   4.262  -1.757  1.00  0.00     0.167 HD
ATOM     55  C   UNL     1      15.034   5.672   2.254  1.00  0.00     0.037 A 
ATOM     56  C   UNL     1      13.669   4.526  -4.521  1.00  0.00     0.037 A 
ATOM     57  C   UNL     1      15.527   6.681   1.354  1.00  0.00     0.049 A 
ATOM     58  C   UNL     1      14.375   5.769  -4.053  1.00  0.00     0.074 A 
ATOM     59  C   UNL     1      16.247   7.824   1.652  1.00  0.00     0.029 A 
ATOM     60  N   UNL     1      15.344   6.670  -0.021  1.00  0.00    -0.354 N 
ATOM     61  N   UNL     1      14.721   6.116  -2.837  1.00  0.00    -0.248 NA
ATOM     62  C   UNL     1      14.743   6.750  -5.084  1.00  0.00     0.031 C 
ATOM     63  C   UNL     1      16.453   8.533   0.464  1.00  0.00     0.029 A 
ATOM     64  C   UNL     1      15.916   7.800  -0.583  1.00  0.00     0.049 A 
ATOM     65  H   UNL     1      14.877   5.964  -0.523  1.00  0.00     0.167 HD
ATOM     66  C   UNL     1      15.377   7.335  -2.959  1.00  0.00     0.074 A 
ATOM     67  C   UNL     1      15.386   7.663  -4.370  1.00  0.00     0.031 C 
ATOM     68  C   UNL     1      15.926   8.109  -1.991  1.00  0.00     0.037 A 
BRANCH  55  69
ATOM     69  C   UNL     1      15.241   5.860   3.730  1.00  0.00     0.057 A 
ATOM     70  C   UNL     1      16.094   5.032   4.473  1.00  0.00     0.134 A 
ATOM     71  C   UNL     1      14.587   6.891   4.417  1.00  0.00     0.134 A 
ATOM     72  F   UNL     1      16.742   4.017   3.881  1.00  0.00    -0.206 F 
ATOM     73  C   UNL     1      16.259   5.198   5.849  1.00  0.00     0.040 A 
ATOM     74  C   UNL     1      14.771   7.089   5.787  1.00  0.00     0.040 A 
ATOM     75  F   UNL     1      13.762   7.727   3.769  1.00  0.00    -0.206 F 
ATOM     76  C   UNL     1      15.601   6.234   6.509  1.00  0.00     0.006 A 
ENDBRANCH  55  69
BRANCH  56  77
ATOM     77  C   UNL     1      13.365   4.318  -5.960  1.00  0.00     0.057 A 
ATOM     78  C   UNL     1      14.387   4.087  -6.887  1.00  0.00     0.134 A 
ATOM     79  C   UNL     1      12.051   4.341  -6.442  1.00  0.00     0.134 A 
ATOM     80  F   UNL     1      15.668   4.071  -6.489  1.00  0.00    -0.206 F 
ATOM     81  C   UNL     1      14.117   3.904  -8.244  1.00  0.00     0.040 A 
ATOM     82  C   UNL     1      11.763   4.133  -7.792  1.00  0.00     0.040 A 
ATOM     83  F   UNL     1      11.024   4.548  -5.603  1.00  0.00    -0.206 F 
ATOM     84  C   UNL     1      12.800   3.920  -8.699  1.00  0.00     0.006 A 
ENDBRANCH  56  77
BRANCH  68  85
ATOM     85  C   UNL     1      16.628   9.364  -2.424  1.00  0.00     0.057 A 
ATOM     86  C   UNL     1      15.930  10.481  -2.901  1.00  0.00     0.134 A 
ATOM     87  C   UNL     1      18.020   9.472  -2.312  1.00  0.00     0.134 A 
ATOM     88  F   UNL     1      14.597  10.440  -3.044  1.00  0.00    -0.206 F 
ATOM     89  C   UNL     1      16.595  11.652  -3.271  1.00  0.00     0.040 A 
ATOM     90  C   UNL     1      18.693  10.646  -2.649  1.00  0.00     0.040 A 
ATOM     91  F   UNL     1      18.749   8.442  -1.853  1.00  0.00    -0.206 F 
ATOM     92  C   UNL     1      17.980  11.739  -3.136  1.00  0.00     0.006 A 
ENDBRANCH  68  85
ENDBRANCH  42  43
ENDBRANCH  34  37
ENDBRANCH  32  33
ENDBRANCH  31  32
ENDBRANCH  30  31
ENDBRANCH   1  30
TORSDOF 17
