REMARK SMILES Cc1ncc(CC(=O)N2CCc3c(c(C(=O)NCCCCCCNC(=O)c4ccc(-c5c6nc(c(-c7c(F)cccc7F)c7ccc([nH]7)c(-c7c(F)cccc7F)c7nc(c(-c8c(F)cccc8F)c8ccc5[nH]8)C=C7)C=C6)cc4)nn3CC3CC3)C2)c(=O)[nH]1
REMARK SMILES IDX 20 1 19 2 18 3 17 4 15 5 16 6 14 8 9 9 10 10 87 11 11 12
REMARK SMILES IDX 13 13 12 14 82 15 81 16 7 17 8 18 6 19 5 20 1 21 2 22 3 23
REMARK SMILES IDX 90 24 4 25 88 26 89 28 83 29 84 30 85 31 86 32 21 33 22 34
REMARK SMILES IDX 23 35 24 36 25 37 26 39 27 40 28 41 80 42 29 43 79 44 30 45
REMARK SMILES IDX 31 46 32 47 73 48 33 49 78 50 72 51 74 52 34 53 77 54 71 55
REMARK SMILES IDX 70 56 35 58 61 59 44 60 60 61 45 62 48 63 59 64 75 65 46 66
REMARK SMILES IDX 47 67 58 69 76 70 49 71 36 72 37 73 42 74 38 75 39 76 41 77
REMARK SMILES IDX 43 78 40 79 62 80 63 81 68 82 64 83 65 84 67 85 69 86 66 87
REMARK SMILES IDX 50 88 51 89 56 90 52 91 53 92 55 93 57 94 54 95
REMARK H PARENT 17 7 90 27 24 38 74 57 48 68
REMARK Flexibility Score: inf
ROOT
ATOM      1  C   UNL     1       2.639   7.691   9.901  1.00  0.00     0.002 C 
ENDROOT
BRANCH   1   2
ATOM      2  C   UNL     1       1.598   6.877   9.130  1.00  0.00     0.021 C 
BRANCH   2   3
ATOM      3  C   UNL     1       1.718   6.952   7.609  1.00  0.00     0.116 C 
BRANCH   3   4
ATOM      4  N   UNL     1       2.878   6.232   7.107  1.00  0.00    -0.351 N 
ATOM      5  C   UNL     1       2.997   5.258   6.136  1.00  0.00     0.272 C 
ATOM      6  O   UNL     1       4.130   4.817   5.921  1.00  0.00    -0.267 OA
ATOM      7  H   UNL     1       3.728   6.484   7.535  1.00  0.00     0.163 HD
BRANCH   5   8
ATOM      8  C   UNL     1       1.826   4.733   5.406  1.00  0.00     0.155 A 
ATOM      9  N   UNL     1       2.341   2.006   2.810  1.00  0.00    -0.338 N 
ATOM     10  C   UNL     1       1.059   1.348   3.115  1.00  0.00     0.126 C 
ATOM     11  C   UNL     1       2.920   2.788   3.931  1.00  0.00     0.159 C 
ATOM     12  C   UNL     1      -0.060   2.385   3.304  1.00  0.00     0.078 C 
ATOM     13  C   UNL     1       1.813   3.643   4.485  1.00  0.00     0.026 A 
ATOM     14  C   UNL     1       0.476   3.450   4.187  1.00  0.00     0.046 A 
ATOM     15  N   UNL     1      -0.218   4.417   4.833  1.00  0.00    -0.268 N 
ATOM     16  N   UNL     1       0.584   5.243   5.520  1.00  0.00    -0.167 NA
BRANCH   9  17
ATOM     17  C   UNL     1       3.036   1.963   1.614  1.00  0.00     0.227 C 
ATOM     18  O   UNL     1       4.263   2.119   1.600  1.00  0.00    -0.275 OA
BRANCH  17  19
ATOM     19  C   UNL     1       2.283   2.022   0.268  1.00  0.00     0.143 C 
BRANCH  19  20
ATOM     20  C   UNL     1       1.077   1.179   0.040  1.00  0.00     0.045 A 
ATOM     21  C   UNL     1      -2.350  -1.292  -0.096  1.00  0.00     0.087 C 
ATOM     22  C   UNL     1      -1.160  -0.380  -0.117  1.00  0.00     0.105 A 
ATOM     23  N   UNL     1      -1.308   0.904  -0.168  1.00  0.00    -0.243 NA
ATOM     24  N   UNL     1       0.059  -0.992  -0.050  1.00  0.00    -0.311 N 
ATOM     25  C   UNL     1      -0.167   1.658  -0.116  1.00  0.00     0.123 A 
ATOM     26  C   UNL     1       1.229  -0.290   0.004  1.00  0.00     0.254 A 
ATOM     27  H   UNL     1       0.096  -1.976  -0.042  1.00  0.00     0.171 HD
ATOM     28  O   UNL     1       2.320  -0.841   0.065  1.00  0.00    -0.269 OA
ENDBRANCH  19  20
ENDBRANCH  17  19
ENDBRANCH   9  17
BRANCH  15  29
ATOM     29  C   UNL     1      -1.655   4.655   4.826  1.00  0.00     0.148 C 
BRANCH  29  30
ATOM     30  C   UNL     1      -2.388   4.170   6.050  1.00  0.00     0.011 C 
ATOM     31  C   UNL     1      -1.726   3.642   7.307  1.00  0.00     0.006 C 
ATOM     32  C   UNL     1      -2.355   5.004   7.311  1.00  0.00     0.006 C 
ENDBRANCH  29  30
ENDBRANCH  15  29
ENDBRANCH   5   8
ENDBRANCH   3   4
ENDBRANCH   2   3
ENDBRANCH   1   2
BRANCH   1  33
ATOM     33  C   UNL     1       2.725   9.186   9.552  1.00  0.00     0.002 C 
BRANCH  33  34
ATOM     34  C   UNL     1       1.413   9.984   9.582  1.00  0.00     0.021 C 
BRANCH  34  35
ATOM     35  C   UNL     1       0.746  10.039  10.947  1.00  0.00     0.116 C 
BRANCH  35  36
ATOM     36  N   UNL     1       1.508  10.816  11.928  1.00  0.00    -0.352 N 
ATOM     37  C   UNL     1       1.173  11.088  13.239  1.00  0.00     0.251 C 
ATOM     38  H   UNL     1       2.363  11.190  11.614  1.00  0.00     0.163 HD
ATOM     39  O   UNL     1       1.677  12.040  13.839  1.00  0.00    -0.269 OA
BRANCH  37  40
ATOM     40  C   UNL     1       0.210  10.212  13.924  1.00  0.00     0.039 A 
ATOM     41  C   UNL     1      -0.741  10.708  14.821  1.00  0.00     0.014 A 
ATOM     42  C   UNL     1       0.268   8.852  13.632  1.00  0.00     0.014 A 
ATOM     43  C   UNL     1      -1.675   9.827  15.361  1.00  0.00     0.010 A 
ATOM     44  C   UNL     1      -0.758   8.031  14.008  1.00  0.00     0.010 A 
ATOM     45  C   UNL     1      -1.684   8.489  14.933  1.00  0.00    -0.014 A 
BRANCH  45  46
ATOM     46  C   UNL     1      -2.735   7.564  15.335  1.00  0.00     0.031 A 
ATOM     47  C   UNL     1      -4.103   8.036  14.999  1.00  0.00     0.074 A 
ATOM     48  C   UNL     1      -2.474   6.299  15.734  1.00  0.00     0.049 A 
ATOM     49  N   UNL     1      -5.035   8.379  15.823  1.00  0.00    -0.248 NA
ATOM     50  C   UNL     1      -4.423   8.321  13.589  1.00  0.00     0.031 C 
ATOM     51  C   UNL     1      -1.176   5.616  15.804  1.00  0.00     0.029 A 
ATOM     52  N   UNL     1      -3.343   5.303  16.056  1.00  0.00    -0.354 N 
ATOM     53  C   UNL     1      -6.140   8.688  15.037  1.00  0.00     0.074 A 
ATOM     54  C   UNL     1      -5.646   8.847  13.695  1.00  0.00     0.031 C 
ATOM     55  C   UNL     1      -1.365   4.282  15.906  1.00  0.00     0.029 A 
ATOM     56  C   UNL     1      -2.783   4.026  16.074  1.00  0.00     0.049 A 
ATOM     57  H   UNL     1      -4.292   5.470  16.261  1.00  0.00     0.167 HD
ATOM     58  C   UNL     1      -7.401   8.495  15.514  1.00  0.00     0.037 A 
ATOM     59  C   UNL     1      -3.453   2.850  16.182  1.00  0.00     0.037 A 
ATOM     60  C   UNL     1      -7.389   8.356  16.952  1.00  0.00     0.049 A 
ATOM     61  C   UNL     1      -4.793   3.162  16.744  1.00  0.00     0.074 A 
ATOM     62  C   UNL     1      -6.924   9.135  17.996  1.00  0.00     0.029 A 
ATOM     63  N   UNL     1      -7.539   7.093  17.473  1.00  0.00    -0.354 N 
ATOM     64  N   UNL     1      -4.979   3.586  17.964  1.00  0.00    -0.248 NA
ATOM     65  C   UNL     1      -5.852   3.485  15.799  1.00  0.00     0.031 C 
ATOM     66  C   UNL     1      -6.336   8.209  18.908  1.00  0.00     0.029 A 
ATOM     67  C   UNL     1      -6.564   6.922  18.421  1.00  0.00     0.049 A 
ATOM     68  H   UNL     1      -8.222   6.432  17.213  1.00  0.00     0.167 HD
ATOM     69  C   UNL     1      -5.922   4.596  17.841  1.00  0.00     0.074 A 
ATOM     70  C   UNL     1      -6.474   4.442  16.495  1.00  0.00     0.031 C 
ATOM     71  C   UNL     1      -5.949   5.648  18.711  1.00  0.00     0.037 A 
BRANCH  58  72
ATOM     72  C   UNL     1      -8.561   8.009  14.675  1.00  0.00     0.057 A 
ATOM     73  C   UNL     1      -9.834   7.920  15.271  1.00  0.00     0.134 A 
ATOM     74  C   UNL     1      -8.436   7.342  13.439  1.00  0.00     0.134 A 
ATOM     75  F   UNL     1     -10.085   8.509  16.450  1.00  0.00    -0.206 F 
ATOM     76  C   UNL     1     -10.865   7.144  14.729  1.00  0.00     0.040 A 
ATOM     77  C   UNL     1      -9.476   6.607  12.864  1.00  0.00     0.040 A 
ATOM     78  F   UNL     1      -7.283   7.272  12.766  1.00  0.00    -0.206 F 
ATOM     79  C   UNL     1     -10.683   6.473  13.527  1.00  0.00     0.006 A 
ENDBRANCH  58  72
BRANCH  59  80
ATOM     80  C   UNL     1      -3.139   1.535  15.570  1.00  0.00     0.057 A 
ATOM     81  C   UNL     1      -3.795   0.363  15.982  1.00  0.00     0.134 A 
ATOM     82  C   UNL     1      -2.398   1.432  14.379  1.00  0.00     0.134 A 
ATOM     83  F   UNL     1      -4.563   0.364  17.081  1.00  0.00    -0.206 F 
ATOM     84  C   UNL     1      -3.737  -0.828  15.242  1.00  0.00     0.040 A 
ATOM     85  C   UNL     1      -2.327   0.248  13.635  1.00  0.00     0.040 A 
ATOM     86  F   UNL     1      -1.790   2.502  13.847  1.00  0.00    -0.206 F 
ATOM     87  C   UNL     1      -3.011  -0.884  14.057  1.00  0.00     0.006 A 
ENDBRANCH  59  80
BRANCH  71  88
ATOM     88  C   UNL     1      -5.096   5.579  19.950  1.00  0.00     0.057 A 
ATOM     89  C   UNL     1      -3.695   5.497  19.948  1.00  0.00     0.134 A 
ATOM     90  C   UNL     1      -5.712   5.775  21.191  1.00  0.00     0.134 A 
ATOM     91  F   UNL     1      -3.004   5.409  18.805  1.00  0.00    -0.206 F 
ATOM     92  C   UNL     1      -2.948   5.571  21.129  1.00  0.00     0.040 A 
ATOM     93  C   UNL     1      -4.977   5.885  22.373  1.00  0.00     0.040 A 
ATOM     94  F   UNL     1      -7.045   5.918  21.268  1.00  0.00    -0.206 F 
ATOM     95  C   UNL     1      -3.590   5.773  22.346  1.00  0.00     0.006 A 
ENDBRANCH  71  88
ENDBRANCH  45  46
ENDBRANCH  37  40
ENDBRANCH  35  36
ENDBRANCH  34  35
ENDBRANCH  33  34
ENDBRANCH   1  33
TORSDOF 18
