REMARK SMILES CC1(C)CCSC[C@@]1(Nc1ccccc1Br)C(=O)NCCCCCCNC(=O)c1ccc(-c2c3nc(c(-c4c(F)cccc4F)c4ccc([nH]4)c(-c4c(F)cccc4F)c4nc(c(-c5c(F)cccc5F)c5ccc2[nH]5)C=C4)C=C3)cc1
REMARK SMILES IDX 22 1 21 2 20 3 19 4 17 5 18 6 8 8 1 9 2 10 3 11 4 12 5 13
REMARK SMILES IDX 7 14 6 15 9 16 10 18 11 19 15 20 12 21 14 22 16 23 13 24
REMARK SMILES IDX 23 25 24 26 25 27 26 28 27 29 28 31 29 32 30 33 82 34 31 35
REMARK SMILES IDX 81 36 32 37 33 38 34 39 75 40 35 41 80 42 74 43 76 44 36 45
REMARK SMILES IDX 79 46 73 47 72 48 37 50 63 51 46 52 62 53 47 54 50 55 61 56
REMARK SMILES IDX 77 57 48 58 49 59 60 61 78 62 51 63 38 64 39 65 44 66 40 67
REMARK SMILES IDX 41 68 43 69 45 70 42 71 64 72 65 73 70 74 66 75 67 76 69 77
REMARK SMILES IDX 71 78 68 79 52 80 53 81 58 82 54 83 55 84 57 85 59 86 56 87
REMARK H PARENT 19 7 9 17 26 30 76 49 50 60
REMARK Flexibility Score: inf
ROOT
ATOM      1  C   UNL     1       2.926  -4.638   0.456  1.00  0.00     0.002 C 
ENDROOT
BRANCH   1   2
ATOM      2  C   UNL     1       1.564  -4.118  -0.021  1.00  0.00     0.021 C 
BRANCH   2   3
ATOM      3  C   UNL     1       1.483  -2.610  -0.264  1.00  0.00     0.116 C 
BRANCH   3   4
ATOM      4  N   UNL     1       2.413  -2.146  -1.268  1.00  0.00    -0.354 N 
ATOM      5  C   UNL     1       2.644  -0.999  -1.944  1.00  0.00     0.247 C 
ATOM      6  O   UNL     1       3.804  -0.984  -2.402  1.00  0.00    -0.272 OA
ATOM      7  H   UNL     1       3.047  -2.853  -1.528  1.00  0.00     0.163 HD
BRANCH   5   8
ATOM      8  C   UNL     1       1.667   0.228  -2.261  1.00  0.00     0.131 C 
ATOM      9  C   UNL     1       0.774   0.394   0.200  1.00  0.00     0.014 C 
ATOM     10  C   UNL     1       0.413   0.510  -1.304  1.00  0.00    -0.002 C 
ATOM     11  C   UNL     1      -0.777  -0.435  -1.648  1.00  0.00     0.014 C 
ATOM     12  C   UNL     1      -0.194   1.949  -1.500  1.00  0.00     0.020 C 
ATOM     13  C   UNL     1       0.746   3.116  -1.250  1.00  0.00     0.070 C 
ATOM     14  C   UNL     1       2.677   1.440  -2.203  1.00  0.00     0.108 C 
ATOM     15  S   UNL     1       2.032   3.119  -2.499  1.00  0.00    -0.159 SA
BRANCH   8  16
ATOM     16  N   UNL     1       1.105   0.091  -3.664  1.00  0.00    -0.369 N 
ATOM     17  H   UNL     1       0.128   0.134  -3.781  1.00  0.00     0.161 HD
BRANCH  16  18
ATOM     18  C   UNL     1       1.901  -0.091  -4.800  1.00  0.00     0.049 A 
ATOM     19  C   UNL     1       2.274   1.046  -5.539  1.00  0.00     0.027 A 
ATOM     20  C   UNL     1       2.359  -1.337  -5.261  1.00  0.00     0.041 A 
ATOM     21  C   UNL     1       3.117   0.962  -6.649  1.00  0.00     0.002 A 
ATOM     22  C   UNL     1       3.221  -1.423  -6.365  1.00  0.00     0.018 A 
ATOM     23  Br  UNL     1       1.726  -2.982  -4.542  1.00  0.00    -0.049 Br
ATOM     24  C   UNL     1       3.608  -0.273  -7.051  1.00  0.00     0.001 A 
ENDBRANCH  16  18
ENDBRANCH   8  16
ENDBRANCH   5   8
ENDBRANCH   3   4
ENDBRANCH   2   3
ENDBRANCH   1   2
BRANCH   1  25
ATOM     25  C   UNL     1       3.529  -3.923   1.669  1.00  0.00     0.002 C 
BRANCH  25  26
ATOM     26  C   UNL     1       2.661  -3.905   2.929  1.00  0.00     0.021 C 
BRANCH  26  27
ATOM     27  C   UNL     1       2.185  -5.269   3.416  1.00  0.00     0.116 C 
BRANCH  27  28
ATOM     28  N   UNL     1       3.278  -6.176   3.710  1.00  0.00    -0.352 N 
ATOM     29  C   UNL     1       3.454  -7.027   4.772  1.00  0.00     0.251 C 
ATOM     30  H   UNL     1       4.005  -6.183   3.046  1.00  0.00     0.163 HD
ATOM     31  O   UNL     1       4.519  -7.620   4.904  1.00  0.00    -0.269 OA
BRANCH  29  32
ATOM     32  C   UNL     1       2.379  -7.223   5.772  1.00  0.00     0.039 A 
ATOM     33  C   UNL     1       2.739  -7.347   7.117  1.00  0.00     0.014 A 
ATOM     34  C   UNL     1       1.037  -7.343   5.398  1.00  0.00     0.014 A 
ATOM     35  C   UNL     1       1.757  -7.566   8.085  1.00  0.00     0.010 A 
ATOM     36  C   UNL     1       0.050  -7.484   6.372  1.00  0.00     0.010 A 
ATOM     37  C   UNL     1       0.402  -7.625   7.722  1.00  0.00    -0.014 A 
BRANCH  37  38
ATOM     38  C   UNL     1      -0.645  -7.893   8.741  1.00  0.00     0.031 A 
ATOM     39  C   UNL     1      -1.439  -9.171   8.688  1.00  0.00     0.074 A 
ATOM     40  C   UNL     1      -0.896  -6.983   9.702  1.00  0.00     0.049 A 
ATOM     41  N   UNL     1      -2.392  -9.588   9.484  1.00  0.00    -0.248 NA
ATOM     42  C   UNL     1      -1.141 -10.091   7.579  1.00  0.00     0.031 C 
ATOM     43  C   UNL     1      -0.229  -5.687   9.836  1.00  0.00     0.029 A 
ATOM     44  N   UNL     1      -1.781  -7.013  10.750  1.00  0.00    -0.354 N 
ATOM     45  C   UNL     1      -2.810 -10.807   8.966  1.00  0.00     0.074 A 
ATOM     46  C   UNL     1      -2.054 -11.034   7.754  1.00  0.00     0.031 C 
ATOM     47  C   UNL     1      -0.704  -5.060  10.925  1.00  0.00     0.029 A 
ATOM     48  C   UNL     1      -1.725  -5.896  11.549  1.00  0.00     0.049 A 
ATOM     49  H   UNL     1      -2.397  -7.763  10.915  1.00  0.00     0.167 HD
ATOM     50  C   UNL     1      -3.720 -11.676   9.467  1.00  0.00     0.037 A 
ATOM     51  C   UNL     1      -2.414  -5.588  12.664  1.00  0.00     0.037 A 
ATOM     52  C   UNL     1      -4.453 -11.464  10.687  1.00  0.00     0.049 A 
ATOM     53  C   UNL     1      -3.409  -6.575  13.210  1.00  0.00     0.074 A 
ATOM     54  C   UNL     1      -5.368 -12.300  11.303  1.00  0.00     0.029 A 
ATOM     55  N   UNL     1      -4.350 -10.331  11.481  1.00  0.00    -0.354 N 
ATOM     56  N   UNL     1      -3.750  -7.752  12.743  1.00  0.00    -0.248 NA
ATOM     57  C   UNL     1      -4.101  -6.197  14.450  1.00  0.00     0.031 C 
ATOM     58  C   UNL     1      -5.844 -11.658  12.452  1.00  0.00     0.029 A 
ATOM     59  C   UNL     1      -5.190 -10.443  12.576  1.00  0.00     0.049 A 
ATOM     60  H   UNL     1      -3.765  -9.561  11.293  1.00  0.00     0.167 HD
ATOM     61  C   UNL     1      -4.665  -8.271  13.651  1.00  0.00     0.074 A 
ATOM     62  C   UNL     1      -4.818  -7.284  14.700  1.00  0.00     0.031 C 
ATOM     63  C   UNL     1      -5.316  -9.459  13.621  1.00  0.00     0.037 A 
BRANCH  50  64
ATOM     64  C   UNL     1      -3.964 -12.941   8.695  1.00  0.00     0.057 A 
ATOM     65  C   UNL     1      -2.999 -13.954   8.614  1.00  0.00     0.134 A 
ATOM     66  C   UNL     1      -5.183 -13.159   8.041  1.00  0.00     0.134 A 
ATOM     67  F   UNL     1      -1.804 -13.804   9.206  1.00  0.00    -0.206 F 
ATOM     68  C   UNL     1      -3.224 -15.123   7.884  1.00  0.00     0.040 A 
ATOM     69  C   UNL     1      -5.431 -14.336   7.332  1.00  0.00     0.040 A 
ATOM     70  F   UNL     1      -6.154 -12.235   8.082  1.00  0.00    -0.206 F 
ATOM     71  C   UNL     1      -4.446 -15.319   7.245  1.00  0.00     0.006 A 
ENDBRANCH  50  64
BRANCH  51  72
ATOM     72  C   UNL     1      -2.153  -4.308  13.369  1.00  0.00     0.057 A 
ATOM     73  C   UNL     1      -1.510  -4.288  14.612  1.00  0.00     0.134 A 
ATOM     74  C   UNL     1      -2.550  -3.079  12.829  1.00  0.00     0.134 A 
ATOM     75  F   UNL     1      -1.122  -5.435  15.189  1.00  0.00    -0.206 F 
ATOM     76  C   UNL     1      -1.290  -3.096  15.304  1.00  0.00     0.040 A 
ATOM     77  C   UNL     1      -2.314  -1.877  13.498  1.00  0.00     0.040 A 
ATOM     78  F   UNL     1      -3.163  -3.030  11.637  1.00  0.00    -0.206 F 
ATOM     79  C   UNL     1      -1.690  -1.885  14.744  1.00  0.00     0.006 A 
ENDBRANCH  51  72
BRANCH  63  80
ATOM     80  C   UNL     1      -6.209  -9.780  14.784  1.00  0.00     0.057 A 
ATOM     81  C   UNL     1      -7.432  -9.129  14.986  1.00  0.00     0.134 A 
ATOM     82  C   UNL     1      -5.846 -10.776  15.701  1.00  0.00     0.134 A 
ATOM     83  F   UNL     1      -7.832  -8.158  14.151  1.00  0.00    -0.206 F 
ATOM     84  C   UNL     1      -8.248  -9.435  16.077  1.00  0.00     0.040 A 
ATOM     85  C   UNL     1      -6.666 -11.109  16.779  1.00  0.00     0.040 A 
ATOM     86  F   UNL     1      -4.692 -11.445  15.559  1.00  0.00    -0.206 F 
ATOM     87  C   UNL     1      -7.868 -10.431  16.974  1.00  0.00     0.006 A 
ENDBRANCH  63  80
ENDBRANCH  37  38
ENDBRANCH  29  32
ENDBRANCH  27  28
ENDBRANCH  26  27
ENDBRANCH  25  26
ENDBRANCH   1  25
TORSDOF 15
