REMARK SMILES O=C(NCCCCCCNC(=O)c1ccc([C@H]2CCCN(C(=O)c3ccc4[nH]ccc4c3)C2)cc1)c1ccc(-c2c3nc(c(-c4c(F)cccc4F)c4ccc([nH]4)c(-c4c(F)cccc4F)c4nc(c(-c5c(F)cccc5F)c5ccc2[nH]5)C=C4)C=C3)cc1
REMARK SMILES IDX 7 1 6 2 5 3 4 4 3 5 1 6 2 7 36 9 37 10 89 11 38 12 88 13
REMARK SMILES IDX 39 14 40 15 41 16 82 17 42 18 87 19 81 20 83 21 43 22 86 23
REMARK SMILES IDX 80 24 79 25 44 27 70 28 53 29 69 30 54 31 57 32 68 33 84 34
REMARK SMILES IDX 55 35 56 36 67 38 85 39 58 40 45 41 46 42 51 43 47 44 48 45
REMARK SMILES IDX 50 46 52 47 49 48 71 49 72 50 77 51 73 52 74 53 76 54 78 55
REMARK SMILES IDX 75 56 59 57 60 58 65 59 61 60 62 61 64 62 66 63 63 64 8 65
REMARK SMILES IDX 9 66 10 67 11 68 12 70 13 71 14 72 35 73 15 74 34 75 16 76
REMARK SMILES IDX 17 77 18 78 33 79 19 80 21 81 20 82 22 83 23 84 24 85 25 86
REMARK SMILES IDX 32 87 26 88 31 89 27 90 30 91 28 92 29 93
REMARK H PARENT 3 8 83 26 57 37 10 69 28 94
REMARK Flexibility Score: inf
ROOT
ATOM      1  C   UNL     1      20.465   5.098   8.457  1.00  0.00     0.002 C 
ENDROOT
BRANCH   1   2
ATOM      2  C   UNL     1      20.790   3.615   8.660  1.00  0.00     0.002 C 
BRANCH   2   3
ATOM      3  C   UNL     1      21.361   2.906   7.433  1.00  0.00     0.021 C 
BRANCH   3   4
ATOM      4  C   UNL     1      22.603   3.563   6.851  1.00  0.00     0.116 C 
BRANCH   4   5
ATOM      5  N   UNL     1      23.727   3.526   7.772  1.00  0.00    -0.352 N 
ATOM      6  O   UNL     1      25.776   2.899   8.488  1.00  0.00    -0.269 OA
ATOM      7  C   UNL     1      24.990   3.030   7.559  1.00  0.00     0.251 C 
ATOM      8  H   UNL     1      23.561   3.905   8.665  1.00  0.00     0.163 HD
BRANCH   7   9
ATOM      9  C   UNL     1      25.388   2.649   6.188  1.00  0.00     0.039 A 
ATOM     10  C   UNL     1      25.112   3.501   5.115  1.00  0.00     0.014 A 
ATOM     11  C   UNL     1      26.055   1.440   5.979  1.00  0.00     0.014 A 
ATOM     12  C   UNL     1      25.410   3.099   3.821  1.00  0.00     0.010 A 
ATOM     13  C   UNL     1      26.435   1.078   4.685  1.00  0.00     0.010 A 
ATOM     14  C   UNL     1      26.114   1.906   3.598  1.00  0.00    -0.014 A 
BRANCH  14  15
ATOM     15  C   UNL     1      26.642   1.625   2.241  1.00  0.00     0.031 A 
ATOM     16  C   UNL     1      26.176   0.443   1.444  1.00  0.00     0.074 A 
ATOM     17  C   UNL     1      27.575   2.463   1.748  1.00  0.00     0.049 A 
ATOM     18  N   UNL     1      26.575   0.047   0.262  1.00  0.00    -0.248 NA
ATOM     19  C   UNL     1      25.138  -0.408   2.044  1.00  0.00     0.031 C 
ATOM     20  C   UNL     1      28.113   3.632   2.452  1.00  0.00     0.029 A 
ATOM     21  N   UNL     1      28.241   2.466   0.550  1.00  0.00    -0.354 N 
ATOM     22  C   UNL     1      25.856  -1.108  -0.016  1.00  0.00     0.074 A 
ATOM     23  C   UNL     1      25.001  -1.357   1.125  1.00  0.00     0.031 C 
ATOM     24  C   UNL     1      29.006   4.250   1.667  1.00  0.00     0.029 A 
ATOM     25  C   UNL     1      29.162   3.481   0.441  1.00  0.00     0.049 A 
ATOM     26  H   UNL     1      28.076   1.807  -0.162  1.00  0.00     0.167 HD
ATOM     27  C   UNL     1      25.914  -1.882  -1.126  1.00  0.00     0.037 A 
ATOM     28  C   UNL     1      30.067   3.740  -0.520  1.00  0.00     0.037 A 
ATOM     29  C   UNL     1      26.761  -1.609  -2.260  1.00  0.00     0.049 A 
ATOM     30  C   UNL     1      30.131   2.833  -1.713  1.00  0.00     0.074 A 
ATOM     31  C   UNL     1      26.831  -2.292  -3.463  1.00  0.00     0.029 A 
ATOM     32  N   UNL     1      27.695  -0.587  -2.326  1.00  0.00    -0.354 N 
ATOM     33  N   UNL     1      29.387   1.793  -2.000  1.00  0.00    -0.248 NA
ATOM     34  C   UNL     1      31.166   3.127  -2.712  1.00  0.00     0.031 C 
ATOM     35  C   UNL     1      27.855  -1.726  -4.227  1.00  0.00     0.029 A 
ATOM     36  C   UNL     1      28.382  -0.653  -3.527  1.00  0.00     0.049 A 
ATOM     37  H   UNL     1      27.848   0.086  -1.623  1.00  0.00     0.167 HD
ATOM     38  C   UNL     1      29.856   1.315  -3.214  1.00  0.00     0.074 A 
ATOM     39  C   UNL     1      30.926   2.200  -3.627  1.00  0.00     0.031 C 
ATOM     40  C   UNL     1      29.446   0.234  -3.920  1.00  0.00     0.037 A 
BRANCH  27  41
ATOM     41  C   UNL     1      25.063  -3.117  -1.181  1.00  0.00     0.057 A 
ATOM     42  C   UNL     1      23.679  -3.058  -1.382  1.00  0.00     0.134 A 
ATOM     43  C   UNL     1      25.657  -4.386  -1.147  1.00  0.00     0.134 A 
ATOM     44  F   UNL     1      23.047  -1.875  -1.420  1.00  0.00    -0.206 F 
ATOM     45  C   UNL     1      22.916  -4.217  -1.546  1.00  0.00     0.040 A 
ATOM     46  C   UNL     1      24.910  -5.550  -1.332  1.00  0.00     0.040 A 
ATOM     47  F   UNL     1      26.981  -4.513  -0.967  1.00  0.00    -0.206 F 
ATOM     48  C   UNL     1      23.534  -5.466  -1.534  1.00  0.00     0.006 A 
ENDBRANCH  27  41
BRANCH  28  49
ATOM     49  C   UNL     1      31.020   4.867  -0.363  1.00  0.00     0.057 A 
ATOM     50  C   UNL     1      30.999   5.965  -1.229  1.00  0.00     0.134 A 
ATOM     51  C   UNL     1      31.998   4.858   0.641  1.00  0.00     0.134 A 
ATOM     52  F   UNL     1      30.097   6.026  -2.220  1.00  0.00    -0.206 F 
ATOM     53  C   UNL     1      31.933   6.997  -1.124  1.00  0.00     0.040 A 
ATOM     54  C   UNL     1      32.915   5.899   0.781  1.00  0.00     0.040 A 
ATOM     55  F   UNL     1      32.067   3.839   1.511  1.00  0.00    -0.206 F 
ATOM     56  C   UNL     1      32.893   6.966  -0.113  1.00  0.00     0.006 A 
ENDBRANCH  28  49
BRANCH  40  57
ATOM     57  C   UNL     1      30.152  -0.042  -5.214  1.00  0.00     0.057 A 
ATOM     58  C   UNL     1      31.468  -0.521  -5.245  1.00  0.00     0.134 A 
ATOM     59  C   UNL     1      29.499   0.140  -6.440  1.00  0.00     0.134 A 
ATOM     60  F   UNL     1      32.154  -0.698  -4.106  1.00  0.00    -0.206 F 
ATOM     61  C   UNL     1      32.116  -0.792  -6.451  1.00  0.00     0.040 A 
ATOM     62  C   UNL     1      30.126  -0.156  -7.650  1.00  0.00     0.040 A 
ATOM     63  F   UNL     1      28.236   0.591  -6.479  1.00  0.00    -0.206 F 
ATOM     64  C   UNL     1      31.441  -0.618  -7.658  1.00  0.00     0.006 A 
ENDBRANCH  40  57
ENDBRANCH  14  15
ENDBRANCH   7   9
ENDBRANCH   4   5
ENDBRANCH   3   4
ENDBRANCH   2   3
ENDBRANCH   1   2
BRANCH   1  65
ATOM     65  C   UNL     1      19.528   5.403   7.286  1.00  0.00     0.021 C 
BRANCH  65  66
ATOM     66  C   UNL     1      18.190   4.673   7.338  1.00  0.00     0.116 C 
BRANCH  66  67
ATOM     67  N   UNL     1      17.421   5.034   8.518  1.00  0.00    -0.352 N 
ATOM     68  C   UNL     1      16.135   5.507   8.594  1.00  0.00     0.251 C 
ATOM     69  H   UNL     1      17.886   4.925   9.379  1.00  0.00     0.163 HD
ATOM     70  O   UNL     1      15.697   5.966   9.643  1.00  0.00    -0.269 OA
BRANCH  68  71
ATOM     71  C   UNL     1      15.289   5.469   7.387  1.00  0.00     0.039 A 
ATOM     72  C   UNL     1      14.626   6.622   6.974  1.00  0.00     0.014 A 
ATOM     73  C   UNL     1      15.163   4.287   6.660  1.00  0.00     0.014 A 
ATOM     74  C   UNL     1      13.911   6.612   5.774  1.00  0.00     0.005 A 
ATOM     75  C   UNL     1      14.470   4.289   5.452  1.00  0.00     0.005 A 
ATOM     76  C   UNL     1      13.866   5.460   4.964  1.00  0.00    -0.043 A 
BRANCH  76  77
ATOM     77  C   UNL     1      13.146   5.499   3.617  1.00  0.00     0.039 C 
ATOM     78  C   UNL     1      13.625   6.685   2.742  1.00  0.00     0.012 C 
ATOM     79  C   UNL     1      13.284   4.194   2.801  1.00  0.00     0.128 C 
ATOM     80  C   UNL     1      12.943   6.705   1.370  1.00  0.00     0.022 C 
ATOM     81  N   UNL     1      12.614   4.289   1.514  1.00  0.00    -0.338 N 
ATOM     82  C   UNL     1      13.083   5.369   0.650  1.00  0.00     0.120 C 
BRANCH  81  83
ATOM     83  C   UNL     1      11.561   3.423   1.251  1.00  0.00     0.253 C 
ATOM     84  O   UNL     1      11.157   2.566   2.033  1.00  0.00    -0.269 OA
BRANCH  83  85
ATOM     85  C   UNL     1      10.855   3.548  -0.030  1.00  0.00     0.040 A 
ATOM     86  C   UNL     1       9.617   4.190  -0.043  1.00  0.00     0.016 A 
ATOM     87  C   UNL     1      11.410   2.976  -1.182  1.00  0.00     0.024 A 
ATOM     88  C   UNL     1       8.910   4.330  -1.238  1.00  0.00     0.027 A 
ATOM     89  C   UNL     1      10.688   3.075  -2.384  1.00  0.00     0.000 A 
ATOM     90  C   UNL     1       9.474   3.766  -2.390  1.00  0.00     0.045 A 
ATOM     91  C   UNL     1      10.893   2.579  -3.701  1.00  0.00     0.028 A 
ATOM     92  N   UNL     1       9.004   3.743  -3.683  1.00  0.00    -0.361 N 
ATOM     93  C   UNL     1       9.831   2.990  -4.473  1.00  0.00     0.083 A 
ATOM     94  H   UNL     1       8.190   4.201  -3.996  1.00  0.00     0.166 HD
ENDBRANCH  83  85
ENDBRANCH  81  83
ENDBRANCH  76  77
ENDBRANCH  68  71
ENDBRANCH  66  67
ENDBRANCH  65  66
ENDBRANCH   1  65
TORSDOF 16
