REMARK SMILES C[C@@H](CC(=O)NCCCCCCNC(=O)c1ccc(-c2c3nc(c(-c4c(F)cccc4F)c4ccc([nH]4)c(-c4c(F)cccc4F)c4nc(c(-c5c(F)cccc5F)c5ccc2[nH]5)C=C4)C=C3)cc1)NC(=O)CCCN1C(=O)CN(C)C1=O
REMARK SMILES IDX 7 1 6 2 4 3 5 4 3 6 2 7 1 8 70 9 71 10 72 12 73 13 74 14
REMARK SMILES IDX 75 15 76 16 77 17 82 18 78 19 79 20 80 21 83 22 81 23 8 24
REMARK SMILES IDX 9 25 10 26 11 27 12 28 13 29 14 30 15 32 16 33 17 34 69 35
REMARK SMILES IDX 18 36 68 37 19 38 20 39 21 40 62 41 22 42 67 43 61 44 63 45
REMARK SMILES IDX 23 46 66 47 60 48 59 49 24 51 50 52 33 53 49 54 34 55 37 56
REMARK SMILES IDX 48 57 64 58 35 59 36 60 47 62 65 63 38 64 25 65 26 66 31 67
REMARK SMILES IDX 27 68 28 69 30 70 32 71 29 72 51 73 52 74 57 75 53 76 54 77
REMARK SMILES IDX 56 78 58 79 55 80 39 81 40 82 45 83 41 84 42 85 44 86 46 87
REMARK SMILES IDX 43 88
REMARK H PARENT 6 5 70 11 13 31 63 50 37 61
REMARK Flexibility Score: inf
ROOT
ATOM      1  C   UNL     1       1.769  -0.285   2.667  1.00  0.00     0.116 C 
ENDROOT
BRANCH   1   2
ATOM      2  N   UNL     1       0.789  -1.303   2.992  1.00  0.00    -0.356 N 
ATOM      3  C   UNL     1       0.140  -2.195   2.192  1.00  0.00     0.222 C 
ATOM      4  O   UNL     1      -0.789  -2.841   2.677  1.00  0.00    -0.275 OA
ATOM      5  H   UNL     1       0.554  -1.359   3.947  1.00  0.00     0.163 HD
BRANCH   3   6
ATOM      6  C   UNL     1       0.595  -2.425   0.771  1.00  0.00     0.124 C 
BRANCH   6   7
ATOM      7  C   UNL     1      -0.045  -1.571  -0.324  1.00  0.00     0.088 C 
ATOM      8  C   UNL     1       0.056  -0.064  -0.151  1.00  0.00     0.031 C 
BRANCH   7   9
ATOM      9  N   UNL     1      -1.423  -1.867  -0.639  1.00  0.00    -0.353 N 
ATOM     10  C   UNL     1      -2.022  -1.612  -1.841  1.00  0.00     0.220 C 
ATOM     11  H   UNL     1      -1.972  -2.283   0.064  1.00  0.00     0.163 HD
ATOM     12  O   UNL     1      -3.211  -1.283  -1.829  1.00  0.00    -0.275 OA
BRANCH  10  13
ATOM     13  C   UNL     1      -1.292  -1.836  -3.168  1.00  0.00     0.102 C 
BRANCH  13  14
ATOM     14  C   UNL     1      -0.234  -0.882  -3.734  1.00  0.00     0.032 C 
BRANCH  14  15
ATOM     15  C   UNL     1       1.241  -0.815  -3.295  1.00  0.00     0.131 C 
BRANCH  15  16
ATOM     16  N   UNL     1       2.123  -1.980  -3.271  1.00  0.00    -0.263 N 
ATOM     17  C   UNL     1       3.489  -1.810  -3.337  1.00  0.00     0.250 C 
ATOM     18  C   UNL     1       1.867  -3.263  -2.884  1.00  0.00     0.326 C 
ATOM     19  O   UNL     1       4.083  -0.749  -3.486  1.00  0.00    -0.272 OA
ATOM     20  C   UNL     1       4.181  -3.150  -3.175  1.00  0.00     0.221 C 
ATOM     21  N   UNL     1       3.055  -3.957  -2.808  1.00  0.00    -0.318 N 
ATOM     22  O   UNL     1       0.801  -3.763  -2.567  1.00  0.00    -0.248 OA
ATOM     23  C   UNL     1       3.170  -5.343  -2.420  1.00  0.00     0.149 C 
ENDBRANCH  15  16
ENDBRANCH  14  15
ENDBRANCH  13  14
ENDBRANCH  10  13
ENDBRANCH   7   9
ENDBRANCH   6   7
ENDBRANCH   3   6
ENDBRANCH   1   2
BRANCH   1  24
ATOM     24  C   UNL     1       1.122   1.101   2.715  1.00  0.00     0.021 C 
BRANCH  24  25
ATOM     25  C   UNL     1       0.852   1.613   4.127  1.00  0.00     0.002 C 
BRANCH  25  26
ATOM     26  C   UNL     1       2.113   1.982   4.902  1.00  0.00     0.002 C 
BRANCH  26  27
ATOM     27  C   UNL     1       3.018   2.987   4.188  1.00  0.00     0.021 C 
BRANCH  27  28
ATOM     28  C   UNL     1       2.299   4.248   3.720  1.00  0.00     0.116 C 
BRANCH  28  29
ATOM     29  N   UNL     1       1.723   4.976   4.840  1.00  0.00    -0.352 N 
ATOM     30  C   UNL     1       2.051   6.228   5.295  1.00  0.00     0.251 C 
ATOM     31  H   UNL     1       1.007   4.513   5.332  1.00  0.00     0.163 HD
ATOM     32  O   UNL     1       1.692   6.617   6.400  1.00  0.00    -0.269 OA
BRANCH  30  33
ATOM     33  C   UNL     1       2.856   7.098   4.420  1.00  0.00     0.039 A 
ATOM     34  C   UNL     1       4.004   7.710   4.923  1.00  0.00     0.014 A 
ATOM     35  C   UNL     1       2.481   7.261   3.083  1.00  0.00     0.014 A 
ATOM     36  C   UNL     1       4.813   8.453   4.062  1.00  0.00     0.010 A 
ATOM     37  C   UNL     1       3.329   7.931   2.213  1.00  0.00     0.010 A 
ATOM     38  C   UNL     1       4.496   8.544   2.697  1.00  0.00    -0.014 A 
BRANCH  38  39
ATOM     39  C   UNL     1       5.343   9.303   1.746  1.00  0.00     0.031 A 
ATOM     40  C   UNL     1       4.765  10.496   1.038  1.00  0.00     0.074 A 
ATOM     41  C   UNL     1       6.584   8.871   1.453  1.00  0.00     0.049 A 
ATOM     42  N   UNL     1       5.273  11.210   0.068  1.00  0.00    -0.248 NA
ATOM     43  C   UNL     1       3.418  10.922   1.457  1.00  0.00     0.031 C 
ATOM     44  C   UNL     1       7.242   7.710   2.053  1.00  0.00     0.029 A 
ATOM     45  N   UNL     1       7.507   9.351   0.558  1.00  0.00    -0.354 N 
ATOM     46  C   UNL     1       4.303  12.151  -0.253  1.00  0.00     0.074 A 
ATOM     47  C   UNL     1       3.155  11.882   0.584  1.00  0.00     0.031 C 
ATOM     48  C   UNL     1       8.467   7.575   1.519  1.00  0.00     0.029 A 
ATOM     49  C   UNL     1       8.662   8.607   0.506  1.00  0.00     0.049 A 
ATOM     50  H   UNL     1       7.356  10.151   0.005  1.00  0.00     0.167 HD
ATOM     51  C   UNL     1       4.372  13.162  -1.150  1.00  0.00     0.037 A 
ATOM     52  C   UNL     1       9.744   8.734  -0.285  1.00  0.00     0.037 A 
ATOM     53  C   UNL     1       5.526  13.436  -1.962  1.00  0.00     0.049 A 
ATOM     54  C   UNL     1       9.785   9.848  -1.297  1.00  0.00     0.074 A 
ATOM     55  C   UNL     1       5.718  14.466  -2.865  1.00  0.00     0.029 A 
ATOM     56  N   UNL     1       6.684  12.672  -1.970  1.00  0.00    -0.354 N 
ATOM     57  N   UNL     1       8.884  10.765  -1.554  1.00  0.00    -0.248 NA
ATOM     58  C   UNL     1      10.993   9.946  -2.130  1.00  0.00     0.031 C 
ATOM     59  C   UNL     1       6.970  14.294  -3.461  1.00  0.00     0.029 A 
ATOM     60  C   UNL     1       7.585  13.195  -2.882  1.00  0.00     0.049 A 
ATOM     61  H   UNL     1       6.840  11.877  -1.412  1.00  0.00     0.167 HD
ATOM     62  C   UNL     1       9.431  11.573  -2.543  1.00  0.00     0.074 A 
ATOM     63  C   UNL     1      10.743  11.037  -2.841  1.00  0.00     0.031 C 
ATOM     64  C   UNL     1       8.898  12.663  -3.146  1.00  0.00     0.037 A 
BRANCH  51  65
ATOM     65  C   UNL     1       3.164  14.042  -1.300  1.00  0.00     0.057 A 
ATOM     66  C   UNL     1       2.751  14.915  -0.284  1.00  0.00     0.134 A 
ATOM     67  C   UNL     1       2.421  14.038  -2.487  1.00  0.00     0.134 A 
ATOM     68  F   UNL     1       3.411  14.961   0.884  1.00  0.00    -0.206 F 
ATOM     69  C   UNL     1       1.627  15.729  -0.432  1.00  0.00     0.040 A 
ATOM     70  C   UNL     1       1.314  14.870  -2.659  1.00  0.00     0.040 A 
ATOM     71  F   UNL     1       2.763  13.231  -3.503  1.00  0.00    -0.206 F 
ATOM     72  C   UNL     1       0.909  15.713  -1.626  1.00  0.00     0.006 A 
ENDBRANCH  51  65
BRANCH  52  73
ATOM     73  C   UNL     1      10.884   7.791  -0.148  1.00  0.00     0.057 A 
ATOM     74  C   UNL     1      12.121   8.222   0.345  1.00  0.00     0.134 A 
ATOM     75  C   UNL     1      10.771   6.445  -0.515  1.00  0.00     0.134 A 
ATOM     76  F   UNL     1      12.297   9.504   0.699  1.00  0.00    -0.206 F 
ATOM     77  C   UNL     1      13.211   7.356   0.445  1.00  0.00     0.040 A 
ATOM     78  C   UNL     1      11.845   5.561  -0.394  1.00  0.00     0.040 A 
ATOM     79  F   UNL     1       9.611   5.965  -0.985  1.00  0.00    -0.206 F 
ATOM     80  C   UNL     1      13.073   6.019   0.079  1.00  0.00     0.006 A 
ENDBRANCH  52  73
BRANCH  64  81
ATOM     81  C   UNL     1       9.747  13.395  -4.143  1.00  0.00     0.057 A 
ATOM     82  C   UNL     1      10.011  12.880  -5.418  1.00  0.00     0.134 A 
ATOM     83  C   UNL     1      10.236  14.675  -3.847  1.00  0.00     0.134 A 
ATOM     84  F   UNL     1       9.582  11.656  -5.760  1.00  0.00    -0.206 F 
ATOM     85  C   UNL     1      10.740  13.609  -6.359  1.00  0.00     0.040 A 
ATOM     86  C   UNL     1      10.940  15.424  -4.789  1.00  0.00     0.040 A 
ATOM     87  F   UNL     1      10.009  15.230  -2.647  1.00  0.00    -0.206 F 
ATOM     88  C   UNL     1      11.196  14.890  -6.050  1.00  0.00     0.006 A 
ENDBRANCH  64  81
ENDBRANCH  38  39
ENDBRANCH  30  33
ENDBRANCH  28  29
ENDBRANCH  27  28
ENDBRANCH  26  27
ENDBRANCH  25  26
ENDBRANCH  24  25
ENDBRANCH   1  24
TORSDOF 19
