REMARK SMILES COc1ccc(NS(=O)(=O)c2ccc(Cl)c(C(=O)NCCCCCCNC(=O)c3ccc(-c4c5nc(c(-c6c(F)cccc6F)c6ccc([nH]6)c(-c6c(F)cccc6F)c6nc(c(-c7c(F)cccc7F)c7ccc4[nH]7)C=C6)C=C5)cc3)c2)cc1Cl
REMARK SMILES IDX 21 1 20 2 19 3 17 4 18 5 16 7 11 8 12 9 83 10 13 11 14 12
REMARK SMILES IDX 15 13 8 14 9 15 10 16 7 17 6 19 3 20 4 21 85 22 5 23 84 24
REMARK SMILES IDX 86 25 2 26 1 27 22 28 23 29 24 30 25 31 26 32 27 33 28 35
REMARK SMILES IDX 29 36 30 37 82 38 31 39 81 40 32 41 33 42 34 43 75 44 35 45
REMARK SMILES IDX 80 46 74 47 76 48 36 49 79 50 73 51 72 52 37 54 63 55 46 56
REMARK SMILES IDX 62 57 47 58 50 59 61 60 77 61 48 62 49 63 60 65 78 66 51 67
REMARK SMILES IDX 38 68 39 69 44 70 40 71 41 72 43 73 45 74 42 75 64 76 65 77
REMARK SMILES IDX 70 78 66 79 67 80 69 81 71 82 68 83 52 84 53 85 58 86 54 87
REMARK SMILES IDX 55 88 57 89 59 90 56 91
REMARK H PARENT 19 6 7 18 26 34 76 53 50 64
REMARK Flexibility Score: inf
ROOT
ATOM      1  C   UNL     1      -5.609   0.590  -6.225  1.00  0.00     0.021 C 
ENDROOT
BRANCH   1   2
ATOM      2  C   UNL     1      -4.866   1.484  -5.241  1.00  0.00     0.116 C 
BRANCH   2   3
ATOM      3  N   UNL     1      -3.518   1.043  -4.976  1.00  0.00    -0.352 N 
ATOM      4  C   UNL     1      -2.361   1.738  -4.769  1.00  0.00     0.252 C 
ATOM      5  O   UNL     1      -1.339   1.075  -4.583  1.00  0.00    -0.269 OA
ATOM      6  H   UNL     1      -3.413   0.065  -4.938  1.00  0.00     0.163 HD
BRANCH   4   7
ATOM      7  C   UNL     1      -2.233   3.221  -4.809  1.00  0.00     0.059 A 
ATOM      8  C   UNL     1      -0.604   5.003  -5.149  1.00  0.00     0.088 A 
ATOM      9  C   UNL     1      -1.510   5.961  -4.705  1.00  0.00     0.024 A 
ATOM     10  C   UNL     1      -0.997   3.670  -5.314  1.00  0.00     0.037 A 
ATOM     11  C   UNL     1      -2.755   5.536  -4.246  1.00  0.00     0.023 A 
ATOM     12  C   UNL     1      -3.077   4.165  -4.205  1.00  0.00     0.053 A 
ATOM     13  Cl  UNL     1      -4.402   3.767  -3.170  1.00  0.00    -0.083 Cl
BRANCH   8  14
ATOM     14  S   UNL     1       1.121   5.404  -5.303  1.00  0.00     0.261 S 
ATOM     15  O   UNL     1       1.220   6.831  -5.521  1.00  0.00    -0.201 OA
ATOM     16  O   UNL     1       1.732   4.470  -6.223  1.00  0.00    -0.201 OA
BRANCH  14  17
ATOM     17  N   UNL     1       1.760   5.120  -3.743  1.00  0.00    -0.280 N 
ATOM     18  H   UNL     1       2.219   5.844  -3.258  1.00  0.00     0.180 HD
BRANCH  17  19
ATOM     19  C   UNL     1       1.625   3.824  -3.141  1.00  0.00     0.051 A 
ATOM     20  C   UNL     1       1.290   1.303  -1.963  1.00  0.00     0.137 A 
ATOM     21  C   UNL     1       0.248   2.228  -1.938  1.00  0.00     0.050 A 
ATOM     22  C   UNL     1       2.498   1.636  -2.586  1.00  0.00     0.085 A 
ATOM     23  C   UNL     1       0.433   3.496  -2.490  1.00  0.00     0.030 A 
ATOM     24  C   UNL     1       2.663   2.893  -3.188  1.00  0.00     0.051 A 
ATOM     25  Cl  UNL     1       3.825   0.532  -2.597  1.00  0.00    -0.080 Cl
BRANCH  20  26
ATOM     26  O   UNL     1       1.075   0.048  -1.456  1.00  0.00    -0.495 OA
ATOM     27  C   UNL     1       1.117   0.046  -0.030  1.00  0.00     0.278 C 
ENDBRANCH  20  26
ENDBRANCH  17  19
ENDBRANCH  14  17
ENDBRANCH   8  14
ENDBRANCH   4   7
ENDBRANCH   2   3
ENDBRANCH   1   2
BRANCH   1  28
ATOM     28  C   UNL     1      -5.870  -0.852  -5.770  1.00  0.00     0.002 C 
BRANCH  28  29
ATOM     29  C   UNL     1      -6.529  -1.053  -4.402  1.00  0.00     0.002 C 
BRANCH  29  30
ATOM     30  C   UNL     1      -7.784  -0.231  -4.106  1.00  0.00     0.021 C 
BRANCH  30  31
ATOM     31  C   UNL     1      -8.886  -0.276  -5.157  1.00  0.00     0.116 C 
BRANCH  31  32
ATOM     32  N   UNL     1      -9.416  -1.608  -5.378  1.00  0.00    -0.352 N 
ATOM     33  C   UNL     1     -10.722  -2.030  -5.429  1.00  0.00     0.251 C 
ATOM     34  H   UNL     1      -8.741  -2.313  -5.510  1.00  0.00     0.163 HD
ATOM     35  O   UNL     1     -10.977  -3.227  -5.523  1.00  0.00    -0.269 OA
BRANCH  33  36
ATOM     36  C   UNL     1     -11.830  -1.051  -5.338  1.00  0.00     0.039 A 
ATOM     37  C   UNL     1     -12.909  -1.343  -4.498  1.00  0.00     0.014 A 
ATOM     38  C   UNL     1     -11.822   0.135  -6.077  1.00  0.00     0.014 A 
ATOM     39  C   UNL     1     -13.948  -0.420  -4.352  1.00  0.00     0.010 A 
ATOM     40  C   UNL     1     -12.825   1.084  -5.880  1.00  0.00     0.010 A 
ATOM     41  C   UNL     1     -13.898   0.816  -5.017  1.00  0.00    -0.014 A 
BRANCH  41  42
ATOM     42  C   UNL     1     -14.960   1.836  -4.819  1.00  0.00     0.031 A 
ATOM     43  C   UNL     1     -15.849   2.239  -5.963  1.00  0.00     0.074 A 
ATOM     44  C   UNL     1     -15.086   2.443  -3.623  1.00  0.00     0.049 A 
ATOM     45  N   UNL     1     -16.783   3.155  -6.001  1.00  0.00    -0.248 NA
ATOM     46  C   UNL     1     -15.645   1.536  -7.239  1.00  0.00     0.031 C 
ATOM     47  C   UNL     1     -14.258   2.174  -2.445  1.00  0.00     0.029 A 
ATOM     48  N   UNL     1     -15.952   3.421  -3.202  1.00  0.00    -0.354 N 
ATOM     49  C   UNL     1     -17.267   3.148  -7.303  1.00  0.00     0.074 A 
ATOM     50  C   UNL     1     -16.491   2.171  -8.036  1.00  0.00     0.031 C 
ATOM     51  C   UNL     1     -14.669   2.954  -1.432  1.00  0.00     0.029 A 
ATOM     52  C   UNL     1     -15.763   3.802  -1.896  1.00  0.00     0.049 A 
ATOM     53  H   UNL     1     -16.644   3.814  -3.783  1.00  0.00     0.167 HD
ATOM     54  C   UNL     1     -18.278   3.876  -7.835  1.00  0.00     0.037 A 
ATOM     55  C   UNL     1     -16.394   4.733  -1.157  1.00  0.00     0.037 A 
ATOM     56  C   UNL     1     -19.067   4.828  -7.099  1.00  0.00     0.049 A 
ATOM     57  C   UNL     1     -17.513   5.527  -1.771  1.00  0.00     0.074 A 
ATOM     58  C   UNL     1     -20.152   5.570  -7.535  1.00  0.00     0.029 A 
ATOM     59  N   UNL     1     -18.857   5.170  -5.772  1.00  0.00    -0.354 N 
ATOM     60  N   UNL     1     -18.000   5.465  -2.986  1.00  0.00    -0.248 NA
ATOM     61  C   UNL     1     -18.175   6.517  -0.909  1.00  0.00     0.031 C 
ATOM     62  C   UNL     1     -20.573   6.389  -6.483  1.00  0.00     0.029 A 
ATOM     63  C   UNL     1     -19.779   6.126  -5.379  1.00  0.00     0.049 A 
ATOM     64  H   UNL     1     -18.156   4.790  -5.195  1.00  0.00     0.167 HD
ATOM     65  C   UNL     1     -19.040   6.385  -3.027  1.00  0.00     0.074 A 
ATOM     66  C   UNL     1     -19.122   6.982  -1.710  1.00  0.00     0.031 C 
ATOM     67  C   UNL     1     -19.854   6.705  -4.062  1.00  0.00     0.037 A 
BRANCH  54  68
ATOM     68  C   UNL     1     -18.594   3.665  -9.287  1.00  0.00     0.057 A 
ATOM     69  C   UNL     1     -19.201   2.489  -9.747  1.00  0.00     0.134 A 
ATOM     70  C   UNL     1     -18.325   4.665 -10.231  1.00  0.00     0.134 A 
ATOM     71  F   UNL     1     -19.475   1.488  -8.897  1.00  0.00    -0.206 F 
ATOM     72  C   UNL     1     -19.509   2.305 -11.096  1.00  0.00     0.040 A 
ATOM     73  C   UNL     1     -18.651   4.503 -11.579  1.00  0.00     0.040 A 
ATOM     74  F   UNL     1     -17.750   5.818  -9.857  1.00  0.00    -0.206 F 
ATOM     75  C   UNL     1     -19.240   3.318 -12.015  1.00  0.00     0.006 A 
ENDBRANCH  54  68
BRANCH  55  76
ATOM     76  C   UNL     1     -15.998   4.955   0.257  1.00  0.00     0.057 A 
ATOM     77  C   UNL     1     -16.838   4.572   1.309  1.00  0.00     0.134 A 
ATOM     78  C   UNL     1     -14.782   5.562   0.590  1.00  0.00     0.134 A 
ATOM     79  F   UNL     1     -18.026   4.004   1.052  1.00  0.00    -0.206 F 
ATOM     80  C   UNL     1     -16.492   4.803   2.642  1.00  0.00     0.040 A 
ATOM     81  C   UNL     1     -14.412   5.776   1.919  1.00  0.00     0.040 A 
ATOM     82  F   UNL     1     -13.930   5.945  -0.373  1.00  0.00    -0.206 F 
ATOM     83  C   UNL     1     -15.273   5.403   2.949  1.00  0.00     0.006 A 
ENDBRANCH  55  76
BRANCH  67  84
ATOM     84  C   UNL     1     -20.926   7.722  -3.803  1.00  0.00     0.057 A 
ATOM     85  C   UNL     1     -20.633   9.084  -3.659  1.00  0.00     0.134 A 
ATOM     86  C   UNL     1     -22.271   7.337  -3.734  1.00  0.00     0.134 A 
ATOM     87  F   UNL     1     -19.363   9.514  -3.702  1.00  0.00    -0.206 F 
ATOM     88  C   UNL     1     -21.639  10.025  -3.436  1.00  0.00     0.040 A 
ATOM     89  C   UNL     1     -23.287   8.271  -3.535  1.00  0.00     0.040 A 
ATOM     90  F   UNL     1     -22.619   6.048  -3.871  1.00  0.00    -0.206 F 
ATOM     91  C   UNL     1     -22.972   9.620  -3.380  1.00  0.00     0.006 A 
ENDBRANCH  67  84
ENDBRANCH  41  42
ENDBRANCH  33  36
ENDBRANCH  31  32
ENDBRANCH  30  31
ENDBRANCH  29  30
ENDBRANCH  28  29
ENDBRANCH   1  28
TORSDOF 17
