REMARK SMILES O=C(NCCCCCCNC(=O)c1cccc(Nc2ccnc3ccc(Cl)cc23)c1)c1ccc(-c2c3nc(c(-c4c(F)cccc4F)c4ccc([nH]4)c(-c4c(F)cccc4F)c4nc(c(-c5c(F)cccc5F)c5ccc2[nH]5)C=C4)C=C3)cc1
REMARK SMILES IDX 6 1 5 2 4 3 3 4 1 5 2 6 31 8 32 9 84 10 33 11 83 12 34 13
REMARK SMILES IDX 35 14 36 15 77 16 37 17 82 18 76 19 78 20 38 21 81 22 75 23
REMARK SMILES IDX 74 24 39 26 65 27 48 28 64 29 49 30 52 31 63 32 79 33 50 34
REMARK SMILES IDX 51 35 62 37 80 38 53 39 40 40 41 41 46 42 42 43 43 44 45 45
REMARK SMILES IDX 47 46 44 47 66 48 67 49 72 50 68 51 69 52 71 53 73 54 70 55
REMARK SMILES IDX 54 56 55 57 60 58 56 59 57 60 59 61 61 62 58 63 7 64 8 65
REMARK SMILES IDX 9 66 10 67 11 68 12 70 13 71 14 72 30 73 15 74 17 75 16 76
REMARK SMILES IDX 18 77 19 79 20 80 29 81 21 82 23 83 28 84 22 85 24 86 26 87
REMARK SMILES IDX 25 88 27 89
REMARK H PARENT 3 7 78 25 52 36 10 69 18 78
REMARK Flexibility Score: inf
ROOT
ATOM      1  C   UNL     1       4.370  -2.585   2.977  1.00  0.00     0.002 C 
ENDROOT
BRANCH   1   2
ATOM      2  C   UNL     1       4.810  -1.250   2.372  1.00  0.00     0.021 C 
BRANCH   2   3
ATOM      3  C   UNL     1       4.511  -1.066   0.886  1.00  0.00     0.116 C 
BRANCH   3   4
ATOM      4  N   UNL     1       3.087  -1.028   0.595  1.00  0.00    -0.352 N 
ATOM      5  O   UNL     1       1.104  -0.149  -0.016  1.00  0.00    -0.269 OA
ATOM      6  C   UNL     1       2.328  -0.047   0.003  1.00  0.00     0.251 C 
ATOM      7  H   UNL     1       2.587  -1.832   0.865  1.00  0.00     0.163 HD
BRANCH   6   8
ATOM      8  C   UNL     1       2.967   1.148  -0.594  1.00  0.00     0.039 A 
ATOM      9  C   UNL     1       4.095   1.039  -1.412  1.00  0.00     0.014 A 
ATOM     10  C   UNL     1       2.395   2.403  -0.361  1.00  0.00     0.014 A 
ATOM     11  C   UNL     1       4.723   2.189  -1.890  1.00  0.00     0.010 A 
ATOM     12  C   UNL     1       2.987   3.550  -0.896  1.00  0.00     0.010 A 
ATOM     13  C   UNL     1       4.174   3.456  -1.639  1.00  0.00    -0.014 A 
BRANCH  13  14
ATOM     14  C   UNL     1       4.823   4.676  -2.183  1.00  0.00     0.031 A 
ATOM     15  C   UNL     1       5.420   5.703  -1.262  1.00  0.00     0.074 A 
ATOM     16  C   UNL     1       4.856   4.869  -3.515  1.00  0.00     0.049 A 
ATOM     17  N   UNL     1       5.968   6.856  -1.553  1.00  0.00    -0.248 NA
ATOM     18  C   UNL     1       5.392   5.397   0.176  1.00  0.00     0.031 C 
ATOM     19  C   UNL     1       4.309   3.949  -4.513  1.00  0.00     0.029 A 
ATOM     20  N   UNL     1       5.364   5.904  -4.258  1.00  0.00    -0.354 N 
ATOM     21  C   UNL     1       6.329   7.424  -0.337  1.00  0.00     0.074 A 
ATOM     22  C   UNL     1       5.917   6.498   0.697  1.00  0.00     0.031 C 
ATOM     23  C   UNL     1       4.520   4.454  -5.737  1.00  0.00     0.029 A 
ATOM     24  C   UNL     1       5.166   5.756  -5.609  1.00  0.00     0.049 A 
ATOM     25  H   UNL     1       5.824   6.679  -3.861  1.00  0.00     0.167 HD
ATOM     26  C   UNL     1       6.950   8.606  -0.106  1.00  0.00     0.037 A 
ATOM     27  C   UNL     1       5.446   6.587  -6.630  1.00  0.00     0.037 A 
ATOM     28  C   UNL     1       7.365   9.521  -1.139  1.00  0.00     0.049 A 
ATOM     29  C   UNL     1       6.102   7.907  -6.348  1.00  0.00     0.074 A 
ATOM     30  C   UNL     1       8.034  10.726  -1.007  1.00  0.00     0.029 A 
ATOM     31  N   UNL     1       7.141   9.336  -2.496  1.00  0.00    -0.354 N 
ATOM     32  N   UNL     1       6.468   8.416  -5.197  1.00  0.00    -0.248 NA
ATOM     33  C   UNL     1       6.383   8.768  -7.505  1.00  0.00     0.031 C 
ATOM     34  C   UNL     1       8.173  11.292  -2.279  1.00  0.00     0.029 A 
ATOM     35  C   UNL     1       7.637  10.416  -3.209  1.00  0.00     0.049 A 
ATOM     36  H   UNL     1       6.694   8.554  -2.893  1.00  0.00     0.167 HD
ATOM     37  C   UNL     1       7.045   9.644  -5.491  1.00  0.00     0.074 A 
ATOM     38  C   UNL     1       6.986   9.800  -6.930  1.00  0.00     0.031 C 
ATOM     39  C   UNL     1       7.580  10.556  -4.643  1.00  0.00     0.037 A 
BRANCH  26  40
ATOM     40  C   UNL     1       7.196   8.990   1.325  1.00  0.00     0.057 A 
ATOM     41  C   UNL     1       8.148   8.335   2.118  1.00  0.00     0.134 A 
ATOM     42  C   UNL     1       6.485  10.045   1.912  1.00  0.00     0.134 A 
ATOM     43  F   UNL     1       8.856   7.309   1.622  1.00  0.00    -0.206 F 
ATOM     44  C   UNL     1       8.363   8.697   3.450  1.00  0.00     0.040 A 
ATOM     45  C   UNL     1       6.710  10.433   3.234  1.00  0.00     0.040 A 
ATOM     46  F   UNL     1       5.565  10.721   1.208  1.00  0.00    -0.206 F 
ATOM     47  C   UNL     1       7.646   9.752   4.010  1.00  0.00     0.006 A 
ENDBRANCH  26  40
BRANCH  27  48
ATOM     48  C   UNL     1       5.096   6.182  -8.014  1.00  0.00     0.057 A 
ATOM     49  C   UNL     1       6.086   5.822  -8.934  1.00  0.00     0.134 A 
ATOM     50  C   UNL     1       3.763   6.110  -8.435  1.00  0.00     0.134 A 
ATOM     51  F   UNL     1       7.381   5.886  -8.593  1.00  0.00    -0.206 F 
ATOM     52  C   UNL     1       5.763   5.408 -10.227  1.00  0.00     0.040 A 
ATOM     53  C   UNL     1       3.424   5.675  -9.716  1.00  0.00     0.040 A 
ATOM     54  F   UNL     1       2.769   6.434  -7.595  1.00  0.00    -0.206 F 
ATOM     55  C   UNL     1       4.427   5.325 -10.618  1.00  0.00     0.006 A 
ENDBRANCH  27  48
BRANCH  39  56
ATOM     56  C   UNL     1       8.187  11.787  -5.249  1.00  0.00     0.057 A 
ATOM     57  C   UNL     1       7.401  12.819  -5.776  1.00  0.00     0.134 A 
ATOM     58  C   UNL     1       9.577  11.961  -5.259  1.00  0.00     0.134 A 
ATOM     59  F   UNL     1       6.064  12.706  -5.809  1.00  0.00    -0.206 F 
ATOM     60  C   UNL     1       7.977  13.975  -6.304  1.00  0.00     0.040 A 
ATOM     61  C   UNL     1      10.163  13.123  -5.762  1.00  0.00     0.040 A 
ATOM     62  F   UNL     1      10.386  11.012  -4.763  1.00  0.00    -0.206 F 
ATOM     63  C   UNL     1       9.362  14.133  -6.290  1.00  0.00     0.006 A 
ENDBRANCH  39  56
ENDBRANCH  13  14
ENDBRANCH   6   8
ENDBRANCH   3   4
ENDBRANCH   2   3
ENDBRANCH   1   2
BRANCH   1  64
ATOM     64  C   UNL     1       4.982  -3.844   2.356  1.00  0.00     0.002 C 
BRANCH  64  65
ATOM     65  C   UNL     1       6.514  -3.928   2.336  1.00  0.00     0.021 C 
BRANCH  65  66
ATOM     66  C   UNL     1       7.226  -3.730   3.675  1.00  0.00     0.116 C 
BRANCH  66  67
ATOM     67  N   UNL     1       6.826  -4.670   4.707  1.00  0.00    -0.352 N 
ATOM     68  C   UNL     1       7.624  -5.514   5.446  1.00  0.00     0.251 C 
ATOM     69  H   UNL     1       5.862  -4.707   4.904  1.00  0.00     0.163 HD
ATOM     70  O   UNL     1       7.210  -6.045   6.467  1.00  0.00    -0.269 OA
BRANCH  68  71
ATOM     71  C   UNL     1       8.975  -5.838   4.951  1.00  0.00     0.041 A 
ATOM     72  C   UNL     1       9.063  -6.726   3.873  1.00  0.00     0.014 A 
ATOM     73  C   UNL     1      10.124  -5.285   5.542  1.00  0.00     0.039 A 
ATOM     74  C   UNL     1      10.308  -7.047   3.354  1.00  0.00     0.003 A 
ATOM     75  C   UNL     1      11.380  -5.586   5.002  1.00  0.00     0.039 A 
ATOM     76  C   UNL     1      11.449  -6.470   3.907  1.00  0.00     0.026 A 
BRANCH  75  77
ATOM     77  N   UNL     1      12.552  -4.906   5.399  1.00  0.00    -0.355 N 
ATOM     78  H   UNL     1      12.728  -4.819   6.364  1.00  0.00     0.167 HD
BRANCH  77  79
ATOM     79  C   UNL     1      13.494  -4.339   4.501  1.00  0.00     0.050 A 
ATOM     80  C   UNL     1      13.001  -3.709   3.350  1.00  0.00     0.047 A 
ATOM     81  C   UNL     1      14.899  -4.466   4.658  1.00  0.00     0.025 A 
ATOM     82  C   UNL     1      13.883  -3.253   2.399  1.00  0.00     0.114 A 
ATOM     83  C   UNL     1      15.708  -3.925   3.626  1.00  0.00     0.072 A 
ATOM     84  C   UNL     1      15.539  -5.130   5.734  1.00  0.00     0.033 A 
ATOM     85  N   UNL     1      15.216  -3.341   2.525  1.00  0.00    -0.256 NA
ATOM     86  C   UNL     1      17.088  -4.008   3.721  1.00  0.00     0.030 A 
ATOM     87  C   UNL     1      16.933  -5.216   5.789  1.00  0.00     0.041 A 
ATOM     88  C   UNL     1      17.712  -4.642   4.794  1.00  0.00     0.023 A 
ATOM     89  Cl  UNL     1      17.699  -6.049   7.085  1.00  0.00    -0.084 Cl
ENDBRANCH  77  79
ENDBRANCH  75  77
ENDBRANCH  68  71
ENDBRANCH  66  67
ENDBRANCH  65  66
ENDBRANCH  64  65
ENDBRANCH   1  64
TORSDOF 15
