REMARK SMILES Cc1ccc(C)c(S(=O)(=O)N[C@H](CC2=c3ccccc3=NC2)C(=O)NCCCCCCNC(=O)c2ccc(-c3c4nc(c(-c5c(F)cccc5F)c5ccc([nH]5)c(-c5c(F)cccc5F)c5nc(c(-c6c(F)cccc6F)c6ccc3[nH]6)C=C5)C=C4)cc2)c1
REMARK SMILES IDX 28 1 27 2 26 3 25 4 23 5 24 6 12 8 11 9 8 11 9 12 10 13 7 14
REMARK SMILES IDX 1 15 2 16 3 17 89 18 4 19 5 20 6 21 13 22 14 23 15 24 22 25
REMARK SMILES IDX 16 26 20 27 21 28 17 29 19 30 18 31 29 32 30 33 31 34 32 35
REMARK SMILES IDX 33 36 34 38 35 39 36 40 88 41 37 42 87 43 38 44 39 45 40 46
REMARK SMILES IDX 81 47 41 48 86 49 80 50 82 51 42 52 85 53 79 54 78 55 43 57
REMARK SMILES IDX 69 58 52 59 68 60 53 61 56 62 67 63 83 64 54 65 55 66 66 68
REMARK SMILES IDX 84 69 57 70 44 71 45 72 50 73 46 74 47 75 49 76 51 77 48 78
REMARK SMILES IDX 70 79 71 80 76 81 72 82 73 83 75 84 77 85 74 86 58 87 59 88
REMARK SMILES IDX 64 89 60 90 61 91 63 92 65 93 62 94
REMARK H PARENT 25 7 11 10 32 37 82 56 56 67
REMARK Flexibility Score: inf
ROOT
ATOM      1  C   UNL     1      -0.366   9.273  -1.121  1.00  0.00     0.002 C 
ENDROOT
BRANCH   1   2
ATOM      2  C   UNL     1      -1.351   8.116  -1.307  1.00  0.00     0.021 C 
BRANCH   2   3
ATOM      3  C   UNL     1      -0.878   6.914  -2.144  1.00  0.00     0.116 C 
BRANCH   3   4
ATOM      4  N   UNL     1       0.531   6.559  -2.010  1.00  0.00    -0.355 N 
ATOM      5  C   UNL     1       1.225   5.455  -1.600  1.00  0.00     0.238 C 
ATOM      6  O   UNL     1       2.452   5.583  -1.522  1.00  0.00    -0.273 OA
ATOM      7  H   UNL     1       1.128   7.294  -2.280  1.00  0.00     0.163 HD
BRANCH   5   8
ATOM      8  C   UNL     1       0.572   4.121  -1.208  1.00  0.00     0.163 C 
BRANCH   8   9
ATOM      9  N   UNL     1      -0.470   3.730  -2.198  1.00  0.00    -0.198 NA
ATOM     10  H   UNL     1      -1.249   3.336  -1.670  1.00  0.00     0.142 HD
BRANCH   9  11
ATOM     11  S   UNL     1      -0.089   2.621  -3.409  1.00  0.00     0.241 S 
ATOM     12  O   UNL     1       1.321   2.713  -3.669  1.00  0.00    -0.207 OA
ATOM     13  O   UNL     1      -1.088   2.858  -4.437  1.00  0.00    -0.207 OA
BRANCH  11  14
ATOM     14  C   UNL     1      -0.451   1.036  -2.691  1.00  0.00     0.085 A 
ATOM     15  C   UNL     1      -1.753  -0.229   0.658  1.00  0.00     0.044 C 
ATOM     16  C   UNL     1      -1.198  -0.212  -0.735  1.00  0.00    -0.050 A 
ATOM     17  C   UNL     1      -0.818  -1.394  -1.368  1.00  0.00     0.004 A 
ATOM     18  C   UNL     1      -1.045   0.994  -1.420  1.00  0.00     0.025 A 
ATOM     19  C   UNL     1      -0.290  -1.366  -2.663  1.00  0.00     0.005 A 
ATOM     20  C   UNL     1      -0.095  -0.153  -3.347  1.00  0.00    -0.031 A 
ATOM     21  C   UNL     1       0.458  -0.224  -4.744  1.00  0.00     0.046 C 
ENDBRANCH  11  14
ENDBRANCH   9  11
ENDBRANCH   8   9
BRANCH   8  22
ATOM     22  C   UNL     1       0.009   3.999   0.243  1.00  0.00     0.063 C 
BRANCH  22  23
ATOM     23  C   UNL     1       0.459   4.977   1.290  1.00  0.00    -0.037 C 
ATOM     24  C   UNL     1       1.226   4.847   2.374  1.00  0.00     0.001 A 
ATOM     25  C   UNL     1      -0.101   6.362   1.253  1.00  0.00     0.174 C 
ATOM     26  C   UNL     1       1.880   3.789   3.076  1.00  0.00     0.010 A 
ATOM     27  C   UNL     1       1.291   6.231   2.885  1.00  0.00     0.065 A 
ATOM     28  N   UNL     1       0.543   7.126   2.324  1.00  0.00    -0.280 NA
ATOM     29  C   UNL     1       2.572   4.085   4.193  1.00  0.00     0.001 A 
ATOM     30  C   UNL     1       2.205   6.497   4.007  1.00  0.00     0.028 A 
ATOM     31  C   UNL     1       2.767   5.456   4.634  1.00  0.00     0.002 A 
ENDBRANCH  22  23
ENDBRANCH   8  22
ENDBRANCH   5   8
ENDBRANCH   3   4
ENDBRANCH   2   3
ENDBRANCH   1   2
BRANCH   1  32
ATOM     32  C   UNL     1      -0.359  10.331  -2.224  1.00  0.00     0.002 C 
BRANCH  32  33
ATOM     33  C   UNL     1      -1.704  10.957  -2.627  1.00  0.00     0.021 C 
BRANCH  33  34
ATOM     34  C   UNL     1      -2.508  11.675  -1.540  1.00  0.00     0.116 C 
BRANCH  34  35
ATOM     35  N   UNL     1      -1.829  12.861  -1.018  1.00  0.00    -0.352 N 
ATOM     36  C   UNL     1      -1.879  13.517   0.196  1.00  0.00     0.251 C 
ATOM     37  H   UNL     1      -1.212  13.276  -1.663  1.00  0.00     0.163 HD
ATOM     38  O   UNL     1      -1.529  14.695   0.242  1.00  0.00    -0.269 OA
BRANCH  36  39
ATOM     39  C   UNL     1      -2.305  12.846   1.445  1.00  0.00     0.039 A 
ATOM     40  C   UNL     1      -2.631  13.581   2.596  1.00  0.00     0.014 A 
ATOM     41  C   UNL     1      -2.284  11.464   1.521  1.00  0.00     0.014 A 
ATOM     42  C   UNL     1      -2.921  12.911   3.790  1.00  0.00     0.010 A 
ATOM     43  C   UNL     1      -2.722  10.796   2.630  1.00  0.00     0.010 A 
ATOM     44  C   UNL     1      -2.945  11.514   3.793  1.00  0.00    -0.014 A 
BRANCH  44  45
ATOM     45  C   UNL     1      -3.212  10.716   4.978  1.00  0.00     0.031 A 
ATOM     46  C   UNL     1      -4.615  10.677   5.425  1.00  0.00     0.074 A 
ATOM     47  C   UNL     1      -2.339   9.775   5.398  1.00  0.00     0.049 A 
ATOM     48  N   UNL     1      -5.075  11.051   6.570  1.00  0.00    -0.248 NA
ATOM     49  C   UNL     1      -5.646  10.241   4.471  1.00  0.00     0.031 C 
ATOM     50  C   UNL     1      -1.040   9.456   4.801  1.00  0.00     0.029 A 
ATOM     51  N   UNL     1      -2.496   8.795   6.336  1.00  0.00    -0.354 N 
ATOM     52  C   UNL     1      -6.413  10.685   6.566  1.00  0.00     0.074 A 
ATOM     53  C   UNL     1      -6.754  10.411   5.194  1.00  0.00     0.031 C 
ATOM     54  C   UNL     1      -0.651   8.241   5.230  1.00  0.00     0.029 A 
ATOM     55  C   UNL     1      -1.586   7.754   6.215  1.00  0.00     0.049 A 
ATOM     56  H   UNL     1      -3.191   8.825   7.033  1.00  0.00     0.167 HD
ATOM     57  C   UNL     1      -7.045  10.349   7.724  1.00  0.00     0.037 A 
ATOM     58  C   UNL     1      -1.592   6.551   6.839  1.00  0.00     0.037 A 
ATOM     59  C   UNL     1      -6.285  10.761   8.883  1.00  0.00     0.049 A 
ATOM     60  C   UNL     1      -2.444   6.665   8.037  1.00  0.00     0.074 A 
ATOM     61  C   UNL     1      -5.704  11.948   9.297  1.00  0.00     0.029 A 
ATOM     62  N   UNL     1      -5.701   9.788   9.659  1.00  0.00    -0.354 N 
ATOM     63  N   UNL     1      -2.127   7.371   9.084  1.00  0.00    -0.248 NA
ATOM     64  C   UNL     1      -3.859   6.365   7.886  1.00  0.00     0.031 C 
ATOM     65  C   UNL     1      -4.472  11.568   9.911  1.00  0.00     0.029 A 
ATOM     66  C   UNL     1      -4.406  10.177   9.892  1.00  0.00     0.049 A 
ATOM     67  H   UNL     1      -6.131   8.966   9.987  1.00  0.00     0.167 HD
ATOM     68  C   UNL     1      -3.308   8.006   9.430  1.00  0.00     0.074 A 
ATOM     69  C   UNL     1      -4.360   7.256   8.746  1.00  0.00     0.031 C 
ATOM     70  C   UNL     1      -3.297   9.256   9.979  1.00  0.00     0.037 A 
BRANCH  57  71
ATOM     71  C   UNL     1      -8.150   9.324   7.809  1.00  0.00     0.057 A 
ATOM     72  C   UNL     1      -8.355   8.279   6.883  1.00  0.00     0.134 A 
ATOM     73  C   UNL     1      -8.874   9.206   9.008  1.00  0.00     0.134 A 
ATOM     74  F   UNL     1      -7.666   8.180   5.740  1.00  0.00    -0.206 F 
ATOM     75  C   UNL     1      -9.212   7.204   7.128  1.00  0.00     0.040 A 
ATOM     76  C   UNL     1      -9.684   8.101   9.290  1.00  0.00     0.040 A 
ATOM     77  F   UNL     1      -8.748  10.123   9.979  1.00  0.00    -0.206 F 
ATOM     78  C   UNL     1      -9.854   7.093   8.350  1.00  0.00     0.006 A 
ENDBRANCH  57  71
BRANCH  58  79
ATOM     79  C   UNL     1      -1.196   5.246   6.269  1.00  0.00     0.057 A 
ATOM     80  C   UNL     1      -1.524   4.925   4.940  1.00  0.00     0.134 A 
ATOM     81  C   UNL     1      -0.745   4.190   7.068  1.00  0.00     0.134 A 
ATOM     82  F   UNL     1      -2.050   5.847   4.120  1.00  0.00    -0.206 F 
ATOM     83  C   UNL     1      -1.414   3.627   4.434  1.00  0.00     0.040 A 
ATOM     84  C   UNL     1      -0.627   2.883   6.572  1.00  0.00     0.040 A 
ATOM     85  F   UNL     1      -0.465   4.390   8.364  1.00  0.00    -0.206 F 
ATOM     86  C   UNL     1      -0.969   2.597   5.253  1.00  0.00     0.006 A 
ENDBRANCH  58  79
BRANCH  70  87
ATOM     87  C   UNL     1      -1.979   9.806  10.454  1.00  0.00     0.057 A 
ATOM     88  C   UNL     1      -1.857  10.203  11.789  1.00  0.00     0.134 A 
ATOM     89  C   UNL     1      -0.883  10.069   9.617  1.00  0.00     0.134 A 
ATOM     90  F   UNL     1      -2.881  10.034  12.640  1.00  0.00    -0.206 F 
ATOM     91  C   UNL     1      -0.699  10.818  12.274  1.00  0.00     0.040 A 
ATOM     92  C   UNL     1       0.293  10.655  10.095  1.00  0.00     0.040 A 
ATOM     93  F   UNL     1      -0.932   9.818   8.306  1.00  0.00    -0.206 F 
ATOM     94  C   UNL     1       0.386  11.036  11.429  1.00  0.00     0.006 A 
ENDBRANCH  70  87
ENDBRANCH  44  45
ENDBRANCH  36  39
ENDBRANCH  34  35
ENDBRANCH  33  34
ENDBRANCH  32  33
ENDBRANCH   1  32
TORSDOF 18
