REMARK SMILES NS(=O)(=O)c1ccc(-n2nc(C(F)(F)F)cc2-c2ccc(C(=O)NCCCCCCNC(=O)c3ccc(-c4c5nc(c(-c6c(F)cccc6F)c6ccc([nH]6)c(-c6c(F)cccc6F)c6nc(c(-c7c(F)cccc7F)c7ccc4[nH]7)C=C6)C=C5)cc3)cc2)cc1
REMARK SMILES IDX 26 1 25 2 24 3 22 4 23 5 21 7 18 8 19 9 89 10 20 11 88 12
REMARK SMILES IDX 17 13 9 14 10 15 11 16 16 17 8 18 5 19 6 20 91 21 7 22 90 23
REMARK SMILES IDX 2 24 3 25 4 26 1 27 12 30 13 31 14 32 15 33 27 34 28 35
REMARK SMILES IDX 29 36 30 37 31 38 32 39 33 41 34 42 35 43 87 44 36 45 86 46
REMARK SMILES IDX 37 47 38 48 39 49 80 50 40 51 85 52 79 53 81 54 41 55 84 56
REMARK SMILES IDX 78 57 77 58 42 60 68 61 51 62 67 63 52 64 55 65 66 66 82 67
REMARK SMILES IDX 53 68 54 69 65 71 83 72 56 73 43 74 44 75 49 76 45 77 46 78
REMARK SMILES IDX 48 79 50 80 47 81 69 82 70 83 75 84 71 85 72 86 74 87 76 88
REMARK SMILES IDX 73 89 57 90 58 91 63 92 59 93 60 94 62 95 64 96 61 97
REMARK H PARENT 24 6 1 28 1 29 31 40 81 59 55 70
REMARK Flexibility Score: inf
ROOT
ATOM      1  C   UNL     1       6.428  -5.400   4.483  1.00  0.00     0.021 C 
ENDROOT
BRANCH   1   2
ATOM      2  C   UNL     1       7.193  -4.176   4.991  1.00  0.00     0.116 C 
BRANCH   2   3
ATOM      3  N   UNL     1       7.410  -3.252   3.896  1.00  0.00    -0.352 N 
ATOM      4  C   UNL     1       6.805  -2.073   3.552  1.00  0.00     0.251 C 
ATOM      5  O   UNL     1       7.163  -1.517   2.515  1.00  0.00    -0.269 OA
ATOM      6  H   UNL     1       8.131  -3.524   3.282  1.00  0.00     0.163 HD
BRANCH   4   7
ATOM      7  C   UNL     1       5.801  -1.409   4.423  1.00  0.00     0.039 A 
ATOM      8  C   UNL     1       4.108   0.002   6.155  1.00  0.00     0.000 A 
ATOM      9  C   UNL     1       4.920   0.694   5.250  1.00  0.00     0.011 A 
ATOM     10  C   UNL     1       4.113  -1.392   6.163  1.00  0.00     0.011 A 
ATOM     11  C   UNL     1       5.769  -0.009   4.396  1.00  0.00     0.014 A 
ATOM     12  C   UNL     1       4.910  -2.090   5.258  1.00  0.00     0.014 A 
BRANCH   8  13
ATOM     13  C   UNL     1       3.191   0.721   7.023  1.00  0.00     0.075 A 
ATOM     14  N   UNL     1       2.083   1.423   6.575  1.00  0.00    -0.233 N 
ATOM     15  N   UNL     1       1.537   2.185   7.556  1.00  0.00    -0.163 NA
ATOM     16  C   UNL     1       2.171   1.800   8.683  1.00  0.00     0.167 A 
ATOM     17  C   UNL     1       3.242   0.920   8.384  1.00  0.00     0.064 A 
BRANCH  14  18
ATOM     18  C   UNL     1       1.546   1.413   5.262  1.00  0.00     0.065 A 
ATOM     19  C   UNL     1       0.772   1.412   2.591  1.00  0.00     0.082 A 
ATOM     20  C   UNL     1       1.032   0.198   3.227  1.00  0.00     0.024 A 
ATOM     21  C   UNL     1       0.862   2.623   3.292  1.00  0.00     0.024 A 
ATOM     22  C   UNL     1       1.427   0.201   4.563  1.00  0.00     0.030 A 
ATOM     23  C   UNL     1       1.220   2.623   4.644  1.00  0.00     0.030 A 
BRANCH  19  24
ATOM     24  S   UNL     1       0.393   1.452   0.864  1.00  0.00     0.238 S 
ATOM     25  O   UNL     1       1.061   2.576   0.266  1.00  0.00    -0.207 OA
ATOM     26  O   UNL     1      -1.024   1.198   0.707  1.00  0.00    -0.207 OA
BRANCH  24  27
ATOM     27  N   UNL     1       1.173   0.095   0.242  1.00  0.00    -0.225 NA
ATOM     28  H   UNL     1       1.006   0.038  -0.762  1.00  0.00     0.137 HD
ATOM     29  H   UNL     1       0.809  -0.743   0.695  1.00  0.00     0.137 HD
ENDBRANCH  24  27
ENDBRANCH  19  24
ENDBRANCH  14  18
BRANCH  16  30
ATOM     30  C   UNL     1       1.776   2.265  10.060  1.00  0.00     0.435 C 
ATOM     31  F   UNL     1       1.682   3.615  10.160  1.00  0.00    -0.164 F 
ATOM     32  F   UNL     1       0.582   1.745  10.450  1.00  0.00    -0.164 F 
ATOM     33  F   UNL     1       2.684   1.871  10.998  1.00  0.00    -0.164 F 
ENDBRANCH  16  30
ENDBRANCH   8  13
ENDBRANCH   4   7
ENDBRANCH   2   3
ENDBRANCH   1   2
BRANCH   1  34
ATOM     34  C   UNL     1       7.327  -6.385   3.725  1.00  0.00     0.002 C 
BRANCH  34  35
ATOM     35  C   UNL     1       8.547  -6.892   4.514  1.00  0.00     0.002 C 
BRANCH  35  36
ATOM     36  C   UNL     1       8.261  -7.443   5.920  1.00  0.00     0.021 C 
BRANCH  36  37
ATOM     37  C   UNL     1       7.483  -8.746   5.901  1.00  0.00     0.116 C 
BRANCH  37  38
ATOM     38  N   UNL     1       8.263  -9.845   5.317  1.00  0.00    -0.352 N 
ATOM     39  C   UNL     1       7.873 -11.146   5.052  1.00  0.00     0.251 C 
ATOM     40  H   UNL     1       9.194  -9.626   5.082  1.00  0.00     0.163 HD
ATOM     41  O   UNL     1       8.696 -12.042   4.914  1.00  0.00    -0.269 OA
BRANCH  39  42
ATOM     42  C   UNL     1       6.437 -11.424   4.911  1.00  0.00     0.039 A 
ATOM     43  C   UNL     1       5.836 -12.603   5.362  1.00  0.00     0.014 A 
ATOM     44  C   UNL     1       5.680 -10.417   4.332  1.00  0.00     0.014 A 
ATOM     45  C   UNL     1       4.453 -12.722   5.244  1.00  0.00     0.010 A 
ATOM     46  C   UNL     1       4.335 -10.408   4.516  1.00  0.00     0.010 A 
ATOM     47  C   UNL     1       3.718 -11.608   4.813  1.00  0.00    -0.014 A 
BRANCH  47  48
ATOM     48  C   UNL     1       2.274 -11.602   4.695  1.00  0.00     0.031 A 
ATOM     49  C   UNL     1       1.570 -11.853   5.971  1.00  0.00     0.074 A 
ATOM     50  C   UNL     1       1.655 -11.126   3.590  1.00  0.00     0.049 A 
ATOM     51  N   UNL     1       0.905 -12.906   6.302  1.00  0.00    -0.248 NA
ATOM     52  C   UNL     1       1.777 -10.902   7.075  1.00  0.00     0.031 C 
ATOM     53  C   UNL     1       2.242 -10.520   2.385  1.00  0.00     0.029 A 
ATOM     54  N   UNL     1       0.323 -10.992   3.364  1.00  0.00    -0.354 N 
ATOM     55  C   UNL     1       0.405 -12.647   7.573  1.00  0.00     0.074 A 
ATOM     56  C   UNL     1       1.155 -11.528   8.076  1.00  0.00     0.031 C 
ATOM     57  C   UNL     1       1.281  -9.886   1.677  1.00  0.00     0.029 A 
ATOM     58  C   UNL     1      -0.003 -10.183   2.278  1.00  0.00     0.049 A 
ATOM     59  H   UNL     1      -0.358 -11.431   3.923  1.00  0.00     0.167 HD
ATOM     60  C   UNL     1      -0.772 -13.198   7.980  1.00  0.00     0.037 A 
ATOM     61  C   UNL     1      -1.252  -9.768   1.947  1.00  0.00     0.037 A 
ATOM     62  C   UNL     1      -1.159 -14.284   7.109  1.00  0.00     0.049 A 
ATOM     63  C   UNL     1      -2.203 -10.700   2.616  1.00  0.00     0.074 A 
ATOM     64  C   UNL     1      -0.566 -15.472   6.722  1.00  0.00     0.029 A 
ATOM     65  N   UNL     1      -2.127 -14.033   6.165  1.00  0.00    -0.354 N 
ATOM     66  N   UNL     1      -2.302 -11.966   2.308  1.00  0.00    -0.248 NA
ATOM     67  C   UNL     1      -2.644 -10.348   3.958  1.00  0.00     0.031 C 
ATOM     68  C   UNL     1      -0.846 -15.583   5.327  1.00  0.00     0.029 A 
ATOM     69  C   UNL     1      -1.664 -14.512   4.965  1.00  0.00     0.049 A 
ATOM     70  H   UNL     1      -2.993 -13.591   6.321  1.00  0.00     0.167 HD
ATOM     71  C   UNL     1      -2.407 -12.624   3.526  1.00  0.00     0.074 A 
ATOM     72  C   UNL     1      -2.666 -11.567   4.506  1.00  0.00     0.031 C 
ATOM     73  C   UNL     1      -1.972 -13.910   3.687  1.00  0.00     0.037 A 
BRANCH  60  74
ATOM     74  C   UNL     1      -1.761 -12.516   8.894  1.00  0.00     0.057 A 
ATOM     75  C   UNL     1      -2.892 -13.236   9.320  1.00  0.00     0.134 A 
ATOM     76  C   UNL     1      -1.815 -11.127   9.133  1.00  0.00     0.134 A 
ATOM     77  F   UNL     1      -2.965 -14.566   9.152  1.00  0.00    -0.206 F 
ATOM     78  C   UNL     1      -4.025 -12.611   9.851  1.00  0.00     0.040 A 
ATOM     79  C   UNL     1      -2.921 -10.499   9.711  1.00  0.00     0.040 A 
ATOM     80  F   UNL     1      -0.857 -10.283   8.735  1.00  0.00    -0.206 F 
ATOM     81  C   UNL     1      -4.047 -11.235  10.038  1.00  0.00     0.006 A 
ENDBRANCH  60  74
BRANCH  61  82
ATOM     82  C   UNL     1      -1.655  -8.445   1.413  1.00  0.00     0.057 A 
ATOM     83  C   UNL     1      -2.925  -8.232   0.858  1.00  0.00     0.134 A 
ATOM     84  C   UNL     1      -0.901  -7.286   1.676  1.00  0.00     0.134 A 
ATOM     85  F   UNL     1      -3.742  -9.267   0.615  1.00  0.00    -0.206 F 
ATOM     86  C   UNL     1      -3.419  -6.945   0.592  1.00  0.00     0.040 A 
ATOM     87  C   UNL     1      -1.379  -5.997   1.412  1.00  0.00     0.040 A 
ATOM     88  F   UNL     1       0.294  -7.359   2.281  1.00  0.00    -0.206 F 
ATOM     89  C   UNL     1      -2.649  -5.822   0.878  1.00  0.00     0.006 A 
ENDBRANCH  61  82
BRANCH  73  90
ATOM     90  C   UNL     1      -1.550 -14.684   2.463  1.00  0.00     0.057 A 
ATOM     91  C   UNL     1      -0.455 -14.344   1.653  1.00  0.00     0.134 A 
ATOM     92  C   UNL     1      -2.155 -15.919   2.208  1.00  0.00     0.134 A 
ATOM     93  F   UNL     1       0.253 -13.232   1.876  1.00  0.00    -0.206 F 
ATOM     94  C   UNL     1      -0.004 -15.177   0.623  1.00  0.00     0.040 A 
ATOM     95  C   UNL     1      -1.697 -16.775   1.203  1.00  0.00     0.040 A 
ATOM     96  F   UNL     1      -3.171 -16.343   2.977  1.00  0.00    -0.206 F 
ATOM     97  C   UNL     1      -0.621 -16.403   0.402  1.00  0.00     0.006 A 
ENDBRANCH  73  90
ENDBRANCH  47  48
ENDBRANCH  39  42
ENDBRANCH  37  38
ENDBRANCH  36  37
ENDBRANCH  35  36
ENDBRANCH  34  35
ENDBRANCH   1  34
TORSDOF 18
