REMARK SMILES O=C(NCCCCCCNC(=O)[C@H](c1ccccc1)N1C(=O)/C(=C/c2ccc(-c3nc4ccccc4s3)o2)SC1=S)c1ccc(-c2c3nc(c(-c4c(F)cccc4F)c4ccc([nH]4)c(-c4c(F)cccc4F)c4nc(c(-c5c(F)cccc5F)c5ccc2[nH]5)C=C4)C=C3)cc1
REMARK SMILES IDX 7 1 6 2 5 3 4 4 3 5 1 6 2 7 42 9 43 10 95 11 44 12 94 13
REMARK SMILES IDX 45 14 46 15 47 16 88 17 48 18 93 19 87 20 89 21 49 22 92 23
REMARK SMILES IDX 86 24 85 25 50 27 76 28 59 29 75 30 60 31 63 32 74 33 90 34
REMARK SMILES IDX 61 35 62 36 73 38 91 39 64 40 51 41 52 42 57 43 53 44 54 45
REMARK SMILES IDX 56 46 58 47 55 48 77 49 78 50 83 51 79 52 80 53 82 54 84 55
REMARK SMILES IDX 81 56 65 57 66 58 71 59 67 60 68 61 70 62 72 63 69 64 8 65
REMARK SMILES IDX 9 66 10 67 11 68 12 70 13 71 20 72 21 73 40 74 22 75 23 76
REMARK SMILES IDX 39 77 41 78 24 79 25 80 26 81 38 82 27 83 28 84 29 85 30 86
REMARK SMILES IDX 37 87 31 88 36 89 32 90 35 91 33 92 34 93 14 94 15 95 19 96
REMARK SMILES IDX 16 97 18 98 17 99
REMARK H PARENT 3 8 89 26 63 37 10 69
REMARK Flexibility Score: inf
ROOT
ATOM      1  C   UNL     1       6.578   6.334  -2.370  1.00  0.00     0.002 C 
ENDROOT
BRANCH   1   2
ATOM      2  C   UNL     1       6.731   7.855  -2.297  1.00  0.00     0.002 C 
BRANCH   2   3
ATOM      3  C   UNL     1       5.745   8.649  -3.154  1.00  0.00     0.021 C 
BRANCH   3   4
ATOM      4  C   UNL     1       4.278   8.340  -2.886  1.00  0.00     0.116 C 
BRANCH   4   5
ATOM      5  N   UNL     1       3.850   8.776  -1.568  1.00  0.00    -0.352 N 
ATOM      6  O   UNL     1       2.688  10.020  -0.083  1.00  0.00    -0.269 OA
ATOM      7  C   UNL     1       2.813   9.618  -1.228  1.00  0.00     0.251 C 
ATOM      8  H   UNL     1       4.372   8.421  -0.814  1.00  0.00     0.163 HD
BRANCH   7   9
ATOM      9  C   UNL     1       1.859  10.046  -2.276  1.00  0.00     0.039 A 
ATOM     10  C   UNL     1       1.333   9.117  -3.174  1.00  0.00     0.014 A 
ATOM     11  C   UNL     1       1.486  11.391  -2.355  1.00  0.00     0.014 A 
ATOM     12  C   UNL     1       0.551   9.552  -4.235  1.00  0.00     0.010 A 
ATOM     13  C   UNL     1       0.621  11.814  -3.370  1.00  0.00     0.010 A 
ATOM     14  C   UNL     1       0.167  10.901  -4.334  1.00  0.00    -0.014 A 
BRANCH  14  15
ATOM     15  C   UNL     1      -0.778  11.290  -5.411  1.00  0.00     0.031 A 
ATOM     16  C   UNL     1      -0.371  12.216  -6.522  1.00  0.00     0.074 A 
ATOM     17  C   UNL     1      -2.005  10.734  -5.405  1.00  0.00     0.049 A 
ATOM     18  N   UNL     1      -1.055  12.577  -7.579  1.00  0.00    -0.248 NA
ATOM     19  C   UNL     1       0.967  12.820  -6.439  1.00  0.00     0.031 C 
ATOM     20  C   UNL     1      -2.518   9.845  -4.359  1.00  0.00     0.029 A 
ATOM     21  N   UNL     1      -3.027  10.800  -6.316  1.00  0.00    -0.354 N 
ATOM     22  C   UNL     1      -0.239  13.455  -8.281  1.00  0.00     0.074 A 
ATOM     23  C   UNL     1       0.982  13.594  -7.516  1.00  0.00     0.031 C 
ATOM     24  C   UNL     1      -3.729   9.397  -4.718  1.00  0.00     0.029 A 
ATOM     25  C   UNL     1      -4.102  10.010  -5.987  1.00  0.00     0.049 A 
ATOM     26  H   UNL     1      -2.994  11.358  -7.126  1.00  0.00     0.167 HD
ATOM     27  C   UNL     1      -0.486  14.077  -9.459  1.00  0.00     0.037 A 
ATOM     28  C   UNL     1      -5.264   9.804  -6.632  1.00  0.00     0.037 A 
ATOM     29  C   UNL     1      -1.703  13.931 -10.218  1.00  0.00     0.049 A 
ATOM     30  C   UNL     1      -5.501  10.496  -7.940  1.00  0.00     0.074 A 
ATOM     31  C   UNL     1      -2.045  14.517 -11.425  1.00  0.00     0.029 A 
ATOM     32  N   UNL     1      -2.778  13.138  -9.843  1.00  0.00    -0.354 N 
ATOM     33  N   UNL     1      -4.709  11.306  -8.599  1.00  0.00    -0.248 NA
ATOM     34  C   UNL     1      -6.793  10.248  -8.592  1.00  0.00     0.031 C 
ATOM     35  C   UNL     1      -3.338  14.103 -11.765  1.00  0.00     0.029 A 
ATOM     36  C   UNL     1      -3.786  13.228 -10.790  1.00  0.00     0.049 A 
ATOM     37  H   UNL     1      -2.819  12.593  -9.024  1.00  0.00     0.167 HD
ATOM     38  C   UNL     1      -5.406  11.668  -9.742  1.00  0.00     0.074 A 
ATOM     39  C   UNL     1      -6.668  10.957  -9.705  1.00  0.00     0.031 C 
ATOM     40  C   UNL     1      -5.040  12.522 -10.728  1.00  0.00     0.037 A 
BRANCH  27  41
ATOM     41  C   UNL     1       0.580  14.983 -10.005  1.00  0.00     0.057 A 
ATOM     42  C   UNL     1       1.755  14.476 -10.575  1.00  0.00     0.134 A 
ATOM     43  C   UNL     1       0.405  16.372 -10.015  1.00  0.00     0.134 A 
ATOM     44  F   UNL     1       1.989  13.155 -10.587  1.00  0.00    -0.206 F 
ATOM     45  C   UNL     1       2.722  15.319 -11.126  1.00  0.00     0.040 A 
ATOM     46  C   UNL     1       1.355  17.224 -10.581  1.00  0.00     0.040 A 
ATOM     47  F   UNL     1      -0.701  16.923  -9.491  1.00  0.00    -0.206 F 
ATOM     48  C   UNL     1       2.519  16.698 -11.137  1.00  0.00     0.006 A 
ENDBRANCH  27  41
BRANCH  28  49
ATOM     49  C   UNL     1      -6.285   8.905  -6.040  1.00  0.00     0.057 A 
ATOM     50  C   UNL     1      -6.588   7.668  -6.617  1.00  0.00     0.134 A 
ATOM     51  C   UNL     1      -6.970   9.260  -4.871  1.00  0.00     0.134 A 
ATOM     52  F   UNL     1      -5.975   7.280  -7.745  1.00  0.00    -0.206 F 
ATOM     53  C   UNL     1      -7.548   6.820  -6.062  1.00  0.00     0.040 A 
ATOM     54  C   UNL     1      -7.911   8.410  -4.290  1.00  0.00     0.040 A 
ATOM     55  F   UNL     1      -6.715  10.428  -4.265  1.00  0.00    -0.206 F 
ATOM     56  C   UNL     1      -8.207   7.189  -4.890  1.00  0.00     0.006 A 
ENDBRANCH  28  49
BRANCH  40  57
ATOM     57  C   UNL     1      -6.025  12.724 -11.839  1.00  0.00     0.057 A 
ATOM     58  C   UNL     1      -7.200  13.464 -11.652  1.00  0.00     0.134 A 
ATOM     59  C   UNL     1      -5.801  12.171 -13.105  1.00  0.00     0.134 A 
ATOM     60  F   UNL     1      -7.479  14.005 -10.456  1.00  0.00    -0.206 F 
ATOM     61  C   UNL     1      -8.132  13.622 -12.678  1.00  0.00     0.040 A 
ATOM     62  C   UNL     1      -6.714  12.342 -14.146  1.00  0.00     0.040 A 
ATOM     63  F   UNL     1      -4.693  11.455 -13.350  1.00  0.00    -0.206 F 
ATOM     64  C   UNL     1      -7.888  13.062 -13.931  1.00  0.00     0.006 A 
ENDBRANCH  40  57
ENDBRANCH  14  15
ENDBRANCH   7   9
ENDBRANCH   4   5
ENDBRANCH   3   4
ENDBRANCH   2   3
ENDBRANCH   1   2
BRANCH   1  65
ATOM     65  C   UNL     1       6.514   5.747  -3.784  1.00  0.00     0.021 C 
BRANCH  65  66
ATOM     66  C   UNL     1       7.778   5.966  -4.614  1.00  0.00     0.116 C 
BRANCH  66  67
ATOM     67  N   UNL     1       8.839   5.088  -4.170  1.00  0.00    -0.354 N 
ATOM     68  C   UNL     1       9.264   3.879  -4.630  1.00  0.00     0.247 C 
ATOM     69  H   UNL     1       9.345   5.425  -3.395  1.00  0.00     0.163 HD
ATOM     70  O   UNL     1      10.194   3.370  -3.989  1.00  0.00    -0.272 OA
BRANCH  68  71
ATOM     71  C   UNL     1       8.788   3.242  -5.955  1.00  0.00     0.211 C 
BRANCH  71  72
ATOM     72  N   UNL     1       9.264   1.840  -6.047  1.00  0.00    -0.276 N 
ATOM     73  C   UNL     1      10.299   1.562  -6.929  1.00  0.00     0.267 C 
ATOM     74  C   UNL     1       8.859   0.778  -5.263  1.00  0.00     0.149 C 
ATOM     75  O   UNL     1      10.886   2.367  -7.639  1.00  0.00    -0.268 OA
ATOM     76  C   UNL     1      10.594   0.104  -6.949  1.00  0.00     0.084 C 
ATOM     77  S   UNL     1       9.498  -0.722  -5.920  1.00  0.00    -0.054 SA
ATOM     78  S   UNL     1       7.961   0.736  -3.857  1.00  0.00    -0.052 S 
ATOM     79  C   UNL     1      11.554  -0.435  -7.712  1.00  0.00     0.068 C 
BRANCH  79  80
ATOM     80  C   UNL     1      11.623  -1.840  -7.920  1.00  0.00     0.129 A 
ATOM     81  C   UNL     1      10.790  -2.590  -8.737  1.00  0.00     0.051 A 
ATOM     82  O   UNL     1      12.521  -2.698  -7.322  1.00  0.00    -0.454 OA
ATOM     83  C   UNL     1      11.183  -3.933  -8.625  1.00  0.00     0.054 A 
ATOM     84  C   UNL     1      12.249  -3.979  -7.745  1.00  0.00     0.163 A 
BRANCH  84  85
ATOM     85  C   UNL     1      12.940  -5.174  -7.341  1.00  0.00     0.160 A 
ATOM     86  N   UNL     1      12.812  -6.282  -8.041  1.00  0.00    -0.233 NA
ATOM     87  S   UNL     1      13.895  -5.295  -5.927  1.00  0.00    -0.111 S 
ATOM     88  C   UNL     1      13.475  -7.318  -7.417  1.00  0.00     0.082 A 
ATOM     89  C   UNL     1      14.116  -6.984  -6.222  1.00  0.00     0.055 A 
ATOM     90  C   UNL     1      13.533  -8.647  -7.880  1.00  0.00     0.030 A 
ATOM     91  C   UNL     1      14.797  -7.950  -5.462  1.00  0.00     0.021 A 
ATOM     92  C   UNL     1      14.210  -9.614  -7.133  1.00  0.00     0.002 A 
ATOM     93  C   UNL     1      14.828  -9.268  -5.936  1.00  0.00     0.002 A 
ENDBRANCH  84  85
ENDBRANCH  79  80
ENDBRANCH  71  72
BRANCH  71  94
ATOM     94  C   UNL     1       7.358   3.435  -6.471  1.00  0.00    -0.016 A 
ATOM     95  C   UNL     1       6.209   3.057  -5.765  1.00  0.00     0.006 A 
ATOM     96  C   UNL     1       7.161   4.048  -7.728  1.00  0.00     0.006 A 
ATOM     97  C   UNL     1       4.925   3.291  -6.268  1.00  0.00     0.000 A 
ATOM     98  C   UNL     1       5.877   4.306  -8.223  1.00  0.00     0.000 A 
ATOM     99  C   UNL     1       4.757   3.925  -7.492  1.00  0.00     0.000 A 
ENDBRANCH  71  94
ENDBRANCH  68  71
ENDBRANCH  66  67
ENDBRANCH  65  66
ENDBRANCH   1  65
TORSDOF 17
