REMARK SMILES O=C(NCCCCCCNC(=O)[C@@]1(CCc2ccccc2)CCC[N@@H+](Cc2cccnc2)C1)c1ccc(-c2c3nc(c(-c4c(F)cccc4F)c4ccc([nH]4)c(-c4c(F)cccc4F)c4nc(c(-c5c(F)cccc5F)c5ccc2[nH]5)C=C4)C=C3)cc1
REMARK SMILES IDX 7 1 6 2 5 3 4 4 3 5 1 6 2 7 34 9 35 10 87 11 36 12 86 13
REMARK SMILES IDX 37 14 38 15 39 16 80 17 40 18 85 19 79 20 81 21 41 22 84 23
REMARK SMILES IDX 78 24 77 25 42 27 68 28 51 29 67 30 52 31 55 32 66 33 82 34
REMARK SMILES IDX 53 35 54 36 65 38 83 39 56 40 43 41 44 42 49 43 45 44 46 45
REMARK SMILES IDX 48 46 50 47 47 48 69 49 70 50 75 51 71 52 72 53 74 54 76 55
REMARK SMILES IDX 73 56 57 57 58 58 63 59 59 60 60 61 62 62 64 63 61 64 8 65
REMARK SMILES IDX 9 66 10 67 11 68 12 70 13 71 22 72 33 73 23 74 25 75 24 76
REMARK SMILES IDX 14 78 15 79 16 80 17 81 21 82 18 83 20 84 19 85 26 86 27 87
REMARK SMILES IDX 28 88 32 89 29 90 31 91 30 92
REMARK H PARENT 3 8 81 26 55 37 10 69 25 77
REMARK Flexibility Score: inf
ROOT
ATOM      1  C   UNL     1      11.716   9.722  -5.904  1.00  0.00     0.002 C 
ENDROOT
BRANCH   1   2
ATOM      2  C   UNL     1      10.973  11.014  -6.269  1.00  0.00     0.002 C 
BRANCH   2   3
ATOM      3  C   UNL     1      10.513  11.844  -5.071  1.00  0.00     0.021 C 
BRANCH   3   4
ATOM      4  C   UNL     1      11.645  12.275  -4.150  1.00  0.00     0.116 C 
BRANCH   4   5
ATOM      5  N   UNL     1      12.524  13.241  -4.788  1.00  0.00    -0.352 N 
ATOM      6  O   UNL     1      13.450  15.275  -5.108  1.00  0.00    -0.269 OA
ATOM      7  C   UNL     1      12.866  14.503  -4.364  1.00  0.00     0.251 C 
ATOM      8  H   UNL     1      12.928  12.952  -5.639  1.00  0.00     0.163 HD
BRANCH   7   9
ATOM      9  C   UNL     1      12.506  14.918  -2.991  1.00  0.00     0.039 A 
ATOM     10  C   UNL     1      12.722  14.050  -1.918  1.00  0.00     0.014 A 
ATOM     11  C   UNL     1      11.953  16.183  -2.776  1.00  0.00     0.014 A 
ATOM     12  C   UNL     1      12.267  14.394  -0.654  1.00  0.00     0.010 A 
ATOM     13  C   UNL     1      11.582  16.566  -1.484  1.00  0.00     0.010 A 
ATOM     14  C   UNL     1      11.721  15.667  -0.416  1.00  0.00    -0.014 A 
BRANCH  14  15
ATOM     15  C   UNL     1      11.407  16.050   0.983  1.00  0.00     0.031 A 
ATOM     16  C   UNL     1      10.000  16.316   1.432  1.00  0.00     0.074 A 
ATOM     17  C   UNL     1      12.426  16.096   1.864  1.00  0.00     0.049 A 
ATOM     18  N   UNL     1       9.564  16.593   2.635  1.00  0.00    -0.248 NA
ATOM     19  C   UNL     1       8.947  16.274   0.407  1.00  0.00     0.031 C 
ATOM     20  C   UNL     1      13.837  15.879   1.529  1.00  0.00     0.029 A 
ATOM     21  N   UNL     1      12.436  16.303   3.218  1.00  0.00    -0.354 N 
ATOM     22  C   UNL     1       8.192  16.767   2.514  1.00  0.00     0.074 A 
ATOM     23  C   UNL     1       7.869  16.591   1.113  1.00  0.00     0.031 C 
ATOM     24  C   UNL     1      14.566  15.902   2.652  1.00  0.00     0.029 A 
ATOM     25  C   UNL     1      13.687  16.199   3.776  1.00  0.00     0.049 A 
ATOM     26  H   UNL     1      11.627  16.507   3.740  1.00  0.00     0.167 HD
ATOM     27  C   UNL     1       7.288  17.040   3.485  1.00  0.00     0.037 A 
ATOM     28  C   UNL     1      14.088  16.338   5.052  1.00  0.00     0.037 A 
ATOM     29  C   UNL     1       7.619  17.210   4.878  1.00  0.00     0.049 A 
ATOM     30  C   UNL     1      13.062  16.641   6.103  1.00  0.00     0.074 A 
ATOM     31  C   UNL     1       6.772  17.481   5.940  1.00  0.00     0.029 A 
ATOM     32  N   UNL     1       8.900  17.124   5.403  1.00  0.00    -0.354 N 
ATOM     33  N   UNL     1      11.765  16.782   5.972  1.00  0.00    -0.248 NA
ATOM     34  C   UNL     1      13.555  16.810   7.475  1.00  0.00     0.031 C 
ATOM     35  C   UNL     1       7.545  17.592   7.101  1.00  0.00     0.029 A 
ATOM     36  C   UNL     1       8.868  17.349   6.771  1.00  0.00     0.049 A 
ATOM     37  H   UNL     1       9.712  16.931   4.881  1.00  0.00     0.167 HD
ATOM     38  C   UNL     1      11.286  17.054   7.245  1.00  0.00     0.074 A 
ATOM     39  C   UNL     1      12.427  17.020   8.137  1.00  0.00     0.031 C 
ATOM     40  C   UNL     1      10.017  17.322   7.638  1.00  0.00     0.037 A 
BRANCH  27  41
ATOM     41  C   UNL     1       5.848  17.179   3.082  1.00  0.00     0.057 A 
ATOM     42  C   UNL     1       5.069  16.067   2.740  1.00  0.00     0.134 A 
ATOM     43  C   UNL     1       5.216  18.429   3.103  1.00  0.00     0.134 A 
ATOM     44  F   UNL     1       5.616  14.843   2.689  1.00  0.00    -0.206 F 
ATOM     45  C   UNL     1       3.714  16.194   2.425  1.00  0.00     0.040 A 
ATOM     46  C   UNL     1       3.857  18.566   2.810  1.00  0.00     0.040 A 
ATOM     47  F   UNL     1       5.903  19.535   3.428  1.00  0.00    -0.206 F 
ATOM     48  C   UNL     1       3.103  17.446   2.468  1.00  0.00     0.006 A 
ENDBRANCH  27  41
BRANCH  28  49
ATOM     49  C   UNL     1      15.525  16.205   5.396  1.00  0.00     0.057 A 
ATOM     50  C   UNL     1      15.995  15.132   6.160  1.00  0.00     0.134 A 
ATOM     51  C   UNL     1      16.463  17.151   4.964  1.00  0.00     0.134 A 
ATOM     52  F   UNL     1      15.143  14.202   6.615  1.00  0.00    -0.206 F 
ATOM     53  C   UNL     1      17.344  15.014   6.498  1.00  0.00     0.040 A 
ATOM     54  C   UNL     1      17.818  17.029   5.269  1.00  0.00     0.040 A 
ATOM     55  F   UNL     1      16.076  18.197   4.219  1.00  0.00    -0.206 F 
ATOM     56  C   UNL     1      18.261  15.962   6.046  1.00  0.00     0.006 A 
ENDBRANCH  28  49
BRANCH  40  57
ATOM     57  C   UNL     1       9.812  17.590   9.099  1.00  0.00     0.057 A 
ATOM     58  C   UNL     1      10.245  18.782   9.694  1.00  0.00     0.134 A 
ATOM     59  C   UNL     1       9.182  16.646   9.919  1.00  0.00     0.134 A 
ATOM     60  F   UNL     1      10.871  19.718   8.965  1.00  0.00    -0.206 F 
ATOM     61  C   UNL     1      10.088  19.011  11.062  1.00  0.00     0.040 A 
ATOM     62  C   UNL     1       8.997  16.875  11.282  1.00  0.00     0.040 A 
ATOM     63  F   UNL     1       8.739  15.487   9.408  1.00  0.00    -0.206 F 
ATOM     64  C   UNL     1       9.459  18.057  11.859  1.00  0.00     0.006 A 
ENDBRANCH  40  57
ENDBRANCH  14  15
ENDBRANCH   7   9
ENDBRANCH   4   5
ENDBRANCH   3   4
ENDBRANCH   2   3
ENDBRANCH   1   2
BRANCH   1  65
ATOM     65  C   UNL     1      10.997   8.839  -4.872  1.00  0.00     0.021 C 
BRANCH  65  66
ATOM     66  C   UNL     1       9.630   8.349  -5.360  1.00  0.00     0.116 C 
BRANCH  66  67
ATOM     67  N   UNL     1       9.826   7.228  -6.251  1.00  0.00    -0.355 N 
ATOM     68  C   UNL     1       9.867   5.890  -6.017  1.00  0.00     0.231 C 
ATOM     69  H   UNL     1       9.952   7.478  -7.195  1.00  0.00     0.163 HD
ATOM     70  O   UNL     1      10.607   5.261  -6.781  1.00  0.00    -0.274 OA
BRANCH  68  71
ATOM     71  C   UNL     1       9.013   5.183  -4.931  1.00  0.00     0.098 C 
ATOM     72  C   UNL     1       9.373   3.666  -4.976  1.00  0.00     0.028 C 
ATOM     73  C   UNL     1       9.449   5.678  -3.526  1.00  0.00     0.279 C 
ATOM     74  C   UNL     1       8.877   2.880  -3.765  1.00  0.00     0.063 C 
ATOM     75  N   UNL     1       9.027   4.885  -2.359  1.00  0.00    -0.330 N 
ATOM     76  C   UNL     1       9.425   3.483  -2.477  1.00  0.00     0.262 C 
ATOM     77  H   UNL     1       8.007   4.897  -2.349  1.00  0.00     0.348 HD
BRANCH  71  78
ATOM     78  C   UNL     1       7.487   5.421  -5.179  1.00  0.00     0.027 C 
BRANCH  78  79
ATOM     79  C   UNL     1       6.981   5.546  -6.637  1.00  0.00     0.037 C 
BRANCH  79  80
ATOM     80  C   UNL     1       7.322   4.415  -7.571  1.00  0.00    -0.048 A 
ATOM     81  C   UNL     1       6.784   3.135  -7.386  1.00  0.00     0.004 A 
ATOM     82  C   UNL     1       8.230   4.617  -8.621  1.00  0.00     0.004 A 
ATOM     83  C   UNL     1       7.203   2.070  -8.187  1.00  0.00     0.000 A 
ATOM     84  C   UNL     1       8.654   3.552  -9.416  1.00  0.00     0.000 A 
ATOM     85  C   UNL     1       8.149   2.275  -9.190  1.00  0.00     0.000 A 
ENDBRANCH  79  80
ENDBRANCH  78  79
ENDBRANCH  71  78
BRANCH  75  86
ATOM     86  C   UNL     1       9.461   5.493  -1.079  1.00  0.00     0.300 C 
BRANCH  86  87
ATOM     87  C   UNL     1      10.953   5.601  -0.851  1.00  0.00     0.025 A 
ATOM     88  C   UNL     1      11.726   6.611  -1.436  1.00  0.00     0.013 A 
ATOM     89  C   UNL     1      11.628   4.664  -0.075  1.00  0.00     0.120 A 
ATOM     90  C   UNL     1      13.110   6.602  -1.296  1.00  0.00     0.021 A 
ATOM     91  N   UNL     1      12.969   4.647   0.105  1.00  0.00    -0.264 NA
ATOM     92  C   UNL     1      13.681   5.605  -0.525  1.00  0.00     0.111 A 
ENDBRANCH  86  87
ENDBRANCH  75  86
ENDBRANCH  68  71
ENDBRANCH  66  67
ENDBRANCH  65  66
ENDBRANCH   1  65
TORSDOF 18
