REMARK SMILES C[C@]1(C(=O)NCCCCCCNC(=O)c2ccc(-c3c4nc(c(-c5c(F)cccc5F)c5ccc([nH]5)c(-c5c(F)cccc5F)c5nc(c(-c6c(F)cccc6F)c6ccc3[nH]6)C=C5)C=C4)cc2)[NH2+]C2(C(=O)c3ccccc3C2=O)[C@@H]2C(=O)N(c3ccccc3)C(=O)[C@H]21
REMARK SMILES IDX 9 1 8 2 7 3 6 4 5 5 3 6 4 7 2 9 1 10 69 11 93 12 70 13 81 16
REMARK SMILES IDX 91 17 71 18 79 19 82 20 84 21 92 22 72 23 73 24 78 25 80 26
REMARK SMILES IDX 83 27 74 28 77 29 75 30 76 31 85 32 86 33 90 34 87 35 89 36
REMARK SMILES IDX 88 37 10 38 11 39 12 40 13 41 14 43 15 44 16 45 68 46 17 47
REMARK SMILES IDX 67 48 18 49 19 50 20 51 61 52 21 53 66 54 60 55 62 56 22 57
REMARK SMILES IDX 65 58 59 59 58 60 23 62 49 63 32 64 48 65 33 66 36 67 47 68
REMARK SMILES IDX 63 69 34 70 35 71 46 73 64 74 37 75 24 76 25 77 30 78 26 79
REMARK SMILES IDX 27 80 29 81 31 82 28 83 50 84 51 85 56 86 52 87 53 88 55 89
REMARK SMILES IDX 57 90 54 91 38 92 39 93 44 94 40 95 41 96 43 97 45 98 42 99
REMARK H PARENT 5 8 69 14 69 15 12 42 62 61 36 72
REMARK Flexibility Score: inf
ROOT
ATOM      1  C   UNL     1      -3.171  -2.507  -5.960  1.00  0.00     0.002 C 
ENDROOT
BRANCH   1   2
ATOM      2  C   UNL     1      -3.913  -2.037  -4.702  1.00  0.00     0.002 C 
BRANCH   2   3
ATOM      3  C   UNL     1      -3.255  -2.328  -3.357  1.00  0.00     0.021 C 
BRANCH   3   4
ATOM      4  C   UNL     1      -1.808  -1.881  -3.196  1.00  0.00     0.116 C 
BRANCH   4   5
ATOM      5  N   UNL     1      -1.568  -0.638  -2.523  1.00  0.00    -0.351 N 
ATOM      6  C   UNL     1      -0.641  -0.289  -1.585  1.00  0.00     0.281 C 
ATOM      7  O   UNL     1      -0.784   0.871  -1.169  1.00  0.00    -0.268 OA
ATOM      8  H   UNL     1      -2.178   0.089  -2.783  1.00  0.00     0.163 HD
BRANCH   6   9
ATOM      9  C   UNL     1       0.543  -1.196  -1.014  1.00  0.00     0.186 C 
ATOM     10  C   UNL     1       1.254  -0.310   0.048  1.00  0.00     0.091 C 
ATOM     11  N   UNL     1       0.069  -2.471  -0.330  1.00  0.00    -0.314 N 
ATOM     12  C   UNL     1       1.602  -1.732  -1.936  1.00  0.00     0.170 C 
ATOM     13  C   UNL     1       0.594  -3.682  -1.104  1.00  0.00     0.236 C 
ATOM     14  H   UNL     1      -0.951  -2.492  -0.315  1.00  0.00     0.348 HD
ATOM     15  H   UNL     1       0.421  -2.498   0.627  1.00  0.00     0.348 HD
ATOM     16  C   UNL     1       1.097  -3.086  -2.385  1.00  0.00     0.177 C 
ATOM     17  C   UNL     1       2.045  -1.150  -3.227  1.00  0.00     0.244 C 
ATOM     18  C   UNL     1       1.613  -4.511  -0.314  1.00  0.00     0.232 C 
ATOM     19  C   UNL     1      -0.569  -4.683  -1.261  1.00  0.00     0.232 C 
ATOM     20  C   UNL     1       2.196  -3.461  -3.324  1.00  0.00     0.245 C 
ATOM     21  N   UNL     1       2.546  -2.249  -3.928  1.00  0.00    -0.250 N 
ATOM     22  O   UNL     1       1.989   0.022  -3.537  1.00  0.00    -0.273 OA
ATOM     23  O   UNL     1       2.686  -4.124   0.114  1.00  0.00    -0.286 OA
ATOM     24  C   UNL     1       1.065  -5.864  -0.104  1.00  0.00     0.036 A 
ATOM     25  C   UNL     1      -0.212  -5.936  -0.632  1.00  0.00     0.036 A 
ATOM     26  O   UNL     1      -1.656  -4.559  -1.796  1.00  0.00    -0.286 OA
ATOM     27  O   UNL     1       2.520  -4.605  -3.590  1.00  0.00    -0.273 OA
ATOM     28  C   UNL     1       1.617  -6.969   0.517  1.00  0.00     0.013 A 
ATOM     29  C   UNL     1      -1.008  -7.068  -0.554  1.00  0.00     0.013 A 
ATOM     30  C   UNL     1       0.839  -8.138   0.595  1.00  0.00     0.001 A 
ATOM     31  C   UNL     1      -0.467  -8.185   0.070  1.00  0.00     0.001 A 
BRANCH  21  32
ATOM     32  C   UNL     1       3.101  -2.103  -5.211  1.00  0.00     0.052 A 
ATOM     33  C   UNL     1       4.131  -1.180  -5.429  1.00  0.00     0.027 A 
ATOM     34  C   UNL     1       2.519  -2.757  -6.303  1.00  0.00     0.027 A 
ATOM     35  C   UNL     1       4.582  -0.919  -6.723  1.00  0.00     0.002 A 
ATOM     36  C   UNL     1       2.933  -2.450  -7.601  1.00  0.00     0.002 A 
ATOM     37  C   UNL     1       3.968  -1.538  -7.810  1.00  0.00     0.000 A 
ENDBRANCH  21  32
ENDBRANCH   6   9
ENDBRANCH   4   5
ENDBRANCH   3   4
ENDBRANCH   2   3
ENDBRANCH   1   2
BRANCH   1  38
ATOM     38  C   UNL     1      -2.659  -3.950  -5.992  1.00  0.00     0.021 C 
BRANCH  38  39
ATOM     39  C   UNL     1      -3.674  -5.051  -5.696  1.00  0.00     0.116 C 
BRANCH  39  40
ATOM     40  N   UNL     1      -4.851  -5.003  -6.549  1.00  0.00    -0.352 N 
ATOM     41  C   UNL     1      -5.397  -5.953  -7.378  1.00  0.00     0.251 C 
ATOM     42  H   UNL     1      -5.337  -4.147  -6.529  1.00  0.00     0.163 HD
ATOM     43  O   UNL     1      -6.355  -5.665  -8.090  1.00  0.00    -0.269 OA
BRANCH  41  44
ATOM     44  C   UNL     1      -4.818  -7.313  -7.452  1.00  0.00     0.039 A 
ATOM     45  C   UNL     1      -4.453  -8.012  -6.301  1.00  0.00     0.014 A 
ATOM     46  C   UNL     1      -4.639  -7.901  -8.709  1.00  0.00     0.014 A 
ATOM     47  C   UNL     1      -3.751  -9.210  -6.413  1.00  0.00     0.010 A 
ATOM     48  C   UNL     1      -4.008  -9.145  -8.816  1.00  0.00     0.010 A 
ATOM     49  C   UNL     1      -3.507  -9.784  -7.671  1.00  0.00    -0.014 A 
BRANCH  49  50
ATOM     50  C   UNL     1      -2.706 -11.033  -7.768  1.00  0.00     0.031 A 
ATOM     51  C   UNL     1      -1.367 -11.034  -8.460  1.00  0.00     0.074 A 
ATOM     52  C   UNL     1      -3.161 -12.161  -7.189  1.00  0.00     0.049 A 
ATOM     53  N   UNL     1      -0.523 -12.023  -8.629  1.00  0.00    -0.248 NA
ATOM     54  C   UNL     1      -0.916  -9.760  -9.042  1.00  0.00     0.031 C 
ATOM     55  C   UNL     1      -4.439 -12.294  -6.487  1.00  0.00     0.029 A 
ATOM     56  N   UNL     1      -2.594 -13.406  -7.084  1.00  0.00    -0.354 N 
ATOM     57  C   UNL     1       0.543 -11.497  -9.349  1.00  0.00     0.074 A 
ATOM     58  C   UNL     1       0.229 -10.110  -9.613  1.00  0.00     0.031 C 
ATOM     59  C   UNL     1      -4.541 -13.537  -5.991  1.00  0.00     0.029 A 
ATOM     60  C   UNL     1      -3.366 -14.305  -6.388  1.00  0.00     0.049 A 
ATOM     61  H   UNL     1      -1.718 -13.634  -7.471  1.00  0.00     0.167 HD
ATOM     62  C   UNL     1       1.686 -12.109  -9.744  1.00  0.00     0.037 A 
ATOM     63  C   UNL     1      -3.161 -15.606  -6.115  1.00  0.00     0.037 A 
ATOM     64  C   UNL     1       2.010 -13.484  -9.464  1.00  0.00     0.049 A 
ATOM     65  C   UNL     1      -1.904 -16.270  -6.603  1.00  0.00     0.074 A 
ATOM     66  C   UNL     1       3.159 -14.184  -9.794  1.00  0.00     0.029 A 
ATOM     67  N   UNL     1       1.183 -14.370  -8.791  1.00  0.00    -0.354 N 
ATOM     68  N   UNL     1      -0.893 -15.750  -7.256  1.00  0.00    -0.248 NA
ATOM     69  C   UNL     1      -1.763 -17.704  -6.319  1.00  0.00     0.031 C 
ATOM     70  C   UNL     1       3.007 -15.506  -9.359  1.00  0.00     0.029 A 
ATOM     71  C   UNL     1       1.785 -15.616  -8.716  1.00  0.00     0.049 A 
ATOM     72  H   UNL     1       0.298 -14.147  -8.421  1.00  0.00     0.167 HD
ATOM     73  C   UNL     1       0.011 -16.787  -7.444  1.00  0.00     0.074 A 
ATOM     74  C   UNL     1      -0.561 -17.960  -6.815  1.00  0.00     0.031 C 
ATOM     75  C   UNL     1       1.205 -16.773  -8.084  1.00  0.00     0.037 A 
BRANCH  62  76
ATOM     76  C   UNL     1       2.670 -11.298 -10.537  1.00  0.00     0.057 A 
ATOM     77  C   UNL     1       2.879 -11.562 -11.898  1.00  0.00     0.134 A 
ATOM     78  C   UNL     1       3.442 -10.287  -9.951  1.00  0.00     0.134 A 
ATOM     79  F   UNL     1       2.179 -12.523 -12.520  1.00  0.00    -0.206 F 
ATOM     80  C   UNL     1       3.821 -10.852 -12.644  1.00  0.00     0.040 A 
ATOM     81  C   UNL     1       4.370  -9.553 -10.694  1.00  0.00     0.040 A 
ATOM     82  F   UNL     1       3.284  -9.976  -8.656  1.00  0.00    -0.206 F 
ATOM     83  C   UNL     1       4.566  -9.840 -12.043  1.00  0.00     0.006 A 
ENDBRANCH  62  76
BRANCH  63  84
ATOM     84  C   UNL     1      -4.178 -16.381  -5.360  1.00  0.00     0.057 A 
ATOM     85  C   UNL     1      -5.426 -16.680  -5.919  1.00  0.00     0.134 A 
ATOM     86  C   UNL     1      -3.913 -16.866  -4.075  1.00  0.00     0.134 A 
ATOM     87  F   UNL     1      -5.742 -16.240  -7.146  1.00  0.00    -0.206 F 
ATOM     88  C   UNL     1      -6.376 -17.430  -5.227  1.00  0.00     0.040 A 
ATOM     89  C   UNL     1      -4.843 -17.643  -3.382  1.00  0.00     0.040 A 
ATOM     90  F   UNL     1      -2.728 -16.630  -3.494  1.00  0.00    -0.206 F 
ATOM     91  C   UNL     1      -6.081 -17.923  -3.957  1.00  0.00     0.006 A 
ENDBRANCH  63  84
BRANCH  75  92
ATOM     92  C   UNL     1       1.981 -18.057  -8.104  1.00  0.00     0.057 A 
ATOM     93  C   UNL     1       3.143 -18.199  -7.337  1.00  0.00     0.134 A 
ATOM     94  C   UNL     1       1.585 -19.148  -8.889  1.00  0.00     0.134 A 
ATOM     95  F   UNL     1       3.581 -17.190  -6.568  1.00  0.00    -0.206 F 
ATOM     96  C   UNL     1       3.883 -19.383  -7.346  1.00  0.00     0.040 A 
ATOM     97  C   UNL     1       2.301 -20.346  -8.886  1.00  0.00     0.040 A 
ATOM     98  F   UNL     1       0.471 -19.080  -9.634  1.00  0.00    -0.206 F 
ATOM     99  C   UNL     1       3.457 -20.463  -8.116  1.00  0.00     0.006 A 
ENDBRANCH  75  92
ENDBRANCH  49  50
ENDBRANCH  41  44
ENDBRANCH  39  40
ENDBRANCH  38  39
ENDBRANCH   1  38
TORSDOF 14
