REMARK SMILES Cc1ccc(S(=O)(=O)Nc2ccc(C(=O)CCC(=O)NCCCCCCNC(=O)c3ccc(-c4c5nc(c(-c6c(F)cccc6F)c6ccc([nH]6)c(-c6c(F)cccc6F)c6nc(c(-c7c(F)cccc7F)c7ccc4[nH]7)C=C6)C=C5)cc3)cc2)c(C)c1
REMARK SMILES IDX 21 1 20 2 18 3 19 4 17 6 16 7 14 8 15 9 13 10 10 11 11 12
REMARK SMILES IDX 85 13 12 14 84 15 9 16 6 18 7 19 8 20 5 21 1 22 2 23 3 24
REMARK SMILES IDX 88 25 4 26 86 27 87 28 22 29 23 30 24 31 25 32 26 33 27 34
REMARK SMILES IDX 28 35 29 37 30 38 31 39 83 40 32 41 82 42 33 43 34 44 35 45
REMARK SMILES IDX 76 46 36 47 81 48 75 49 77 50 37 51 80 52 74 53 73 54 38 56
REMARK SMILES IDX 64 57 47 58 63 59 48 60 51 61 62 62 78 63 49 64 50 65 61 67
REMARK SMILES IDX 79 68 52 69 39 70 40 71 45 72 41 73 42 74 44 75 46 76 43 77
REMARK SMILES IDX 65 78 66 79 71 80 67 81 68 82 70 83 72 84 69 85 53 86 54 87
REMARK SMILES IDX 59 88 55 89 56 90 58 91 60 92 57 93
REMARK H PARENT 20 5 9 17 27 36 77 55 51 66
REMARK Flexibility Score: inf
ROOT
ATOM      1  C   UNL     1       2.064  -3.070  -0.739  1.00  0.00     0.116 C 
ENDROOT
BRANCH   1   2
ATOM      2  N   UNL     1       2.929  -2.404   0.262  1.00  0.00    -0.356 N 
ATOM      3  C   UNL     1       3.776  -3.009   1.167  1.00  0.00     0.220 C 
ATOM      4  O   UNL     1       4.064  -2.394   2.195  1.00  0.00    -0.275 OA
ATOM      5  H   UNL     1       2.896  -1.421   0.284  1.00  0.00     0.163 HD
BRANCH   3   6
ATOM      6  C   UNL     1       4.334  -4.421   0.906  1.00  0.00     0.108 C 
BRANCH   6   7
ATOM      7  C   UNL     1       3.712  -5.566   1.755  1.00  0.00     0.091 C 
BRANCH   7   8
ATOM      8  C   UNL     1       2.875  -6.631   0.989  1.00  0.00     0.163 C 
ATOM      9  O   UNL     1       3.358  -7.665   0.541  1.00  0.00    -0.294 OA
BRANCH   8  10
ATOM     10  C   UNL     1       1.458  -6.279   0.603  1.00  0.00     0.018 A 
ATOM     11  C   UNL     1      -0.613  -3.491  -0.516  1.00  0.00     0.049 A 
ATOM     12  C   UNL     1       0.289  -4.515  -1.732  1.00  0.00     0.027 A 
ATOM     13  C   UNL     1      -0.506  -3.894   1.223  1.00  0.00     0.027 A 
ATOM     14  C   UNL     1       1.301  -5.918  -1.180  1.00  0.00     0.014 A 
ATOM     15  C   UNL     1       0.524  -5.292   1.777  1.00  0.00     0.014 A 
BRANCH  11  16
ATOM     16  N   UNL     1      -1.669  -2.670  -1.053  1.00  0.00    -0.280 N 
ATOM     17  H   UNL     1      -2.069  -2.966  -1.903  1.00  0.00     0.180 HD
BRANCH  16  18
ATOM     18  S   UNL     1      -2.288  -1.268  -0.383  1.00  0.00     0.262 S 
ATOM     19  O   UNL     1      -2.422  -1.480   1.040  1.00  0.00    -0.201 OA
ATOM     20  O   UNL     1      -3.434  -0.949  -1.207  1.00  0.00    -0.201 OA
BRANCH  18  21
ATOM     21  C   UNL     1      -1.079  -0.021  -0.672  1.00  0.00     0.090 A 
ATOM     22  C   UNL     1       2.559   2.048   0.066  1.00  0.00     0.044 C 
ATOM     23  C   UNL     1       1.250   1.419  -0.300  1.00  0.00    -0.051 A 
ATOM     24  C   UNL     1       1.221   0.381  -1.230  1.00  0.00     0.005 A 
ATOM     25  C   UNL     1       0.047   1.872   0.259  1.00  0.00     0.008 A 
ATOM     26  C   UNL     1       0.043  -0.324  -1.438  1.00  0.00     0.023 A 
ATOM     27  C   UNL     1      -1.142   1.162   0.068  1.00  0.00    -0.030 A 
ATOM     28  C   UNL     1      -2.454   1.741   0.522  1.00  0.00     0.046 C 
ENDBRANCH  18  21
ENDBRANCH  16  18
ENDBRANCH  11  16
ENDBRANCH   8  10
ENDBRANCH   7   8
ENDBRANCH   6   7
ENDBRANCH   3   6
ENDBRANCH   1   2
BRANCH   1  29
ATOM     29  C   UNL     1       1.238  -4.232   0.071  1.00  0.00     0.021 C 
BRANCH  29  30
ATOM     30  C   UNL     1      -0.465  -5.565  -0.120  1.00  0.00     0.002 C 
BRANCH  30  31
ATOM     31  C   UNL     1      -1.793  -5.711  -1.197  1.00  0.00     0.002 C 
BRANCH  31  32
ATOM     32  C   UNL     1      -1.664  -6.519  -2.482  1.00  0.00     0.021 C 
BRANCH  32  33
ATOM     33  C   UNL     1      -2.441  -7.805  -2.372  1.00  0.00     0.116 C 
BRANCH  33  34
ATOM     34  N   UNL     1      -3.883  -7.558  -2.261  1.00  0.00    -0.352 N 
ATOM     35  C   UNL     1      -4.883  -7.957  -3.115  1.00  0.00     0.251 C 
ATOM     36  H   UNL     1      -4.171  -7.040  -1.474  1.00  0.00     0.163 HD
ATOM     37  O   UNL     1      -6.014  -7.495  -3.047  1.00  0.00    -0.269 OA
BRANCH  35  38
ATOM     38  C   UNL     1      -4.527  -8.955  -4.134  1.00  0.00     0.039 A 
ATOM     39  C   UNL     1      -4.827  -8.722  -5.475  1.00  0.00     0.014 A 
ATOM     40  C   UNL     1      -3.744 -10.041  -3.739  1.00  0.00     0.014 A 
ATOM     41  C   UNL     1      -4.263  -9.553  -6.440  1.00  0.00     0.010 A 
ATOM     42  C   UNL     1      -3.064 -10.757  -4.701  1.00  0.00     0.010 A 
ATOM     43  C   UNL     1      -3.345 -10.545  -6.057  1.00  0.00    -0.014 A 
BRANCH  43  44
ATOM     44  C   UNL     1      -2.695 -11.437  -7.038  1.00  0.00     0.031 A 
ATOM     45  C   UNL     1      -2.920 -12.918  -6.917  1.00  0.00     0.074 A 
ATOM     46  C   UNL     1      -1.833 -10.932  -7.939  1.00  0.00     0.049 A 
ATOM     47  N   UNL     1      -2.355 -13.896  -7.571  1.00  0.00    -0.248 NA
ATOM     48  C   UNL     1      -3.868 -13.361  -5.878  1.00  0.00     0.031 C 
ATOM     49  C   UNL     1      -1.488  -9.516  -8.085  1.00  0.00     0.029 A 
ATOM     50  N   UNL     1      -1.073 -11.560  -8.890  1.00  0.00    -0.354 N 
ATOM     51  C   UNL     1      -2.854 -15.059  -7.001  1.00  0.00     0.074 A 
ATOM     52  C   UNL     1      -3.702 -14.672  -5.900  1.00  0.00     0.031 C 
ATOM     53  C   UNL     1      -0.599  -9.382  -9.082  1.00  0.00     0.029 A 
ATOM     54  C   UNL     1      -0.280 -10.703  -9.613  1.00  0.00     0.049 A 
ATOM     55  H   UNL     1      -1.093 -12.532  -9.040  1.00  0.00     0.167 HD
ATOM     56  C   UNL     1      -2.649 -16.338  -7.387  1.00  0.00     0.037 A 
ATOM     57  C   UNL     1       0.613 -10.964 -10.585  1.00  0.00     0.037 A 
ATOM     58  C   UNL     1      -1.833 -16.699  -8.512  1.00  0.00     0.049 A 
ATOM     59  C   UNL     1       0.816 -12.392 -11.011  1.00  0.00     0.074 A 
ATOM     60  C   UNL     1      -1.634 -17.948  -9.067  1.00  0.00     0.029 A 
ATOM     61  N   UNL     1      -1.074 -15.801  -9.249  1.00  0.00    -0.354 N 
ATOM     62  N   UNL     1       0.254 -13.480 -10.540  1.00  0.00    -0.248 NA
ATOM     63  C   UNL     1       1.773 -12.630 -12.099  1.00  0.00     0.031 C 
ATOM     64  C   UNL     1      -0.703 -17.815 -10.101  1.00  0.00     0.029 A 
ATOM     65  C   UNL     1      -0.365 -16.476 -10.226  1.00  0.00     0.049 A 
ATOM     66  H   UNL     1      -1.044 -14.828  -9.098  1.00  0.00     0.167 HD
ATOM     67  C   UNL     1       0.781 -14.532 -11.277  1.00  0.00     0.074 A 
ATOM     68  C   UNL     1       1.689 -13.946 -12.243  1.00  0.00     0.031 C 
ATOM     69  C   UNL     1       0.543 -15.862 -11.163  1.00  0.00     0.037 A 
BRANCH  56  70
ATOM     70  C   UNL     1      -3.311 -17.418  -6.581  1.00  0.00     0.057 A 
ATOM     71  C   UNL     1      -4.704 -17.578  -6.546  1.00  0.00     0.134 A 
ATOM     72  C   UNL     1      -2.543 -18.308  -5.820  1.00  0.00     0.134 A 
ATOM     73  F   UNL     1      -5.502 -16.748  -7.236  1.00  0.00    -0.206 F 
ATOM     74  C   UNL     1      -5.309 -18.555  -5.754  1.00  0.00     0.040 A 
ATOM     75  C   UNL     1      -3.135 -19.311  -5.051  1.00  0.00     0.040 A 
ATOM     76  F   UNL     1      -1.205 -18.213  -5.805  1.00  0.00    -0.206 F 
ATOM     77  C   UNL     1      -4.522 -19.430  -5.008  1.00  0.00     0.006 A 
ENDBRANCH  56  70
BRANCH  57  78
ATOM     78  C   UNL     1       1.365  -9.849 -11.213  1.00  0.00     0.057 A 
ATOM     79  C   UNL     1       1.106  -9.450 -12.529  1.00  0.00     0.134 A 
ATOM     80  C   UNL     1       2.335  -9.131 -10.502  1.00  0.00     0.134 A 
ATOM     81  F   UNL     1       0.199 -10.106 -13.267  1.00  0.00    -0.206 F 
ATOM     82  C   UNL     1       1.789  -8.384 -13.118  1.00  0.00     0.040 A 
ATOM     83  C   UNL     1       3.007  -8.047 -11.070  1.00  0.00     0.040 A 
ATOM     84  F   UNL     1       2.621  -9.454  -9.232  1.00  0.00    -0.206 F 
ATOM     85  C   UNL     1       2.738  -7.674 -12.384  1.00  0.00     0.006 A 
ENDBRANCH  57  78
BRANCH  69  86
ATOM     86  C   UNL     1       1.282 -16.772 -12.098  1.00  0.00     0.057 A 
ATOM     87  C   UNL     1       2.651 -17.024 -11.945  1.00  0.00     0.134 A 
ATOM     88  C   UNL     1       0.605 -17.455 -13.116  1.00  0.00     0.134 A 
ATOM     89  F   UNL     1       3.357 -16.391 -10.996  1.00  0.00    -0.206 F 
ATOM     90  C   UNL     1       3.324 -17.914 -12.781  1.00  0.00     0.040 A 
ATOM     91  C   UNL     1       1.261 -18.370 -13.940  1.00  0.00     0.040 A 
ATOM     92  F   UNL     1      -0.709 -17.266 -13.307  1.00  0.00    -0.206 F 
ATOM     93  C   UNL     1       2.626 -18.598 -13.775  1.00  0.00     0.006 A 
ENDBRANCH  69  86
ENDBRANCH  43  44
ENDBRANCH  35  38
ENDBRANCH  33  34
ENDBRANCH  32  33
ENDBRANCH  31  32
ENDBRANCH  30  31
ENDBRANCH  29  30
ENDBRANCH   1  29
TORSDOF 19
