REMARK SMILES Cc1ccc([C@@]23C[C@@H]4C[C@@H](C[C@@](C(=O)N5CCC(C(=O)NCCCCCCNC(=O)c6ccc(-c7c8nc(c(-c9c(F)cccc9F)c9ccc([nH]9)c(-c9c(F)cccc9F)c9nc(c(-c%10c(F)cccc%10F)c%10ccc7[nH]%10)C=C9)C=C8)cc6)CC5)(C4)C2)C3)cc1
REMARK SMILES IDX 24 1 23 2 22 3 21 4 19 5 20 6 18 8 13 9 14 10 15 11 16 12
REMARK SMILES IDX 86 13 17 14 85 15 12 16 6 17 7 18 88 19 89 20 8 21 10 22
REMARK SMILES IDX 9 23 87 24 11 25 5 26 1 27 2 28 3 29 91 30 4 31 90 32 25 33
REMARK SMILES IDX 26 34 27 35 28 36 29 37 30 39 31 40 32 41 84 42 33 43 83 44
REMARK SMILES IDX 34 45 35 46 36 47 77 48 37 49 82 50 76 51 78 52 38 53 81 54
REMARK SMILES IDX 75 55 74 56 39 58 65 59 48 60 64 61 49 62 52 63 63 64 79 65
REMARK SMILES IDX 50 66 51 67 62 69 80 70 53 71 40 72 41 73 46 74 42 75 43 76
REMARK SMILES IDX 45 77 47 78 44 79 66 80 67 81 72 82 68 83 69 84 71 85 73 86
REMARK SMILES IDX 70 87 54 88 55 89 60 90 56 91 57 92 59 93 61 94 58 95
REMARK H PARENT 21 7 28 38 78 57 52 68
REMARK Flexibility Score: inf
ROOT
ATOM      1  C   UNL     1     -10.807  -2.328  -4.737  1.00  0.00     0.002 C 
ENDROOT
BRANCH   1   2
ATOM      2  C   UNL     1      -9.503  -2.075  -3.970  1.00  0.00     0.021 C 
BRANCH   2   3
ATOM      3  C   UNL     1      -8.775  -3.327  -3.487  1.00  0.00     0.116 C 
BRANCH   3   4
ATOM      4  N   UNL     1      -8.285  -4.142  -4.586  1.00  0.00    -0.356 N 
ATOM      5  C   UNL     1      -7.092  -4.776  -4.759  1.00  0.00     0.223 C 
ATOM      6  O   UNL     1      -6.952  -5.483  -5.759  1.00  0.00    -0.275 OA
ATOM      7  H   UNL     1      -8.921  -4.254  -5.329  1.00  0.00     0.163 HD
BRANCH   5   8
ATOM      8  C   UNL     1      -5.951  -4.615  -3.766  1.00  0.00     0.082 C 
ATOM      9  C   UNL     1      -5.816  -2.439  -0.417  1.00  0.00     0.228 C 
ATOM     10  O   UNL     1      -6.710  -2.877   0.314  1.00  0.00    -0.274 OA
ATOM     11  N   UNL     1      -5.209  -3.267  -1.361  1.00  0.00    -0.342 N 
ATOM     12  C   UNL     1      -5.413  -4.705  -1.269  1.00  0.00     0.120 C 
ATOM     13  C   UNL     1      -4.520  -2.881  -2.592  1.00  0.00     0.120 C 
ATOM     14  C   UNL     1      -6.325  -5.189  -2.385  1.00  0.00     0.035 C 
ATOM     15  C   UNL     1      -5.415  -3.174  -3.785  1.00  0.00     0.035 C 
BRANCH   9  16
ATOM     16  C   UNL     1      -5.329  -0.983  -0.242  1.00  0.00     0.051 C 
ATOM     17  C   UNL     1      -3.179   0.407   0.056  1.00  0.00    -0.003 C 
ATOM     18  C   UNL     1      -3.666   1.237  -1.171  1.00  0.00     0.015 C 
ATOM     19  C   UNL     1      -3.799  -1.001  -0.076  1.00  0.00     0.028 C 
ATOM     20  C   UNL     1      -3.766   1.034   1.347  1.00  0.00     0.015 C 
ATOM     21  C   UNL     1      -5.204   1.339  -1.216  1.00  0.00    -0.009 C 
ATOM     22  C   UNL     1      -5.306   1.073   1.277  1.00  0.00    -0.009 C 
ATOM     23  C   UNL     1      -5.721   1.955   0.090  1.00  0.00     0.007 C 
ATOM     24  C   UNL     1      -5.810  -0.061  -1.380  1.00  0.00     0.020 C 
ATOM     25  C   UNL     1      -5.874  -0.352   1.078  1.00  0.00     0.020 C 
BRANCH  17  26
ATOM     26  C   UNL     1      -1.642   0.338   0.107  1.00  0.00    -0.042 A 
ATOM     27  C   UNL     1       2.697   0.146   0.012  1.00  0.00     0.044 C 
ATOM     28  C   UNL     1       1.203   0.231   0.070  1.00  0.00    -0.051 A 
ATOM     29  C   UNL     1       0.451  -0.940   0.131  1.00  0.00     0.004 A 
ATOM     30  C   UNL     1       0.533   1.456   0.053  1.00  0.00     0.004 A 
ATOM     31  C   UNL     1      -0.944  -0.885   0.158  1.00  0.00     0.004 A 
ATOM     32  C   UNL     1      -0.868   1.509   0.077  1.00  0.00     0.004 A 
ENDBRANCH  17  26
ENDBRANCH   9  16
ENDBRANCH   5   8
ENDBRANCH   3   4
ENDBRANCH   2   3
ENDBRANCH   1   2
BRANCH   1  33
ATOM     33  C   UNL     1     -11.832  -3.255  -4.063  1.00  0.00     0.002 C 
BRANCH  33  34
ATOM     34  C   UNL     1     -12.165  -2.950  -2.601  1.00  0.00     0.021 C 
BRANCH  34  35
ATOM     35  C   UNL     1     -12.866  -1.618  -2.377  1.00  0.00     0.116 C 
BRANCH  35  36
ATOM     36  N   UNL     1     -14.319  -1.686  -2.420  1.00  0.00    -0.352 N 
ATOM     37  C   UNL     1     -15.257  -0.662  -2.394  1.00  0.00     0.251 C 
ATOM     38  H   UNL     1     -14.694  -2.595  -2.477  1.00  0.00     0.163 HD
ATOM     39  O   UNL     1     -16.442  -0.922  -2.389  1.00  0.00    -0.269 OA
BRANCH  37  40
ATOM     40  C   UNL     1     -14.803   0.751  -2.522  1.00  0.00     0.039 A 
ATOM     41  C   UNL     1     -15.504   1.575  -3.412  1.00  0.00     0.014 A 
ATOM     42  C   UNL     1     -13.606   1.191  -1.965  1.00  0.00     0.014 A 
ATOM     43  C   UNL     1     -14.873   2.695  -3.947  1.00  0.00     0.010 A 
ATOM     44  C   UNL     1     -12.938   2.239  -2.565  1.00  0.00     0.010 A 
ATOM     45  C   UNL     1     -13.543   2.942  -3.610  1.00  0.00    -0.014 A 
BRANCH  45  46
ATOM     46  C   UNL     1     -12.668   3.787  -4.412  1.00  0.00     0.031 A 
ATOM     47  C   UNL     1     -12.217   5.106  -3.930  1.00  0.00     0.074 A 
ATOM     48  C   UNL     1     -12.194   3.312  -5.587  1.00  0.00     0.049 A 
ATOM     49  N   UNL     1     -11.884   6.079  -4.711  1.00  0.00    -0.248 NA
ATOM     50  C   UNL     1     -12.125   5.442  -2.516  1.00  0.00     0.031 C 
ATOM     51  C   UNL     1     -11.106   3.862  -6.390  1.00  0.00     0.029 A 
ATOM     52  N   UNL     1     -12.755   2.317  -6.396  1.00  0.00    -0.354 N 
ATOM     53  C   UNL     1     -11.277   7.041  -3.939  1.00  0.00     0.074 A 
ATOM     54  C   UNL     1     -11.515   6.631  -2.573  1.00  0.00     0.031 C 
ATOM     55  C   UNL     1     -11.228   3.417  -7.650  1.00  0.00     0.029 A 
ATOM     56  C   UNL     1     -12.480   2.684  -7.729  1.00  0.00     0.049 A 
ATOM     57  H   UNL     1     -13.246   1.519  -6.093  1.00  0.00     0.167 HD
ATOM     58  C   UNL     1     -10.510   8.000  -4.533  1.00  0.00     0.037 A 
ATOM     59  C   UNL     1     -13.478   2.936  -8.623  1.00  0.00     0.037 A 
ATOM     60  C   UNL     1     -10.470   7.836  -5.982  1.00  0.00     0.049 A 
ATOM     61  C   UNL     1     -13.439   4.326  -9.212  1.00  0.00     0.074 A 
ATOM     62  C   UNL     1      -9.546   7.234  -6.822  1.00  0.00     0.029 A 
ATOM     63  N   UNL     1     -11.614   8.045  -6.742  1.00  0.00    -0.354 N 
ATOM     64  N   UNL     1     -12.788   5.320  -8.678  1.00  0.00    -0.248 NA
ATOM     65  C   UNL     1     -14.158   4.718 -10.422  1.00  0.00     0.031 C 
ATOM     66  C   UNL     1     -10.147   7.060  -8.089  1.00  0.00     0.029 A 
ATOM     67  C   UNL     1     -11.434   7.561  -8.024  1.00  0.00     0.049 A 
ATOM     68  H   UNL     1     -12.436   8.477  -6.414  1.00  0.00     0.167 HD
ATOM     69  C   UNL     1     -13.011   6.461  -9.407  1.00  0.00     0.074 A 
ATOM     70  C   UNL     1     -13.853   6.025 -10.504  1.00  0.00     0.031 C 
ATOM     71  C   UNL     1     -12.487   7.663  -9.022  1.00  0.00     0.037 A 
BRANCH  58  72
ATOM     72  C   UNL     1      -9.546   8.872  -3.762  1.00  0.00     0.057 A 
ATOM     73  C   UNL     1      -8.304   9.252  -4.308  1.00  0.00     0.134 A 
ATOM     74  C   UNL     1      -9.770   9.329  -2.453  1.00  0.00     0.134 A 
ATOM     75  F   UNL     1      -7.984   9.002  -5.583  1.00  0.00    -0.206 F 
ATOM     76  C   UNL     1      -7.315   9.910  -3.567  1.00  0.00     0.040 A 
ATOM     77  C   UNL     1      -8.772   9.943  -1.682  1.00  0.00     0.040 A 
ATOM     78  F   UNL     1     -10.977   9.231  -1.880  1.00  0.00    -0.206 F 
ATOM     79  C   UNL     1      -7.530  10.220  -2.234  1.00  0.00     0.006 A 
ENDBRANCH  58  72
BRANCH  59  80
ATOM     80  C   UNL     1     -14.719   2.167  -8.351  1.00  0.00     0.057 A 
ATOM     81  C   UNL     1     -14.680   0.765  -8.456  1.00  0.00     0.134 A 
ATOM     82  C   UNL     1     -15.787   2.724  -7.643  1.00  0.00     0.134 A 
ATOM     83  F   UNL     1     -13.678   0.167  -9.120  1.00  0.00    -0.206 F 
ATOM     84  C   UNL     1     -15.597  -0.051  -7.789  1.00  0.00     0.040 A 
ATOM     85  C   UNL     1     -16.719   1.917  -6.981  1.00  0.00     0.040 A 
ATOM     86  F   UNL     1     -15.881   4.052  -7.482  1.00  0.00    -0.206 F 
ATOM     87  C   UNL     1     -16.602   0.527  -7.020  1.00  0.00     0.006 A 
ENDBRANCH  59  80
BRANCH  71  88
ATOM     88  C   UNL     1     -12.822   9.025  -9.585  1.00  0.00     0.057 A 
ATOM     89  C   UNL     1     -14.034   9.354 -10.208  1.00  0.00     0.134 A 
ATOM     90  C   UNL     1     -11.950  10.120  -9.372  1.00  0.00     0.134 A 
ATOM     91  F   UNL     1     -15.005   8.448 -10.382  1.00  0.00    -0.206 F 
ATOM     92  C   UNL     1     -14.335  10.657 -10.633  1.00  0.00     0.040 A 
ATOM     93  C   UNL     1     -12.262  11.431  -9.742  1.00  0.00     0.040 A 
ATOM     94  F   UNL     1     -10.760   9.970  -8.771  1.00  0.00    -0.206 F 
ATOM     95  C   UNL     1     -13.455  11.703 -10.388  1.00  0.00     0.006 A 
ENDBRANCH  71  88
ENDBRANCH  45  46
ENDBRANCH  37  40
ENDBRANCH  35  36
ENDBRANCH  34  35
ENDBRANCH  33  34
ENDBRANCH   1  33
TORSDOF 15
