REMARK SMILES O=C(NCCCCCCNC(=O)c1cc(N2CCN(c3ccc(F)cc3)CC2)ccc1NC(=O)C1CCCC1)c1ccc(-c2c3nc(c(-c4c(F)cccc4F)c4ccc([nH]4)c(-c4c(F)cccc4F)c4nc(c(-c5c(F)cccc5F)c5ccc2[nH]5)C=C4)C=C3)cc1
REMARK SMILES IDX 6 1 5 2 4 3 3 4 1 5 2 6 40 8 41 9 93 10 42 11 92 12 43 13
REMARK SMILES IDX 44 14 45 15 86 16 46 17 91 18 85 19 87 20 47 21 90 22 84 23
REMARK SMILES IDX 83 24 48 26 74 27 57 28 73 29 58 30 61 31 72 32 88 33 59 34
REMARK SMILES IDX 60 35 71 37 89 38 62 39 49 40 50 41 55 42 51 43 52 44 54 45
REMARK SMILES IDX 56 46 53 47 75 48 76 49 81 50 77 51 78 52 80 53 82 54 79 55
REMARK SMILES IDX 63 56 64 57 69 58 65 59 66 60 68 61 70 62 67 63 7 64 8 65
REMARK SMILES IDX 9 66 10 67 11 68 12 70 13 71 14 72 31 73 15 74 30 75 29 76
REMARK SMILES IDX 32 77 33 78 34 80 35 81 36 82 39 83 37 84 38 85 16 86 17 87
REMARK SMILES IDX 28 88 18 89 27 90 19 91 20 92 21 93 26 94 22 95 25 96 23 97
REMARK SMILES IDX 24 98
REMARK H PARENT 3 7 87 25 61 36 10 69 32 79
REMARK Flexibility Score: inf
ROOT
ATOM      1  C   UNL     1       4.339  -2.538  -3.044  1.00  0.00     0.002 C 
ENDROOT
BRANCH   1   2
ATOM      2  C   UNL     1       4.793  -2.228  -1.619  1.00  0.00     0.021 C 
BRANCH   2   3
ATOM      3  C   UNL     1       4.519  -0.809  -1.142  1.00  0.00     0.116 C 
BRANCH   3   4
ATOM      4  N   UNL     1       3.103  -0.489  -1.068  1.00  0.00    -0.352 N 
ATOM      5  O   UNL     1       1.177   0.181  -0.097  1.00  0.00    -0.269 OA
ATOM      6  C   UNL     1       2.394   0.082  -0.035  1.00  0.00     0.251 C 
ATOM      7  H   UNL     1       2.577  -0.711  -1.870  1.00  0.00     0.163 HD
BRANCH   6   8
ATOM      8  C   UNL     1       3.114   0.546   1.173  1.00  0.00     0.039 A 
ATOM      9  C   UNL     1       4.292   1.287   1.061  1.00  0.00     0.014 A 
ATOM     10  C   UNL     1       2.609   0.219   2.434  1.00  0.00     0.014 A 
ATOM     11  C   UNL     1       5.045   1.560   2.197  1.00  0.00     0.010 A 
ATOM     12  C   UNL     1       3.321   0.577   3.583  1.00  0.00     0.010 A 
ATOM     13  C   UNL     1       4.564   1.218   3.472  1.00  0.00    -0.014 A 
BRANCH  13  14
ATOM     14  C   UNL     1       5.362   1.590   4.669  1.00  0.00     0.031 A 
ATOM     15  C   UNL     1       5.947   0.543   5.576  1.00  0.00     0.074 A 
ATOM     16  C   UNL     1       5.589   2.895   4.910  1.00  0.00     0.049 A 
ATOM     17  N   UNL     1       6.704   0.701   6.634  1.00  0.00    -0.248 NA
ATOM     18  C   UNL     1       5.640  -0.861   5.264  1.00  0.00     0.031 C 
ATOM     19  C   UNL     1       5.064   4.003   4.107  1.00  0.00     0.029 A 
ATOM     20  N   UNL     1       6.337   3.514   5.879  1.00  0.00    -0.354 N 
ATOM     21  C   UNL     1       6.944  -0.576   7.126  1.00  0.00     0.074 A 
ATOM     22  C   UNL     1       6.233  -1.497   6.266  1.00  0.00     0.031 C 
ATOM     23  C   UNL     1       5.554   5.158   4.578  1.00  0.00     0.029 A 
ATOM     24  C   UNL     1       6.372   4.881   5.753  1.00  0.00     0.049 A 
ATOM     25  H   UNL     1       6.803   3.025   6.595  1.00  0.00     0.167 HD
ATOM     26  C   UNL     1       7.695  -0.945   8.194  1.00  0.00     0.037 A 
ATOM     27  C   UNL     1       6.987   5.812   6.504  1.00  0.00     0.037 A 
ATOM     28  C   UNL     1       8.415  -0.024   9.037  1.00  0.00     0.049 A 
ATOM     29  C   UNL     1       7.791   5.376   7.692  1.00  0.00     0.074 A 
ATOM     30  C   UNL     1       9.239  -0.303  10.114  1.00  0.00     0.029 A 
ATOM     31  N   UNL     1       8.393   1.357   8.902  1.00  0.00    -0.354 N 
ATOM     32  N   UNL     1       8.043   4.163   8.119  1.00  0.00    -0.248 NA
ATOM     33  C   UNL     1       8.393   6.440   8.505  1.00  0.00     0.031 C 
ATOM     34  C   UNL     1       9.675   0.909  10.660  1.00  0.00     0.029 A 
ATOM     35  C   UNL     1       9.166   1.944   9.892  1.00  0.00     0.049 A 
ATOM     36  H   UNL     1       7.899   1.848   8.205  1.00  0.00     0.167 HD
ATOM     37  C   UNL     1       8.849   4.315   9.239  1.00  0.00     0.074 A 
ATOM     38  C   UNL     1       9.059   5.739   9.411  1.00  0.00     0.031 C 
ATOM     39  C   UNL     1       9.367   3.362  10.051  1.00  0.00     0.037 A 
BRANCH  26  40
ATOM     40  C   UNL     1       7.758  -2.408   8.527  1.00  0.00     0.057 A 
ATOM     41  C   UNL     1       8.460  -3.324   7.733  1.00  0.00     0.134 A 
ATOM     42  C   UNL     1       7.137  -2.902   9.683  1.00  0.00     0.134 A 
ATOM     43  F   UNL     1       9.070  -2.920   6.608  1.00  0.00    -0.206 F 
ATOM     44  C   UNL     1       8.521  -4.680   8.061  1.00  0.00     0.040 A 
ATOM     45  C   UNL     1       7.213  -4.251  10.035  1.00  0.00     0.040 A 
ATOM     46  F   UNL     1       6.456  -2.080  10.494  1.00  0.00    -0.206 F 
ATOM     47  C   UNL     1       7.901  -5.146   9.218  1.00  0.00     0.006 A 
ENDBRANCH  26  40
BRANCH  27  48
ATOM     48  C   UNL     1       6.868   7.246   6.144  1.00  0.00     0.057 A 
ATOM     49  C   UNL     1       7.969   7.963   5.662  1.00  0.00     0.134 A 
ATOM     50  C   UNL     1       5.652   7.931   6.263  1.00  0.00     0.134 A 
ATOM     51  F   UNL     1       9.163   7.365   5.541  1.00  0.00    -0.206 F 
ATOM     52  C   UNL     1       7.869   9.312   5.321  1.00  0.00     0.040 A 
ATOM     53  C   UNL     1       5.531   9.273   5.900  1.00  0.00     0.040 A 
ATOM     54  F   UNL     1       4.559   7.297   6.711  1.00  0.00    -0.206 F 
ATOM     55  C   UNL     1       6.645   9.969   5.434  1.00  0.00     0.006 A 
ENDBRANCH  27  48
BRANCH  39  56
ATOM     56  C   UNL     1      10.238   3.832  11.178  1.00  0.00     0.057 A 
ATOM     57  C   UNL     1       9.711   4.487  12.298  1.00  0.00     0.134 A 
ATOM     58  C   UNL     1      11.622   3.617  11.145  1.00  0.00     0.134 A 
ATOM     59  F   UNL     1       8.396   4.739  12.382  1.00  0.00    -0.206 F 
ATOM     60  C   UNL     1      10.533   4.938  13.333  1.00  0.00     0.040 A 
ATOM     61  C   UNL     1      12.450   4.038  12.186  1.00  0.00     0.040 A 
ATOM     62  F   UNL     1      12.190   2.990  10.104  1.00  0.00    -0.206 F 
ATOM     63  C   UNL     1      11.906   4.708  13.280  1.00  0.00     0.006 A 
ENDBRANCH  39  56
ENDBRANCH  13  14
ENDBRANCH   6   8
ENDBRANCH   3   4
ENDBRANCH   2   3
ENDBRANCH   1   2
BRANCH   1  64
ATOM     64  C   UNL     1       4.840  -1.578  -4.127  1.00  0.00     0.002 C 
BRANCH  64  65
ATOM     65  C   UNL     1       6.358  -1.353  -4.190  1.00  0.00     0.021 C 
BRANCH  65  66
ATOM     66  C   UNL     1       7.208  -2.617  -4.305  1.00  0.00     0.116 C 
BRANCH  66  67
ATOM     67  N   UNL     1       6.879  -3.389  -5.490  1.00  0.00    -0.352 N 
ATOM     68  C   UNL     1       7.688  -3.910  -6.465  1.00  0.00     0.253 C 
ATOM     69  H   UNL     1       5.919  -3.566  -5.613  1.00  0.00     0.163 HD
ATOM     70  O   UNL     1       7.171  -4.352  -7.489  1.00  0.00    -0.269 OA
BRANCH  68  71
ATOM     71  C   UNL     1       9.161  -3.985  -6.311  1.00  0.00     0.065 A 
ATOM     72  C   UNL     1       9.916  -3.569  -7.435  1.00  0.00     0.042 A 
ATOM     73  C   UNL     1       9.791  -4.585  -5.200  1.00  0.00     0.054 A 
ATOM     74  C   UNL     1      11.297  -3.765  -7.496  1.00  0.00     0.038 A 
ATOM     75  C   UNL     1      11.162  -4.758  -5.282  1.00  0.00     0.029 A 
ATOM     76  C   UNL     1      11.902  -4.343  -6.386  1.00  0.00     0.028 A 
BRANCH  73  77
ATOM     77  N   UNL     1       9.041  -5.046  -4.101  1.00  0.00    -0.325 N 
ATOM     78  C   UNL     1       9.287  -5.396  -2.810  1.00  0.00     0.227 C 
ATOM     79  H   UNL     1       8.087  -5.141  -4.326  1.00  0.00     0.169 HD
ATOM     80  O   UNL     1       8.286  -5.744  -2.163  1.00  0.00    -0.274 OA
BRANCH  78  81
ATOM     81  C   UNL     1      10.631  -5.381  -2.081  1.00  0.00     0.079 C 
ATOM     82  C   UNL     1      11.528  -6.564  -2.422  1.00  0.00     0.013 C 
ATOM     83  C   UNL     1      11.466  -4.106  -2.159  1.00  0.00     0.013 C 
ATOM     84  C   UNL     1      12.962  -6.055  -2.353  1.00  0.00     0.001 C 
ATOM     85  C   UNL     1      12.916  -4.532  -2.373  1.00  0.00     0.001 C 
ENDBRANCH  78  81
ENDBRANCH  73  77
BRANCH  74  86
ATOM     86  N   UNL     1      12.009  -3.517  -8.651  1.00  0.00    -0.368 N 
ATOM     87  C   UNL     1      12.283  -2.137  -9.098  1.00  0.00     0.138 C 
ATOM     88  C   UNL     1      12.965  -4.533  -9.133  1.00  0.00     0.138 C 
ATOM     89  C   UNL     1      13.765  -1.731  -8.842  1.00  0.00     0.138 C 
ATOM     90  C   UNL     1      14.419  -4.130  -8.817  1.00  0.00     0.138 C 
ATOM     91  N   UNL     1      14.704  -2.775  -9.308  1.00  0.00    -0.368 N 
BRANCH  91  92
ATOM     92  C   UNL     1      15.462  -2.590 -10.448  1.00  0.00     0.037 A 
ATOM     93  C   UNL     1      16.375  -1.528 -10.525  1.00  0.00     0.029 A 
ATOM     94  C   UNL     1      15.396  -3.471 -11.540  1.00  0.00     0.029 A 
ATOM     95  C   UNL     1      17.209  -1.368 -11.637  1.00  0.00     0.041 A 
ATOM     96  C   UNL     1      16.212  -3.308 -12.661  1.00  0.00     0.041 A 
ATOM     97  C   UNL     1      17.118  -2.261 -12.695  1.00  0.00     0.123 A 
ATOM     98  F   UNL     1      17.918  -2.114 -13.759  1.00  0.00    -0.207 F 
ENDBRANCH  91  92
ENDBRANCH  74  86
ENDBRANCH  68  71
ENDBRANCH  66  67
ENDBRANCH  65  66
ENDBRANCH  64  65
ENDBRANCH   1  64
TORSDOF 17
