REMARK SMILES O=C(NCCCCCCNC(=O)c1cc(S(=O)(=O)Nc2ccc(F)c(C(F)(F)F)c2)c[nH]1)c1ccc(-c2c3nc(c(-c4c(F)cccc4F)c4ccc([nH]4)c(-c4c(F)cccc4F)c4nc(c(-c5c(F)cccc5F)c5ccc2[nH]5)C=C4)C=C3)cc1
REMARK SMILES IDX 7 1 6 2 5 3 4 4 3 5 1 6 2 7 33 9 34 10 86 11 35 12 85 13
REMARK SMILES IDX 36 14 37 15 38 16 79 17 39 18 84 19 78 20 80 21 40 22 83 23
REMARK SMILES IDX 77 24 76 25 41 27 67 28 50 29 66 30 51 31 54 32 65 33 81 34
REMARK SMILES IDX 52 35 53 36 64 38 82 39 55 40 42 41 43 42 48 43 44 44 45 45
REMARK SMILES IDX 47 46 49 47 46 48 68 49 69 50 74 51 70 52 71 53 73 54 75 55
REMARK SMILES IDX 72 56 56 57 57 58 62 59 58 60 59 61 61 62 63 63 60 64 8 65
REMARK SMILES IDX 9 66 10 67 11 68 12 70 13 71 14 72 32 73 15 74 31 75 16 77
REMARK SMILES IDX 17 78 18 79 19 80 20 82 21 83 30 84 22 85 25 86 23 87 24 88
REMARK SMILES IDX 26 89 27 90 28 91 29 92
REMARK H PARENT 3 8 80 26 54 37 10 69 32 76 19 81
REMARK Flexibility Score: inf
ROOT
ATOM      1  C   UNL     1       4.624  -3.244   2.713  1.00  0.00     0.002 C 
ENDROOT
BRANCH   1   2
ATOM      2  C   UNL     1       4.186  -1.808   3.017  1.00  0.00     0.002 C 
BRANCH   2   3
ATOM      3  C   UNL     1       4.782  -0.731   2.107  1.00  0.00     0.021 C 
BRANCH   3   4
ATOM      4  C   UNL     1       4.624  -0.995   0.608  1.00  0.00     0.116 C 
BRANCH   4   5
ATOM      5  N   UNL     1       3.264  -0.941   0.110  1.00  0.00    -0.352 N 
ATOM      6  O   UNL     1       1.265  -0.128  -0.494  1.00  0.00    -0.269 OA
ATOM      7  C   UNL     1       2.368   0.089   0.003  1.00  0.00     0.251 C 
ATOM      8  H   UNL     1       2.921  -1.806  -0.212  1.00  0.00     0.163 HD
BRANCH   7   9
ATOM      9  C   UNL     1       2.668   1.440   0.528  1.00  0.00     0.039 A 
ATOM     10  C   UNL     1       3.920   2.043   0.386  1.00  0.00     0.014 A 
ATOM     11  C   UNL     1       1.623   2.137   1.153  1.00  0.00     0.014 A 
ATOM     12  C   UNL     1       4.156   3.293   0.938  1.00  0.00     0.010 A 
ATOM     13  C   UNL     1       1.839   3.415   1.665  1.00  0.00     0.010 A 
ATOM     14  C   UNL     1       3.110   3.990   1.551  1.00  0.00    -0.014 A 
BRANCH  14  15
ATOM     15  C   UNL     1       3.350   5.418   1.854  1.00  0.00     0.031 A 
ATOM     16  C   UNL     1       3.298   6.291   0.595  1.00  0.00     0.074 A 
ATOM     17  C   UNL     1       3.662   5.740   3.141  1.00  0.00     0.049 A 
ATOM     18  N   UNL     1       3.896   7.414   0.335  1.00  0.00    -0.248 NA
ATOM     19  C   UNL     1       2.529   5.799  -0.581  1.00  0.00     0.031 C 
ATOM     20  C   UNL     1       3.676   4.772   4.250  1.00  0.00     0.029 A 
ATOM     21  N   UNL     1       4.037   6.907   3.778  1.00  0.00    -0.354 N 
ATOM     22  C   UNL     1       3.445   7.843  -0.929  1.00  0.00     0.074 A 
ATOM     23  C   UNL     1       2.701   6.757  -1.492  1.00  0.00     0.031 C 
ATOM     24  C   UNL     1       4.100   5.359   5.386  1.00  0.00     0.029 A 
ATOM     25  C   UNL     1       4.395   6.759   5.142  1.00  0.00     0.049 A 
ATOM     26  H   UNL     1       4.053   7.778   3.319  1.00  0.00     0.167 HD
ATOM     27  C   UNL     1       3.606   9.111  -1.399  1.00  0.00     0.037 A 
ATOM     28  C   UNL     1       4.931   7.678   6.005  1.00  0.00     0.037 A 
ATOM     29  C   UNL     1       4.321   9.914  -0.468  1.00  0.00     0.049 A 
ATOM     30  C   UNL     1       4.945   8.961   5.276  1.00  0.00     0.074 A 
ATOM     31  C   UNL     1       5.646  10.013  -0.139  1.00  0.00     0.029 A 
ATOM     32  N   UNL     1       3.579  10.581   0.475  1.00  0.00    -0.354 N 
ATOM     33  N   UNL     1       3.894   9.678   5.005  1.00  0.00    -0.248 NA
ATOM     34  C   UNL     1       6.222   9.462   4.752  1.00  0.00     0.031 C 
ATOM     35  C   UNL     1       5.646  10.428   1.210  1.00  0.00     0.029 A 
ATOM     36  C   UNL     1       4.328  10.643   1.626  1.00  0.00     0.049 A 
ATOM     37  H   UNL     1       2.674  10.948   0.349  1.00  0.00     0.167 HD
ATOM     38  C   UNL     1       4.350  10.518   4.016  1.00  0.00     0.074 A 
ATOM     39  C   UNL     1       5.788  10.557   4.136  1.00  0.00     0.031 C 
ATOM     40  C   UNL     1       3.618  10.686   2.886  1.00  0.00     0.037 A 
BRANCH  27  41
ATOM     41  C   UNL     1       2.995   9.804  -2.580  1.00  0.00     0.057 A 
ATOM     42  C   UNL     1       1.661   9.638  -2.969  1.00  0.00     0.134 A 
ATOM     43  C   UNL     1       3.670  10.909  -3.145  1.00  0.00     0.134 A 
ATOM     44  F   UNL     1       0.908   8.649  -2.468  1.00  0.00    -0.206 F 
ATOM     45  C   UNL     1       1.022  10.547  -3.824  1.00  0.00     0.040 A 
ATOM     46  C   UNL     1       3.032  11.843  -3.964  1.00  0.00     0.040 A 
ATOM     47  F   UNL     1       4.961  11.146  -2.862  1.00  0.00    -0.206 F 
ATOM     48  C   UNL     1       1.695  11.671  -4.295  1.00  0.00     0.006 A 
ENDBRANCH  27  41
BRANCH  28  49
ATOM     49  C   UNL     1       5.555   7.677   7.388  1.00  0.00     0.057 A 
ATOM     50  C   UNL     1       6.218   8.838   7.877  1.00  0.00     0.134 A 
ATOM     51  C   UNL     1       5.628   6.591   8.266  1.00  0.00     0.134 A 
ATOM     52  F   UNL     1       6.139  10.019   7.249  1.00  0.00    -0.206 F 
ATOM     53  C   UNL     1       7.007   8.867   9.034  1.00  0.00     0.040 A 
ATOM     54  C   UNL     1       6.388   6.616   9.454  1.00  0.00     0.040 A 
ATOM     55  F   UNL     1       4.961   5.457   8.045  1.00  0.00    -0.206 F 
ATOM     56  C   UNL     1       7.112   7.741   9.822  1.00  0.00     0.006 A 
ENDBRANCH  28  49
BRANCH  40  57
ATOM     57  C   UNL     1       2.137  10.440   3.079  1.00  0.00     0.057 A 
ATOM     58  C   UNL     1       1.474   9.295   2.616  1.00  0.00     0.134 A 
ATOM     59  C   UNL     1       1.370  11.314   3.855  1.00  0.00     0.134 A 
ATOM     60  F   UNL     1       2.119   8.385   1.890  1.00  0.00    -0.206 F 
ATOM     61  C   UNL     1       0.128   9.029   2.888  1.00  0.00     0.040 A 
ATOM     62  C   UNL     1       0.023  11.060   4.151  1.00  0.00     0.040 A 
ATOM     63  F   UNL     1       1.918  12.435   4.349  1.00  0.00    -0.206 F 
ATOM     64  C   UNL     1      -0.603   9.914   3.667  1.00  0.00     0.006 A 
ENDBRANCH  40  57
ENDBRANCH  14  15
ENDBRANCH   7   9
ENDBRANCH   4   5
ENDBRANCH   3   4
ENDBRANCH   2   3
ENDBRANCH   1   2
BRANCH   1  65
ATOM     65  C   UNL     1       6.130  -3.450   2.534  1.00  0.00     0.021 C 
BRANCH  65  66
ATOM     66  C   UNL     1       6.969  -3.129   3.763  1.00  0.00     0.116 C 
BRANCH  66  67
ATOM     67  N   UNL     1       6.828  -4.150   4.779  1.00  0.00    -0.351 N 
ATOM     68  C   UNL     1       7.785  -4.937   5.361  1.00  0.00     0.267 C 
ATOM     69  H   UNL     1       5.909  -4.301   5.099  1.00  0.00     0.163 HD
ATOM     70  O   UNL     1       7.419  -5.954   5.948  1.00  0.00    -0.268 OA
BRANCH  68  71
ATOM     71  C   UNL     1       9.178  -4.554   5.306  1.00  0.00     0.105 A 
ATOM     72  C   UNL     1       9.796  -3.326   5.134  1.00  0.00     0.055 A 
ATOM     73  N   UNL     1      10.192  -5.461   5.543  1.00  0.00    -0.356 N 
ATOM     74  C   UNL     1      11.180  -3.472   5.378  1.00  0.00     0.106 A 
ATOM     75  C   UNL     1      11.403  -4.822   5.569  1.00  0.00     0.105 A 
ATOM     76  H   UNL     1      10.062  -6.428   5.674  1.00  0.00     0.166 HD
BRANCH  74  77
ATOM     77  S   UNL     1      12.381  -2.228   5.442  1.00  0.00     0.263 S 
ATOM     78  O   UNL     1      13.134  -2.548   6.644  1.00  0.00    -0.201 OA
ATOM     79  O   UNL     1      12.989  -2.278   4.138  1.00  0.00    -0.201 OA
BRANCH  77  80
ATOM     80  N   UNL     1      11.815  -0.649   5.613  1.00  0.00    -0.280 N 
ATOM     81  H   UNL     1      12.447   0.092   5.472  1.00  0.00     0.180 HD
BRANCH  80  82
ATOM     82  C   UNL     1      10.475  -0.334   5.949  1.00  0.00     0.050 A 
ATOM     83  C   UNL     1       9.861  -0.828   7.099  1.00  0.00     0.030 A 
ATOM     84  C   UNL     1       9.754   0.485   5.072  1.00  0.00     0.043 A 
ATOM     85  C   UNL     1       8.505  -0.568   7.322  1.00  0.00     0.042 A 
ATOM     86  C   UNL     1       8.393   0.763   5.296  1.00  0.00     0.093 A 
ATOM     87  C   UNL     1       7.784   0.216   6.421  1.00  0.00     0.135 A 
ATOM     88  F   UNL     1       6.483   0.425   6.655  1.00  0.00    -0.206 F 
BRANCH  86  89
ATOM     89  C   UNL     1       7.635   1.638   4.342  1.00  0.00     0.419 C 
ATOM     90  F   UNL     1       8.026   2.939   4.419  1.00  0.00    -0.166 F 
ATOM     91  F   UNL     1       7.848   1.267   3.045  1.00  0.00    -0.166 F 
ATOM     92  F   UNL     1       6.286   1.632   4.498  1.00  0.00    -0.166 F 
ENDBRANCH  86  89
ENDBRANCH  80  82
ENDBRANCH  77  80
ENDBRANCH  74  77
ENDBRANCH  68  71
ENDBRANCH  66  67
ENDBRANCH  65  66
ENDBRANCH   1  65
TORSDOF 17
