REMARK SMILES C[C@@H]1CN(S(=O)(=O)c2ccc(Cl)c(C(=O)NCCCCCCNC(=O)c3ccc(-c4c5nc(c(-c6c(F)cccc6F)c6ccc([nH]6)c(-c6c(F)cccc6F)c6nc(c(-c7c(F)cccc7F)c7ccc4[nH]7)C=C6)C=C5)cc3)c2Cl)C[C@H]1C
REMARK SMILES IDX 19 1 18 2 17 3 16 4 14 5 15 6 13 8 8 9 9 10 80 11 10 12
REMARK SMILES IDX 81 13 11 14 12 15 5 16 6 17 7 18 4 19 1 20 2 21 3 22 83 23
REMARK SMILES IDX 82 24 84 25 20 26 21 27 22 28 23 29 24 30 25 32 26 33 27 34
REMARK SMILES IDX 79 35 28 36 78 37 29 38 30 39 31 40 72 41 32 42 77 43 71 44
REMARK SMILES IDX 73 45 33 46 76 47 70 48 69 49 34 51 60 52 43 53 59 54 44 55
REMARK SMILES IDX 47 56 58 57 74 58 45 59 46 60 57 62 75 63 48 64 35 65 36 66
REMARK SMILES IDX 41 67 37 68 38 69 40 70 42 71 39 72 61 73 62 74 67 75 63 76
REMARK SMILES IDX 64 77 66 78 68 79 65 80 49 81 50 82 55 83 51 84 52 85 54 86
REMARK SMILES IDX 56 87 53 88
REMARK H PARENT 16 7 23 31 73 50 47 61
REMARK Flexibility Score: inf
ROOT
ATOM      1  C   UNL     1      -1.014  12.452  -1.281  1.00  0.00     0.002 C 
ENDROOT
BRANCH   1   2
ATOM      2  C   UNL     1      -1.242  10.942  -1.372  1.00  0.00     0.021 C 
BRANCH   2   3
ATOM      3  C   UNL     1      -0.017  10.069  -1.049  1.00  0.00     0.116 C 
BRANCH   3   4
ATOM      4  N   UNL     1       0.047   9.857   0.385  1.00  0.00    -0.352 N 
ATOM      5  C   UNL     1      -0.464   8.872   1.192  1.00  0.00     0.254 C 
ATOM      6  O   UNL     1      -0.690   9.175   2.365  1.00  0.00    -0.269 OA
ATOM      7  H   UNL     1       0.551  10.549   0.869  1.00  0.00     0.163 HD
BRANCH   5   8
ATOM      8  C   UNL     1      -0.697   7.458   0.786  1.00  0.00     0.078 A 
ATOM      9  C   UNL     1      -0.582   5.113   1.505  1.00  0.00     0.102 A 
ATOM     10  C   UNL     1      -1.466   4.770   0.475  1.00  0.00     0.025 A 
ATOM     11  C   UNL     1      -0.138   6.442   1.623  1.00  0.00     0.075 A 
ATOM     12  C   UNL     1      -1.928   5.730  -0.408  1.00  0.00     0.023 A 
ATOM     13  Cl  UNL     1       1.172   6.838   2.698  1.00  0.00    -0.082 Cl
ATOM     14  C   UNL     1      -1.621   7.076  -0.202  1.00  0.00     0.055 A 
ATOM     15  Cl  UNL     1      -2.607   8.133  -1.133  1.00  0.00    -0.083 Cl
BRANCH   9  16
ATOM     16  S   UNL     1      -0.345   3.856   2.753  1.00  0.00     0.244 S 
ATOM     17  O   UNL     1      -1.531   3.021   2.732  1.00  0.00    -0.207 OA
ATOM     18  O   UNL     1       0.074   4.458   3.998  1.00  0.00    -0.207 OA
BRANCH  16  19
ATOM     19  N   UNL     1       0.935   2.890   2.172  1.00  0.00    -0.197 NA
ATOM     20  C   UNL     1       1.120  -0.131  -0.032  1.00  0.00     0.009 C 
ATOM     21  C   UNL     1       0.749   0.703   1.184  1.00  0.00     0.005 C 
ATOM     22  C   UNL     1       0.737   2.195   0.871  1.00  0.00     0.106 C 
ATOM     23  C   UNL     1       1.747   0.624   2.334  1.00  0.00     0.005 C 
ATOM     24  C   UNL     1       1.375   1.854   3.167  1.00  0.00     0.106 C 
ATOM     25  C   UNL     1       1.651  -0.674   3.122  1.00  0.00     0.009 C 
ENDBRANCH  16  19
ENDBRANCH   9  16
ENDBRANCH   5   8
ENDBRANCH   3   4
ENDBRANCH   2   3
ENDBRANCH   1   2
BRANCH   1  26
ATOM     26  C   UNL     1      -0.091  13.029  -2.355  1.00  0.00     0.002 C 
BRANCH  26  27
ATOM     27  C   UNL     1      -0.470  12.672  -3.795  1.00  0.00     0.021 C 
BRANCH  27  28
ATOM     28  C   UNL     1      -1.866  13.125  -4.214  1.00  0.00     0.116 C 
BRANCH  28  29
ATOM     29  N   UNL     1      -1.965  14.576  -4.269  1.00  0.00    -0.352 N 
ATOM     30  C   UNL     1      -2.240  15.379  -5.349  1.00  0.00     0.251 C 
ATOM     31  H   UNL     1      -1.815  15.046  -3.417  1.00  0.00     0.163 HD
ATOM     32  O   UNL     1      -2.051  16.589  -5.298  1.00  0.00    -0.269 OA
BRANCH  30  33
ATOM     33  C   UNL     1      -2.765  14.764  -6.584  1.00  0.00     0.039 A 
ATOM     34  C   UNL     1      -2.182  15.082  -7.813  1.00  0.00     0.014 A 
ATOM     35  C   UNL     1      -3.830  13.863  -6.515  1.00  0.00     0.014 A 
ATOM     36  C   UNL     1      -2.629  14.444  -8.973  1.00  0.00     0.010 A 
ATOM     37  C   UNL     1      -4.229  13.182  -7.658  1.00  0.00     0.010 A 
ATOM     38  C   UNL     1      -3.634  13.467  -8.898  1.00  0.00    -0.014 A 
BRANCH  38  39
ATOM     39  C   UNL     1      -4.107  12.729 -10.095  1.00  0.00     0.031 A 
ATOM     40  C   UNL     1      -5.533  12.883 -10.541  1.00  0.00     0.074 A 
ATOM     41  C   UNL     1      -3.294  11.847 -10.707  1.00  0.00     0.049 A 
ATOM     42  N   UNL     1      -6.200  12.201 -11.435  1.00  0.00    -0.248 NA
ATOM     43  C   UNL     1      -6.324  13.924  -9.863  1.00  0.00     0.031 C 
ATOM     44  C   UNL     1      -1.897  11.591 -10.351  1.00  0.00     0.029 A 
ATOM     45  N   UNL     1      -3.538  10.979 -11.742  1.00  0.00    -0.354 N 
ATOM     46  C   UNL     1      -7.493  12.710 -11.408  1.00  0.00     0.074 A 
ATOM     47  C   UNL     1      -7.527  13.727 -10.380  1.00  0.00     0.031 C 
ATOM     48  C   UNL     1      -1.407  10.635 -11.157  1.00  0.00     0.029 A 
ATOM     49  C   UNL     1      -2.466  10.176 -12.051  1.00  0.00     0.049 A 
ATOM     50  H   UNL     1      -4.398  10.936 -12.218  1.00  0.00     0.167 HD
ATOM     51  C   UNL     1      -8.550  12.369 -12.181  1.00  0.00     0.037 A 
ATOM     52  C   UNL     1      -2.358   9.168 -12.938  1.00  0.00     0.037 A 
ATOM     53  C   UNL     1      -8.499  11.377 -13.221  1.00  0.00     0.049 A 
ATOM     54  C   UNL     1      -3.553   8.794 -13.773  1.00  0.00     0.074 A 
ATOM     55  C   UNL     1      -9.499  10.995 -14.097  1.00  0.00     0.029 A 
ATOM     56  N   UNL     1      -7.384  10.609 -13.524  1.00  0.00    -0.354 N 
ATOM     57  N   UNL     1      -4.757   9.313 -13.770  1.00  0.00    -0.248 NA
ATOM     58  C   UNL     1      -3.376   7.697 -14.735  1.00  0.00     0.031 C 
ATOM     59  C   UNL     1      -9.003   9.966 -14.902  1.00  0.00     0.029 A 
ATOM     60  C   UNL     1      -7.678   9.743 -14.562  1.00  0.00     0.049 A 
ATOM     61  H   UNL     1      -6.514  10.672 -13.069  1.00  0.00     0.167 HD
ATOM     62  C   UNL     1      -5.467   8.634 -14.752  1.00  0.00     0.074 A 
ATOM     63  C   UNL     1      -4.560   7.665 -15.330  1.00  0.00     0.031 C 
ATOM     64  C   UNL     1      -6.753   8.804 -15.143  1.00  0.00     0.037 A 
BRANCH  51  65
ATOM     65  C   UNL     1      -9.851  13.074 -11.930  1.00  0.00     0.057 A 
ATOM     66  C   UNL     1     -10.033  14.427 -12.247  1.00  0.00     0.134 A 
ATOM     67  C   UNL     1     -10.945  12.384 -11.393  1.00  0.00     0.134 A 
ATOM     68  F   UNL     1      -9.021  15.149 -12.753  1.00  0.00    -0.206 F 
ATOM     69  C   UNL     1     -11.247  15.074 -12.015  1.00  0.00     0.040 A 
ATOM     70  C   UNL     1     -12.173  13.013 -11.183  1.00  0.00     0.040 A 
ATOM     71  F   UNL     1     -10.842  11.085 -11.073  1.00  0.00    -0.206 F 
ATOM     72  C   UNL     1     -12.324  14.364 -11.488  1.00  0.00     0.006 A 
ENDBRANCH  51  65
BRANCH  52  73
ATOM     73  C   UNL     1      -1.070   8.445 -13.090  1.00  0.00     0.057 A 
ATOM     74  C   UNL     1      -0.297   8.589 -14.248  1.00  0.00     0.134 A 
ATOM     75  C   UNL     1      -0.582   7.593 -12.091  1.00  0.00     0.134 A 
ATOM     76  F   UNL     1      -0.720   9.377 -15.247  1.00  0.00    -0.206 F 
ATOM     77  C   UNL     1       0.905   7.900 -14.416  1.00  0.00     0.040 A 
ATOM     78  C   UNL     1       0.630   6.917 -12.236  1.00  0.00     0.040 A 
ATOM     79  F   UNL     1      -1.271   7.418 -10.954  1.00  0.00    -0.206 F 
ATOM     80  C   UNL     1       1.374   7.063 -13.405  1.00  0.00     0.006 A 
ENDBRANCH  52  73
BRANCH  64  81
ATOM     81  C   UNL     1      -7.248   7.970 -16.287  1.00  0.00     0.057 A 
ATOM     82  C   UNL     1      -7.556   6.613 -16.138  1.00  0.00     0.134 A 
ATOM     83  C   UNL     1      -7.501   8.561 -17.532  1.00  0.00     0.134 A 
ATOM     84  F   UNL     1      -7.325   5.987 -14.974  1.00  0.00    -0.206 F 
ATOM     85  C   UNL     1      -8.092   5.870 -17.191  1.00  0.00     0.040 A 
ATOM     86  C   UNL     1      -8.060   7.835 -18.584  1.00  0.00     0.040 A 
ATOM     87  F   UNL     1      -7.236   9.861 -17.736  1.00  0.00    -0.206 F 
ATOM     88  C   UNL     1      -8.357   6.485 -18.414  1.00  0.00     0.006 A 
ENDBRANCH  64  81
ENDBRANCH  38  39
ENDBRANCH  30  33
ENDBRANCH  28  29
ENDBRANCH  27  28
ENDBRANCH  26  27
ENDBRANCH   1  26
TORSDOF 15
