REMARK SMILES N#C/C(=C\c1cccn1-c1cccc(C(=O)NCCCCCCNC(=O)c2ccc(-c3c4nc(c(-c5c(F)cccc5F)c5ccc([nH]5)c(-c5c(F)cccc5F)c5nc(c(-c6c(F)cccc6F)c6ccc3[nH]6)C=C5)C=C4)cc2)c1)C(=O)Nc1cccc(Cl)c1
REMARK SMILES IDX 19 1 18 2 17 3 15 4 16 5 14 7 10 8 11 9 81 10 12 11 13 12
REMARK SMILES IDX 9 13 5 14 6 15 7 16 8 17 4 18 3 19 2 20 1 21 82 22 83 23
REMARK SMILES IDX 84 24 85 26 86 27 91 28 87 29 89 30 88 31 90 32 20 33 21 34
REMARK SMILES IDX 22 35 23 36 24 37 25 38 26 40 27 41 28 42 80 43 29 44 79 45
REMARK SMILES IDX 30 46 31 47 32 48 73 49 33 50 78 51 72 52 74 53 34 54 77 55
REMARK SMILES IDX 71 56 70 57 35 59 61 60 44 61 60 62 45 63 48 64 59 65 75 66
REMARK SMILES IDX 46 67 47 68 58 70 76 71 49 72 36 73 37 74 42 75 38 76 39 77
REMARK SMILES IDX 41 78 43 79 40 80 62 81 63 82 68 83 64 84 65 85 67 86 69 87
REMARK SMILES IDX 66 88 50 89 51 90 56 91 52 92 53 93 55 94 57 95 54 96
REMARK H PARENT 17 6 84 25 24 39 74 58 48 69
REMARK Flexibility Score: inf
ROOT
ATOM      1  C   UNL     1       2.529   2.697  -4.335  1.00  0.00     0.021 C 
ENDROOT
BRANCH   1   2
ATOM      2  C   UNL     1       3.824   2.573  -3.546  1.00  0.00     0.116 C 
BRANCH   2   3
ATOM      3  N   UNL     1       5.005   3.157  -4.170  1.00  0.00    -0.352 N 
ATOM      4  C   UNL     1       6.052   3.906  -3.661  1.00  0.00     0.251 C 
ATOM      5  O   UNL     1       6.946   4.262  -4.427  1.00  0.00    -0.269 OA
ATOM      6  H   UNL     1       5.070   2.987  -5.138  1.00  0.00     0.163 HD
BRANCH   4   7
ATOM      7  C   UNL     1       6.119   4.341  -2.234  1.00  0.00     0.041 A 
ATOM      8  C   UNL     1       5.278   4.180   0.042  1.00  0.00     0.046 A 
ATOM      9  C   UNL     1       5.926   5.378   0.362  1.00  0.00     0.026 A 
ATOM     10  C   UNL     1       5.490   3.624  -1.221  1.00  0.00     0.040 A 
ATOM     11  C   UNL     1       6.719   6.021  -0.593  1.00  0.00     0.003 A 
ATOM     12  C   UNL     1       6.785   5.524  -1.899  1.00  0.00     0.014 A 
BRANCH   8  13
ATOM     13  N   UNL     1       4.277   3.626   0.910  1.00  0.00    -0.317 N 
ATOM     14  C   UNL     1       3.749   2.318   0.966  1.00  0.00     0.047 A 
ATOM     15  C   UNL     1       2.678   2.351   1.852  1.00  0.00     0.028 A 
ATOM     16  C   UNL     1       2.517   3.665   2.324  1.00  0.00     0.020 A 
ATOM     17  C   UNL     1       3.522   4.413   1.768  1.00  0.00     0.092 A 
BRANCH  14  18
ATOM     18  C   UNL     1       4.396   1.219   0.306  1.00  0.00     0.052 C 
ATOM     19  C   UNL     1       3.844   0.038  -0.068  1.00  0.00     0.119 C 
BRANCH  19  20
ATOM     20  C   UNL     1       2.324   0.038  -0.068  1.00  0.00     0.105 C 
ATOM     21  N   UNL     1       1.063   0.038  -0.068  1.00  0.00    -0.192 NA
ENDBRANCH  19  20
BRANCH  19  22
ATOM     22  C   UNL     1       4.629  -1.087  -0.656  1.00  0.00     0.266 C 
ATOM     23  O   UNL     1       4.042  -1.931  -1.335  1.00  0.00    -0.268 OA
ATOM     24  N   UNL     1       6.008  -1.165  -0.574  1.00  0.00    -0.321 N 
ATOM     25  H   UNL     1       6.404  -1.869  -1.136  1.00  0.00     0.170 HD
BRANCH  24  26
ATOM     26  C   UNL     1       6.951  -0.421   0.167  1.00  0.00     0.042 A 
ATOM     27  C   UNL     1       8.053   0.089  -0.530  1.00  0.00     0.026 A 
ATOM     28  C   UNL     1       6.758  -0.057   1.505  1.00  0.00     0.046 A 
ATOM     29  C   UNL     1       8.854   1.079   0.048  1.00  0.00     0.004 A 
ATOM     30  C   UNL     1       7.555   0.944   2.071  1.00  0.00     0.043 A 
ATOM     31  C   UNL     1       8.585   1.531   1.339  1.00  0.00     0.020 A 
ATOM     32  Cl  UNL     1       7.186   1.540   3.643  1.00  0.00    -0.084 Cl
ENDBRANCH  24  26
ENDBRANCH  19  22
ENDBRANCH  14  18
ENDBRANCH   8  13
ENDBRANCH   4   7
ENDBRANCH   2   3
ENDBRANCH   1   2
BRANCH   1  33
ATOM     33  C   UNL     1       2.417   1.870  -5.610  1.00  0.00     0.002 C 
BRANCH  33  34
ATOM     34  C   UNL     1       2.651   0.362  -5.471  1.00  0.00     0.002 C 
BRANCH  34  35
ATOM     35  C   UNL     1       1.874  -0.363  -4.360  1.00  0.00     0.021 C 
BRANCH  35  36
ATOM     36  C   UNL     1       0.350  -0.248  -4.447  1.00  0.00     0.116 C 
BRANCH  36  37
ATOM     37  N   UNL     1      -0.162  -0.900  -5.639  1.00  0.00    -0.352 N 
ATOM     38  C   UNL     1      -1.448  -1.129  -6.054  1.00  0.00     0.251 C 
ATOM     39  H   UNL     1       0.532  -1.234  -6.252  1.00  0.00     0.163 HD
ATOM     40  O   UNL     1      -1.642  -2.002  -6.893  1.00  0.00    -0.269 OA
BRANCH  38  41
ATOM     41  C   UNL     1      -2.608  -0.368  -5.531  1.00  0.00     0.039 A 
ATOM     42  C   UNL     1      -3.835  -1.045  -5.458  1.00  0.00     0.014 A 
ATOM     43  C   UNL     1      -2.554   0.998  -5.231  1.00  0.00     0.014 A 
ATOM     44  C   UNL     1      -4.981  -0.378  -5.038  1.00  0.00     0.010 A 
ATOM     45  C   UNL     1      -3.698   1.669  -4.793  1.00  0.00     0.010 A 
ATOM     46  C   UNL     1      -4.906   0.974  -4.675  1.00  0.00    -0.014 A 
BRANCH  46  47
ATOM     47  C   UNL     1      -6.053   1.545  -3.926  1.00  0.00     0.031 A 
ATOM     48  C   UNL     1      -6.040   1.036  -2.463  1.00  0.00     0.074 A 
ATOM     49  C   UNL     1      -6.934   2.337  -4.614  1.00  0.00     0.049 A 
ATOM     50  N   UNL     1      -7.016   0.771  -1.649  1.00  0.00    -0.248 NA
ATOM     51  C   UNL     1      -4.728   0.685  -1.843  1.00  0.00     0.031 C 
ATOM     52  C   UNL     1      -6.744   2.789  -6.009  1.00  0.00     0.029 A 
ATOM     53  N   UNL     1      -8.153   2.921  -4.310  1.00  0.00    -0.354 N 
ATOM     54  C   UNL     1      -6.447   0.440  -0.393  1.00  0.00     0.074 A 
ATOM     55  C   UNL     1      -5.048   0.266  -0.618  1.00  0.00     0.031 C 
ATOM     56  C   UNL     1      -7.821   3.478  -6.450  1.00  0.00     0.029 A 
ATOM     57  C   UNL     1      -8.820   3.550  -5.402  1.00  0.00     0.049 A 
ATOM     58  H   UNL     1      -8.533   2.902  -3.402  1.00  0.00     0.167 HD
ATOM     59  C   UNL     1      -7.143   0.495   0.784  1.00  0.00     0.037 A 
ATOM     60  C   UNL     1     -10.102   4.038  -5.474  1.00  0.00     0.037 A 
ATOM     61  C   UNL     1      -8.498   0.831   0.519  1.00  0.00     0.049 A 
ATOM     62  C   UNL     1     -10.634   3.914  -4.112  1.00  0.00     0.074 A 
ATOM     63  C   UNL     1      -9.537   0.140  -0.042  1.00  0.00     0.029 A 
ATOM     64  N   UNL     1      -8.799   2.170   0.534  1.00  0.00    -0.354 N 
ATOM     65  N   UNL     1     -10.309   4.684  -3.119  1.00  0.00    -0.248 NA
ATOM     66  C   UNL     1     -11.509   2.776  -3.801  1.00  0.00     0.031 C 
ATOM     67  C   UNL     1     -10.209   1.127  -0.791  1.00  0.00     0.029 A 
ATOM     68  C   UNL     1      -9.703   2.393  -0.470  1.00  0.00     0.049 A 
ATOM     69  H   UNL     1      -8.432   2.844   1.151  1.00  0.00     0.167 HD
ATOM     70  C   UNL     1     -10.658   3.915  -2.036  1.00  0.00     0.074 A 
ATOM     71  C   UNL     1     -11.655   2.975  -2.495  1.00  0.00     0.031 C 
ATOM     72  C   UNL     1      -9.762   3.718  -1.037  1.00  0.00     0.037 A 
BRANCH  59  73
ATOM     73  C   UNL     1      -6.700   0.579   2.224  1.00  0.00     0.057 A 
ATOM     74  C   UNL     1      -7.688   0.434   3.231  1.00  0.00     0.134 A 
ATOM     75  C   UNL     1      -5.502   1.168   2.639  1.00  0.00     0.134 A 
ATOM     76  F   UNL     1      -8.857  -0.177   2.973  1.00  0.00    -0.206 F 
ATOM     77  C   UNL     1      -7.559   0.996   4.504  1.00  0.00     0.040 A 
ATOM     78  C   UNL     1      -5.342   1.687   3.933  1.00  0.00     0.040 A 
ATOM     79  F   UNL     1      -4.482   1.356   1.795  1.00  0.00    -0.206 F 
ATOM     80  C   UNL     1      -6.388   1.651   4.849  1.00  0.00     0.006 A 
ENDBRANCH  59  73
BRANCH  60  81
ATOM     81  C   UNL     1     -11.079   4.530  -6.528  1.00  0.00     0.057 A 
ATOM     82  C   UNL     1     -10.762   4.945  -7.823  1.00  0.00     0.134 A 
ATOM     83  C   UNL     1     -12.480   4.559  -6.257  1.00  0.00     0.134 A 
ATOM     84  F   UNL     1      -9.492   5.131  -8.200  1.00  0.00    -0.206 F 
ATOM     85  C   UNL     1     -11.750   5.227  -8.795  1.00  0.00     0.040 A 
ATOM     86  C   UNL     1     -13.470   4.791  -7.218  1.00  0.00     0.040 A 
ATOM     87  F   UNL     1     -12.973   4.370  -5.026  1.00  0.00    -0.206 F 
ATOM     88  C   UNL     1     -13.107   5.106  -8.508  1.00  0.00     0.006 A 
ENDBRANCH  60  81
BRANCH  72  89
ATOM     89  C   UNL     1      -8.695   4.792  -0.932  1.00  0.00     0.057 A 
ATOM     90  C   UNL     1      -9.059   6.113  -0.641  1.00  0.00     0.134 A 
ATOM     91  C   UNL     1      -7.338   4.592  -1.227  1.00  0.00     0.134 A 
ATOM     92  F   UNL     1     -10.330   6.406  -0.328  1.00  0.00    -0.206 F 
ATOM     93  C   UNL     1      -8.136   7.168  -0.668  1.00  0.00     0.040 A 
ATOM     94  C   UNL     1      -6.398   5.632  -1.253  1.00  0.00     0.040 A 
ATOM     95  F   UNL     1      -6.873   3.378  -1.511  1.00  0.00    -0.206 F 
ATOM     96  C   UNL     1      -6.800   6.932  -0.981  1.00  0.00     0.006 A 
ENDBRANCH  72  89
ENDBRANCH  46  47
ENDBRANCH  38  41
ENDBRANCH  36  37
ENDBRANCH  35  36
ENDBRANCH  34  35
ENDBRANCH  33  34
ENDBRANCH   1  33
TORSDOF 18
