REMARK SMILES O=C(CCC(=O)Nc1ccc(C(=O)N2CCOCC2)cc1)NCCCCCCNC(=O)c1ccc(-c2c3nc(c(-c4c(F)cccc4F)c4ccc([nH]4)c(-c4c(F)cccc4F)c4nc(c(-c5c(F)cccc5F)c5ccc2[nH]5)C=C4)C=C3)cc1
REMARK SMILES IDX 24 1 23 2 22 3 1 4 2 5 3 7 4 8 5 9 6 10 7 11 8 13 9 14 21 15
REMARK SMILES IDX 10 16 20 17 11 18 12 19 13 20 14 21 15 22 19 23 16 24 18 25
REMARK SMILES IDX 17 26 25 27 26 28 27 29 28 30 29 31 30 32 31 34 32 35 33 36
REMARK SMILES IDX 85 37 34 38 84 39 35 40 36 41 37 42 78 43 38 44 83 45 77 46
REMARK SMILES IDX 79 47 39 48 82 49 76 50 75 51 40 53 66 54 49 55 65 56 50 57
REMARK SMILES IDX 53 58 64 59 80 60 51 61 52 62 63 64 81 65 54 66 41 67 42 68
REMARK SMILES IDX 47 69 43 70 44 71 46 72 48 73 45 74 67 75 68 76 73 77 69 78
REMARK SMILES IDX 70 79 72 80 74 81 71 82 55 83 56 84 61 85 57 86 58 87 60 88
REMARK SMILES IDX 62 89 59 90
REMARK H PARENT 22 6 7 12 29 33 79 52 53 63
REMARK Flexibility Score: inf
ROOT
ATOM      1  C   UNL     1       3.136   3.916   0.427  1.00  0.00     0.021 C 
ENDROOT
BRANCH   1   2
ATOM      2  C   UNL     1       2.458   2.578   0.156  1.00  0.00     0.116 C 
BRANCH   2   3
ATOM      3  N   UNL     1       3.273   1.439   0.521  1.00  0.00    -0.356 N 
ATOM      4  O   UNL     1       1.547   0.102   1.238  1.00  0.00    -0.275 OA
ATOM      5  C   UNL     1       2.735   0.256   0.969  1.00  0.00     0.220 C 
ATOM      6  H   UNL     1       4.252   1.514   0.445  1.00  0.00     0.163 HD
BRANCH   5   7
ATOM      7  C   UNL     1       3.741  -0.870   1.089  1.00  0.00     0.110 C 
BRANCH   7   8
ATOM      8  C   UNL     1       4.102  -1.575  -0.216  1.00  0.00     0.110 C 
BRANCH   8   9
ATOM      9  C   UNL     1       4.625  -0.675  -1.313  1.00  0.00     0.224 C 
ATOM     10  O   UNL     1       5.825  -0.370  -1.306  1.00  0.00    -0.275 OA
ATOM     11  N   UNL     1       3.862  -0.107  -2.289  1.00  0.00    -0.326 N 
ATOM     12  H   UNL     1       4.395   0.275  -3.023  1.00  0.00     0.169 HD
BRANCH  11  13
ATOM     13  C   UNL     1       2.477   0.052  -2.473  1.00  0.00     0.041 A 
ATOM     14  C   UNL     1       2.070   1.090  -3.333  1.00  0.00     0.027 A 
ATOM     15  C   UNL     1       1.498  -0.639  -1.776  1.00  0.00     0.027 A 
ATOM     16  C   UNL     1       0.742   1.545  -3.337  1.00  0.00     0.016 A 
ATOM     17  C   UNL     1       0.183  -0.184  -1.764  1.00  0.00     0.016 A 
ATOM     18  C   UNL     1      -0.186   0.950  -2.486  1.00  0.00     0.040 A 
BRANCH  18  19
ATOM     19  C   UNL     1      -1.582   1.453  -2.382  1.00  0.00     0.254 C 
ATOM     20  O   UNL     1      -2.135   1.950  -3.355  1.00  0.00    -0.269 OA
ATOM     21  N   UNL     1      -2.214   1.183  -1.184  1.00  0.00    -0.334 N 
ATOM     22  C   UNL     1      -1.842   1.832   0.074  1.00  0.00     0.148 C 
ATOM     23  C   UNL     1      -3.478   0.467  -1.160  1.00  0.00     0.148 C 
ATOM     24  C   UNL     1      -1.975   0.867   1.258  1.00  0.00     0.181 C 
ATOM     25  C   UNL     1      -3.481  -0.495   0.035  1.00  0.00     0.181 C 
ATOM     26  O   UNL     1      -3.260   0.216   1.265  1.00  0.00    -0.378 OA
ENDBRANCH  18  19
ENDBRANCH  11  13
ENDBRANCH   8   9
ENDBRANCH   7   8
ENDBRANCH   5   7
ENDBRANCH   2   3
ENDBRANCH   1   2
BRANCH   1  27
ATOM     27  C   UNL     1       4.536   4.077  -0.177  1.00  0.00     0.002 C 
BRANCH  27  28
ATOM     28  C   UNL     1       4.635   3.931  -1.698  1.00  0.00     0.002 C 
BRANCH  28  29
ATOM     29  C   UNL     1       3.843   4.949  -2.521  1.00  0.00     0.021 C 
BRANCH  29  30
ATOM     30  C   UNL     1       4.041   6.413  -2.136  1.00  0.00     0.116 C 
BRANCH  30  31
ATOM     31  N   UNL     1       5.433   6.833  -2.140  1.00  0.00    -0.352 N 
ATOM     32  C   UNL     1       5.989   8.018  -2.554  1.00  0.00     0.251 C 
ATOM     33  H   UNL     1       6.072   6.168  -1.794  1.00  0.00     0.163 HD
ATOM     34  O   UNL     1       7.209   8.161  -2.545  1.00  0.00    -0.269 OA
BRANCH  32  35
ATOM     35  C   UNL     1       5.128   9.110  -3.056  1.00  0.00     0.039 A 
ATOM     36  C   UNL     1       5.495   9.758  -4.239  1.00  0.00     0.014 A 
ATOM     37  C   UNL     1       3.962   9.487  -2.383  1.00  0.00     0.014 A 
ATOM     38  C   UNL     1       4.652  10.723  -4.792  1.00  0.00     0.010 A 
ATOM     39  C   UNL     1       3.090  10.402  -2.969  1.00  0.00     0.010 A 
ATOM     40  C   UNL     1       3.420  11.018  -4.186  1.00  0.00    -0.014 A 
BRANCH  40  41
ATOM     41  C   UNL     1       2.447  11.932  -4.836  1.00  0.00     0.031 A 
ATOM     42  C   UNL     1       2.063  13.230  -4.187  1.00  0.00     0.074 A 
ATOM     43  C   UNL     1       1.847  11.548  -5.979  1.00  0.00     0.049 A 
ATOM     44  N   UNL     1       1.181  14.117  -4.573  1.00  0.00    -0.248 NA
ATOM     45  C   UNL     1       2.741  13.563  -2.926  1.00  0.00     0.031 C 
ATOM     46  C   UNL     1       2.089  10.284  -6.678  1.00  0.00     0.029 A 
ATOM     47  N   UNL     1       0.896  12.174  -6.745  1.00  0.00    -0.354 N 
ATOM     48  C   UNL     1       1.193  15.108  -3.601  1.00  0.00     0.074 A 
ATOM     49  C   UNL     1       2.129  14.686  -2.581  1.00  0.00     0.031 C 
ATOM     50  C   UNL     1       1.316  10.233  -7.773  1.00  0.00     0.029 A 
ATOM     51  C   UNL     1       0.499  11.440  -7.836  1.00  0.00     0.049 A 
ATOM     52  H   UNL     1       0.533  13.064  -6.533  1.00  0.00     0.167 HD
ATOM     53  C   UNL     1       0.503  16.274  -3.572  1.00  0.00     0.037 A 
ATOM     54  C   UNL     1      -0.429  11.702  -8.775  1.00  0.00     0.037 A 
ATOM     55  C   UNL     1      -0.424  16.694  -4.591  1.00  0.00     0.049 A 
ATOM     56  C   UNL     1      -1.193  12.993  -8.718  1.00  0.00     0.074 A 
ATOM     57  C   UNL     1      -1.124  17.885  -4.684  1.00  0.00     0.029 A 
ATOM     58  N   UNL     1      -0.790  15.930  -5.690  1.00  0.00    -0.354 N 
ATOM     59  N   UNL     1      -1.115  13.959  -7.834  1.00  0.00    -0.248 NA
ATOM     60  C   UNL     1      -2.170  13.235  -9.789  1.00  0.00     0.031 C 
ATOM     61  C   UNL     1      -1.947  17.822  -5.814  1.00  0.00     0.029 A 
ATOM     62  C   UNL     1      -1.727  16.611  -6.451  1.00  0.00     0.049 A 
ATOM     63  H   UNL     1      -0.435  15.036  -5.899  1.00  0.00     0.167 HD
ATOM     64  C   UNL     1      -2.021  14.926  -8.247  1.00  0.00     0.074 A 
ATOM     65  C   UNL     1      -2.622  14.440  -9.472  1.00  0.00     0.031 C 
ATOM     66  C   UNL     1      -2.328  16.110  -7.661  1.00  0.00     0.037 A 
BRANCH  53  67
ATOM     67  C   UNL     1       0.730  17.175  -2.393  1.00  0.00     0.057 A 
ATOM     68  C   UNL     1       1.944  17.849  -2.201  1.00  0.00     0.134 A 
ATOM     69  C   UNL     1      -0.278  17.381  -1.442  1.00  0.00     0.134 A 
ATOM     70  F   UNL     1       2.955  17.687  -3.069  1.00  0.00    -0.206 F 
ATOM     71  C   UNL     1       2.160  18.665  -1.090  1.00  0.00     0.040 A 
ATOM     72  C   UNL     1      -0.083  18.218  -0.342  1.00  0.00     0.040 A 
ATOM     73  F   UNL     1      -1.468  16.774  -1.567  1.00  0.00    -0.206 F 
ATOM     74  C   UNL     1       1.142  18.855  -0.158  1.00  0.00     0.006 A 
ENDBRANCH  53  67
BRANCH  54  75
ATOM     75  C   UNL     1      -0.675  10.714  -9.855  1.00  0.00     0.057 A 
ATOM     76  C   UNL     1      -0.254  10.957 -11.167  1.00  0.00     0.134 A 
ATOM     77  C   UNL     1      -1.312   9.495  -9.596  1.00  0.00     0.134 A 
ATOM     78  F   UNL     1       0.346  12.116 -11.479  1.00  0.00    -0.206 F 
ATOM     79  C   UNL     1      -0.462  10.026 -12.185  1.00  0.00     0.040 A 
ATOM     80  C   UNL     1      -1.507   8.545 -10.599  1.00  0.00     0.040 A 
ATOM     81  F   UNL     1      -1.731   9.200  -8.356  1.00  0.00    -0.206 F 
ATOM     82  C   UNL     1      -1.084   8.812 -11.900  1.00  0.00     0.006 A 
ENDBRANCH  54  75
BRANCH  66  83
ATOM     83  C   UNL     1      -3.358  16.962  -8.343  1.00  0.00     0.057 A 
ATOM     84  C   UNL     1      -4.718  16.630  -8.324  1.00  0.00     0.134 A 
ATOM     85  C   UNL     1      -2.990  18.147  -8.994  1.00  0.00     0.134 A 
ATOM     86  F   UNL     1      -5.134  15.501  -7.729  1.00  0.00    -0.206 F 
ATOM     87  C   UNL     1      -5.675  17.435  -8.945  1.00  0.00     0.040 A 
ATOM     88  C   UNL     1      -3.940  18.972  -9.597  1.00  0.00     0.040 A 
ATOM     89  F   UNL     1      -1.705  18.526  -9.043  1.00  0.00    -0.206 F 
ATOM     90  C   UNL     1      -5.287  18.614  -9.578  1.00  0.00     0.006 A 
ENDBRANCH  66  83
ENDBRANCH  40  41
ENDBRANCH  32  35
ENDBRANCH  30  31
ENDBRANCH  29  30
ENDBRANCH  28  29
ENDBRANCH  27  28
ENDBRANCH   1  27
TORSDOF 17
