REMARK SMILES Cc1cccc(-c2cc(C[C@]3(C(=O)NCCCCCCNC(=O)c4ccc(-c5c6nc(c(-c7c(F)cccc7F)c7ccc([nH]7)c(-c7c(F)cccc7F)c7nc(c(-c8c(F)cccc8F)c8ccc5[nH]8)C=C7)C=C6)cc4)CCCN(C(=O)C(C)C)C3)on2)c1
REMARK SMILES IDX 17 1 16 2 15 3 14 4 12 5 13 6 11 8 78 9 87 10 79 11 81 12
REMARK SMILES IDX 80 13 10 14 9 15 7 16 8 17 89 18 88 19 6 20 1 21 2 22 3 23
REMARK SMILES IDX 90 24 4 25 5 26 82 27 83 28 84 29 85 30 86 31 18 32 19 33
REMARK SMILES IDX 20 34 21 35 22 36 23 38 24 39 25 40 77 41 26 42 76 43 27 44
REMARK SMILES IDX 28 45 29 46 70 47 30 48 75 49 69 50 71 51 31 52 74 53 68 54
REMARK SMILES IDX 67 55 32 57 58 58 41 59 57 60 42 61 45 62 56 63 72 64 43 65
REMARK SMILES IDX 44 66 55 68 73 69 46 70 33 71 34 72 39 73 35 74 36 75 38 76
REMARK SMILES IDX 40 77 37 78 59 79 60 80 65 81 61 82 62 83 64 84 66 85 63 86
REMARK SMILES IDX 47 87 48 88 53 89 49 90 50 91 52 92 54 93 51 94
REMARK H PARENT 14 7 21 37 71 56 45 67
REMARK Flexibility Score: inf
ROOT
ATOM      1  C   UNL     1      -8.411   8.919  -2.911  1.00  0.00     0.002 C 
ENDROOT
BRANCH   1   2
ATOM      2  C   UNL     1      -7.915   7.740  -2.066  1.00  0.00     0.021 C 
BRANCH   2   3
ATOM      3  C   UNL     1      -6.802   6.895  -2.684  1.00  0.00     0.116 C 
BRANCH   3   4
ATOM      4  N   UNL     1      -5.509   7.549  -2.686  1.00  0.00    -0.356 N 
ATOM      5  C   UNL     1      -4.275   7.134  -2.274  1.00  0.00     0.228 C 
ATOM      6  O   UNL     1      -3.349   7.914  -2.522  1.00  0.00    -0.274 OA
ATOM      7  H   UNL     1      -5.523   8.463  -3.053  1.00  0.00     0.163 HD
BRANCH   5   8
ATOM      8  C   UNL     1      -4.027   5.786  -1.531  1.00  0.00     0.074 C 
ATOM      9  C   UNL     1      -4.848   5.801  -0.205  1.00  0.00     0.021 C 
ATOM     10  C   UNL     1      -4.372   4.627  -2.506  1.00  0.00     0.136 C 
ATOM     11  C   UNL     1      -5.397   4.452   0.265  1.00  0.00     0.023 C 
ATOM     12  N   UNL     1      -4.805   3.399  -1.829  1.00  0.00    -0.341 N 
ATOM     13  C   UNL     1      -5.887   3.591  -0.884  1.00  0.00     0.119 C 
BRANCH   8  14
ATOM     14  C   UNL     1      -2.489   5.759  -1.213  1.00  0.00     0.097 C 
BRANCH  14  15
ATOM     15  C   UNL     1      -1.935   4.525  -0.590  1.00  0.00     0.138 A 
ATOM     16  C   UNL     1      -0.938   2.659   0.067  1.00  0.00     0.114 A 
ATOM     17  C   UNL     1      -1.203   3.464  -1.069  1.00  0.00     0.077 A 
ATOM     18  N   UNL     1      -1.468   3.213   1.168  1.00  0.00    -0.080 NA
ATOM     19  O   UNL     1      -2.067   4.391   0.756  1.00  0.00    -0.361 OA
BRANCH  16  20
ATOM     20  C   UNL     1      -0.237   1.383   0.105  1.00  0.00     0.004 A 
ATOM     21  C   UNL     1       3.308  -0.009  -0.120  1.00  0.00     0.044 C 
ATOM     22  C   UNL     1       1.815   0.080  -0.009  1.00  0.00    -0.050 A 
ATOM     23  C   UNL     1       1.066  -1.099   0.110  1.00  0.00     0.003 A 
ATOM     24  C   UNL     1       1.155   1.320  -0.025  1.00  0.00     0.014 A 
ATOM     25  C   UNL     1      -0.317  -1.042   0.245  1.00  0.00     0.001 A 
ATOM     26  C   UNL     1      -0.959   0.195   0.256  1.00  0.00     0.010 A 
ENDBRANCH  16  20
ENDBRANCH  14  15
ENDBRANCH   8  14
BRANCH  12  27
ATOM     27  C   UNL     1      -4.174   2.203  -2.126  1.00  0.00     0.225 C 
ATOM     28  O   UNL     1      -3.352   2.141  -3.049  1.00  0.00    -0.275 OA
BRANCH  27  29
ATOM     29  C   UNL     1      -4.495   0.907  -1.367  1.00  0.00     0.072 C 
ATOM     30  C   UNL     1      -4.526   0.981   0.157  1.00  0.00     0.018 C 
ATOM     31  C   UNL     1      -5.727   0.217  -1.936  1.00  0.00     0.018 C 
ENDBRANCH  27  29
ENDBRANCH  12  27
ENDBRANCH   5   8
ENDBRANCH   3   4
ENDBRANCH   2   3
ENDBRANCH   1   2
BRANCH   1  32
ATOM     32  C   UNL     1      -8.812   8.613  -4.363  1.00  0.00     0.002 C 
BRANCH  32  33
ATOM     33  C   UNL     1      -9.718   7.400  -4.582  1.00  0.00     0.021 C 
BRANCH  33  34
ATOM     34  C   UNL     1     -11.128   7.541  -4.025  1.00  0.00     0.116 C 
BRANCH  34  35
ATOM     35  N   UNL     1     -12.087   8.110  -4.961  1.00  0.00    -0.352 N 
ATOM     36  C   UNL     1     -13.425   8.431  -4.782  1.00  0.00     0.251 C 
ATOM     37  H   UNL     1     -11.731   8.296  -5.860  1.00  0.00     0.163 HD
ATOM     38  O   UNL     1     -14.075   8.868  -5.713  1.00  0.00    -0.269 OA
BRANCH  36  39
ATOM     39  C   UNL     1     -14.018   8.386  -3.418  1.00  0.00     0.039 A 
ATOM     40  C   UNL     1     -14.806   9.476  -3.025  1.00  0.00     0.014 A 
ATOM     41  C   UNL     1     -13.634   7.433  -2.481  1.00  0.00     0.014 A 
ATOM     42  C   UNL     1     -14.956   9.757  -1.671  1.00  0.00     0.010 A 
ATOM     43  C   UNL     1     -13.696   7.757  -1.141  1.00  0.00     0.010 A 
ATOM     44  C   UNL     1     -14.279   8.965  -0.747  1.00  0.00    -0.014 A 
BRANCH  44  45
ATOM     45  C   UNL     1     -13.973   9.410   0.606  1.00  0.00     0.031 A 
ATOM     46  C   UNL     1     -14.648   8.815   1.773  1.00  0.00     0.074 A 
ATOM     47  C   UNL     1     -12.980  10.311   0.780  1.00  0.00     0.049 A 
ATOM     48  N   UNL     1     -14.684   9.362   2.941  1.00  0.00    -0.248 NA
ATOM     49  C   UNL     1     -15.419   7.580   1.696  1.00  0.00     0.031 C 
ATOM     50  C   UNL     1     -12.293  10.652   2.022  1.00  0.00     0.029 A 
ATOM     51  N   UNL     1     -12.534  11.271  -0.140  1.00  0.00    -0.354 N 
ATOM     52  C   UNL     1     -15.195   8.437   3.821  1.00  0.00     0.074 A 
ATOM     53  C   UNL     1     -15.771   7.422   2.976  1.00  0.00     0.031 C 
ATOM     54  C   UNL     1     -11.742  11.869   1.892  1.00  0.00     0.029 A 
ATOM     55  C   UNL     1     -12.191  12.409   0.621  1.00  0.00     0.049 A 
ATOM     56  H   UNL     1     -12.473  11.171  -1.117  1.00  0.00     0.167 HD
ATOM     57  C   UNL     1     -14.921   8.585   5.150  1.00  0.00     0.037 A 
ATOM     58  C   UNL     1     -12.854  13.593   0.470  1.00  0.00     0.037 A 
ATOM     59  C   UNL     1     -14.354   9.913   5.415  1.00  0.00     0.049 A 
ATOM     60  C   UNL     1     -13.518  14.091   1.732  1.00  0.00     0.074 A 
ATOM     61  C   UNL     1     -13.074  10.360   5.698  1.00  0.00     0.029 A 
ATOM     62  N   UNL     1     -15.115  11.049   5.143  1.00  0.00    -0.354 N 
ATOM     63  N   UNL     1     -13.775  13.336   2.764  1.00  0.00    -0.248 NA
ATOM     64  C   UNL     1     -13.975  15.465   1.921  1.00  0.00     0.031 C 
ATOM     65  C   UNL     1     -13.052  11.768   5.520  1.00  0.00     0.029 A 
ATOM     66  C   UNL     1     -14.324  12.181   5.161  1.00  0.00     0.049 A 
ATOM     67  H   UNL     1     -16.082  11.044   4.962  1.00  0.00     0.167 HD
ATOM     68  C   UNL     1     -14.443  14.065   3.713  1.00  0.00     0.074 A 
ATOM     69  C   UNL     1     -14.519  15.400   3.150  1.00  0.00     0.031 C 
ATOM     70  C   UNL     1     -14.890  13.493   4.870  1.00  0.00     0.037 A 
BRANCH  57  71
ATOM     71  C   UNL     1     -14.908   7.464   6.186  1.00  0.00     0.057 A 
ATOM     72  C   UNL     1     -14.360   7.694   7.468  1.00  0.00     0.134 A 
ATOM     73  C   UNL     1     -15.288   6.124   5.975  1.00  0.00     0.134 A 
ATOM     74  F   UNL     1     -13.993   8.919   7.869  1.00  0.00    -0.206 F 
ATOM     75  C   UNL     1     -14.143   6.675   8.411  1.00  0.00     0.040 A 
ATOM     76  C   UNL     1     -15.093   5.100   6.915  1.00  0.00     0.040 A 
ATOM     77  F   UNL     1     -15.861   5.699   4.849  1.00  0.00    -0.206 F 
ATOM     78  C   UNL     1     -14.499   5.367   8.133  1.00  0.00     0.006 A 
ENDBRANCH  57  71
BRANCH  58  79
ATOM     79  C   UNL     1     -13.374  13.807  -0.906  1.00  0.00     0.057 A 
ATOM     80  C   UNL     1     -12.453  13.930  -1.962  1.00  0.00     0.134 A 
ATOM     81  C   UNL     1     -14.699  13.524  -1.245  1.00  0.00     0.134 A 
ATOM     82  F   UNL     1     -11.163  14.199  -1.703  1.00  0.00    -0.206 F 
ATOM     83  C   UNL     1     -12.810  13.669  -3.287  1.00  0.00     0.040 A 
ATOM     84  C   UNL     1     -15.071  13.273  -2.572  1.00  0.00     0.040 A 
ATOM     85  F   UNL     1     -15.630  13.369  -0.293  1.00  0.00    -0.206 F 
ATOM     86  C   UNL     1     -14.119  13.307  -3.590  1.00  0.00     0.006 A 
ENDBRANCH  58  79
BRANCH  70  87
ATOM     87  C   UNL     1     -15.833  14.123   5.870  1.00  0.00     0.057 A 
ATOM     88  C   UNL     1     -16.789  15.100   5.557  1.00  0.00     0.134 A 
ATOM     89  C   UNL     1     -15.898  13.632   7.195  1.00  0.00     0.134 A 
ATOM     90  F   UNL     1     -16.925  15.578   4.313  1.00  0.00    -0.206 F 
ATOM     91  C   UNL     1     -17.703  15.593   6.501  1.00  0.00     0.040 A 
ATOM     92  C   UNL     1     -16.839  14.076   8.129  1.00  0.00     0.040 A 
ATOM     93  F   UNL     1     -15.064  12.678   7.636  1.00  0.00    -0.206 F 
ATOM     94  C   UNL     1     -17.739  15.073   7.788  1.00  0.00     0.006 A 
ENDBRANCH  70  87
ENDBRANCH  44  45
ENDBRANCH  36  39
ENDBRANCH  34  35
ENDBRANCH  33  34
ENDBRANCH  32  33
ENDBRANCH   1  32
TORSDOF 18
