REMARK SMILES O=C(NCCCCCCNC(=O)[C@@H]1CCCCC[C@@H]1NS(=O)(=O)c1cccc(F)c1)c1ccc(-c2c3nc(c(-c4c(F)cccc4F)c4ccc([nH]4)c(-c4c(F)cccc4F)c4nc(c(-c5c(F)cccc5F)c5ccc2[nH]5)C=C4)C=C3)cc1
REMARK SMILES IDX 8 1 7 2 6 3 5 4 4 5 3 6 1 7 2 8 31 10 32 11 84 12 33 13
REMARK SMILES IDX 83 14 34 15 35 16 36 17 77 18 37 19 82 20 76 21 78 22 38 23
REMARK SMILES IDX 81 24 75 25 74 26 39 28 65 29 48 30 64 31 49 32 52 33 63 34
REMARK SMILES IDX 79 35 50 36 51 37 62 39 80 40 53 41 40 42 41 43 46 44 42 45
REMARK SMILES IDX 43 46 45 47 47 48 44 49 66 50 67 51 72 52 68 53 69 54 71 55
REMARK SMILES IDX 73 56 70 57 54 58 55 59 60 60 56 61 57 62 59 63 61 64 58 65
REMARK SMILES IDX 9 66 10 67 11 68 12 70 13 71 14 72 19 74 18 75 17 76 16 77
REMARK SMILES IDX 15 78 20 80 21 82 22 83 23 84 24 85 25 86 30 87 26 88 28 89
REMARK SMILES IDX 27 90 29 91
REMARK H PARENT 3 9 78 27 52 38 10 69 20 81
REMARK Flexibility Score: 90.00
ROOT
ATOM      1  C   UNL     1       5.855  -4.298  -1.460  1.00  0.00     0.021 C 
ENDROOT
BRANCH   1   2
ATOM      2  C   UNL     1       4.332  -4.208  -1.336  1.00  0.00     0.002 C 
BRANCH   2   3
ATOM      3  C   UNL     1       3.807  -3.820   0.051  1.00  0.00     0.002 C 
BRANCH   3   4
ATOM      4  C   UNL     1       4.447  -2.577   0.672  1.00  0.00     0.021 C 
BRANCH   4   5
ATOM      5  C   UNL     1       4.360  -1.319  -0.186  1.00  0.00     0.116 C 
BRANCH   5   6
ATOM      6  N   UNL     1       2.983  -0.937  -0.459  1.00  0.00    -0.352 N 
ATOM      7  O   UNL     1       1.084   0.259  -0.237  1.00  0.00    -0.269 OA
ATOM      8  C   UNL     1       2.301   0.198  -0.099  1.00  0.00     0.251 C 
ATOM      9  H   UNL     1       2.463  -1.590  -0.980  1.00  0.00     0.163 HD
BRANCH   8  10
ATOM     10  C   UNL     1       3.037   1.344   0.474  1.00  0.00     0.039 A 
ATOM     11  C   UNL     1       4.234   1.776  -0.100  1.00  0.00     0.014 A 
ATOM     12  C   UNL     1       2.511   2.003   1.588  1.00  0.00     0.014 A 
ATOM     13  C   UNL     1       4.977   2.771   0.523  1.00  0.00     0.010 A 
ATOM     14  C   UNL     1       3.217   3.062   2.163  1.00  0.00     0.010 A 
ATOM     15  C   UNL     1       4.471   3.433   1.654  1.00  0.00    -0.014 A 
BRANCH  15  16
ATOM     16  C   UNL     1       5.251   4.541   2.256  1.00  0.00     0.031 A 
ATOM     17  C   UNL     1       5.821   4.426   3.641  1.00  0.00     0.074 A 
ATOM     18  C   UNL     1       5.474   5.648   1.522  1.00  0.00     0.049 A 
ATOM     19  N   UNL     1       6.546   5.290   4.307  1.00  0.00    -0.248 NA
ATOM     20  C   UNL     1       5.537   3.186   4.379  1.00  0.00     0.031 C 
ATOM     21  C   UNL     1       4.968   5.870   0.166  1.00  0.00     0.029 A 
ATOM     22  N   UNL     1       6.199   6.778   1.797  1.00  0.00    -0.354 N 
ATOM     23  C   UNL     1       6.793   4.707   5.542  1.00  0.00     0.074 A 
ATOM     24  C   UNL     1       6.115   3.428   5.548  1.00  0.00     0.031 C 
ATOM     25  C   UNL     1       5.442   7.037  -0.293  1.00  0.00     0.029 A 
ATOM     26  C   UNL     1       6.234   7.671   0.755  1.00  0.00     0.049 A 
ATOM     27  H   UNL     1       6.650   6.934   2.658  1.00  0.00     0.167 HD
ATOM     28  C   UNL     1       7.529   5.191   6.572  1.00  0.00     0.037 A 
ATOM     29  C   UNL     1       6.831   8.873   0.653  1.00  0.00     0.037 A 
ATOM     30  C   UNL     1       8.208   6.462   6.554  1.00  0.00     0.049 A 
ATOM     31  C   UNL     1       7.618   9.399   1.815  1.00  0.00     0.074 A 
ATOM     32  C   UNL     1       8.987   7.035   7.544  1.00  0.00     0.029 A 
ATOM     33  N   UNL     1       8.189   7.355   5.493  1.00  0.00    -0.354 N 
ATOM     34  N   UNL     1       7.849   8.834   2.975  1.00  0.00    -0.248 NA
ATOM     35  C   UNL     1       8.225  10.726   1.658  1.00  0.00     0.031 C 
ATOM     36  C   UNL     1       9.405   8.294   7.098  1.00  0.00     0.029 A 
ATOM     37  C   UNL     1       8.930   8.482   5.810  1.00  0.00     0.049 A 
ATOM     38  H   UNL     1       7.718   7.210   4.640  1.00  0.00     0.167 HD
ATOM     39  C   UNL     1       8.642   9.727   3.682  1.00  0.00     0.074 A 
ATOM     40  C   UNL     1       8.862  10.867   2.814  1.00  0.00     0.031 C 
ATOM     41  C   UNL     1       9.142   9.609   4.936  1.00  0.00     0.037 A 
BRANCH  28  42
ATOM     42  C   UNL     1       7.627   4.350   7.812  1.00  0.00     0.057 A 
ATOM     43  C   UNL     1       7.003   4.752   9.000  1.00  0.00     0.134 A 
ATOM     44  C   UNL     1       8.379   3.168   7.847  1.00  0.00     0.134 A 
ATOM     45  F   UNL     1       6.274   5.878   9.040  1.00  0.00    -0.206 F 
ATOM     46  C   UNL     1       7.126   4.012  10.178  1.00  0.00     0.040 A 
ATOM     47  C   UNL     1       8.488   2.406   9.013  1.00  0.00     0.040 A 
ATOM     48  F   UNL     1       8.993   2.720   6.742  1.00  0.00    -0.206 F 
ATOM     49  C   UNL     1       7.867   2.833  10.185  1.00  0.00     0.006 A 
ENDBRANCH  28  42
BRANCH  29  50
ATOM     50  C   UNL     1       6.713   9.631  -0.616  1.00  0.00     0.057 A 
ATOM     51  C   UNL     1       5.495  10.188  -1.022  1.00  0.00     0.134 A 
ATOM     52  C   UNL     1       7.802   9.751  -1.486  1.00  0.00     0.134 A 
ATOM     53  F   UNL     1       4.412  10.095  -0.236  1.00  0.00    -0.206 F 
ATOM     54  C   UNL     1       5.354  10.813  -2.262  1.00  0.00     0.040 A 
ATOM     55  C   UNL     1       7.682  10.394  -2.718  1.00  0.00     0.040 A 
ATOM     56  F   UNL     1       8.997   9.249  -1.145  1.00  0.00    -0.206 F 
ATOM     57  C   UNL     1       6.452  10.917  -3.114  1.00  0.00     0.006 A 
ENDBRANCH  29  50
BRANCH  41  58
ATOM     58  C   UNL     1      10.001  10.729   5.443  1.00  0.00     0.057 A 
ATOM     59  C   UNL     1      11.380  10.548   5.606  1.00  0.00     0.134 A 
ATOM     60  C   UNL     1       9.458  11.960   5.830  1.00  0.00     0.134 A 
ATOM     61  F   UNL     1      11.961   9.389   5.263  1.00  0.00    -0.206 F 
ATOM     62  C   UNL     1      12.188  11.549   6.148  1.00  0.00     0.040 A 
ATOM     63  C   UNL     1      10.259  12.977   6.351  1.00  0.00     0.040 A 
ATOM     64  F   UNL     1       8.145  12.199   5.687  1.00  0.00    -0.206 F 
ATOM     65  C   UNL     1      11.627  12.769   6.520  1.00  0.00     0.006 A 
ENDBRANCH  41  58
ENDBRANCH  15  16
ENDBRANCH   8  10
ENDBRANCH   5   6
ENDBRANCH   4   5
ENDBRANCH   3   4
ENDBRANCH   2   3
ENDBRANCH   1   2
BRANCH   1  66
ATOM     66  C   UNL     1       6.501  -5.321  -0.526  1.00  0.00     0.116 C 
BRANCH  66  67
ATOM     67  N   UNL     1       6.678  -6.608  -1.161  1.00  0.00    -0.356 N 
ATOM     68  C   UNL     1       7.783  -7.337  -1.454  1.00  0.00     0.224 C 
ATOM     69  H   UNL     1       5.835  -7.037  -1.433  1.00  0.00     0.163 HD
ATOM     70  O   UNL     1       7.577  -8.444  -1.965  1.00  0.00    -0.275 OA
BRANCH  68  71
ATOM     71  C   UNL     1       9.232  -6.906  -1.167  1.00  0.00     0.096 C 
BRANCH  71  72
ATOM     72  C   UNL     1       9.619  -7.342   0.252  1.00  0.00     0.015 CG0
ATOM     73  G   UNL     1      11.108  -7.161   0.560  1.00  0.00     0.000 G0
ENDBRANCH  71  72
BRANCH  71  74
ATOM     74  C   UNL     1       9.737  -5.508  -1.605  1.00  0.00     0.082 C 
BRANCH  74  75
ATOM     75  C   UNL     1       9.938  -4.489  -0.466  1.00  0.00     0.021 C 
BRANCH  75  76
ATOM     76  C   UNL     1      11.318  -4.613   0.187  1.00  0.00     0.002 C 
BRANCH  76  77
ATOM     77  C   UNL     1      11.449  -5.794   1.147  1.00  0.00     0.000 C 
BRANCH  77  78
ATOM     78  C   UNL     1      11.108  -7.161   0.560  1.00  0.00     0.001 CG0
ATOM     79  G   UNL     1       9.619  -7.342   0.252  1.00  0.00     0.000 G0
ENDBRANCH  77  78
ENDBRANCH  76  77
ENDBRANCH  75  76
ENDBRANCH  74  75
BRANCH  74  80
ATOM     80  N   UNL     1       8.927  -5.000  -2.722  1.00  0.00    -0.207 NA
ATOM     81  H   UNL     1       8.072  -4.650  -2.291  1.00  0.00     0.141 HD
BRANCH  80  82
ATOM     82  S   UNL     1       9.376  -3.825  -3.815  1.00  0.00     0.240 S 
ATOM     83  O   UNL     1       8.218  -3.637  -4.654  1.00  0.00    -0.207 OA
ATOM     84  O   UNL     1       9.970  -2.723  -3.086  1.00  0.00    -0.207 OA
BRANCH  82  85
ATOM     85  C   UNL     1      10.646  -4.502  -4.847  1.00  0.00     0.085 A 
ATOM     86  C   UNL     1      11.129  -5.807  -4.711  1.00  0.00     0.022 A 
ATOM     87  C   UNL     1      11.181  -3.650  -5.818  1.00  0.00     0.061 A 
ATOM     88  C   UNL     1      12.199  -6.235  -5.502  1.00  0.00     0.004 A 
ATOM     89  C   UNL     1      12.223  -4.101  -6.616  1.00  0.00     0.124 A 
ATOM     90  C   UNL     1      12.749  -5.378  -6.454  1.00  0.00     0.039 A 
ATOM     91  F   UNL     1      12.736  -3.290  -7.550  1.00  0.00    -0.207 F 
ENDBRANCH  82  85
ENDBRANCH  80  82
ENDBRANCH  74  80
ENDBRANCH  71  74
ENDBRANCH  68  71
ENDBRANCH  66  67
ENDBRANCH   1  66
TORSDOF 16
