REMARK SMILES O=C(COc1ccccc1C[NH+]1CCC2(CC[NH2+]CC2)CC1)NCCCCCCNC(=O)c1ccc(-c2c3nc(c(-c4c(F)cccc4F)c4ccc([nH]4)c(-c4c(F)cccc4F)c4nc(c(-c5c(F)cccc5F)c5ccc2[nH]5)C=C4)C=C3)cc1
REMARK SMILES IDX 25 1 24 2 23 3 1 4 2 5 3 7 4 8 5 9 6 10 10 11 7 12 9 13 8 14
REMARK SMILES IDX 11 15 12 16 13 17 22 18 14 20 21 21 15 22 16 23 20 24 17 25
REMARK SMILES IDX 19 26 18 27 26 30 27 31 28 32 29 33 30 34 31 35 32 37 33 38
REMARK SMILES IDX 34 39 86 40 35 41 85 42 36 43 37 44 38 45 79 46 39 47 84 48
REMARK SMILES IDX 78 49 80 50 40 51 83 52 77 53 76 54 41 56 67 57 50 58 66 59
REMARK SMILES IDX 51 60 54 61 65 62 81 63 52 64 53 65 64 67 82 68 55 69 42 70
REMARK SMILES IDX 43 71 48 72 44 73 45 74 47 75 49 76 46 77 68 78 69 79 74 80
REMARK SMILES IDX 70 81 71 82 73 83 75 84 72 85 56 86 57 87 62 88 58 89 59 90
REMARK SMILES IDX 61 91 63 92 60 93
REMARK H PARENT 23 6 12 19 18 28 18 29 30 36 80 55 54 66
REMARK Flexibility Score: inf
ROOT
ATOM      1  C   UNL     1       3.064  -2.924  -2.530  1.00  0.00     0.021 C 
ENDROOT
BRANCH   1   2
ATOM      2  C   UNL     1       2.345  -2.025  -1.532  1.00  0.00     0.116 C 
BRANCH   2   3
ATOM      3  N   UNL     1       3.116  -0.878  -1.091  1.00  0.00    -0.353 N 
ATOM      4  O   UNL     1       1.532   0.732  -1.551  1.00  0.00    -0.271 OA
ATOM      5  C   UNL     1       2.559   0.385  -0.976  1.00  0.00     0.257 C 
ATOM      6  H   UNL     1       4.066  -1.001  -0.866  1.00  0.00     0.163 HD
BRANCH   5   7
ATOM      7  C   UNL     1       3.311   1.306  -0.007  1.00  0.00     0.329 C 
BRANCH   7   8
ATOM      8  O   UNL     1       3.833   0.567   1.114  1.00  0.00    -0.483 OA
BRANCH   8   9
ATOM      9  C   UNL     1       3.206   0.911   2.286  1.00  0.00     0.128 A 
ATOM     10  C   UNL     1       3.908   1.744   3.166  1.00  0.00     0.047 A 
ATOM     11  C   UNL     1       1.952   0.400   2.651  1.00  0.00     0.048 A 
ATOM     12  C   UNL     1       3.331   2.138   4.376  1.00  0.00     0.004 A 
ATOM     13  C   UNL     1       1.338   0.916   3.808  1.00  0.00     0.013 A 
ATOM     14  C   UNL     1       2.030   1.755   4.679  1.00  0.00     0.001 A 
BRANCH  11  15
ATOM     15  C   UNL     1       1.257  -0.727   1.925  1.00  0.00     0.302 C 
BRANCH  15  16
ATOM     16  N   UNL     1       1.435  -2.087   2.447  1.00  0.00    -0.331 N 
ATOM     17  C   UNL     1       2.711  -2.739   2.188  1.00  0.00     0.263 C 
ATOM     18  C   UNL     1       0.897  -2.351   3.770  1.00  0.00     0.263 C 
ATOM     19  H   UNL     1       0.799  -2.581   1.821  1.00  0.00     0.348 HD
ATOM     20  C   UNL     1       3.759  -2.656   3.297  1.00  0.00     0.069 C 
ATOM     21  C   UNL     1       1.905  -2.155   4.905  1.00  0.00     0.069 C 
ATOM     22  C   UNL     1       3.209  -2.954   4.711  1.00  0.00    -0.008 C 
ATOM     23  C   UNL     1       2.912  -4.458   4.929  1.00  0.00     0.069 C 
ATOM     24  C   UNL     1       4.243  -2.476   5.763  1.00  0.00     0.069 C 
ATOM     25  C   UNL     1       4.161  -5.309   5.149  1.00  0.00     0.261 C 
ATOM     26  C   UNL     1       5.442  -3.414   5.885  1.00  0.00     0.261 C 
ATOM     27  N   UNL     1       5.010  -4.772   6.212  1.00  0.00    -0.346 N 
ATOM     28  H   UNL     1       5.830  -5.369   6.319  1.00  0.00     0.346 HD
ATOM     29  H   UNL     1       4.475  -4.749   7.080  1.00  0.00     0.346 HD
ENDBRANCH  15  16
ENDBRANCH  11  15
ENDBRANCH   8   9
ENDBRANCH   7   8
ENDBRANCH   5   7
ENDBRANCH   2   3
ENDBRANCH   1   2
BRANCH   1  30
ATOM     30  C   UNL     1       4.500  -3.323  -2.176  1.00  0.00     0.002 C 
BRANCH  30  31
ATOM     31  C   UNL     1       4.697  -4.166  -0.914  1.00  0.00     0.002 C 
BRANCH  31  32
ATOM     32  C   UNL     1       3.951  -5.500  -0.862  1.00  0.00     0.021 C 
BRANCH  32  33
ATOM     33  C   UNL     1       4.157  -6.414  -2.065  1.00  0.00     0.116 C 
BRANCH  33  34
ATOM     34  N   UNL     1       5.550  -6.777  -2.279  1.00  0.00    -0.352 N 
ATOM     35  C   UNL     1       6.096  -8.001  -2.578  1.00  0.00     0.251 C 
ATOM     36  H   UNL     1       6.194  -6.037  -2.198  1.00  0.00     0.163 HD
ATOM     37  O   UNL     1       7.318  -8.140  -2.609  1.00  0.00    -0.269 OA
BRANCH  35  38
ATOM     38  C   UNL     1       5.219  -9.164  -2.832  1.00  0.00     0.039 A 
ATOM     39  C   UNL     1       5.539 -10.392  -2.244  1.00  0.00     0.014 A 
ATOM     40  C   UNL     1       4.085  -9.050  -3.640  1.00  0.00     0.014 A 
ATOM     41  C   UNL     1       4.684 -11.484  -2.411  1.00  0.00     0.010 A 
ATOM     42  C   UNL     1       3.194 -10.115  -3.739  1.00  0.00     0.010 A 
ATOM     43  C   UNL     1       3.484 -11.344  -3.127  1.00  0.00    -0.014 A 
BRANCH  43  44
ATOM     44  C   UNL     1       2.521 -12.468  -3.247  1.00  0.00     0.031 A 
ATOM     45  C   UNL     1       2.197 -13.047  -4.597  1.00  0.00     0.074 A 
ATOM     46  C   UNL     1       1.887 -12.925  -2.149  1.00  0.00     0.049 A 
ATOM     47  N   UNL     1       1.333 -13.978  -4.913  1.00  0.00    -0.248 NA
ATOM     48  C   UNL     1       2.921 -12.485  -5.749  1.00  0.00     0.031 C 
ATOM     49  C   UNL     1       2.079 -12.418  -0.789  1.00  0.00     0.029 A 
ATOM     50  N   UNL     1       0.945 -13.913  -2.004  1.00  0.00    -0.354 N 
ATOM     51  C   UNL     1       1.401 -14.103  -6.295  1.00  0.00     0.074 A 
ATOM     52  C   UNL     1       2.346 -13.113  -6.763  1.00  0.00     0.031 C 
ATOM     53  C   UNL     1       1.298 -13.113   0.054  1.00  0.00     0.029 A 
ATOM     54  C   UNL     1       0.520 -14.084  -0.709  1.00  0.00     0.049 A 
ATOM     55  H   UNL     1       0.606 -14.448  -2.758  1.00  0.00     0.167 HD
ATOM     56  C   UNL     1       0.753 -14.979  -7.100  1.00  0.00     0.037 A 
ATOM     57  C   UNL     1      -0.400 -14.922  -0.195  1.00  0.00     0.037 A 
ATOM     58  C   UNL     1      -0.173 -15.976  -6.628  1.00  0.00     0.049 A 
ATOM     59  C   UNL     1      -1.120 -15.873  -1.111  1.00  0.00     0.074 A 
ATOM     60  C   UNL     1      -0.839 -16.947  -7.356  1.00  0.00     0.029 A 
ATOM     61  N   UNL     1      -0.569 -16.125  -5.307  1.00  0.00    -0.354 N 
ATOM     62  N   UNL     1      -0.995 -16.027  -2.407  1.00  0.00    -0.248 NA
ATOM     63  C   UNL     1      -2.105 -16.771  -0.493  1.00  0.00     0.031 C 
ATOM     64  C   UNL     1      -1.678 -17.648  -6.484  1.00  0.00     0.029 A 
ATOM     65  C   UNL     1      -1.490 -17.155  -5.203  1.00  0.00     0.049 A 
ATOM     66  H   UNL     1      -0.244 -15.580  -4.555  1.00  0.00     0.167 HD
ATOM     67  C   UNL     1      -1.859 -17.058  -2.753  1.00  0.00     0.074 A 
ATOM     68  C   UNL     1      -2.492 -17.501  -1.529  1.00  0.00     0.031 C 
ATOM     69  C   UNL     1      -2.106 -17.591  -3.976  1.00  0.00     0.037 A 
BRANCH  56  70
ATOM     70  C   UNL     1       1.024 -14.899  -8.575  1.00  0.00     0.057 A 
ATOM     71  C   UNL     1       2.264 -15.259  -9.121  1.00  0.00     0.134 A 
ATOM     72  C   UNL     1       0.024 -14.488  -9.466  1.00  0.00     0.134 A 
ATOM     73  F   UNL     1       3.270 -15.651  -8.324  1.00  0.00    -0.206 F 
ATOM     74  C   UNL     1       2.508 -15.185 -10.493  1.00  0.00     0.040 A 
ATOM     75  C   UNL     1       0.246 -14.439 -10.843  1.00  0.00     0.040 A 
ATOM     76  F   UNL     1      -1.189 -14.135  -9.014  1.00  0.00    -0.206 F 
ATOM     77  C   UNL     1       1.494 -14.781 -11.360  1.00  0.00     0.006 A 
ENDBRANCH  56  70
BRANCH  57  78
ATOM     78  C   UNL     1      -0.683 -14.916   1.264  1.00  0.00     0.057 A 
ATOM     79  C   UNL     1      -0.326 -16.000   2.074  1.00  0.00     0.134 A 
ATOM     80  C   UNL     1      -1.326 -13.836   1.881  1.00  0.00     0.134 A 
ATOM     81  F   UNL     1       0.275 -17.073   1.540  1.00  0.00    -0.206 F 
ATOM     82  C   UNL     1      -0.620 -16.023   3.439  1.00  0.00     0.040 A 
ATOM     83  C   UNL     1      -1.600 -13.832   3.250  1.00  0.00     0.040 A 
ATOM     84  F   UNL     1      -1.686 -12.762   1.163  1.00  0.00    -0.206 F 
ATOM     85  C   UNL     1      -1.254 -14.933   4.031  1.00  0.00     0.006 A 
ENDBRANCH  57  78
BRANCH  69  86
ATOM     86  C   UNL     1      -3.071 -18.739  -4.045  1.00  0.00     0.057 A 
ATOM     87  C   UNL     1      -4.447 -18.568  -3.845  1.00  0.00     0.134 A 
ATOM     88  C   UNL     1      -2.619 -20.029  -4.355  1.00  0.00     0.134 A 
ATOM     89  F   UNL     1      -4.944 -17.361  -3.533  1.00  0.00    -0.206 F 
ATOM     90  C   UNL     1      -5.335 -19.642  -3.927  1.00  0.00     0.040 A 
ATOM     91  C   UNL     1      -3.501 -21.104  -4.470  1.00  0.00     0.040 A 
ATOM     92  F   UNL     1      -1.315 -20.262  -4.568  1.00  0.00    -0.206 F 
ATOM     93  C   UNL     1      -4.863 -20.913  -4.249  1.00  0.00     0.006 A 
ENDBRANCH  69  86
ENDBRANCH  43  44
ENDBRANCH  35  38
ENDBRANCH  33  34
ENDBRANCH  32  33
ENDBRANCH  31  32
ENDBRANCH  30  31
ENDBRANCH   1  30
TORSDOF 17
