REMARK SMILES CC(C)C[C@H](NC(=O)[C@H](Cc1ccccc1)NC(=O)CNC(=O)C[NH3+])C(=O)NCCCCCCNC(=O)c1ccc(-c2c3nc(c(-c4c(F)cccc4F)c4ccc([nH]4)c(-c4c(F)cccc4F)c4nc(c(-c5c(F)cccc5F)c5ccc2[nH]5)C=C4)C=C3)cc1
REMARK SMILES IDX 29 1 28 2 26 3 27 4 5 6 4 7 2 8 1 9 3 10 6 11 7 12 8 14 9 15
REMARK SMILES IDX 17 16 18 17 19 19 20 20 21 21 22 22 23 24 24 25 25 26 10 30
REMARK SMILES IDX 11 31 12 32 16 33 13 34 15 35 14 36 30 37 31 38 32 39 33 40
REMARK SMILES IDX 34 41 35 42 36 43 37 45 38 46 39 47 91 48 40 49 90 50 41 51
REMARK SMILES IDX 42 52 43 53 84 54 44 55 89 56 83 57 85 58 45 59 88 60 82 61
REMARK SMILES IDX 81 62 46 64 72 65 55 66 71 67 56 68 59 69 70 70 86 71 57 72
REMARK SMILES IDX 58 73 69 75 87 76 60 77 47 78 48 79 53 80 49 81 50 82 52 83
REMARK SMILES IDX 54 84 51 85 73 86 74 87 79 88 75 89 76 90 78 91 80 92 77 93
REMARK SMILES IDX 61 94 62 95 67 96 63 97 64 98 66 99 68 100 65 101
REMARK H PARENT 28 5 6 13 17 18 21 23 25 27 25 28 25 29 35 44 85 63 59 74
REMARK Flexibility Score: inf
ROOT
ATOM      1  C   UNL     1       2.954   5.388  -2.556  1.00  0.00     0.116 C 
ENDROOT
BRANCH   1   2
ATOM      2  N   UNL     1       2.232   6.118  -1.527  1.00  0.00    -0.354 N 
ATOM      3  C   UNL     1       1.515   5.655  -0.461  1.00  0.00     0.242 C 
ATOM      4  O   UNL     1       1.045   6.484   0.321  1.00  0.00    -0.273 OA
ATOM      5  H   UNL     1       2.266   7.098  -1.612  1.00  0.00     0.163 HD
BRANCH   3   6
ATOM      6  C   UNL     1       1.394   4.140  -0.192  1.00  0.00     0.171 C 
BRANCH   6   7
ATOM      7  C   UNL     1       2.760   3.569   0.148  1.00  0.00     0.038 C 
BRANCH   7   8
ATOM      8  C   UNL     1       3.809   4.388   0.919  1.00  0.00    -0.015 C 
ATOM      9  C   UNL     1       3.379   4.641   2.361  1.00  0.00     0.007 C 
ATOM     10  C   UNL     1       5.133   3.610   0.907  1.00  0.00     0.007 C 
ENDBRANCH   7   8
ENDBRANCH   6   7
BRANCH   6  11
ATOM     11  N   UNL     1       0.722   3.511  -1.359  1.00  0.00    -0.343 N 
ATOM     12  C   UNL     1       0.431   2.280  -1.849  1.00  0.00     0.243 C 
ATOM     13  H   UNL     1       0.382   4.205  -1.968  1.00  0.00     0.164 HD
ATOM     14  O   UNL     1      -0.327   2.319  -2.833  1.00  0.00    -0.273 OA
BRANCH  12  15
ATOM     15  C   UNL     1       1.073   0.907  -1.461  1.00  0.00     0.175 C 
BRANCH  15  16
ATOM     16  N   UNL     1       1.681   0.748  -0.145  1.00  0.00    -0.342 N 
ATOM     17  C   UNL     1       2.991   0.467   0.166  1.00  0.00     0.240 C 
ATOM     18  H   UNL     1       1.073   0.856   0.623  1.00  0.00     0.164 HD
ATOM     19  O   UNL     1       3.235   0.056   1.304  1.00  0.00    -0.273 OA
BRANCH  17  20
ATOM     20  C   UNL     1       4.145   0.694  -0.848  1.00  0.00     0.216 C 
BRANCH  20  21
ATOM     21  N   UNL     1       4.432  -0.392  -1.759  1.00  0.00    -0.342 N 
ATOM     22  C   UNL     1       4.464  -0.357  -3.125  1.00  0.00     0.275 C 
ATOM     23  H   UNL     1       4.629  -1.263  -1.344  1.00  0.00     0.164 HD
ATOM     24  O   UNL     1       4.446  -1.423  -3.742  1.00  0.00    -0.268 OA
BRANCH  22  25
ATOM     25  C   UNL     1       4.559   0.985  -3.862  1.00  0.00     0.360 C 
BRANCH  25  26
ATOM     26  N   UNL     1       3.272   1.696  -3.902  1.00  0.00    -0.350 N 
ATOM     27  H   UNL     1       2.587   1.131  -4.405  1.00  0.00     0.344 HD
ATOM     28  H   UNL     1       3.392   2.590  -4.380  1.00  0.00     0.344 HD
ATOM     29  H   UNL     1       2.945   1.861  -2.950  1.00  0.00     0.344 HD
ENDBRANCH  25  26
ENDBRANCH  22  25
ENDBRANCH  20  21
ENDBRANCH  17  20
ENDBRANCH  15  16
BRANCH  15  30
ATOM     30  C   UNL     1       0.007  -0.224  -1.742  1.00  0.00     0.070 C 
BRANCH  30  31
ATOM     31  C   UNL     1       0.335  -1.658  -1.351  1.00  0.00    -0.045 A 
ATOM     32  C   UNL     1      -0.672  -2.596  -1.107  1.00  0.00     0.004 A 
ATOM     33  C   UNL     1       1.649  -2.106  -1.244  1.00  0.00     0.004 A 
ATOM     34  C   UNL     1      -0.353  -3.886  -0.655  1.00  0.00     0.000 A 
ATOM     35  C   UNL     1       1.983  -3.358  -0.735  1.00  0.00     0.000 A 
ATOM     36  C   UNL     1       0.973  -4.252  -0.427  1.00  0.00     0.000 A 
ENDBRANCH  30  31
ENDBRANCH  15  30
ENDBRANCH  12  15
ENDBRANCH   6  11
ENDBRANCH   3   6
ENDBRANCH   1   2
BRANCH   1  37
ATOM     37  C   UNL     1       2.949   6.151  -3.877  1.00  0.00     0.021 C 
BRANCH  37  38
ATOM     38  C   UNL     1       3.784   7.436  -3.857  1.00  0.00     0.002 C 
BRANCH  38  39
ATOM     39  C   UNL     1       5.284   7.227  -3.627  1.00  0.00     0.002 C 
BRANCH  39  40
ATOM     40  C   UNL     1       5.968   6.302  -4.635  1.00  0.00     0.021 C 
BRANCH  40  41
ATOM     41  C   UNL     1       5.744   6.679  -6.096  1.00  0.00     0.116 C 
BRANCH  41  42
ATOM     42  N   UNL     1       6.218   8.020  -6.400  1.00  0.00    -0.352 N 
ATOM     43  C   UNL     1       7.001   8.440  -7.443  1.00  0.00     0.251 C 
ATOM     44  H   UNL     1       5.937   8.723  -5.771  1.00  0.00     0.163 HD
ATOM     45  O   UNL     1       7.458   9.582  -7.459  1.00  0.00    -0.269 OA
BRANCH  43  46
ATOM     46  C   UNL     1       7.317   7.502  -8.537  1.00  0.00     0.039 A 
ATOM     47  C   UNL     1       8.637   7.398  -8.978  1.00  0.00     0.014 A 
ATOM     48  C   UNL     1       6.314   6.717  -9.113  1.00  0.00     0.014 A 
ATOM     49  C   UNL     1       8.962   6.461  -9.960  1.00  0.00     0.010 A 
ATOM     50  C   UNL     1       6.652   5.731 -10.034  1.00  0.00     0.010 A 
ATOM     51  C   UNL     1       7.979   5.597 -10.470  1.00  0.00    -0.014 A 
BRANCH  51  52
ATOM     52  C   UNL     1       8.322   4.548 -11.462  1.00  0.00     0.031 A 
ATOM     53  C   UNL     1       7.725   4.588 -12.841  1.00  0.00     0.074 A 
ATOM     54  C   UNL     1       9.123   3.527 -11.100  1.00  0.00     0.049 A 
ATOM     55  N   UNL     1       7.858   3.735 -13.824  1.00  0.00    -0.248 NA
ATOM     56  C   UNL     1       6.839   5.723 -13.147  1.00  0.00     0.031 C 
ATOM     57  C   UNL     1       9.726   3.352  -9.777  1.00  0.00     0.029 A 
ATOM     58  N   UNL     1       9.562   2.439 -11.811  1.00  0.00    -0.354 N 
ATOM     59  C   UNL     1       7.066   4.222 -14.857  1.00  0.00     0.074 A 
ATOM     60  C   UNL     1       6.411   5.413 -14.362  1.00  0.00     0.031 C 
ATOM     61  C   UNL     1      10.476   2.238  -9.779  1.00  0.00     0.029 A 
ATOM     62  C   UNL     1      10.373   1.598 -11.087  1.00  0.00     0.049 A 
ATOM     63  H   UNL     1       9.319   2.275 -12.751  1.00  0.00     0.167 HD
ATOM     64  C   UNL     1       6.917   3.733 -16.111  1.00  0.00     0.037 A 
ATOM     65  C   UNL     1      10.961   0.438 -11.436  1.00  0.00     0.037 A 
ATOM     66  C   UNL     1       7.588   2.559 -16.604  1.00  0.00     0.049 A 
ATOM     67  C   UNL     1      10.766  -0.091 -12.831  1.00  0.00     0.074 A 
ATOM     68  C   UNL     1       7.553   2.019 -17.878  1.00  0.00     0.029 A 
ATOM     69  N   UNL     1       8.409   1.740 -15.844  1.00  0.00    -0.354 N 
ATOM     70  N   UNL     1      10.076   0.422 -13.821  1.00  0.00    -0.248 NA
ATOM     71  C   UNL     1      11.436  -1.357 -13.158  1.00  0.00     0.031 C 
ATOM     72  C   UNL     1       8.307   0.842 -17.873  1.00  0.00     0.029 A 
ATOM     73  C   UNL     1       8.863   0.682 -16.614  1.00  0.00     0.049 A 
ATOM     74  H   UNL     1       8.636   1.889 -14.898  1.00  0.00     0.167 HD
ATOM     75  C   UNL     1      10.255  -0.440 -14.896  1.00  0.00     0.074 A 
ATOM     76  C   UNL     1      11.131  -1.500 -14.440  1.00  0.00     0.031 C 
ATOM     77  C   UNL     1       9.742  -0.361 -16.148  1.00  0.00     0.037 A 
BRANCH  64  78
ATOM     78  C   UNL     1       5.990   4.467 -17.037  1.00  0.00     0.057 A 
ATOM     79  C   UNL     1       6.296   5.740 -17.537  1.00  0.00     0.134 A 
ATOM     80  C   UNL     1       4.794   3.877 -17.466  1.00  0.00     0.134 A 
ATOM     81  F   UNL     1       7.419   6.368 -17.159  1.00  0.00    -0.206 F 
ATOM     82  C   UNL     1       5.434   6.410 -18.407  1.00  0.00     0.040 A 
ATOM     83  C   UNL     1       3.939   4.524 -18.360  1.00  0.00     0.040 A 
ATOM     84  F   UNL     1       4.442   2.657 -17.032  1.00  0.00    -0.206 F 
ATOM     85  C   UNL     1       4.255   5.798 -18.827  1.00  0.00     0.006 A 
ENDBRANCH  64  78
BRANCH  65  86
ATOM     86  C   UNL     1      11.801  -0.298 -10.457  1.00  0.00     0.057 A 
ATOM     87  C   UNL     1      13.185  -0.415 -10.634  1.00  0.00     0.134 A 
ATOM     88  C   UNL     1      11.242  -0.916  -9.332  1.00  0.00     0.134 A 
ATOM     89  F   UNL     1      13.777   0.141 -11.701  1.00  0.00    -0.206 F 
ATOM     90  C   UNL     1      13.979  -1.141  -9.745  1.00  0.00     0.040 A 
ATOM     91  C   UNL     1      12.028  -1.621  -8.418  1.00  0.00     0.040 A 
ATOM     92  F   UNL     1       9.924  -0.833  -9.097  1.00  0.00    -0.206 F 
ATOM     93  C   UNL     1      13.399  -1.744  -8.630  1.00  0.00     0.006 A 
ENDBRANCH  65  86
BRANCH  77  94
ATOM     94  C   UNL     1      10.146  -1.427 -17.126  1.00  0.00     0.057 A 
ATOM     95  C   UNL     1       9.687  -2.745 -17.021  1.00  0.00     0.134 A 
ATOM     96  C   UNL     1      10.976  -1.116 -18.212  1.00  0.00     0.134 A 
ATOM     97  F   UNL     1       8.899  -3.112 -15.999  1.00  0.00    -0.206 F 
ATOM     98  C   UNL     1      10.059  -3.723 -17.945  1.00  0.00     0.040 A 
ATOM     99  C   UNL     1      11.330  -2.077 -19.159  1.00  0.00     0.040 A 
ATOM    100  F   UNL     1      11.443   0.131 -18.378  1.00  0.00    -0.206 F 
ATOM    101  C   UNL     1      10.877  -3.387 -19.023  1.00  0.00     0.006 A 
ENDBRANCH  77  94
ENDBRANCH  51  52
ENDBRANCH  43  46
ENDBRANCH  41  42
ENDBRANCH  40  41
ENDBRANCH  39  40
ENDBRANCH  38  39
ENDBRANCH  37  38
ENDBRANCH   1  37
TORSDOF 24
