REMARK SMILES [NH3+][C@H]1CN(C(=O)OCC2c3ccccc3-c3ccccc32)C[C@@H]1C(=O)NCCCCCCNC(=O)c1ccc(-c2c3nc(c(-c4c(F)cccc4F)c4ccc([nH]4)c(-c4c(F)cccc4F)c4nc(c(-c5c(F)cccc5F)c5ccc2[nH]5)C=C4)C=C3)cc1
REMARK SMILES IDX 28 1 27 2 26 3 24 4 25 5 23 7 2 8 3 9 4 10 22 11 1 12 5 16
REMARK SMILES IDX 6 17 7 18 8 19 9 20 10 21 21 22 11 23 15 24 16 25 20 26
REMARK SMILES IDX 12 27 14 28 17 29 19 30 13 31 18 32 29 33 30 34 31 35 32 36
REMARK SMILES IDX 33 37 34 38 35 40 36 41 37 42 89 43 38 44 88 45 39 46 40 47
REMARK SMILES IDX 41 48 82 49 42 50 87 51 81 52 83 53 43 54 86 55 80 56 79 57
REMARK SMILES IDX 44 59 70 60 53 61 69 62 54 63 57 64 68 65 84 66 55 67 56 68
REMARK SMILES IDX 67 70 85 71 58 72 45 73 46 74 51 75 47 76 48 77 50 78 52 79
REMARK SMILES IDX 49 80 71 81 72 82 77 83 73 84 74 85 76 86 78 87 75 88 59 89
REMARK SMILES IDX 60 90 65 91 61 92 62 93 64 94 66 95 63 96
REMARK H PARENT 26 6 1 13 1 14 1 15 33 39 83 58 57 69
REMARK Flexibility Score: inf
ROOT
ATOM      1  C   UNL     1       3.327  -3.058   1.312  1.00  0.00     0.021 C 
ENDROOT
BRANCH   1   2
ATOM      2  C   UNL     1       3.159  -2.023   2.423  1.00  0.00     0.116 C 
BRANCH   2   3
ATOM      3  N   UNL     1       3.643  -0.730   1.982  1.00  0.00    -0.356 N 
ATOM      4  C   UNL     1       2.953   0.406   1.697  1.00  0.00     0.231 C 
ATOM      5  O   UNL     1       3.523   1.273   1.033  1.00  0.00    -0.274 OA
ATOM      6  H   UNL     1       4.619  -0.665   1.871  1.00  0.00     0.163 HD
BRANCH   4   7
ATOM      7  C   UNL     1       1.548   0.582   2.234  1.00  0.00     0.158 C 
ATOM      8  C   UNL     1       0.553   0.894   1.107  1.00  0.00     0.215 C 
ATOM      9  C   UNL     1       0.589   2.438   0.989  1.00  0.00     0.188 C 
ATOM     10  N   UNL     1       1.193   2.907   2.222  1.00  0.00    -0.301 N 
ATOM     11  C   UNL     1       1.530   1.820   3.111  1.00  0.00     0.143 C 
BRANCH   8  12
ATOM     12  N   UNL     1      -0.780   0.369   1.464  1.00  0.00    -0.353 N 
ATOM     13  H   UNL     1      -1.440   0.577   0.715  1.00  0.00     0.344 HD
ATOM     14  H   UNL     1      -1.098   0.808   2.329  1.00  0.00     0.344 HD
ATOM     15  H   UNL     1      -0.724  -0.641   1.597  1.00  0.00     0.344 HD
ENDBRANCH   8  12
BRANCH  10  16
ATOM     16  C   UNL     1       1.692   4.166   2.415  1.00  0.00     0.410 C 
ATOM     17  O   UNL     1       2.621   4.415   3.178  1.00  0.00    -0.224 OA
BRANCH  16  18
ATOM     18  O   UNL     1       0.943   5.107   1.782  1.00  0.00    -0.448 OA
BRANCH  18  19
ATOM     19  C   UNL     1       1.192   6.458   2.216  1.00  0.00     0.248 C 
BRANCH  19  20
ATOM     20  C   UNL     1       0.250   6.894   3.363  1.00  0.00     0.088 C 
ATOM     21  C   UNL     1       0.550   6.256   4.721  1.00  0.00    -0.029 A 
ATOM     22  C   UNL     1       0.464   8.375   3.684  1.00  0.00    -0.029 A 
ATOM     23  C   UNL     1       0.381   4.940   5.124  1.00  0.00     0.005 A 
ATOM     24  C   UNL     1       1.043   7.222   5.621  1.00  0.00    -0.014 A 
ATOM     25  C   UNL     1       0.951   8.525   5.001  1.00  0.00    -0.014 A 
ATOM     26  C   UNL     1       0.231   9.477   2.876  1.00  0.00     0.005 A 
ATOM     27  C   UNL     1       0.839   4.563   6.387  1.00  0.00     0.000 A 
ATOM     28  C   UNL     1       1.484   6.854   6.883  1.00  0.00     0.009 A 
ATOM     29  C   UNL     1       1.201   9.783   5.523  1.00  0.00     0.009 A 
ATOM     30  C   UNL     1       0.486  10.746   3.403  1.00  0.00     0.000 A 
ATOM     31  C   UNL     1       1.404   5.509   7.254  1.00  0.00     0.001 A 
ATOM     32  C   UNL     1       0.964  10.898   4.715  1.00  0.00     0.001 A 
ENDBRANCH  19  20
ENDBRANCH  18  19
ENDBRANCH  16  18
ENDBRANCH  10  16
ENDBRANCH   4   7
ENDBRANCH   2   3
ENDBRANCH   1   2
BRANCH   1  33
ATOM     33  C   UNL     1       4.784  -3.307   0.903  1.00  0.00     0.002 C 
BRANCH  33  34
ATOM     34  C   UNL     1       5.711  -3.734   2.046  1.00  0.00     0.002 C 
BRANCH  34  35
ATOM     35  C   UNL     1       5.250  -4.971   2.818  1.00  0.00     0.021 C 
BRANCH  35  36
ATOM     36  C   UNL     1       5.045  -6.214   1.960  1.00  0.00     0.116 C 
BRANCH  36  37
ATOM     37  N   UNL     1       6.281  -6.663   1.340  1.00  0.00    -0.352 N 
ATOM     38  C   UNL     1       6.860  -7.908   1.359  1.00  0.00     0.251 C 
ATOM     39  H   UNL     1       6.774  -5.977   0.835  1.00  0.00     0.163 HD
ATOM     40  O   UNL     1       8.001  -8.065   0.937  1.00  0.00    -0.269 OA
BRANCH  38  41
ATOM     41  C   UNL     1       6.114  -9.057   1.914  1.00  0.00     0.039 A 
ATOM     42  C   UNL     1       6.775  -9.937   2.775  1.00  0.00     0.014 A 
ATOM     43  C   UNL     1       4.772  -9.269   1.587  1.00  0.00     0.014 A 
ATOM     44  C   UNL     1       6.072 -10.993   3.358  1.00  0.00     0.010 A 
ATOM     45  C   UNL     1       4.054 -10.276   2.228  1.00  0.00     0.010 A 
ATOM     46  C   UNL     1       4.696 -11.149   3.119  1.00  0.00    -0.014 A 
BRANCH  46  47
ATOM     47  C   UNL     1       3.915 -12.214   3.800  1.00  0.00     0.031 A 
ATOM     48  C   UNL     1       3.253 -13.302   2.998  1.00  0.00     0.074 A 
ATOM     49  C   UNL     1       3.750 -12.166   5.137  1.00  0.00     0.049 A 
ATOM     50  N   UNL     1       2.479 -14.275   3.408  1.00  0.00    -0.248 NA
ATOM     51  C   UNL     1       3.469 -13.281   1.542  1.00  0.00     0.031 C 
ATOM     52  C   UNL     1       4.298 -11.135   6.022  1.00  0.00     0.029 A 
ATOM     53  N   UNL     1       3.061 -12.996   5.986  1.00  0.00    -0.354 N 
ATOM     54  C   UNL     1       2.104 -14.968   2.264  1.00  0.00     0.074 A 
ATOM     55  C   UNL     1       2.696 -14.280   1.138  1.00  0.00     0.031 C 
ATOM     56  C   UNL     1       3.939 -11.404   7.287  1.00  0.00     0.029 A 
ATOM     57  C   UNL     1       3.101 -12.598   7.301  1.00  0.00     0.049 A 
ATOM     58  H   UNL     1       2.582 -13.801   5.681  1.00  0.00     0.167 HD
ATOM     59  C   UNL     1       1.351 -16.089   2.164  1.00  0.00     0.037 A 
ATOM     60  C   UNL     1       2.516 -13.127   8.393  1.00  0.00     0.037 A 
ATOM     61  C   UNL     1       0.787 -16.790   3.288  1.00  0.00     0.049 A 
ATOM     62  C   UNL     1       1.681 -14.371   8.249  1.00  0.00     0.074 A 
ATOM     63  C   UNL     1       0.072 -17.974   3.292  1.00  0.00     0.029 A 
ATOM     64  N   UNL     1       0.871 -16.369   4.606  1.00  0.00    -0.354 N 
ATOM     65  N   UNL     1       1.405 -15.061   7.170  1.00  0.00    -0.248 NA
ATOM     66  C   UNL     1       1.083 -14.914   9.477  1.00  0.00     0.031 C 
ATOM     67  C   UNL     1      -0.326 -18.241   4.605  1.00  0.00     0.029 A 
ATOM     68  C   UNL     1       0.194 -17.256   5.427  1.00  0.00     0.049 A 
ATOM     69  H   UNL     1       1.342 -15.560   4.913  1.00  0.00     0.167 HD
ATOM     70  C   UNL     1       0.631 -16.135   7.593  1.00  0.00     0.074 A 
ATOM     71  C   UNL     1       0.496 -16.014   9.028  1.00  0.00     0.031 C 
ATOM     72  C   UNL     1       0.080 -17.131   6.857  1.00  0.00     0.037 A 
BRANCH  59  73
ATOM     73  C   UNL     1       1.088 -16.640   0.792  1.00  0.00     0.057 A 
ATOM     74  C   UNL     1       2.092 -17.259   0.038  1.00  0.00     0.134 A 
ATOM     75  C   UNL     1      -0.205 -16.620   0.253  1.00  0.00     0.134 A 
ATOM     76  F   UNL     1       3.354 -17.304   0.492  1.00  0.00    -0.206 F 
ATOM     77  C   UNL     1       1.824 -17.826  -1.210  1.00  0.00     0.040 A 
ATOM     78  C   UNL     1      -0.492 -17.208  -0.980  1.00  0.00     0.040 A 
ATOM     79  F   UNL     1      -1.216 -16.049   0.926  1.00  0.00    -0.206 F 
ATOM     80  C   UNL     1       0.526 -17.811  -1.716  1.00  0.00     0.006 A 
ENDBRANCH  59  73
BRANCH  60  81
ATOM     81  C   UNL     1       2.691 -12.488   9.724  1.00  0.00     0.057 A 
ATOM     82  C   UNL     1       3.394 -13.128  10.752  1.00  0.00     0.134 A 
ATOM     83  C   UNL     1       2.124 -11.241  10.014  1.00  0.00     0.134 A 
ATOM     84  F   UNL     1       3.945 -14.334  10.543  1.00  0.00    -0.206 F 
ATOM     85  C   UNL     1       3.497 -12.570  12.027  1.00  0.00     0.040 A 
ATOM     86  C   UNL     1       2.246 -10.656  11.275  1.00  0.00     0.040 A 
ATOM     87  F   UNL     1       1.446 -10.569   9.072  1.00  0.00    -0.206 F 
ATOM     88  C   UNL     1       2.924 -11.328  12.291  1.00  0.00     0.006 A 
ENDBRANCH  60  81
BRANCH  72  89
ATOM     89  C   UNL     1      -0.679 -18.196   7.596  1.00  0.00     0.057 A 
ATOM     90  C   UNL     1      -1.923 -17.947   8.188  1.00  0.00     0.134 A 
ATOM     91  C   UNL     1      -0.173 -19.500   7.680  1.00  0.00     0.134 A 
ATOM     92  F   UNL     1      -2.459 -16.717   8.154  1.00  0.00    -0.206 F 
ATOM     93  C   UNL     1      -2.625 -18.950   8.859  1.00  0.00     0.040 A 
ATOM     94  C   UNL     1      -0.879 -20.518   8.321  1.00  0.00     0.040 A 
ATOM     95  F   UNL     1       1.009 -19.810   7.125  1.00  0.00    -0.206 F 
ATOM     96  C   UNL     1      -2.106 -20.242   8.920  1.00  0.00     0.006 A 
ENDBRANCH  72  89
ENDBRANCH  46  47
ENDBRANCH  38  41
ENDBRANCH  36  37
ENDBRANCH  35  36
ENDBRANCH  34  35
ENDBRANCH  33  34
ENDBRANCH   1  33
TORSDOF 18
