REMARK SMILES COc1cc(/C=C2/N=C(c3ccccc3)OC2=O)ccc1OCC(=O)NCCCCCCNC(=O)c1ccc(-c2c3nc(c(-c4c(F)cccc4F)c4ccc([nH]4)c(-c4c(F)cccc4F)c4nc(c(-c5c(F)cccc5F)c5ccc2[nH]5)C=C4)C=C3)cc1
REMARK SMILES IDX 28 1 27 2 26 3 24 4 25 5 23 7 22 8 21 9 3 10 4 11 5 12 20 13
REMARK SMILES IDX 19 14 2 15 1 16 6 17 7 18 8 19 17 20 9 21 16 22 18 23 10 24
REMARK SMILES IDX 11 25 15 26 12 27 14 28 13 29 29 30 30 31 31 32 32 33 33 34
REMARK SMILES IDX 34 35 35 37 36 38 37 39 89 40 38 41 88 42 39 43 40 44 41 45
REMARK SMILES IDX 82 46 42 47 87 48 81 49 83 50 43 51 86 52 80 53 79 54 44 56
REMARK SMILES IDX 70 57 53 58 69 59 54 60 57 61 68 62 84 63 55 64 56 65 67 67
REMARK SMILES IDX 85 68 58 69 45 70 46 71 51 72 47 73 48 74 50 75 52 76 49 77
REMARK SMILES IDX 71 78 72 79 77 80 73 81 74 82 76 83 78 84 75 85 59 86 60 87
REMARK SMILES IDX 65 88 61 89 62 90 64 91 66 92 63 93
REMARK H PARENT 26 6 33 36 83 55 57 66
REMARK Flexibility Score: inf
ROOT
ATOM      1  C   UNL     1       2.886  -2.964   2.760  1.00  0.00     0.021 C 
ENDROOT
BRANCH   1   2
ATOM      2  C   UNL     1       3.486  -2.473   1.443  1.00  0.00     0.116 C 
BRANCH   2   3
ATOM      3  N   UNL     1       2.476  -2.126   0.468  1.00  0.00    -0.353 N 
ATOM      4  C   UNL     1       2.298  -0.947  -0.192  1.00  0.00     0.257 C 
ATOM      5  O   UNL     1       1.537  -0.947  -1.163  1.00  0.00    -0.271 OA
ATOM      6  H   UNL     1       1.830  -2.837   0.252  1.00  0.00     0.163 HD
BRANCH   4   7
ATOM      7  C   UNL     1       3.092   0.301   0.218  1.00  0.00     0.329 C 
BRANCH   7   8
ATOM      8  O   UNL     1       3.287   0.542   1.597  1.00  0.00    -0.480 OA
BRANCH   8   9
ATOM      9  C   UNL     1       2.261   0.943   2.402  1.00  0.00     0.161 A 
ATOM     10  C   UNL     1       1.021   1.483   2.047  1.00  0.00     0.161 A 
ATOM     11  C   UNL     1       0.132   1.919   3.046  1.00  0.00     0.058 A 
ATOM     12  C   UNL     1       0.478   1.821   4.401  1.00  0.00    -0.019 A 
ATOM     13  C   UNL     1       2.578   0.819   3.763  1.00  0.00     0.051 A 
ATOM     14  C   UNL     1       1.697   1.246   4.756  1.00  0.00     0.012 A 
BRANCH  10  15
ATOM     15  O   UNL     1       0.729   1.768   0.741  1.00  0.00    -0.493 OA
ATOM     16  C   UNL     1      -0.345   0.981   0.227  1.00  0.00     0.278 C 
ENDBRANCH  10  15
BRANCH  12  17
ATOM     17  C   UNL     1      -0.383   2.395   5.437  1.00  0.00     0.044 C 
ATOM     18  C   UNL     1      -0.173   3.578   6.035  1.00  0.00     0.153 C 
ATOM     19  N   UNL     1      -1.034   4.123   6.955  1.00  0.00    -0.205 NA
ATOM     20  C   UNL     1       0.943   4.535   5.753  1.00  0.00     0.363 C 
ATOM     21  C   UNL     1      -0.554   5.314   7.118  1.00  0.00     0.231 C 
ATOM     22  O   UNL     1       0.582   5.639   6.465  1.00  0.00    -0.402 OA
ATOM     23  O   UNL     1       1.942   4.413   5.073  1.00  0.00    -0.244 OA
BRANCH  21  24
ATOM     24  C   UNL     1      -1.102   6.383   7.953  1.00  0.00     0.037 A 
ATOM     25  C   UNL     1      -1.665   6.067   9.192  1.00  0.00     0.014 A 
ATOM     26  C   UNL     1      -1.121   7.701   7.481  1.00  0.00     0.014 A 
ATOM     27  C   UNL     1      -2.249   7.075   9.961  1.00  0.00     0.001 A 
ATOM     28  C   UNL     1      -1.723   8.700   8.247  1.00  0.00     0.001 A 
ATOM     29  C   UNL     1      -2.287   8.386   9.484  1.00  0.00     0.000 A 
ENDBRANCH  21  24
ENDBRANCH  12  17
ENDBRANCH   8   9
ENDBRANCH   7   8
ENDBRANCH   4   7
ENDBRANCH   2   3
ENDBRANCH   1   2
BRANCH   1  30
ATOM     30  C   UNL     1       1.944  -4.169   2.644  1.00  0.00     0.002 C 
BRANCH  30  31
ATOM     31  C   UNL     1       2.471  -5.356   1.832  1.00  0.00     0.002 C 
BRANCH  31  32
ATOM     32  C   UNL     1       3.847  -5.878   2.245  1.00  0.00     0.021 C 
BRANCH  32  33
ATOM     33  C   UNL     1       3.962  -6.292   3.704  1.00  0.00     0.116 C 
BRANCH  33  34
ATOM     34  N   UNL     1       3.118  -7.431   4.022  1.00  0.00    -0.352 N 
ATOM     35  C   UNL     1       3.463  -8.624   4.606  1.00  0.00     0.251 C 
ATOM     36  H   UNL     1       2.167  -7.333   3.787  1.00  0.00     0.163 HD
ATOM     37  O   UNL     1       2.665  -9.556   4.633  1.00  0.00    -0.269 OA
BRANCH  35  38
ATOM     38  C   UNL     1       4.815  -8.792   5.180  1.00  0.00     0.039 A 
ATOM     39  C   UNL     1       5.525  -9.963   4.907  1.00  0.00     0.014 A 
ATOM     40  C   UNL     1       5.385  -7.793   5.975  1.00  0.00     0.014 A 
ATOM     41  C   UNL     1       6.830 -10.105   5.382  1.00  0.00     0.010 A 
ATOM     42  C   UNL     1       6.713  -7.900   6.375  1.00  0.00     0.010 A 
ATOM     43  C   UNL     1       7.447  -9.060   6.090  1.00  0.00    -0.014 A 
BRANCH  43  44
ATOM     44  C   UNL     1       8.858  -9.167   6.540  1.00  0.00     0.031 A 
ATOM     45  C   UNL     1       9.189  -9.141   8.007  1.00  0.00     0.074 A 
ATOM     46  C   UNL     1       9.847  -9.231   5.626  1.00  0.00     0.049 A 
ATOM     47  N   UNL     1      10.360  -9.170   8.591  1.00  0.00    -0.248 NA
ATOM     48  C   UNL     1       8.056  -9.043   8.940  1.00  0.00     0.031 C 
ATOM     49  C   UNL     1       9.659  -9.219   4.174  1.00  0.00     0.029 A 
ATOM     50  N   UNL     1      11.208  -9.313   5.783  1.00  0.00    -0.354 N 
ATOM     51  C   UNL     1      10.104  -9.085   9.954  1.00  0.00     0.074 A 
ATOM     52  C   UNL     1       8.674  -8.941  10.107  1.00  0.00     0.031 C 
ATOM     53  C   UNL     1      10.857  -9.318   3.575  1.00  0.00     0.029 A 
ATOM     54  C   UNL     1      11.898  -9.357   4.596  1.00  0.00     0.049 A 
ATOM     55  H   UNL     1      11.648  -9.338   6.664  1.00  0.00     0.167 HD
ATOM     56  C   UNL     1      10.980  -9.146  10.985  1.00  0.00     0.037 A 
ATOM     57  C   UNL     1      13.222  -9.411   4.357  1.00  0.00     0.037 A 
ATOM     58  C   UNL     1      12.402  -9.302  10.829  1.00  0.00     0.049 A 
ATOM     59  C   UNL     1      14.176  -9.452   5.520  1.00  0.00     0.074 A 
ATOM     60  C   UNL     1      13.369  -9.428  11.811  1.00  0.00     0.029 A 
ATOM     61  N   UNL     1      13.064  -9.346   9.610  1.00  0.00    -0.354 N 
ATOM     62  N   UNL     1      13.915  -9.443   6.805  1.00  0.00    -0.248 NA
ATOM     63  C   UNL     1      15.608  -9.517   5.199  1.00  0.00     0.031 C 
ATOM     64  C   UNL     1      14.620  -9.489  11.189  1.00  0.00     0.029 A 
ATOM     65  C   UNL     1      14.428  -9.467   9.817  1.00  0.00     0.049 A 
ATOM     66  H   UNL     1      12.628  -9.298   8.728  1.00  0.00     0.167 HD
ATOM     67  C   UNL     1      15.145  -9.533   7.444  1.00  0.00     0.074 A 
ATOM     68  C   UNL     1      16.151  -9.611   6.405  1.00  0.00     0.031 C 
ATOM     69  C   UNL     1      15.418  -9.551   8.772  1.00  0.00     0.037 A 
BRANCH  56  70
ATOM     70  C   UNL     1      10.422  -9.040  12.377  1.00  0.00     0.057 A 
ATOM     71  C   UNL     1       9.629 -10.050  12.937  1.00  0.00     0.134 A 
ATOM     72  C   UNL     1      10.710  -7.929  13.180  1.00  0.00     0.134 A 
ATOM     73  F   UNL     1       9.305 -11.137  12.219  1.00  0.00    -0.206 F 
ATOM     74  C   UNL     1       9.118  -9.947  14.232  1.00  0.00     0.040 A 
ATOM     75  C   UNL     1      10.232  -7.828  14.488  1.00  0.00     0.040 A 
ATOM     76  F   UNL     1      11.470  -6.927  12.712  1.00  0.00    -0.206 F 
ATOM     77  C   UNL     1       9.426  -8.836  15.014  1.00  0.00     0.006 A 
ENDBRANCH  56  70
BRANCH  57  78
ATOM     78  C   UNL     1      13.727  -9.447   2.961  1.00  0.00     0.057 A 
ATOM     79  C   UNL     1      14.351 -10.589   2.445  1.00  0.00     0.134 A 
ATOM     80  C   UNL     1      13.613  -8.338   2.113  1.00  0.00     0.134 A 
ATOM     81  F   UNL     1      14.507 -11.677   3.213  1.00  0.00    -0.206 F 
ATOM     82  C   UNL     1      14.863 -10.621   1.146  1.00  0.00     0.040 A 
ATOM     83  C   UNL     1      14.094  -8.366   0.803  1.00  0.00     0.040 A 
ATOM     84  F   UNL     1      13.018  -7.215   2.542  1.00  0.00    -0.206 F 
ATOM     85  C   UNL     1      14.730  -9.507   0.320  1.00  0.00     0.006 A 
ENDBRANCH  57  78
BRANCH  69  86
ATOM     86  C   UNL     1      16.856  -9.701   9.179  1.00  0.00     0.057 A 
ATOM     87  C   UNL     1      17.793  -8.676   8.994  1.00  0.00     0.134 A 
ATOM     88  C   UNL     1      17.299 -10.876   9.801  1.00  0.00     0.134 A 
ATOM     89  F   UNL     1      17.438  -7.530   8.395  1.00  0.00    -0.206 F 
ATOM     90  C   UNL     1      19.124  -8.825   9.388  1.00  0.00     0.040 A 
ATOM     91  C   UNL     1      18.619 -11.024  10.228  1.00  0.00     0.040 A 
ATOM     92  F   UNL     1      16.453 -11.894  10.018  1.00  0.00    -0.206 F 
ATOM     93  C   UNL     1      19.538  -9.999  10.014  1.00  0.00     0.006 A 
ENDBRANCH  69  86
ENDBRANCH  43  44
ENDBRANCH  35  38
ENDBRANCH  33  34
ENDBRANCH  32  33
ENDBRANCH  31  32
ENDBRANCH  30  31
ENDBRANCH   1  30
TORSDOF 18
