REMARK SMILES O=C(NCCCCCCNC(=O)c1cc(S(=O)(=O)NNC(=O)[C@H]2C=C(c3ccccc3)N=N2)ccc1F)c1ccc(-c2c3nc(c(-c4c(F)cccc4F)c4ccc([nH]4)c(-c4c(F)cccc4F)c4nc(c(-c5c(F)cccc5F)c5ccc2[nH]5)C=C4)C=C3)cc1
REMARK SMILES IDX 8 1 7 2 6 3 5 4 4 5 3 6 1 7 2 8 38 10 39 11 91 12 40 13
REMARK SMILES IDX 90 14 41 15 42 16 43 17 84 18 44 19 89 20 83 21 85 22 45 23
REMARK SMILES IDX 88 24 82 25 81 26 46 28 72 29 55 30 71 31 56 32 59 33 70 34
REMARK SMILES IDX 86 35 57 36 58 37 69 39 87 40 60 41 47 42 48 43 53 44 49 45
REMARK SMILES IDX 50 46 52 47 54 48 51 49 73 50 74 51 79 52 75 53 76 54 78 55
REMARK SMILES IDX 80 56 77 57 61 58 62 59 67 60 63 61 64 62 66 63 68 64 65 65
REMARK SMILES IDX 9 66 10 67 11 68 12 70 13 71 14 72 36 73 15 74 35 75 37 76
REMARK SMILES IDX 34 77 16 78 17 79 18 80 19 81 20 83 21 84 22 86 23 87 24 88
REMARK SMILES IDX 33 89 25 90 32 91 26 92 27 93 31 94 28 95 30 96 29 97
REMARK H PARENT 3 9 85 27 59 38 10 69 19 82 20 85
REMARK Flexibility Score: inf
ROOT
ATOM      1  C   UNL     1       7.878   9.944   1.278  1.00  0.00     0.021 C 
ENDROOT
BRANCH   1   2
ATOM      2  C   UNL     1       6.705   9.598   2.198  1.00  0.00     0.002 C 
BRANCH   2   3
ATOM      3  C   UNL     1       6.919   9.908   3.680  1.00  0.00     0.002 C 
BRANCH   3   4
ATOM      4  C   UNL     1       7.353  11.342   4.001  1.00  0.00     0.021 C 
BRANCH   4   5
ATOM      5  C   UNL     1       6.461  12.434   3.408  1.00  0.00     0.116 C 
BRANCH   5   6
ATOM      6  N   UNL     1       5.075  12.342   3.812  1.00  0.00    -0.352 N 
ATOM      7  O   UNL     1       3.151  12.536   4.877  1.00  0.00    -0.269 OA
ATOM      8  C   UNL     1       4.372  12.710   4.924  1.00  0.00     0.251 C 
ATOM      9  H   UNL     1       4.508  11.916   3.128  1.00  0.00     0.163 HD
BRANCH   8  10
ATOM     10  C   UNL     1       4.968  13.261   6.174  1.00  0.00     0.039 A 
ATOM     11  C   UNL     1       6.305  13.617   6.354  1.00  0.00     0.014 A 
ATOM     12  C   UNL     1       4.088  13.413   7.263  1.00  0.00     0.014 A 
ATOM     13  C   UNL     1       6.767  14.051   7.594  1.00  0.00     0.010 A 
ATOM     14  C   UNL     1       4.538  13.872   8.498  1.00  0.00     0.010 A 
ATOM     15  C   UNL     1       5.888  14.166   8.671  1.00  0.00    -0.014 A 
BRANCH  15  16
ATOM     16  C   UNL     1       6.423  14.686   9.928  1.00  0.00     0.031 A 
ATOM     17  C   UNL     1       6.901  16.104   9.921  1.00  0.00     0.074 A 
ATOM     18  C   UNL     1       6.357  14.015  11.094  1.00  0.00     0.049 A 
ATOM     19  N   UNL     1       8.040  16.584  10.310  1.00  0.00    -0.248 NA
ATOM     20  C   UNL     1       5.977  17.117   9.386  1.00  0.00     0.031 C 
ATOM     21  C   UNL     1       5.634  12.775  11.382  1.00  0.00     0.029 A 
ATOM     22  N   UNL     1       6.850  14.383  12.312  1.00  0.00    -0.354 N 
ATOM     23  C   UNL     1       7.927  17.973  10.220  1.00  0.00     0.074 A 
ATOM     24  C   UNL     1       6.670  18.241   9.571  1.00  0.00     0.031 C 
ATOM     25  C   UNL     1       5.557  12.612  12.721  1.00  0.00     0.029 A 
ATOM     26  C   UNL     1       6.331  13.657  13.370  1.00  0.00     0.049 A 
ATOM     27  H   UNL     1       7.514  15.101  12.427  1.00  0.00     0.167 HD
ATOM     28  C   UNL     1       8.799  18.829  10.821  1.00  0.00     0.037 A 
ATOM     29  C   UNL     1       6.465  13.941  14.686  1.00  0.00     0.037 A 
ATOM     30  C   UNL     1      10.059  18.208  11.116  1.00  0.00     0.049 A 
ATOM     31  C   UNL     1       7.617  14.859  14.850  1.00  0.00     0.074 A 
ATOM     32  C   UNL     1      11.053  17.608  10.366  1.00  0.00     0.029 A 
ATOM     33  N   UNL     1      10.358  17.907  12.419  1.00  0.00    -0.354 N 
ATOM     34  N   UNL     1       8.865  14.530  14.673  1.00  0.00    -0.248 NA
ATOM     35  C   UNL     1       7.349  16.288  14.902  1.00  0.00     0.031 C 
ATOM     36  C   UNL     1      11.591  16.590  11.207  1.00  0.00     0.029 A 
ATOM     37  C   UNL     1      10.888  16.643  12.411  1.00  0.00     0.049 A 
ATOM     38  H   UNL     1      10.219  18.483  13.205  1.00  0.00     0.167 HD
ATOM     39  C   UNL     1       9.473  15.682  14.201  1.00  0.00     0.074 A 
ATOM     40  C   UNL     1       8.526  16.754  14.482  1.00  0.00     0.031 C 
ATOM     41  C   UNL     1      10.563  15.626  13.382  1.00  0.00     0.037 A 
BRANCH  28  42
ATOM     42  C   UNL     1       8.415  20.175  11.384  1.00  0.00     0.057 A 
ATOM     43  C   UNL     1       7.108  20.499  11.801  1.00  0.00     0.134 A 
ATOM     44  C   UNL     1       9.411  21.085  11.784  1.00  0.00     0.134 A 
ATOM     45  F   UNL     1       6.071  19.678  11.589  1.00  0.00    -0.206 F 
ATOM     46  C   UNL     1       6.811  21.645  12.546  1.00  0.00     0.040 A 
ATOM     47  C   UNL     1       9.132  22.209  12.574  1.00  0.00     0.040 A 
ATOM     48  F   UNL     1      10.701  20.873  11.482  1.00  0.00    -0.206 F 
ATOM     49  C   UNL     1       7.828  22.491  12.958  1.00  0.00     0.006 A 
ENDBRANCH  28  42
BRANCH  29  50
ATOM     50  C   UNL     1       5.493  13.698  15.774  1.00  0.00     0.057 A 
ATOM     51  C   UNL     1       4.107  13.696  15.536  1.00  0.00     0.134 A 
ATOM     52  C   UNL     1       5.889  13.724  17.118  1.00  0.00     0.134 A 
ATOM     53  F   UNL     1       3.616  13.759  14.290  1.00  0.00    -0.206 F 
ATOM     54  C   UNL     1       3.170  13.720  16.572  1.00  0.00     0.040 A 
ATOM     55  C   UNL     1       4.960  13.762  18.165  1.00  0.00     0.040 A 
ATOM     56  F   UNL     1       7.188  13.775  17.444  1.00  0.00    -0.206 F 
ATOM     57  C   UNL     1       3.595  13.768  17.893  1.00  0.00     0.006 A 
ENDBRANCH  29  50
BRANCH  41  58
ATOM     58  C   UNL     1      11.274  14.311  13.238  1.00  0.00     0.057 A 
ATOM     59  C   UNL     1      12.640  14.241  13.531  1.00  0.00     0.134 A 
ATOM     60  C   UNL     1      10.687  13.177  12.659  1.00  0.00     0.134 A 
ATOM     61  F   UNL     1      13.283  15.310  14.026  1.00  0.00    -0.206 F 
ATOM     62  C   UNL     1      13.391  13.092  13.269  1.00  0.00     0.040 A 
ATOM     63  C   UNL     1      11.419  12.010  12.423  1.00  0.00     0.040 A 
ATOM     64  F   UNL     1       9.413  13.190  12.248  1.00  0.00    -0.206 F 
ATOM     65  C   UNL     1      12.778  11.967  12.721  1.00  0.00     0.006 A 
ENDBRANCH  41  58
ENDBRANCH  15  16
ENDBRANCH   8  10
ENDBRANCH   5   6
ENDBRANCH   4   5
ENDBRANCH   3   4
ENDBRANCH   2   3
ENDBRANCH   1   2
BRANCH   1  66
ATOM     66  C   UNL     1       9.200   9.278   1.643  1.00  0.00     0.116 C 
BRANCH  66  67
ATOM     67  N   UNL     1       9.146   7.835   1.506  1.00  0.00    -0.352 N 
ATOM     68  C   UNL     1       9.968   7.005   0.791  1.00  0.00     0.254 C 
ATOM     69  H   UNL     1       8.416   7.389   1.995  1.00  0.00     0.163 HD
ATOM     70  O   UNL     1       9.721   5.807   0.697  1.00  0.00    -0.269 OA
BRANCH  68  71
ATOM     71  C   UNL     1      11.115   7.559   0.057  1.00  0.00     0.076 A 
ATOM     72  C   UNL     1      11.210   7.287  -1.308  1.00  0.00     0.038 A 
ATOM     73  C   UNL     1      12.101   8.317   0.683  1.00  0.00     0.136 A 
ATOM     74  C   UNL     1      12.263   7.834  -2.049  1.00  0.00     0.085 A 
ATOM     75  C   UNL     1      13.137   8.883  -0.060  1.00  0.00     0.041 A 
ATOM     76  F   UNL     1      12.063   8.541   2.004  1.00  0.00    -0.206 F 
ATOM     77  C   UNL     1      13.213   8.658  -1.438  1.00  0.00     0.025 A 
BRANCH  74  78
ATOM     78  S   UNL     1      12.350   7.354  -3.748  1.00  0.00     0.257 S 
ATOM     79  O   UNL     1      12.382   5.911  -3.790  1.00  0.00    -0.205 OA
ATOM     80  O   UNL     1      11.358   8.133  -4.457  1.00  0.00    -0.205 OA
BRANCH  78  81
ATOM     81  N   UNL     1      13.840   7.893  -4.323  1.00  0.00    -0.123 NA
ATOM     82  H   UNL     1      13.873   8.894  -4.132  1.00  0.00     0.167 HD
BRANCH  81  83
ATOM     83  N   UNL     1      15.088   7.351  -3.847  1.00  0.00    -0.275 N 
ATOM     84  C   UNL     1      16.291   7.429  -4.525  1.00  0.00     0.265 C 
ATOM     85  H   UNL     1      15.085   6.893  -2.976  1.00  0.00     0.186 HD
ATOM     86  O   UNL     1      17.327   7.150  -3.922  1.00  0.00    -0.271 OA
BRANCH  84  87
ATOM     87  C   UNL     1      16.219   7.782  -6.013  1.00  0.00     0.244 C 
ATOM     88  C   UNL     1      15.933   9.209  -6.283  1.00  0.00     0.042 C 
ATOM     89  N   UNL     1      17.554   7.600  -6.658  1.00  0.00    -0.171 NA
ATOM     90  C   UNL     1      16.956   9.638  -7.018  1.00  0.00     0.091 C 
ATOM     91  N   UNL     1      17.896   8.671  -7.245  1.00  0.00    -0.155 NA
BRANCH  90  92
ATOM     92  C   UNL     1      16.986  10.983  -7.577  1.00  0.00     0.002 A 
ATOM     93  C   UNL     1      16.856  11.182  -8.956  1.00  0.00     0.010 A 
ATOM     94  C   UNL     1      17.018  12.093  -6.720  1.00  0.00     0.010 A 
ATOM     95  C   UNL     1      16.733  12.475  -9.467  1.00  0.00     0.001 A 
ATOM     96  C   UNL     1      16.901  13.383  -7.234  1.00  0.00     0.001 A 
ATOM     97  C   UNL     1      16.750  13.573  -8.606  1.00  0.00     0.000 A 
ENDBRANCH  90  92
ENDBRANCH  84  87
ENDBRANCH  81  83
ENDBRANCH  78  81
ENDBRANCH  74  78
ENDBRANCH  68  71
ENDBRANCH  66  67
ENDBRANCH   1  66
TORSDOF 18
