REMARK SMILES O=C(NCCCCCCNC(=O)c1ccc(-c2c3nc(c(-c4c(F)cccc4F)c4ccc([nH]4)c(-c4c(F)cccc4F)c4nc(c(-c5c(F)cccc5F)c5ccc2[nH]5)C=C4)C=C3)cc1)c1ccc(N/C=C\C(=O)c2ccco2)cc1
REMARK SMILES IDX 5 1 4 2 3 3 1 4 2 5 67 7 68 8 82 9 69 10 81 11 70 12 71 13
REMARK SMILES IDX 72 15 73 16 74 17 75 18 76 19 77 20 80 21 78 22 79 23 6 24
REMARK SMILES IDX 7 25 8 26 9 27 10 28 11 29 12 31 13 32 14 33 66 34 15 35
REMARK SMILES IDX 65 36 16 37 17 38 18 39 59 40 19 41 64 42 58 43 60 44 20 45
REMARK SMILES IDX 63 46 57 47 56 48 21 50 47 51 30 52 46 53 31 54 34 55 45 56
REMARK SMILES IDX 61 57 32 58 33 59 44 61 62 62 35 63 22 64 23 65 28 66 24 67
REMARK SMILES IDX 25 68 27 69 29 70 26 71 48 72 49 73 54 74 50 75 51 76 53 77
REMARK SMILES IDX 55 78 52 79 36 80 37 81 42 82 38 83 39 84 41 85 43 86 40 87
REMARK H PARENT 3 6 71 14 10 30 60 49 34 60
REMARK Flexibility Score: inf
ROOT
ATOM      1  C   UNL     1       4.710   0.322  -2.662  1.00  0.00     0.021 C 
ENDROOT
BRANCH   1   2
ATOM      2  C   UNL     1       4.458   0.641  -1.191  1.00  0.00     0.116 C 
BRANCH   2   3
ATOM      3  N   UNL     1       3.047   0.767  -0.875  1.00  0.00    -0.352 N 
ATOM      4  O   UNL     1       1.141   0.346   0.267  1.00  0.00    -0.269 OA
ATOM      5  C   UNL     1       2.362   0.246   0.194  1.00  0.00     0.251 C 
ATOM      6  H   UNL     1       2.511   1.294  -1.511  1.00  0.00     0.163 HD
BRANCH   5   7
ATOM      7  C   UNL     1       3.105  -0.479   1.243  1.00  0.00     0.039 A 
ATOM      8  C   UNL     1       4.169   0.122   1.921  1.00  0.00     0.016 A 
ATOM      9  C   UNL     1       2.740  -1.792   1.530  1.00  0.00     0.016 A 
ATOM     10  C   UNL     1       4.926  -0.625   2.828  1.00  0.00     0.027 A 
ATOM     11  C   UNL     1       3.488  -2.523   2.453  1.00  0.00     0.027 A 
ATOM     12  C   UNL     1       4.600  -1.958   3.102  1.00  0.00     0.038 A 
BRANCH  12  13
ATOM     13  N   UNL     1       5.384  -2.797   3.910  1.00  0.00    -0.362 N 
ATOM     14  H   UNL     1       4.908  -3.554   4.322  1.00  0.00     0.166 HD
BRANCH  13  15
ATOM     15  C   UNL     1       6.719  -2.710   4.204  1.00  0.00     0.087 C 
ATOM     16  C   UNL     1       7.522  -3.598   4.809  1.00  0.00     0.074 C 
BRANCH  16  17
ATOM     17  C   UNL     1       7.157  -4.958   5.308  1.00  0.00     0.222 C 
ATOM     18  O   UNL     1       7.809  -5.407   6.250  1.00  0.00    -0.286 OA
BRANCH  17  19
ATOM     19  C   UNL     1       6.083  -5.679   4.662  1.00  0.00     0.173 A 
ATOM     20  C   UNL     1       5.799  -5.936   3.332  1.00  0.00     0.054 A 
ATOM     21  O   UNL     1       5.076  -6.177   5.443  1.00  0.00    -0.461 OA
ATOM     22  C   UNL     1       4.548  -6.601   3.303  1.00  0.00     0.043 A 
ATOM     23  C   UNL     1       4.151  -6.721   4.613  1.00  0.00     0.196 A 
ENDBRANCH  17  19
ENDBRANCH  16  17
ENDBRANCH  13  15
ENDBRANCH  12  13
ENDBRANCH   5   7
ENDBRANCH   2   3
ENDBRANCH   1   2
BRANCH   1  24
ATOM     24  C   UNL     1       4.231   1.378  -3.661  1.00  0.00     0.002 C 
BRANCH  24  25
ATOM     25  C   UNL     1       4.730   2.805  -3.419  1.00  0.00     0.002 C 
BRANCH  25  26
ATOM     26  C   UNL     1       6.246   2.974  -3.294  1.00  0.00     0.021 C 
BRANCH  26  27
ATOM     27  C   UNL     1       7.073   2.413  -4.446  1.00  0.00     0.116 C 
BRANCH  27  28
ATOM     28  N   UNL     1       6.762   3.030  -5.722  1.00  0.00    -0.352 N 
ATOM     29  C   UNL     1       7.609   3.515  -6.688  1.00  0.00     0.251 C 
ATOM     30  H   UNL     1       5.802   3.114  -5.926  1.00  0.00     0.163 HD
ATOM     31  O   UNL     1       7.156   4.113  -7.659  1.00  0.00    -0.269 OA
BRANCH  29  32
ATOM     32  C   UNL     1       9.074   3.348  -6.550  1.00  0.00     0.039 A 
ATOM     33  C   UNL     1       9.898   4.446  -6.813  1.00  0.00     0.014 A 
ATOM     34  C   UNL     1       9.637   2.122  -6.186  1.00  0.00     0.014 A 
ATOM     35  C   UNL     1      11.281   4.333  -6.650  1.00  0.00     0.010 A 
ATOM     36  C   UNL     1      11.011   2.025  -5.970  1.00  0.00     0.010 A 
ATOM     37  C   UNL     1      11.845   3.130  -6.199  1.00  0.00    -0.014 A 
BRANCH  37  38
ATOM     38  C   UNL     1      13.305   3.011  -5.960  1.00  0.00     0.031 A 
ATOM     39  C   UNL     1      14.142   2.106  -6.819  1.00  0.00     0.074 A 
ATOM     40  C   UNL     1      13.868   3.670  -4.929  1.00  0.00     0.049 A 
ATOM     41  N   UNL     1      15.411   1.805  -6.712  1.00  0.00    -0.248 NA
ATOM     42  C   UNL     1      13.455   1.432  -7.932  1.00  0.00     0.031 C 
ATOM     43  C   UNL     1      13.158   4.546  -3.995  1.00  0.00     0.029 A 
ATOM     44  N   UNL     1      15.167   3.693  -4.485  1.00  0.00    -0.354 N 
ATOM     45  C   UNL     1      15.673   0.900  -7.731  1.00  0.00     0.074 A 
ATOM     46  C   UNL     1      14.421   0.667  -8.421  1.00  0.00     0.031 C 
ATOM     47  C   UNL     1      14.031   5.028  -3.095  1.00  0.00     0.029 A 
ATOM     48  C   UNL     1      15.354   4.474  -3.371  1.00  0.00     0.049 A 
ATOM     49  H   UNL     1      15.895   3.198  -4.925  1.00  0.00     0.167 HD
ATOM     50  C   UNL     1      16.851   0.328  -8.075  1.00  0.00     0.037 A 
ATOM     51  C   UNL     1      16.464   4.710  -2.647  1.00  0.00     0.037 A 
ATOM     52  C   UNL     1      18.102   0.576  -7.407  1.00  0.00     0.049 A 
ATOM     53  C   UNL     1      17.763   4.077  -3.058  1.00  0.00     0.074 A 
ATOM     54  C   UNL     1      19.356   0.073  -7.708  1.00  0.00     0.029 A 
ATOM     55  N   UNL     1      18.256   1.404  -6.306  1.00  0.00    -0.354 N 
ATOM     56  N   UNL     1      18.002   3.255  -4.051  1.00  0.00    -0.248 NA
ATOM     57  C   UNL     1      18.947   4.409  -2.254  1.00  0.00     0.031 C 
ATOM     58  C   UNL     1      20.266   0.579  -6.773  1.00  0.00     0.029 A 
ATOM     59  C   UNL     1      19.584   1.421  -5.911  1.00  0.00     0.049 A 
ATOM     60  H   UNL     1      17.530   1.906  -5.870  1.00  0.00     0.167 HD
ATOM     61  C   UNL     1      19.364   2.989  -4.004  1.00  0.00     0.074 A 
ATOM     62  C   UNL     1      19.901   3.746  -2.893  1.00  0.00     0.031 C 
ATOM     63  C   UNL     1      20.102   2.187  -4.808  1.00  0.00     0.037 A 
BRANCH  50  64
ATOM     64  C   UNL     1      16.843  -0.619  -9.238  1.00  0.00     0.057 A 
ATOM     65  C   UNL     1      16.713  -0.160 -10.555  1.00  0.00     0.134 A 
ATOM     66  C   UNL     1      16.999  -1.996  -9.043  1.00  0.00     0.134 A 
ATOM     67  F   UNL     1      16.548   1.147 -10.806  1.00  0.00    -0.206 F 
ATOM     68  C   UNL     1      16.717  -1.041 -11.637  1.00  0.00     0.040 A 
ATOM     69  C   UNL     1      17.026  -2.885 -10.119  1.00  0.00     0.040 A 
ATOM     70  F   UNL     1      17.132  -2.499  -7.807  1.00  0.00    -0.206 F 
ATOM     71  C   UNL     1      16.880  -2.408 -11.421  1.00  0.00     0.006 A 
ENDBRANCH  50  64
BRANCH  51  72
ATOM     72  C   UNL     1      16.400   5.603  -1.465  1.00  0.00     0.057 A 
ATOM     73  C   UNL     1      16.957   6.886  -1.500  1.00  0.00     0.134 A 
ATOM     74  C   UNL     1      15.787   5.194  -0.275  1.00  0.00     0.134 A 
ATOM     75  F   UNL     1      17.575   7.323  -2.607  1.00  0.00    -0.206 F 
ATOM     76  C   UNL     1      16.922   7.727  -0.387  1.00  0.00     0.040 A 
ATOM     77  C   UNL     1      15.726   6.033   0.839  1.00  0.00     0.040 A 
ATOM     78  F   UNL     1      15.229   3.978  -0.183  1.00  0.00    -0.206 F 
ATOM     79  C   UNL     1      16.300   7.302   0.786  1.00  0.00     0.006 A 
ENDBRANCH  51  72
BRANCH  63  80
ATOM     80  C   UNL     1      21.573   2.110  -4.531  1.00  0.00     0.057 A 
ATOM     81  C   UNL     1      22.081   1.375  -3.453  1.00  0.00     0.134 A 
ATOM     82  C   UNL     1      22.492   2.748  -5.374  1.00  0.00     0.134 A 
ATOM     83  F   UNL     1      21.250   0.753  -2.603  1.00  0.00    -0.206 F 
ATOM     84  C   UNL     1      23.453   1.292  -3.212  1.00  0.00     0.040 A 
ATOM     85  C   UNL     1      23.866   2.655  -5.155  1.00  0.00     0.040 A 
ATOM     86  F   UNL     1      22.067   3.462  -6.427  1.00  0.00    -0.206 F 
ATOM     87  C   UNL     1      24.350   1.929  -4.068  1.00  0.00     0.006 A 
ENDBRANCH  63  80
ENDBRANCH  37  38
ENDBRANCH  29  32
ENDBRANCH  27  28
ENDBRANCH  26  27
ENDBRANCH  25  26
ENDBRANCH  24  25
ENDBRANCH   1  24
TORSDOF 17
