REMARK SMILES CNS(=O)(=O)c1ccc(Oc2csc(C(=O)NCCCCCCNC(=O)c3ccc(-c4c5nc(c(-c6c(F)cccc6F)c6ccc([nH]6)c(-c6c(F)cccc6F)c6nc(c(-c7c(F)cccc7F)c7ccc4[nH]7)C=C6)C=C5)cc3)c2)cc1
REMARK SMILES IDX 19 1 18 2 17 3 15 4 16 5 14 7 11 8 12 9 81 10 13 11 10 12
REMARK SMILES IDX 9 13 6 14 7 15 83 16 8 17 82 18 3 19 4 20 5 21 2 22 1 23
REMARK SMILES IDX 20 25 21 26 22 27 23 28 24 29 25 30 26 32 27 33 28 34 80 35
REMARK SMILES IDX 29 36 79 37 30 38 31 39 32 40 73 41 33 42 78 43 72 44 74 45
REMARK SMILES IDX 34 46 77 47 71 48 70 49 35 51 61 52 44 53 60 54 45 55 48 56
REMARK SMILES IDX 59 57 75 58 46 59 47 60 58 62 76 63 49 64 36 65 37 66 42 67
REMARK SMILES IDX 38 68 39 69 41 70 43 71 40 72 62 73 63 74 68 75 64 76 65 77
REMARK SMILES IDX 67 78 69 79 66 80 50 81 51 82 56 83 52 84 53 85 55 86 57 87
REMARK SMILES IDX 54 88
REMARK H PARENT 17 6 2 24 24 31 74 50 48 61
REMARK Flexibility Score: inf
ROOT
ATOM      1  C   UNL     1      -8.074   5.904   1.754  1.00  0.00     0.021 C 
ENDROOT
BRANCH   1   2
ATOM      2  C   UNL     1      -7.169   6.719   2.679  1.00  0.00     0.116 C 
BRANCH   2   3
ATOM      3  N   UNL     1      -7.473   6.425   4.063  1.00  0.00    -0.351 N 
ATOM      4  C   UNL     1      -6.790   5.770   5.058  1.00  0.00     0.261 C 
ATOM      5  O   UNL     1      -7.379   5.727   6.142  1.00  0.00    -0.268 OA
ATOM      6  H   UNL     1      -8.351   6.765   4.351  1.00  0.00     0.163 HD
BRANCH   4   7
ATOM      7  C   UNL     1      -5.460   5.213   4.849  1.00  0.00     0.096 A 
ATOM      8  C   UNL     1      -3.421   4.463   4.004  1.00  0.00     0.138 A 
ATOM      9  C   UNL     1      -3.135   4.466   5.345  1.00  0.00     0.112 A 
ATOM     10  C   UNL     1      -4.764   4.826   3.718  1.00  0.00     0.072 A 
ATOM     11  S   UNL     1      -4.499   4.924   6.262  1.00  0.00    -0.135 S 
BRANCH   8  12
ATOM     12  O   UNL     1      -2.480   4.225   3.068  1.00  0.00    -0.456 OA
BRANCH  12  13
ATOM     13  C   UNL     1      -2.349   2.986   2.491  1.00  0.00     0.127 A 
ATOM     14  C   UNL     1      -1.772   0.560   1.264  1.00  0.00     0.082 A 
ATOM     15  C   UNL     1      -1.442   1.756   0.620  1.00  0.00     0.025 A 
ATOM     16  C   UNL     1      -2.452   0.571   2.484  1.00  0.00     0.025 A 
ATOM     17  C   UNL     1      -1.710   2.969   1.249  1.00  0.00     0.048 A 
ATOM     18  C   UNL     1      -2.746   1.791   3.097  1.00  0.00     0.048 A 
BRANCH  14  19
ATOM     19  S   UNL     1      -1.296  -0.977   0.518  1.00  0.00     0.240 S 
ATOM     20  O   UNL     1      -1.583  -0.902  -0.897  1.00  0.00    -0.207 OA
ATOM     21  O   UNL     1      -1.801  -2.051   1.344  1.00  0.00    -0.207 OA
BRANCH  19  22
ATOM     22  N   UNL     1       0.368  -0.983   0.739  1.00  0.00    -0.214 NA
ATOM     23  C   UNL     1       1.231  -0.237  -0.166  1.00  0.00     0.120 C 
ATOM     24  H   UNL     1       0.541  -0.619   1.676  1.00  0.00     0.141 HD
ENDBRANCH  19  22
ENDBRANCH  14  19
ENDBRANCH  12  13
ENDBRANCH   8  12
ENDBRANCH   4   7
ENDBRANCH   2   3
ENDBRANCH   1   2
BRANCH   1  25
ATOM     25  C   UNL     1      -9.492   6.483   1.632  1.00  0.00     0.002 C 
BRANCH  25  26
ATOM     26  C   UNL     1      -9.561   7.910   1.072  1.00  0.00     0.002 C 
BRANCH  26  27
ATOM     27  C   UNL     1      -8.848   8.111  -0.267  1.00  0.00     0.021 C 
BRANCH  27  28
ATOM     28  C   UNL     1      -9.401   7.257  -1.403  1.00  0.00     0.116 C 
BRANCH  28  29
ATOM     29  N   UNL     1     -10.779   7.605  -1.714  1.00  0.00    -0.352 N 
ATOM     30  C   UNL     1     -11.325   8.018  -2.902  1.00  0.00     0.251 C 
ATOM     31  H   UNL     1     -11.411   7.534  -0.962  1.00  0.00     0.163 HD
ATOM     32  O   UNL     1     -12.454   8.495  -2.931  1.00  0.00    -0.269 OA
BRANCH  30  33
ATOM     33  C   UNL     1     -10.543   7.897  -4.150  1.00  0.00     0.039 A 
ATOM     34  C   UNL     1     -10.547   8.960  -5.057  1.00  0.00     0.014 A 
ATOM     35  C   UNL     1      -9.821   6.734  -4.431  1.00  0.00     0.014 A 
ATOM     36  C   UNL     1      -9.783   8.877  -6.221  1.00  0.00     0.010 A 
ATOM     37  C   UNL     1      -9.001   6.683  -5.554  1.00  0.00     0.010 A 
ATOM     38  C   UNL     1      -8.978   7.751  -6.464  1.00  0.00    -0.014 A 
BRANCH  38  39
ATOM     39  C   UNL     1      -8.105   7.676  -7.662  1.00  0.00     0.031 A 
ATOM     40  C   UNL     1      -8.337   6.614  -8.702  1.00  0.00     0.074 A 
ATOM     41  C   UNL     1      -7.062   8.521  -7.778  1.00  0.00     0.049 A 
ATOM     42  N   UNL     1      -7.642   6.347  -9.779  1.00  0.00    -0.248 NA
ATOM     43  C   UNL     1      -9.485   5.718  -8.492  1.00  0.00     0.031 C 
ATOM     44  C   UNL     1      -6.702   9.559  -6.810  1.00  0.00     0.029 A 
ATOM     45  N   UNL     1      -6.104   8.631  -8.754  1.00  0.00    -0.354 N 
ATOM     46  C   UNL     1      -8.256   5.245 -10.361  1.00  0.00     0.074 A 
ATOM     47  C   UNL     1      -9.350   4.863  -9.495  1.00  0.00     0.031 C 
ATOM     48  C   UNL     1      -5.613  10.210  -7.248  1.00  0.00     0.029 A 
ATOM     49  C   UNL     1      -5.173   9.612  -8.505  1.00  0.00     0.049 A 
ATOM     50  H   UNL     1      -6.084   8.062  -9.557  1.00  0.00     0.167 HD
ATOM     51  C   UNL     1      -7.947   4.621 -11.523  1.00  0.00     0.037 A 
ATOM     52  C   UNL     1      -4.082   9.978  -9.202  1.00  0.00     0.037 A 
ATOM     53  C   UNL     1      -6.874   5.024 -12.395  1.00  0.00     0.049 A 
ATOM     54  C   UNL     1      -3.762   9.268 -10.489  1.00  0.00     0.074 A 
ATOM     55  C   UNL     1      -6.530   4.505 -13.630  1.00  0.00     0.029 A 
ATOM     56  N   UNL     1      -5.969   6.037 -12.120  1.00  0.00    -0.354 N 
ATOM     57  N   UNL     1      -4.402   8.282 -11.070  1.00  0.00    -0.248 NA
ATOM     58  C   UNL     1      -2.574   9.728 -11.223  1.00  0.00     0.031 C 
ATOM     59  C   UNL     1      -5.382   5.166 -14.077  1.00  0.00     0.029 A 
ATOM     60  C   UNL     1      -5.047   6.138 -13.149  1.00  0.00     0.049 A 
ATOM     61  H   UNL     1      -5.980   6.602 -11.313  1.00  0.00     0.167 HD
ATOM     62  C   UNL     1      -3.712   8.023 -12.248  1.00  0.00     0.074 A 
ATOM     63  C   UNL     1      -2.616   8.967 -12.307  1.00  0.00     0.031 C 
ATOM     64  C   UNL     1      -3.965   7.088 -13.196  1.00  0.00     0.037 A 
BRANCH  51  65
ATOM     65  C   UNL     1      -8.775   3.434 -11.921  1.00  0.00     0.057 A 
ATOM     66  C   UNL     1     -10.108   3.563 -12.332  1.00  0.00     0.134 A 
ATOM     67  C   UNL     1      -8.215   2.150 -11.945  1.00  0.00     0.134 A 
ATOM     68  F   UNL     1     -10.710   4.763 -12.324  1.00  0.00    -0.206 F 
ATOM     69  C   UNL     1     -10.860   2.457 -12.732  1.00  0.00     0.040 A 
ATOM     70  C   UNL     1      -8.947   1.041 -12.370  1.00  0.00     0.040 A 
ATOM     71  F   UNL     1      -6.941   1.956 -11.571  1.00  0.00    -0.206 F 
ATOM     72  C   UNL     1     -10.276   1.192 -12.760  1.00  0.00     0.006 A 
ENDBRANCH  51  65
BRANCH  52  73
ATOM     73  C   UNL     1      -3.210  11.072  -8.703  1.00  0.00     0.057 A 
ATOM     74  C   UNL     1      -3.124  12.297  -9.377  1.00  0.00     0.134 A 
ATOM     75  C   UNL     1      -2.427  10.915  -7.553  1.00  0.00     0.134 A 
ATOM     76  F   UNL     1      -3.836  12.503 -10.495  1.00  0.00    -0.206 F 
ATOM     77  C   UNL     1      -2.273  13.314  -8.941  1.00  0.00     0.040 A 
ATOM     78  C   UNL     1      -1.594  11.934  -7.089  1.00  0.00     0.040 A 
ATOM     79  F   UNL     1      -2.470   9.770  -6.855  1.00  0.00    -0.206 F 
ATOM     80  C   UNL     1      -1.508  13.135  -7.791  1.00  0.00     0.006 A 
ENDBRANCH  52  73
BRANCH  64  81
ATOM     81  C   UNL     1      -3.062   7.062 -14.396  1.00  0.00     0.057 A 
ATOM     82  C   UNL     1      -1.736   6.619 -14.319  1.00  0.00     0.134 A 
ATOM     83  C   UNL     1      -3.543   7.447 -15.655  1.00  0.00     0.134 A 
ATOM     84  F   UNL     1      -1.211   6.248 -13.141  1.00  0.00    -0.206 F 
ATOM     85  C   UNL     1      -0.913   6.583 -15.445  1.00  0.00     0.040 A 
ATOM     86  C   UNL     1      -2.739   7.386 -16.793  1.00  0.00     0.040 A 
ATOM     87  F   UNL     1      -4.807   7.872 -15.801  1.00  0.00    -0.206 F 
ATOM     88  C   UNL     1      -1.417   6.960 -16.689  1.00  0.00     0.006 A 
ENDBRANCH  64  81
ENDBRANCH  38  39
ENDBRANCH  30  33
ENDBRANCH  28  29
ENDBRANCH  27  28
ENDBRANCH  26  27
ENDBRANCH  25  26
ENDBRANCH   1  25
TORSDOF 17
