REMARK SMILES O=C(NCCCCCCNC(=O)[C@@H]1CCCN1C(=O)[C@H]1CC[C@@H](Cn2c(O)nc3ccccc3c2=O)CC1)c1ccc(-c2c3nc(c(-c4c(F)cccc4F)c4ccc([nH]4)c(-c4c(F)cccc4F)c4nc(c(-c5c(F)cccc5F)c5ccc2[nH]5)C=C4)C=C3)cc1
REMARK SMILES IDX 8 1 7 2 6 3 5 4 4 5 3 6 1 7 2 8 39 10 40 11 92 12 41 13
REMARK SMILES IDX 91 14 42 15 43 16 44 17 85 18 45 19 90 20 84 21 86 22 46 23
REMARK SMILES IDX 89 24 83 25 82 26 47 28 73 29 56 30 72 31 57 32 60 33 71 34
REMARK SMILES IDX 87 35 58 36 59 37 70 39 88 40 61 41 48 42 49 43 54 44 50 45
REMARK SMILES IDX 51 46 53 47 55 48 52 49 74 50 75 51 80 52 76 53 77 54 79 55
REMARK SMILES IDX 81 56 78 57 62 58 63 59 68 60 64 61 65 62 67 63 69 64 66 65
REMARK SMILES IDX 9 66 10 67 11 68 12 70 13 71 14 72 17 73 15 74 16 75 18 76
REMARK SMILES IDX 19 77 20 78 38 79 21 80 37 81 22 82 23 83 24 84 25 85 26 86
REMARK SMILES IDX 35 87 28 88 34 89 36 90 29 91 33 92 30 93 32 94 31 95 27 96
REMARK H PARENT 3 9 86 27 60 38 10 69 27 97
REMARK Flexibility Score: inf
ROOT
ATOM      1  C   UNL     1       6.756  -3.527  -1.243  1.00  0.00     0.021 C 
ENDROOT
BRANCH   1   2
ATOM      2  C   UNL     1       5.239  -3.628  -1.504  1.00  0.00     0.002 C 
BRANCH   2   3
ATOM      3  C   UNL     1       4.330  -3.595  -0.282  1.00  0.00     0.002 C 
BRANCH   3   4
ATOM      4  C   UNL     1       4.520  -2.385   0.622  1.00  0.00     0.021 C 
BRANCH   4   5
ATOM      5  C   UNL     1       4.459  -1.047  -0.102  1.00  0.00     0.116 C 
BRANCH   5   6
ATOM      6  N   UNL     1       3.109  -0.711  -0.526  1.00  0.00    -0.352 N 
ATOM      7  O   UNL     1       1.096   0.306  -0.336  1.00  0.00    -0.269 OA
ATOM      8  C   UNL     1       2.273   0.265  -0.029  1.00  0.00     0.251 C 
ATOM      9  H   UNL     1       2.745  -1.250  -1.265  1.00  0.00     0.163 HD
BRANCH   8  10
ATOM     10  C   UNL     1       2.837   1.264   0.904  1.00  0.00     0.039 A 
ATOM     11  C   UNL     1       2.166   1.543   2.095  1.00  0.00     0.014 A 
ATOM     12  C   UNL     1       4.038   1.908   0.596  1.00  0.00     0.014 A 
ATOM     13  C   UNL     1       2.717   2.461   2.990  1.00  0.00     0.010 A 
ATOM     14  C   UNL     1       4.639   2.734   1.535  1.00  0.00     0.010 A 
ATOM     15  C   UNL     1       3.959   3.061   2.717  1.00  0.00    -0.014 A 
BRANCH  15  16
ATOM     16  C   UNL     1       4.488   4.141   3.583  1.00  0.00     0.031 A 
ATOM     17  C   UNL     1       4.615   5.532   3.017  1.00  0.00     0.074 A 
ATOM     18  C   UNL     1       4.850   3.887   4.854  1.00  0.00     0.049 A 
ATOM     19  N   UNL     1       5.057   6.625   3.585  1.00  0.00    -0.248 NA
ATOM     20  C   UNL     1       4.223   5.712   1.607  1.00  0.00     0.031 C 
ATOM     21  C   UNL     1       4.821   2.574   5.502  1.00  0.00     0.029 A 
ATOM     22  N   UNL     1       5.306   4.731   5.833  1.00  0.00    -0.354 N 
ATOM     23  C   UNL     1       4.998   7.607   2.604  1.00  0.00     0.074 A 
ATOM     24  C   UNL     1       4.574   6.966   1.382  1.00  0.00     0.031 C 
ATOM     25  C   UNL     1       5.207   2.709   6.782  1.00  0.00     0.029 A 
ATOM     26  C   UNL     1       5.528   4.110   7.037  1.00  0.00     0.049 A 
ATOM     27  H   UNL     1       5.460   5.693   5.686  1.00  0.00     0.167 HD
ATOM     28  C   UNL     1       5.222   8.937   2.716  1.00  0.00     0.037 A 
ATOM     29  C   UNL     1       5.930   4.625   8.214  1.00  0.00     0.037 A 
ATOM     30  C   UNL     1       5.615   9.582   3.937  1.00  0.00     0.049 A 
ATOM     31  C   UNL     1       6.172   6.107   8.316  1.00  0.00     0.074 A 
ATOM     32  C   UNL     1       5.860  10.922   4.171  1.00  0.00     0.029 A 
ATOM     33  N   UNL     1       5.809   8.921   5.141  1.00  0.00    -0.354 N 
ATOM     34  N   UNL     1       6.067   7.032   7.392  1.00  0.00    -0.248 NA
ATOM     35  C   UNL     1       6.570   6.620   9.634  1.00  0.00     0.031 C 
ATOM     36  C   UNL     1       6.224  11.069   5.515  1.00  0.00     0.029 A 
ATOM     37  C   UNL     1       6.169   9.826   6.124  1.00  0.00     0.049 A 
ATOM     38  H   UNL     1       5.707   7.951   5.276  1.00  0.00     0.167 HD
ATOM     39  C   UNL     1       6.361   8.235   8.021  1.00  0.00     0.074 A 
ATOM     40  C   UNL     1       6.620   7.924   9.412  1.00  0.00     0.031 C 
ATOM     41  C   UNL     1       6.418   9.486   7.501  1.00  0.00     0.037 A 
BRANCH  28  42
ATOM     42  C   UNL     1       5.015   9.765   1.481  1.00  0.00     0.057 A 
ATOM     43  C   UNL     1       6.097  10.344   0.809  1.00  0.00     0.134 A 
ATOM     44  C   UNL     1       3.736   9.965   0.939  1.00  0.00     0.134 A 
ATOM     45  F   UNL     1       7.347  10.194   1.271  1.00  0.00    -0.206 F 
ATOM     46  C   UNL     1       5.915  11.084  -0.362  1.00  0.00     0.040 A 
ATOM     47  C   UNL     1       3.546  10.675  -0.246  1.00  0.00     0.040 A 
ATOM     48  F   UNL     1       2.658   9.417   1.522  1.00  0.00    -0.206 F 
ATOM     49  C   UNL     1       4.638  11.241  -0.899  1.00  0.00     0.006 A 
ENDBRANCH  28  42
BRANCH  29  50
ATOM     50  C   UNL     1       6.096   3.751   9.404  1.00  0.00     0.057 A 
ATOM     51  C   UNL     1       7.148   2.832   9.493  1.00  0.00     0.134 A 
ATOM     52  C   UNL     1       5.232   3.850  10.502  1.00  0.00     0.134 A 
ATOM     53  F   UNL     1       8.006   2.682   8.474  1.00  0.00    -0.206 F 
ATOM     54  C   UNL     1       7.341   2.051  10.634  1.00  0.00     0.040 A 
ATOM     55  C   UNL     1       5.428   3.094  11.659  1.00  0.00     0.040 A 
ATOM     56  F   UNL     1       4.216   4.725  10.483  1.00  0.00    -0.206 F 
ATOM     57  C   UNL     1       6.486   2.190  11.727  1.00  0.00     0.006 A 
ENDBRANCH  29  50
BRANCH  41  58
ATOM     58  C   UNL     1       6.742  10.599   8.453  1.00  0.00     0.057 A 
ATOM     59  C   UNL     1       5.759  11.524   8.829  1.00  0.00     0.134 A 
ATOM     60  C   UNL     1       8.023  10.757   8.998  1.00  0.00     0.134 A 
ATOM     61  F   UNL     1       4.515  11.435   8.334  1.00  0.00    -0.206 F 
ATOM     62  C   UNL     1       6.036  12.559   9.722  1.00  0.00     0.040 A 
ATOM     63  C   UNL     1       8.304  11.770   9.914  1.00  0.00     0.040 A 
ATOM     64  F   UNL     1       9.004   9.896   8.687  1.00  0.00    -0.206 F 
ATOM     65  C   UNL     1       7.309  12.677  10.276  1.00  0.00     0.006 A 
ENDBRANCH  41  58
ENDBRANCH  15  16
ENDBRANCH   8  10
ENDBRANCH   5   6
ENDBRANCH   4   5
ENDBRANCH   3   4
ENDBRANCH   2   3
ENDBRANCH   1   2
BRANCH   1  66
ATOM     66  C   UNL     1       7.452  -4.837  -0.864  1.00  0.00     0.116 C 
BRANCH  66  67
ATOM     67  N   UNL     1       7.198  -5.970  -1.734  1.00  0.00    -0.354 N 
ATOM     68  C   UNL     1       7.935  -6.586  -2.696  1.00  0.00     0.242 C 
ATOM     69  H   UNL     1       6.311  -6.375  -1.601  1.00  0.00     0.163 HD
ATOM     70  O   UNL     1       7.692  -7.781  -2.923  1.00  0.00    -0.273 OA
BRANCH  68  71
ATOM     71  C   UNL     1       9.135  -5.948  -3.417  1.00  0.00     0.174 C 
ATOM     72  C   UNL     1      10.367  -6.465  -2.650  1.00  0.00     0.037 C 
ATOM     73  N   UNL     1       9.338  -4.498  -3.565  1.00  0.00    -0.330 N 
ATOM     74  C   UNL     1      11.394  -5.359  -2.756  1.00  0.00     0.024 C 
ATOM     75  C   UNL     1      10.552  -4.101  -2.854  1.00  0.00     0.120 C 
BRANCH  73  76
ATOM     76  C   UNL     1       8.765  -3.595  -4.447  1.00  0.00     0.226 C 
ATOM     77  O   UNL     1       9.277  -2.472  -4.576  1.00  0.00    -0.275 OA
BRANCH  76  78
ATOM     78  C   UNL     1       7.484  -3.858  -5.279  1.00  0.00     0.078 C 
ATOM     79  C   UNL     1       7.652  -4.499  -6.656  1.00  0.00     0.014 C 
ATOM     80  C   UNL     1       6.399  -4.588  -4.540  1.00  0.00     0.014 C 
ATOM     81  C   UNL     1       6.288  -4.670  -7.385  1.00  0.00     0.006 C 
ATOM     82  C   UNL     1       5.049  -4.539  -5.231  1.00  0.00     0.006 C 
ATOM     83  C   UNL     1       5.133  -5.301  -6.548  1.00  0.00     0.009 C 
BRANCH  83  84
ATOM     84  C   UNL     1       5.309  -6.837  -6.376  1.00  0.00     0.134 C 
BRANCH  84  85
ATOM     85  N   UNL     1       4.310  -7.568  -5.565  1.00  0.00    -0.262 N 
ATOM     86  C   UNL     1       3.170  -8.156  -6.061  1.00  0.00     0.297 A 
ATOM     87  C   UNL     1       4.579  -7.774  -4.218  1.00  0.00     0.264 A 
ATOM     88  N   UNL     1       2.471  -9.064  -5.464  1.00  0.00    -0.197 NA
ATOM     89  C   UNL     1       4.045  -8.992  -3.612  1.00  0.00     0.066 A 
ATOM     90  O   UNL     1       5.142  -6.977  -3.478  1.00  0.00    -0.268 OA
ATOM     91  C   UNL     1       2.955  -9.568  -4.248  1.00  0.00     0.081 A 
ATOM     92  C   UNL     1       4.609  -9.541  -2.453  1.00  0.00     0.016 A 
ATOM     93  C   UNL     1       2.372 -10.691  -3.659  1.00  0.00     0.029 A 
ATOM     94  C   UNL     1       4.042 -10.683  -1.897  1.00  0.00     0.001 A 
ATOM     95  C   UNL     1       2.910 -11.246  -2.489  1.00  0.00     0.002 A 
BRANCH  86  96
ATOM     96  O   UNL     1       2.742  -7.736  -7.265  1.00  0.00    -0.480 OA
ATOM     97  H   UNL     1       3.222  -7.079  -7.729  1.00  0.00     0.296 HD
ENDBRANCH  86  96
ENDBRANCH  84  85
ENDBRANCH  83  84
ENDBRANCH  76  78
ENDBRANCH  73  76
ENDBRANCH  68  71
ENDBRANCH  66  67
ENDBRANCH   1  66
TORSDOF 18
