REMARK SMILES Cc1ccc(S(=O)(=O)n2cc(C(=O)C(=O)NCC(=O)N[C@@H](Cc3c[nH]c4ccccc34)C(=O)NCCCCCCNC(=O)c3ccc(-c4c5nc(c(-c6c(F)cccc6F)c6ccc([nH]6)c(-c6c(F)cccc6F)c6nc(c(-c7c(F)cccc7F)c7ccc4[nH]7)C=C6)C=C5)cc3)c3ccccc32)cc1
REMARK SMILES IDX 35 1 34 2 32 3 33 4 21 6 20 7 18 8 19 9 17 11 16 12 14 13
REMARK SMILES IDX 15 14 12 16 13 17 11 18 9 19 10 20 103 21 98 22 102 23 99 24
REMARK SMILES IDX 101 25 100 26 6 27 7 28 8 29 5 30 1 31 2 32 3 33 105 34 4 35
REMARK SMILES IDX 104 36 22 37 23 38 24 39 31 40 25 41 26 42 30 43 27 45 29 46
REMARK SMILES IDX 28 47 36 48 37 49 38 50 39 51 40 52 41 53 42 54 43 56 44 57
REMARK SMILES IDX 45 58 97 59 46 60 96 61 47 62 48 63 49 64 90 65 50 66 95 67
REMARK SMILES IDX 89 68 91 69 51 70 94 71 88 72 87 73 52 75 78 76 61 77 77 78
REMARK SMILES IDX 62 79 65 80 76 81 92 82 63 83 64 84 75 86 93 87 66 88 53 89
REMARK SMILES IDX 54 90 59 91 55 92 56 93 58 94 60 95 57 96 79 97 80 98 85 99
REMARK SMILES IDX 81 100 82 101 84 102 86 103 83 104 67 105 68 106 73 107
REMARK SMILES IDX 69 108 70 109 72 110 74 111 71 112
REMARK H PARENT 34 5 20 10 16 15 25 44 41 55 91 74 65 85
REMARK Flexibility Score: inf
ROOT
ATOM      1  C   UNL     1     -11.551   0.658   4.964  1.00  0.00     0.116 C 
ENDROOT
BRANCH   1   2
ATOM      2  N   UNL     1     -10.561  -0.067   4.199  1.00  0.00    -0.354 N 
ATOM      3  C   UNL     1      -9.594   0.404   3.361  1.00  0.00     0.242 C 
ATOM      4  O   UNL     1      -8.603  -0.322   3.206  1.00  0.00    -0.273 OA
ATOM      5  H   UNL     1     -10.590  -1.046   4.297  1.00  0.00     0.163 HD
BRANCH   3   6
ATOM      6  C   UNL     1      -9.613   1.799   2.685  1.00  0.00     0.175 C 
BRANCH   6   7
ATOM      7  N   UNL     1     -10.911   2.272   2.199  1.00  0.00    -0.342 N 
ATOM      8  C   UNL     1     -11.372   2.268   0.908  1.00  0.00     0.240 C 
ATOM      9  O   UNL     1     -12.574   2.454   0.716  1.00  0.00    -0.273 OA
ATOM     10  H   UNL     1     -11.523   2.636   2.878  1.00  0.00     0.164 HD
BRANCH   8  11
ATOM     11  C   UNL     1     -10.396   1.995  -0.256  1.00  0.00     0.216 C 
BRANCH  11  12
ATOM     12  N   UNL     1      -9.294   2.962  -0.237  1.00  0.00    -0.340 N 
ATOM     13  C   UNL     1      -7.967   2.764  -0.580  1.00  0.00     0.292 C 
ATOM     14  O   UNL     1      -7.131   3.641  -0.397  1.00  0.00    -0.265 OA
ATOM     15  H   UNL     1      -9.528   3.871   0.058  1.00  0.00     0.164 HD
BRANCH  13  16
ATOM     16  C   UNL     1      -7.547   1.421  -1.186  1.00  0.00     0.252 C 
ATOM     17  O   UNL     1      -8.223   1.018  -2.132  1.00  0.00    -0.283 OA
BRANCH  16  18
ATOM     18  C   UNL     1      -6.514   0.589  -0.555  1.00  0.00     0.054 A 
ATOM     19  N   UNL     1      -4.652  -0.236   0.424  1.00  0.00    -0.240 N 
ATOM     20  C   UNL     1      -5.213   0.904  -0.145  1.00  0.00     0.117 A 
ATOM     21  C   UNL     1      -5.666  -1.197   0.552  1.00  0.00     0.065 A 
ATOM     22  C   UNL     1      -6.676  -0.811  -0.326  1.00  0.00     0.012 A 
ATOM     23  C   UNL     1      -5.659  -2.472   1.150  1.00  0.00     0.028 A 
ATOM     24  C   UNL     1      -7.602  -1.786  -0.755  1.00  0.00     0.011 A 
ATOM     25  C   UNL     1      -6.546  -3.431   0.667  1.00  0.00     0.002 A 
ATOM     26  C   UNL     1      -7.480  -3.104  -0.305  1.00  0.00     0.001 A 
BRANCH  19  27
ATOM     27  S   UNL     1      -3.130  -0.960  -0.013  1.00  0.00     0.268 S 
ATOM     28  O   UNL     1      -3.365  -1.422  -1.371  1.00  0.00    -0.201 OA
ATOM     29  O   UNL     1      -2.897  -1.901   1.075  1.00  0.00    -0.201 OA
BRANCH  27  30
ATOM     30  C   UNL     1      -1.595  -0.112  -0.080  1.00  0.00     0.088 A 
ATOM     31  C   UNL     1       2.568   1.033  -0.039  1.00  0.00     0.044 C 
ATOM     32  C   UNL     1       1.110   0.679  -0.096  1.00  0.00    -0.051 A 
ATOM     33  C   UNL     1       0.783  -0.645  -0.353  1.00  0.00     0.005 A 
ATOM     34  C   UNL     1       0.071   1.604   0.154  1.00  0.00     0.005 A 
ATOM     35  C   UNL     1      -0.547  -1.024  -0.355  1.00  0.00     0.022 A 
ATOM     36  C   UNL     1      -1.293   1.216   0.168  1.00  0.00     0.022 A 
ENDBRANCH  27  30
ENDBRANCH  19  27
ENDBRANCH  16  18
ENDBRANCH  13  16
ENDBRANCH  11  12
ENDBRANCH   8  11
ENDBRANCH   6   7
BRANCH   6  37
ATOM     37  C   UNL     1      -8.790   2.894   3.385  1.00  0.00     0.072 C 
BRANCH  37  38
ATOM     38  C   UNL     1      -9.133   3.196   4.809  1.00  0.00    -0.020 A 
ATOM     39  C   UNL     1      -8.750   2.433   5.896  1.00  0.00     0.087 A 
ATOM     40  C   UNL     1      -9.813   4.345   5.336  1.00  0.00     0.003 A 
ATOM     41  N   UNL     1      -9.246   3.011   7.030  1.00  0.00    -0.361 N 
ATOM     42  C   UNL     1      -9.913   4.171   6.718  1.00  0.00     0.046 A 
ATOM     43  C   UNL     1     -10.342   5.528   4.777  1.00  0.00     0.010 A 
ATOM     44  H   UNL     1      -9.140   2.650   7.940  1.00  0.00     0.166 HD
ATOM     45  C   UNL     1     -10.566   5.080   7.559  1.00  0.00     0.026 A 
ATOM     46  C   UNL     1     -10.960   6.471   5.611  1.00  0.00     0.001 A 
ATOM     47  C   UNL     1     -11.084   6.240   6.978  1.00  0.00     0.002 A 
ENDBRANCH  37  38
ENDBRANCH   6  37
ENDBRANCH   3   6
ENDBRANCH   1   2
BRANCH   1  48
ATOM     48  C   UNL     1     -12.599  -0.217   5.651  1.00  0.00     0.021 C 
BRANCH  48  49
ATOM     49  C   UNL     1     -12.114  -1.218   6.711  1.00  0.00     0.002 C 
BRANCH  49  50
ATOM     50  C   UNL     1     -11.132  -0.735   7.790  1.00  0.00     0.002 C 
BRANCH  50  51
ATOM     51  C   UNL     1     -11.445   0.585   8.495  1.00  0.00     0.021 C 
BRANCH  51  52
ATOM     52  C   UNL     1     -12.724   0.613   9.318  1.00  0.00     0.116 C 
BRANCH  52  53
ATOM     53  N   UNL     1     -12.545   0.338  10.738  1.00  0.00    -0.352 N 
ATOM     54  C   UNL     1     -13.507   0.279  11.744  1.00  0.00     0.251 C 
ATOM     55  H   UNL     1     -11.618   0.172  11.026  1.00  0.00     0.163 HD
ATOM     56  O   UNL     1     -13.198   0.025  12.884  1.00  0.00    -0.269 OA
BRANCH  54  57
ATOM     57  C   UNL     1     -14.940   0.391  11.356  1.00  0.00     0.039 A 
ATOM     58  C   UNL     1     -15.796  -0.638  11.759  1.00  0.00     0.014 A 
ATOM     59  C   UNL     1     -15.352   1.319  10.405  1.00  0.00     0.014 A 
ATOM     60  C   UNL     1     -16.934  -0.905  11.002  1.00  0.00     0.010 A 
ATOM     61  C   UNL     1     -16.415   0.992   9.587  1.00  0.00     0.010 A 
ATOM     62  C   UNL     1     -17.155  -0.168   9.839  1.00  0.00    -0.014 A 
BRANCH  62  63
ATOM     63  C   UNL     1     -18.000  -0.651   8.751  1.00  0.00     0.031 A 
ATOM     64  C   UNL     1     -19.280   0.007   8.422  1.00  0.00     0.074 A 
ATOM     65  C   UNL     1     -17.567  -1.681   7.988  1.00  0.00     0.049 A 
ATOM     66  N   UNL     1     -20.265  -0.596   7.843  1.00  0.00    -0.248 NA
ATOM     67  C   UNL     1     -19.569   1.400   8.751  1.00  0.00     0.031 C 
ATOM     68  C   UNL     1     -18.116  -2.129   6.711  1.00  0.00     0.029 A 
ATOM     69  N   UNL     1     -16.635  -2.672   8.331  1.00  0.00    -0.354 N 
ATOM     70  C   UNL     1     -21.189   0.358   7.497  1.00  0.00     0.074 A 
ATOM     71  C   UNL     1     -20.739   1.578   8.129  1.00  0.00     0.031 C 
ATOM     72  C   UNL     1     -17.745  -3.401   6.500  1.00  0.00     0.029 A 
ATOM     73  C   UNL     1     -17.063  -3.858   7.697  1.00  0.00     0.049 A 
ATOM     74  H   UNL     1     -15.840  -2.562   8.901  1.00  0.00     0.167 HD
ATOM     75  C   UNL     1     -22.178   0.062   6.609  1.00  0.00     0.037 A 
ATOM     76  C   UNL     1     -17.398  -4.972   8.409  1.00  0.00     0.037 A 
ATOM     77  C   UNL     1     -22.107  -1.316   6.150  1.00  0.00     0.049 A 
ATOM     78  C   UNL     1     -18.820  -5.434   8.199  1.00  0.00     0.074 A 
ATOM     79  C   UNL     1     -21.521  -1.899   5.038  1.00  0.00     0.029 A 
ATOM     80  N   UNL     1     -22.397  -2.350   7.031  1.00  0.00    -0.354 N 
ATOM     81  N   UNL     1     -19.755  -4.687   7.679  1.00  0.00    -0.248 NA
ATOM     82  C   UNL     1     -19.316  -6.751   8.592  1.00  0.00     0.031 C 
ATOM     83  C   UNL     1     -21.405  -3.288   5.279  1.00  0.00     0.029 A 
ATOM     84  C   UNL     1     -21.943  -3.553   6.526  1.00  0.00     0.049 A 
ATOM     85  H   UNL     1     -22.861  -2.241   7.892  1.00  0.00     0.167 HD
ATOM     86  C   UNL     1     -20.946  -5.364   7.701  1.00  0.00     0.074 A 
ATOM     87  C   UNL     1     -20.616  -6.661   8.258  1.00  0.00     0.031 C 
ATOM     88  C   UNL     1     -22.107  -4.787   7.274  1.00  0.00     0.037 A 
BRANCH  75  89
ATOM     89  C   UNL     1     -23.010   1.135   5.968  1.00  0.00     0.057 A 
ATOM     90  C   UNL     1     -23.285   1.125   4.589  1.00  0.00     0.134 A 
ATOM     91  C   UNL     1     -23.524   2.236   6.672  1.00  0.00     0.134 A 
ATOM     92  F   UNL     1     -22.905   0.111   3.802  1.00  0.00    -0.206 F 
ATOM     93  C   UNL     1     -23.943   2.177   3.943  1.00  0.00     0.040 A 
ATOM     94  C   UNL     1     -24.144   3.318   6.032  1.00  0.00     0.040 A 
ATOM     95  F   UNL     1     -23.445   2.297   8.010  1.00  0.00    -0.206 F 
ATOM     96  C   UNL     1     -24.346   3.295   4.659  1.00  0.00     0.006 A 
ENDBRANCH  75  89
BRANCH  76  97
ATOM     97  C   UNL     1     -16.634  -5.116   9.674  1.00  0.00     0.057 A 
ATOM     98  C   UNL     1     -15.249  -5.347   9.600  1.00  0.00     0.134 A 
ATOM     99  C   UNL     1     -17.141  -4.667  10.896  1.00  0.00     0.134 A 
ATOM    100  F   UNL     1     -14.699  -5.779   8.454  1.00  0.00    -0.206 F 
ATOM    101  C   UNL     1     -14.391  -5.037  10.657  1.00  0.00     0.040 A 
ATOM    102  C   UNL     1     -16.292  -4.361  11.966  1.00  0.00     0.040 A 
ATOM    103  F   UNL     1     -18.448  -4.402  11.036  1.00  0.00    -0.206 F 
ATOM    104  C   UNL     1     -14.911  -4.508  11.834  1.00  0.00     0.006 A 
ENDBRANCH  76  97
BRANCH  88 105
ATOM    105  C   UNL     1     -23.493  -5.351   7.445  1.00  0.00     0.057 A 
ATOM    106  C   UNL     1     -23.892  -6.140   8.533  1.00  0.00     0.134 A 
ATOM    107  C   UNL     1     -24.532  -4.967   6.567  1.00  0.00     0.134 A 
ATOM    108  F   UNL     1     -23.028  -6.492   9.495  1.00  0.00    -0.206 F 
ATOM    109  C   UNL     1     -25.218  -6.556   8.710  1.00  0.00     0.040 A 
ATOM    110  C   UNL     1     -25.866  -5.335   6.761  1.00  0.00     0.040 A 
ATOM    111  F   UNL     1     -24.296  -4.197   5.494  1.00  0.00    -0.206 F 
ATOM    112  C   UNL     1     -26.212  -6.144   7.831  1.00  0.00     0.006 A 
ENDBRANCH  88 105
ENDBRANCH  62  63
ENDBRANCH  54  57
ENDBRANCH  52  53
ENDBRANCH  51  52
ENDBRANCH  50  51
ENDBRANCH  49  50
ENDBRANCH  48  49
ENDBRANCH   1  48
TORSDOF 22
