REMARK SMILES COc1ccc([C@H]2CC(c3ccc(S(C)(=O)=O)cc3)=NN2c2ccc(C(=O)NCCCCCCNC(=O)c3ccc(-c4c5nc(c(-c6c(F)cccc6F)c6ccc([nH]6)c(-c6c(F)cccc6F)c6nc(c(-c7c(F)cccc7F)c7ccc4[nH]7)C=C6)C=C5)cc3)cc2)cc1
REMARK SMILES IDX 31 1 30 2 29 3 28 4 26 5 27 6 25 8 22 9 23 10 93 11 24 12
REMARK SMILES IDX 92 13 21 14 7 15 8 16 9 17 20 18 6 19 3 20 4 21 95 22 5 23
REMARK SMILES IDX 94 24 2 25 1 26 10 27 11 28 19 29 12 30 18 31 13 32 14 33
REMARK SMILES IDX 15 34 16 35 17 36 32 37 33 38 34 39 35 40 36 41 37 43 38 44
REMARK SMILES IDX 39 45 91 46 40 47 90 48 41 49 42 50 43 51 84 52 44 53 89 54
REMARK SMILES IDX 83 55 85 56 45 57 88 58 82 59 81 60 46 62 72 63 55 64 71 65
REMARK SMILES IDX 56 66 59 67 70 68 86 69 57 70 58 71 69 73 87 74 60 75 47 76
REMARK SMILES IDX 48 77 53 78 49 79 50 80 52 81 54 82 51 83 73 84 74 85 79 86
REMARK SMILES IDX 75 87 76 88 78 89 80 90 77 91 61 92 62 93 67 94 63 95 64 96
REMARK SMILES IDX 66 97 68 98 65 99
REMARK H PARENT 28 7 35 42 85 61 59 72
REMARK Flexibility Score: inf
ROOT
ATOM      1  C   UNL     1      -0.177 -12.709  -2.414  1.00  0.00     0.002 C 
ENDROOT
BRANCH   1   2
ATOM      2  C   UNL     1      -0.005 -11.326  -3.061  1.00  0.00     0.021 C 
BRANCH   2   3
ATOM      3  C   UNL     1       0.224 -10.208  -2.042  1.00  0.00     0.116 C 
BRANCH   3   4
ATOM      4  N   UNL     1       1.587 -10.258  -1.554  1.00  0.00    -0.352 N 
ATOM      5  C   UNL     1       2.708  -9.527  -1.843  1.00  0.00     0.251 C 
ATOM      6  O   UNL     1       3.749  -9.845  -1.266  1.00  0.00    -0.269 OA
ATOM      7  H   UNL     1       1.738 -10.959  -0.879  1.00  0.00     0.163 HD
BRANCH   5   8
ATOM      8  C   UNL     1       2.716  -8.348  -2.754  1.00  0.00     0.039 A 
ATOM      9  C   UNL     1       2.843  -5.982  -4.308  1.00  0.00     0.060 A 
ATOM     10  C   UNL     1       3.768  -6.221  -3.288  1.00  0.00     0.029 A 
ATOM     11  C   UNL     1       1.894  -6.970  -4.580  1.00  0.00     0.029 A 
ATOM     12  C   UNL     1       3.694  -7.375  -2.506  1.00  0.00     0.016 A 
ATOM     13  C   UNL     1       1.857  -8.161  -3.840  1.00  0.00     0.016 A 
BRANCH   9  14
ATOM     14  N   UNL     1       2.907  -4.802  -5.028  1.00  0.00    -0.257 N 
ATOM     15  C   UNL     1       1.800  -3.862  -5.191  1.00  0.00     0.144 C 
ATOM     16  C   UNL     1       2.350  -2.870  -6.225  1.00  0.00     0.091 C 
ATOM     17  C   UNL     1       3.661  -3.528  -6.544  1.00  0.00     0.071 C 
ATOM     18  N   UNL     1       3.950  -4.595  -5.870  1.00  0.00    -0.176 NA
BRANCH  15  19
ATOM     19  C   UNL     1       1.433  -3.185  -3.881  1.00  0.00    -0.023 A 
ATOM     20  C   UNL     1       0.727  -1.898  -1.475  1.00  0.00     0.118 A 
ATOM     21  C   UNL     1      -0.235  -2.581  -2.218  1.00  0.00     0.047 A 
ATOM     22  C   UNL     1       2.051  -1.890  -1.906  1.00  0.00     0.047 A 
ATOM     23  C   UNL     1       0.110  -3.211  -3.417  1.00  0.00     0.010 A 
ATOM     24  C   UNL     1       2.401  -2.528  -3.100  1.00  0.00     0.010 A 
BRANCH  20  25
ATOM     25  O   UNL     1       0.286  -1.319  -0.316  1.00  0.00    -0.497 OA
ATOM     26  C   UNL     1       0.891  -0.064  -0.018  1.00  0.00     0.278 C 
ENDBRANCH  20  25
ENDBRANCH  15  19
BRANCH  17  27
ATOM     27  C   UNL     1       4.535  -2.999  -7.592  1.00  0.00    -0.002 A 
ATOM     28  C   UNL     1       4.804  -3.801  -8.706  1.00  0.00     0.011 A 
ATOM     29  C   UNL     1       5.104  -1.732  -7.458  1.00  0.00     0.011 A 
ATOM     30  C   UNL     1       5.644  -3.323  -9.710  1.00  0.00     0.021 A 
ATOM     31  C   UNL     1       5.966  -1.262  -8.450  1.00  0.00     0.021 A 
ATOM     32  C   UNL     1       6.233  -2.062  -9.568  1.00  0.00     0.067 A 
BRANCH  32  33
ATOM     33  S   UNL     1       7.319  -1.469 -10.845  1.00  0.00     0.175 S 
ATOM     34  C   UNL     1       8.664  -2.626 -10.841  1.00  0.00     0.163 C 
ATOM     35  O   UNL     1       6.601  -1.601 -12.097  1.00  0.00    -0.224 OA
ATOM     36  O   UNL     1       7.843  -0.186 -10.414  1.00  0.00    -0.224 OA
ENDBRANCH  32  33
ENDBRANCH  17  27
ENDBRANCH   9  14
ENDBRANCH   5   8
ENDBRANCH   3   4
ENDBRANCH   2   3
ENDBRANCH   1   2
BRANCH   1  37
ATOM     37  C   UNL     1      -1.431 -12.863  -1.545  1.00  0.00     0.002 C 
BRANCH  37  38
ATOM     38  C   UNL     1      -2.752 -12.541  -2.250  1.00  0.00     0.021 C 
BRANCH  38  39
ATOM     39  C   UNL     1      -3.053 -13.423  -3.458  1.00  0.00     0.116 C 
BRANCH  39  40
ATOM     40  N   UNL     1      -3.291 -14.806  -3.073  1.00  0.00    -0.352 N 
ATOM     41  C   UNL     1      -4.376 -15.603  -3.333  1.00  0.00     0.251 C 
ATOM     42  H   UNL     1      -2.571 -15.229  -2.551  1.00  0.00     0.163 HD
ATOM     43  O   UNL     1      -4.511 -16.678  -2.758  1.00  0.00    -0.269 OA
BRANCH  41  44
ATOM     44  C   UNL     1      -5.398 -15.156  -4.303  1.00  0.00     0.039 A 
ATOM     45  C   UNL     1      -6.748 -15.255  -3.959  1.00  0.00     0.014 A 
ATOM     46  C   UNL     1      -5.022 -14.651  -5.552  1.00  0.00     0.014 A 
ATOM     47  C   UNL     1      -7.723 -14.788  -4.844  1.00  0.00     0.010 A 
ATOM     48  C   UNL     1      -5.991 -14.136  -6.409  1.00  0.00     0.010 A 
ATOM     49  C   UNL     1      -7.350 -14.197  -6.061  1.00  0.00    -0.014 A 
BRANCH  49  50
ATOM     50  C   UNL     1      -8.363 -13.629  -6.985  1.00  0.00     0.031 A 
ATOM     51  C   UNL     1      -8.584 -14.251  -8.335  1.00  0.00     0.074 A 
ATOM     52  C   UNL     1      -9.032 -12.514  -6.635  1.00  0.00     0.049 A 
ATOM     53  N   UNL     1      -9.338 -13.838  -9.322  1.00  0.00    -0.248 NA
ATOM     54  C   UNL     1      -7.843 -15.490  -8.622  1.00  0.00     0.031 C 
ATOM     55  C   UNL     1      -8.881 -11.798  -5.367  1.00  0.00     0.029 A 
ATOM     56  N   UNL     1      -9.963 -11.777  -7.324  1.00  0.00    -0.354 N 
ATOM     57  C   UNL     1      -9.159 -14.759 -10.345  1.00  0.00     0.074 A 
ATOM     58  C   UNL     1      -8.189 -15.727  -9.879  1.00  0.00     0.031 C 
ATOM     59  C   UNL     1      -9.694 -10.729  -5.367  1.00  0.00     0.029 A 
ATOM     60  C   UNL     1     -10.395 -10.664  -6.645  1.00  0.00     0.049 A 
ATOM     61  H   UNL     1     -10.289 -12.022  -8.220  1.00  0.00     0.167 HD
ATOM     62  C   UNL     1      -9.766 -14.807 -11.555  1.00  0.00     0.037 A 
ATOM     63  C   UNL     1     -11.249  -9.692  -7.018  1.00  0.00     0.037 A 
ATOM     64  C   UNL     1     -10.744 -13.855 -12.011  1.00  0.00     0.049 A 
ATOM     65  C   UNL     1     -11.893  -9.759  -8.375  1.00  0.00     0.074 A 
ATOM     66  C   UNL     1     -11.435 -13.836 -13.210  1.00  0.00     0.029 A 
ATOM     67  N   UNL     1     -11.173 -12.756 -11.284  1.00  0.00    -0.354 N 
ATOM     68  N   UNL     1     -11.743 -10.659  -9.317  1.00  0.00    -0.248 NA
ATOM     69  C   UNL     1     -12.828  -8.678  -8.720  1.00  0.00     0.031 C 
ATOM     70  C   UNL     1     -12.264 -12.710 -13.220  1.00  0.00     0.029 A 
ATOM     71  C   UNL     1     -12.112 -12.047 -12.013  1.00  0.00     0.049 A 
ATOM     72  H   UNL     1     -10.856 -12.515 -10.383  1.00  0.00     0.167 HD
ATOM     73  C   UNL     1     -12.578 -10.266 -10.354  1.00  0.00     0.074 A 
ATOM     74  C   UNL     1     -13.245  -9.056  -9.920  1.00  0.00     0.031 C 
ATOM     75  C   UNL     1     -12.773 -10.851 -11.559  1.00  0.00     0.037 A 
BRANCH  62  76
ATOM     76  C   UNL     1      -9.402 -15.940 -12.467  1.00  0.00     0.057 A 
ATOM     77  C   UNL     1      -9.847 -17.246 -12.223  1.00  0.00     0.134 A 
ATOM     78  C   UNL     1      -8.646 -15.719 -13.625  1.00  0.00     0.134 A 
ATOM     79  F   UNL     1     -10.565 -17.525 -11.125  1.00  0.00    -0.206 F 
ATOM     80  C   UNL     1      -9.541 -18.295 -13.091  1.00  0.00     0.040 A 
ATOM     81  C   UNL     1      -8.353 -16.755 -14.512  1.00  0.00     0.040 A 
ATOM     82  F   UNL     1      -8.194 -14.490 -13.919  1.00  0.00    -0.206 F 
ATOM     83  C   UNL     1      -8.798 -18.049 -14.244  1.00  0.00     0.006 A 
ENDBRANCH  62  76
BRANCH  63  84
ATOM     84  C   UNL     1     -11.548  -8.566  -6.099  1.00  0.00     0.057 A 
ATOM     85  C   UNL     1     -12.805  -8.440  -5.497  1.00  0.00     0.134 A 
ATOM     86  C   UNL     1     -10.598  -7.576  -5.823  1.00  0.00     0.134 A 
ATOM     87  F   UNL     1     -13.763  -9.346  -5.740  1.00  0.00    -0.206 F 
ATOM     88  C   UNL     1     -13.116  -7.357  -4.674  1.00  0.00     0.040 A 
ATOM     89  C   UNL     1     -10.887  -6.500  -4.982  1.00  0.00     0.040 A 
ATOM     90  F   UNL     1      -9.372  -7.643  -6.364  1.00  0.00    -0.206 F 
ATOM     91  C   UNL     1     -12.153  -6.384  -4.412  1.00  0.00     0.006 A 
ENDBRANCH  63  84
BRANCH  75  92
ATOM     92  C   UNL     1     -13.767 -10.209 -12.480  1.00  0.00     0.057 A 
ATOM     93  C   UNL     1     -13.472  -9.026 -13.169  1.00  0.00     0.134 A 
ATOM     94  C   UNL     1     -15.015 -10.801 -12.708  1.00  0.00     0.134 A 
ATOM     95  F   UNL     1     -12.299  -8.404 -12.981  1.00  0.00    -0.206 F 
ATOM     96  C   UNL     1     -14.392  -8.445 -14.042  1.00  0.00     0.040 A 
ATOM     97  C   UNL     1     -15.934 -10.242 -13.595  1.00  0.00     0.040 A 
ATOM     98  F   UNL     1     -15.354 -11.938 -12.083  1.00  0.00    -0.206 F 
ATOM     99  C   UNL     1     -15.625  -9.058 -14.262  1.00  0.00     0.006 A 
ENDBRANCH  75  92
ENDBRANCH  49  50
ENDBRANCH  41  44
ENDBRANCH  39  40
ENDBRANCH  38  39
ENDBRANCH  37  38
ENDBRANCH   1  37
TORSDOF 18
