REMARK SMILES CN(c1ccc(C(=O)NCCCCCCNC(=O)c2ccc(-c3c4nc(c(-c5c(F)cccc5F)c5ccc([nH]5)c(-c5c(F)cccc5F)c5nc(c(-c6c(F)cccc6F)c6ccc3[nH]6)C=C5)C=C4)cc2)c(F)c1F)[C@H]1C[C@H]2CC[C@@H](C1)[NH2+]2
REMARK SMILES IDX 12 1 11 2 10 3 9 4 7 5 8 6 6 8 3 9 4 10 75 11 5 12 73 13
REMARK SMILES IDX 76 14 74 15 2 16 1 17 77 18 78 19 83 20 79 21 82 22 80 23
REMARK SMILES IDX 84 24 81 25 13 28 14 29 15 30 16 31 17 32 18 34 19 35 20 36
REMARK SMILES IDX 72 37 21 38 71 39 22 40 23 41 24 42 65 43 25 44 70 45 64 46
REMARK SMILES IDX 66 47 26 48 69 49 63 50 62 51 27 53 53 54 36 55 52 56 37 57
REMARK SMILES IDX 40 58 51 59 67 60 38 61 39 62 50 64 68 65 41 66 28 67 29 68
REMARK SMILES IDX 34 69 30 70 31 71 33 72 35 73 32 74 54 75 55 76 60 77 56 78
REMARK SMILES IDX 57 79 59 80 61 81 58 82 42 83 43 84 48 85 44 86 45 87 47 88
REMARK SMILES IDX 49 89 46 90
REMARK H PARENT 9 7 84 26 84 27 16 33 66 52 40 63
REMARK Flexibility Score: inf
ROOT
ATOM      1  C   UNL     1      -1.238  -4.713   8.328  1.00  0.00     0.002 C 
ENDROOT
BRANCH   1   2
ATOM      2  C   UNL     1      -0.433  -4.027   7.223  1.00  0.00     0.021 C 
BRANCH   2   3
ATOM      3  C   UNL     1      -1.071  -4.013   5.838  1.00  0.00     0.116 C 
BRANCH   3   4
ATOM      4  N   UNL     1      -2.330  -3.293   5.765  1.00  0.00    -0.352 N 
ATOM      5  C   UNL     1      -2.901  -2.607   4.718  1.00  0.00     0.254 C 
ATOM      6  O   UNL     1      -3.999  -2.079   4.890  1.00  0.00    -0.269 OA
ATOM      7  H   UNL     1      -2.858  -3.296   6.596  1.00  0.00     0.163 HD
BRANCH   5   8
ATOM      8  C   UNL     1      -2.198  -2.384   3.433  1.00  0.00     0.078 A 
ATOM      9  C   UNL     1      -0.568  -1.654   1.221  1.00  0.00     0.076 A 
ATOM     10  C   UNL     1      -1.573  -0.796   1.708  1.00  0.00     0.030 A 
ATOM     11  C   UNL     1      -0.525  -2.942   1.780  1.00  0.00     0.182 A 
ATOM     12  C   UNL     1      -2.359  -1.140   2.813  1.00  0.00     0.019 A 
ATOM     13  C   UNL     1      -1.362  -3.313   2.831  1.00  0.00     0.173 A 
ATOM     14  F   UNL     1       0.414  -3.828   1.409  1.00  0.00    -0.201 F 
ATOM     15  F   UNL     1      -1.295  -4.580   3.266  1.00  0.00    -0.203 F 
BRANCH   9  16
ATOM     16  N   UNL     1       0.382  -1.162   0.317  1.00  0.00    -0.369 N 
ATOM     17  C   UNL     1       0.970   0.119   0.705  1.00  0.00     0.144 C 
BRANCH  16  18
ATOM     18  C   UNL     1       0.951  -2.017  -0.761  1.00  0.00     0.093 C 
ATOM     19  C   UNL     1       0.195  -1.864  -2.098  1.00  0.00     0.090 C 
ATOM     20  C   UNL     1       2.484  -1.941  -0.910  1.00  0.00     0.090 C 
ATOM     21  C   UNL     1       0.951  -1.079  -3.176  1.00  0.00     0.184 C 
ATOM     22  C   UNL     1       2.986  -1.134  -2.118  1.00  0.00     0.184 C 
ATOM     23  C   UNL     1       1.209   0.368  -2.777  1.00  0.00     0.071 C 
ATOM     24  N   UNL     1       2.310  -1.615  -3.327  1.00  0.00    -0.341 N 
ATOM     25  C   UNL     1       2.601   0.341  -2.148  1.00  0.00     0.071 C 
ATOM     26  H   UNL     1       2.757  -1.251  -4.168  1.00  0.00     0.346 HD
ATOM     27  H   UNL     1       2.335  -2.630  -3.426  1.00  0.00     0.346 HD
ENDBRANCH  16  18
ENDBRANCH   9  16
ENDBRANCH   5   8
ENDBRANCH   3   4
ENDBRANCH   2   3
ENDBRANCH   1   2
BRANCH   1  28
ATOM     28  C   UNL     1      -1.715  -6.138   8.039  1.00  0.00     0.002 C 
BRANCH  28  29
ATOM     29  C   UNL     1      -0.643  -7.135   7.593  1.00  0.00     0.021 C 
BRANCH  29  30
ATOM     30  C   UNL     1       0.581  -7.237   8.497  1.00  0.00     0.116 C 
BRANCH  30  31
ATOM     31  N   UNL     1       0.245  -7.627   9.856  1.00  0.00    -0.352 N 
ATOM     32  C   UNL     1       0.734  -8.657  10.620  1.00  0.00     0.251 C 
ATOM     33  H   UNL     1      -0.436  -7.067  10.295  1.00  0.00     0.163 HD
ATOM     34  O   UNL     1       0.213  -8.927  11.696  1.00  0.00    -0.269 OA
BRANCH  32  35
ATOM     35  C   UNL     1       1.875  -9.463  10.133  1.00  0.00     0.039 A 
ATOM     36  C   UNL     1       1.808 -10.854  10.243  1.00  0.00     0.014 A 
ATOM     37  C   UNL     1       3.004  -8.856   9.576  1.00  0.00     0.014 A 
ATOM     38  C   UNL     1       2.842 -11.639   9.730  1.00  0.00     0.010 A 
ATOM     39  C   UNL     1       3.999  -9.641   8.999  1.00  0.00     0.010 A 
ATOM     40  C   UNL     1       3.926 -11.041   9.066  1.00  0.00    -0.014 A 
BRANCH  40  41
ATOM     41  C   UNL     1       4.973 -11.867   8.411  1.00  0.00     0.031 A 
ATOM     42  C   UNL     1       6.398 -11.809   8.882  1.00  0.00     0.074 A 
ATOM     43  C   UNL     1       4.646 -12.621   7.344  1.00  0.00     0.049 A 
ATOM     44  N   UNL     1       7.453 -12.414   8.399  1.00  0.00    -0.248 NA
ATOM     45  C   UNL     1       6.681 -10.936  10.031  1.00  0.00     0.031 C 
ATOM     46  C   UNL     1       3.307 -12.723   6.760  1.00  0.00     0.029 A 
ATOM     47  N   UNL     1       5.416 -13.437   6.553  1.00  0.00    -0.354 N 
ATOM     48  C   UNL     1       8.523 -11.989   9.175  1.00  0.00     0.074 A 
ATOM     49  C   UNL     1       7.999 -11.033  10.127  1.00  0.00     0.031 C 
ATOM     50  C   UNL     1       3.345 -13.569   5.719  1.00  0.00     0.029 A 
ATOM     51  C   UNL     1       4.715 -14.035   5.533  1.00  0.00     0.049 A 
ATOM     52  H   UNL     1       6.378 -13.580   6.702  1.00  0.00     0.167 HD
ATOM     53  C   UNL     1       9.820 -12.375   9.114  1.00  0.00     0.037 A 
ATOM     54  C   UNL     1       5.131 -14.856   4.550  1.00  0.00     0.037 A 
ATOM     55  C   UNL     1      10.334 -13.335   8.171  1.00  0.00     0.049 A 
ATOM     56  C   UNL     1       6.579 -15.253   4.489  1.00  0.00     0.074 A 
ATOM     57  C   UNL     1      11.617 -13.844   8.073  1.00  0.00     0.029 A 
ATOM     58  N   UNL     1       9.594 -13.921   7.155  1.00  0.00    -0.354 N 
ATOM     59  N   UNL     1       7.565 -14.907   5.281  1.00  0.00    -0.248 NA
ATOM     60  C   UNL     1       6.973 -16.156   3.399  1.00  0.00     0.031 C 
ATOM     61  C   UNL     1      11.669 -14.690   6.960  1.00  0.00     0.029 A 
ATOM     62  C   UNL     1      10.402 -14.757   6.401  1.00  0.00     0.049 A 
ATOM     63  H   UNL     1       8.635 -13.766   6.993  1.00  0.00     0.167 HD
ATOM     64  C   UNL     1       8.689 -15.564   4.800  1.00  0.00     0.074 A 
ATOM     65  C   UNL     1       8.259 -16.346   3.659  1.00  0.00     0.031 C 
ATOM     66  C   UNL     1       9.963 -15.523   5.261  1.00  0.00     0.037 A 
BRANCH  53  67
ATOM     67  C   UNL     1      10.777 -11.748  10.088  1.00  0.00     0.057 A 
ATOM     68  C   UNL     1      10.721 -12.016  11.463  1.00  0.00     0.134 A 
ATOM     69  C   UNL     1      11.788 -10.886   9.643  1.00  0.00     0.134 A 
ATOM     70  F   UNL     1       9.773 -12.825  11.959  1.00  0.00    -0.206 F 
ATOM     71  C   UNL     1      11.612 -11.425  12.361  1.00  0.00     0.040 A 
ATOM     72  C   UNL     1      12.704 -10.314  10.527  1.00  0.00     0.040 A 
ATOM     73  F   UNL     1      11.908 -10.591   8.339  1.00  0.00    -0.206 F 
ATOM     74  C   UNL     1      12.612 -10.576  11.892  1.00  0.00     0.006 A 
ENDBRANCH  53  67
BRANCH  54  75
ATOM     75  C   UNL     1       4.157 -15.363   3.550  1.00  0.00     0.057 A 
ATOM     76  C   UNL     1       3.781 -16.711   3.524  1.00  0.00     0.134 A 
ATOM     77  C   UNL     1       3.571 -14.512   2.604  1.00  0.00     0.134 A 
ATOM     78  F   UNL     1       4.321 -17.578   4.393  1.00  0.00    -0.206 F 
ATOM     79  C   UNL     1       2.871 -17.198   2.585  1.00  0.00     0.040 A 
ATOM     80  C   UNL     1       2.639 -14.980   1.677  1.00  0.00     0.040 A 
ATOM     81  F   UNL     1       3.883 -13.208   2.581  1.00  0.00    -0.206 F 
ATOM     82  C   UNL     1       2.292 -16.330   1.662  1.00  0.00     0.006 A 
ENDBRANCH  54  75
BRANCH  66  83
ATOM     83  C   UNL     1      10.982 -16.361   4.543  1.00  0.00     0.057 A 
ATOM     84  C   UNL     1      11.435 -16.034   3.258  1.00  0.00     0.134 A 
ATOM     85  C   UNL     1      11.547 -17.485   5.160  1.00  0.00     0.134 A 
ATOM     86  F   UNL     1      10.926 -14.978   2.605  1.00  0.00    -0.206 F 
ATOM     87  C   UNL     1      12.396 -16.808   2.604  1.00  0.00     0.040 A 
ATOM     88  C   UNL     1      12.530 -18.249   4.529  1.00  0.00     0.040 A 
ATOM     89  F   UNL     1      11.165 -17.849   6.393  1.00  0.00    -0.206 F 
ATOM     90  C   UNL     1      12.952 -17.915   3.244  1.00  0.00     0.006 A 
ENDBRANCH  66  83
ENDBRANCH  40  41
ENDBRANCH  32  35
ENDBRANCH  30  31
ENDBRANCH  29  30
ENDBRANCH  28  29
ENDBRANCH   1  28
TORSDOF 15
