REMARK SMILES O=C(NCCCCCCNC(=O)c1ccc(N2C(=O)C[C@H]([NH+]3CCN(c4ccc(F)cc4)CC3)C2=O)cc1)c1ccc(-c2c3nc(c(-c4c(F)cccc4F)c4ccc([nH]4)c(-c4c(F)cccc4F)c4nc(c(-c5c(F)cccc5F)c5ccc2[nH]5)C=C4)C=C3)cc1
REMARK SMILES IDX 7 1 6 2 5 3 4 4 3 5 1 6 2 7 39 9 40 10 92 11 41 12 91 13
REMARK SMILES IDX 42 14 43 15 44 16 85 17 45 18 90 19 84 20 86 21 46 22 89 23
REMARK SMILES IDX 83 24 82 25 47 27 73 28 56 29 72 30 57 31 60 32 71 33 87 34
REMARK SMILES IDX 58 35 59 36 70 38 88 39 61 40 48 41 49 42 54 43 50 44 51 45
REMARK SMILES IDX 53 46 55 47 52 48 74 49 75 50 80 51 76 52 77 53 79 54 81 55
REMARK SMILES IDX 78 56 62 57 63 58 68 59 64 60 65 61 67 62 69 63 66 64 8 65
REMARK SMILES IDX 9 66 10 67 11 68 12 70 13 71 14 72 38 73 15 74 37 75 16 76
REMARK SMILES IDX 17 77 18 78 35 79 19 80 20 81 21 82 36 83 22 84 23 85 34 86
REMARK SMILES IDX 24 88 33 89 25 90 26 91 27 92 32 93 28 94 31 95 29 96 30 97
REMARK H PARENT 3 8 86 26 60 37 10 69 22 87
REMARK Flexibility Score: inf
ROOT
ATOM      1  C   UNL     1       4.731   1.893   3.980  1.00  0.00     0.002 C 
ENDROOT
BRANCH   1   2
ATOM      2  C   UNL     1       4.178   2.708   2.806  1.00  0.00     0.002 C 
BRANCH   2   3
ATOM      3  C   UNL     1       4.654   2.255   1.426  1.00  0.00     0.021 C 
BRANCH   3   4
ATOM      4  C   UNL     1       4.382   0.790   1.117  1.00  0.00     0.116 C 
BRANCH   4   5
ATOM      5  N   UNL     1       2.960   0.497   1.055  1.00  0.00    -0.352 N 
ATOM      6  O   UNL     1       1.019  -0.083   0.056  1.00  0.00    -0.269 OA
ATOM      7  C   UNL     1       2.245  -0.071   0.031  1.00  0.00     0.251 C 
ATOM      8  H   UNL     1       2.440   0.739   1.855  1.00  0.00     0.163 HD
BRANCH   7   9
ATOM      9  C   UNL     1       2.968  -0.662  -1.114  1.00  0.00     0.039 A 
ATOM     10  C   UNL     1       4.068  -1.498  -0.899  1.00  0.00     0.014 A 
ATOM     11  C   UNL     1       2.529  -0.391  -2.412  1.00  0.00     0.014 A 
ATOM     12  C   UNL     1       4.795  -1.976  -1.981  1.00  0.00     0.010 A 
ATOM     13  C   UNL     1       3.210  -0.942  -3.499  1.00  0.00     0.010 A 
ATOM     14  C   UNL     1       4.352  -1.733  -3.291  1.00  0.00    -0.014 A 
BRANCH  14  15
ATOM     15  C   UNL     1       5.018  -2.421  -4.423  1.00  0.00     0.031 A 
ATOM     16  C   UNL     1       5.745  -1.654  -5.487  1.00  0.00     0.074 A 
ATOM     17  C   UNL     1       4.932  -3.765  -4.484  1.00  0.00     0.049 A 
ATOM     18  N   UNL     1       6.334  -2.106  -6.565  1.00  0.00    -0.248 NA
ATOM     19  C   UNL     1       5.818  -0.194  -5.330  1.00  0.00     0.031 C 
ATOM     20  C   UNL     1       4.232  -4.609  -3.510  1.00  0.00     0.029 A 
ATOM     21  N   UNL     1       5.425  -4.658  -5.399  1.00  0.00    -0.354 N 
ATOM     22  C   UNL     1       6.827  -0.990  -7.227  1.00  0.00     0.074 A 
ATOM     23  C   UNL     1       6.458   0.166  -6.436  1.00  0.00     0.031 C 
ATOM     24  C   UNL     1       4.356  -5.893  -3.869  1.00  0.00     0.029 A 
ATOM     25  C   UNL     1       5.079  -5.960  -5.132  1.00  0.00     0.049 A 
ATOM     26  H   UNL     1       5.973  -4.392  -6.173  1.00  0.00     0.167 HD
ATOM     27  C   UNL     1       7.522  -0.943  -8.389  1.00  0.00     0.037 A 
ATOM     28  C   UNL     1       5.282  -7.083  -5.845  1.00  0.00     0.037 A 
ATOM     29  C   UNL     1       7.895  -2.105  -9.155  1.00  0.00     0.049 A 
ATOM     30  C   UNL     1       6.019  -6.989  -7.149  1.00  0.00     0.074 A 
ATOM     31  C   UNL     1       8.666  -2.165 -10.303  1.00  0.00     0.029 A 
ATOM     32  N   UNL     1       7.511  -3.405  -8.864  1.00  0.00    -0.354 N 
ATOM     33  N   UNL     1       6.545  -5.935  -7.724  1.00  0.00    -0.248 NA
ATOM     34  C   UNL     1       6.182  -8.235  -7.908  1.00  0.00     0.031 C 
ATOM     35  C   UNL     1       8.693  -3.492 -10.743  1.00  0.00     0.029 A 
ATOM     36  C   UNL     1       7.988  -4.268  -9.837  1.00  0.00     0.049 A 
ATOM     37  H   UNL     1       6.978  -3.675  -8.081  1.00  0.00     0.167 HD
ATOM     38  C   UNL     1       7.112  -6.392  -8.905  1.00  0.00     0.074 A 
ATOM     39  C   UNL     1       6.889  -7.822  -8.950  1.00  0.00     0.031 C 
ATOM     40  C   UNL     1       7.755  -5.689  -9.868  1.00  0.00     0.037 A 
BRANCH  27  41
ATOM     41  C   UNL     1       7.910   0.403  -8.930  1.00  0.00     0.057 A 
ATOM     42  C   UNL     1       8.926   1.173  -8.351  1.00  0.00     0.134 A 
ATOM     43  C   UNL     1       7.317   0.891 -10.103  1.00  0.00     0.134 A 
ATOM     44  F   UNL     1       9.530   0.768  -7.225  1.00  0.00    -0.206 F 
ATOM     45  C   UNL     1       9.332   2.385  -8.915  1.00  0.00     0.040 A 
ATOM     46  C   UNL     1       7.731   2.088 -10.688  1.00  0.00     0.040 A 
ATOM     47  F   UNL     1       6.344   0.197 -10.713  1.00  0.00    -0.206 F 
ATOM     48  C   UNL     1       8.741   2.840 -10.093  1.00  0.00     0.006 A 
ENDBRANCH  27  41
BRANCH  28  49
ATOM     49  C   UNL     1       4.739  -8.377  -5.362  1.00  0.00     0.057 A 
ATOM     50  C   UNL     1       5.584  -9.418  -4.963  1.00  0.00     0.134 A 
ATOM     51  C   UNL     1       3.358  -8.608  -5.300  1.00  0.00     0.134 A 
ATOM     52  F   UNL     1       6.916  -9.264  -5.015  1.00  0.00    -0.206 F 
ATOM     53  C   UNL     1       5.078 -10.648  -4.542  1.00  0.00     0.040 A 
ATOM     54  C   UNL     1       2.838  -9.821  -4.850  1.00  0.00     0.040 A 
ATOM     55  F   UNL     1       2.494  -7.647  -5.660  1.00  0.00    -0.206 F 
ATOM     56  C   UNL     1       3.700 -10.850  -4.480  1.00  0.00     0.006 A 
ENDBRANCH  28  49
BRANCH  40  57
ATOM     57  C   UNL     1       8.274  -6.460 -11.044  1.00  0.00     0.057 A 
ATOM     58  C   UNL     1       7.415  -6.977 -12.022  1.00  0.00     0.134 A 
ATOM     59  C   UNL     1       9.650  -6.648 -11.225  1.00  0.00     0.134 A 
ATOM     60  F   UNL     1       6.086  -6.846 -11.898  1.00  0.00    -0.206 F 
ATOM     61  C   UNL     1       7.906  -7.669 -13.130  1.00  0.00     0.040 A 
ATOM     62  C   UNL     1      10.155  -7.313 -12.343  1.00  0.00     0.040 A 
ATOM     63  F   UNL     1      10.527  -6.172 -10.327  1.00  0.00    -0.206 F 
ATOM     64  C   UNL     1       9.281  -7.829 -13.297  1.00  0.00     0.006 A 
ENDBRANCH  40  57
ENDBRANCH  14  15
ENDBRANCH   7   9
ENDBRANCH   4   5
ENDBRANCH   3   4
ENDBRANCH   2   3
ENDBRANCH   1   2
BRANCH   1  65
ATOM     65  C   UNL     1       6.258   1.785   4.037  1.00  0.00     0.021 C 
BRANCH  65  66
ATOM     66  C   UNL     1       6.990   3.125   4.034  1.00  0.00     0.116 C 
BRANCH  66  67
ATOM     67  N   UNL     1       6.622   3.933   5.183  1.00  0.00    -0.352 N 
ATOM     68  C   UNL     1       7.429   4.427   6.172  1.00  0.00     0.251 C 
ATOM     69  H   UNL     1       5.666   4.156   5.260  1.00  0.00     0.163 HD
ATOM     70  O   UNL     1       6.957   4.919   7.190  1.00  0.00    -0.269 OA
BRANCH  68  71
ATOM     71  C   UNL     1       8.889   4.358   5.996  1.00  0.00     0.039 A 
ATOM     72  C   UNL     1       9.655   3.666   6.931  1.00  0.00     0.016 A 
ATOM     73  C   UNL     1       9.493   4.996   4.910  1.00  0.00     0.016 A 
ATOM     74  C   UNL     1      11.036   3.567   6.749  1.00  0.00     0.027 A 
ATOM     75  C   UNL     1      10.876   4.924   4.755  1.00  0.00     0.027 A 
ATOM     76  C   UNL     1      11.663   4.204   5.667  1.00  0.00     0.052 A 
BRANCH  76  77
ATOM     77  N   UNL     1      13.069   4.155   5.522  1.00  0.00    -0.245 N 
ATOM     78  C   UNL     1      13.823   5.211   5.066  1.00  0.00     0.240 C 
ATOM     79  C   UNL     1      13.846   3.054   5.817  1.00  0.00     0.292 C 
ATOM     80  O   UNL     1      13.454   6.290   4.634  1.00  0.00    -0.274 OA
ATOM     81  C   UNL     1      15.266   4.880   5.276  1.00  0.00     0.176 C 
ATOM     82  C   UNL     1      15.284   3.369   5.400  1.00  0.00     0.284 C 
ATOM     83  O   UNL     1      13.478   1.970   6.255  1.00  0.00    -0.267 OA
BRANCH  82  84
ATOM     84  N   UNL     1      15.696   2.553   4.240  1.00  0.00    -0.321 N 
ATOM     85  C   UNL     1      14.944   2.713   2.980  1.00  0.00     0.284 C 
ATOM     86  C   UNL     1      17.145   2.598   3.957  1.00  0.00     0.284 C 
ATOM     87  H   UNL     1      15.438   1.630   4.588  1.00  0.00     0.348 HD
ATOM     88  C   UNL     1      15.330   3.920   2.095  1.00  0.00     0.178 C 
ATOM     89  C   UNL     1      17.647   3.782   3.098  1.00  0.00     0.178 C 
ATOM     90  N   UNL     1      16.781   4.001   1.935  1.00  0.00    -0.360 N 
BRANCH  90  91
ATOM     91  C   UNL     1      17.303   4.627   0.818  1.00  0.00     0.037 A 
ATOM     92  C   UNL     1      16.817   5.854   0.345  1.00  0.00     0.029 A 
ATOM     93  C   UNL     1      18.317   3.989   0.088  1.00  0.00     0.029 A 
ATOM     94  C   UNL     1      17.319   6.418  -0.832  1.00  0.00     0.041 A 
ATOM     95  C   UNL     1      18.808   4.537  -1.097  1.00  0.00     0.041 A 
ATOM     96  C   UNL     1      18.302   5.747  -1.547  1.00  0.00     0.123 A 
ATOM     97  F   UNL     1      18.762   6.269  -2.691  1.00  0.00    -0.207 F 
ENDBRANCH  90  91
ENDBRANCH  82  84
ENDBRANCH  76  77
ENDBRANCH  68  71
ENDBRANCH  66  67
ENDBRANCH  65  66
ENDBRANCH   1  65
TORSDOF 16
