REMARK SMILES O=C(NCCCCCCNC(=O)[C@H](NC(=O)[C@H]1CC[C@@H](CNC(=O)[C@@H]2Cc3ccccc3C[NH2+]2)CC1)c1ccccc1)c1ccc(-c2c3nc(c(-c4c(F)cccc4F)c4ccc([nH]4)c(-c4c(F)cccc4F)c4nc(c(-c5c(F)cccc5F)c5ccc2[nH]5)C=C4)C=C3)cc1
REMARK SMILES IDX 8 1 7 2 6 3 5 4 4 5 3 6 1 7 2 8 43 10 44 11 96 12 45 13
REMARK SMILES IDX 95 14 46 15 47 16 48 17 89 18 49 19 94 20 88 21 90 22 50 23
REMARK SMILES IDX 93 24 87 25 86 26 51 28 77 29 60 30 76 31 61 32 64 33 75 34
REMARK SMILES IDX 91 35 62 36 63 37 74 39 92 40 65 41 52 42 53 43 58 44 54 45
REMARK SMILES IDX 55 46 57 47 59 48 56 49 78 50 79 51 84 52 80 53 81 54 83 55
REMARK SMILES IDX 85 56 82 57 66 58 67 59 72 60 68 61 69 62 71 63 73 64 70 65
REMARK SMILES IDX 9 66 10 67 11 68 12 70 13 71 37 72 38 73 42 74 39 75 41 76
REMARK SMILES IDX 40 77 14 78 15 79 16 81 17 82 36 83 18 84 35 85 19 86 20 87
REMARK SMILES IDX 21 88 22 89 23 90 24 92 25 93 26 94 34 95 27 96 33 97 28 100
REMARK SMILES IDX 32 101 29 102 31 103 30 104
REMARK H PARENT 3 9 90 27 64 38 10 69 14 80 22 91 34 98 34 99
REMARK Flexibility Score: inf
ROOT
ATOM      1  C   UNL     1       9.901  -3.919   1.016  1.00  0.00     0.021 C 
ENDROOT
BRANCH   1   2
ATOM      2  C   UNL     1      10.943  -3.096   1.782  1.00  0.00     0.002 C 
BRANCH   2   3
ATOM      3  C   UNL     1      12.078  -2.495   0.948  1.00  0.00     0.002 C 
BRANCH   3   4
ATOM      4  C   UNL     1      11.651  -1.667  -0.263  1.00  0.00     0.021 C 
BRANCH   4   5
ATOM      5  C   UNL     1      10.637  -0.565   0.021  1.00  0.00     0.116 C 
BRANCH   5   6
ATOM      6  N   UNL     1      11.147   0.464   0.911  1.00  0.00    -0.352 N 
ATOM      7  O   UNL     1      11.755   2.545   1.542  1.00  0.00    -0.269 OA
ATOM      8  C   UNL     1      11.165   1.827   0.740  1.00  0.00     0.251 C 
ATOM      9  H   UNL     1      11.534   0.139   1.755  1.00  0.00     0.163 HD
BRANCH   8  10
ATOM     10  C   UNL     1      10.492   2.430  -0.431  1.00  0.00     0.039 A 
ATOM     11  C   UNL     1       9.208   2.025  -0.805  1.00  0.00     0.014 A 
ATOM     12  C   UNL     1      11.154   3.422  -1.161  1.00  0.00     0.014 A 
ATOM     13  C   UNL     1       8.644   2.510  -1.980  1.00  0.00     0.010 A 
ATOM     14  C   UNL     1      10.549   3.972  -2.295  1.00  0.00     0.010 A 
ATOM     15  C   UNL     1       9.299   3.503  -2.728  1.00  0.00    -0.014 A 
BRANCH  15  16
ATOM     16  C   UNL     1       8.621   4.087  -3.912  1.00  0.00     0.031 A 
ATOM     17  C   UNL     1       9.182   3.919  -5.296  1.00  0.00     0.074 A 
ATOM     18  C   UNL     1       7.472   4.765  -3.725  1.00  0.00     0.049 A 
ATOM     19  N   UNL     1       8.709   4.363  -6.434  1.00  0.00    -0.248 NA
ATOM     20  C   UNL     1      10.436   3.161  -5.424  1.00  0.00     0.031 C 
ATOM     21  C   UNL     1       6.840   5.005  -2.425  1.00  0.00     0.029 A 
ATOM     22  N   UNL     1       6.626   5.366  -4.620  1.00  0.00    -0.354 N 
ATOM     23  C   UNL     1       9.611   3.955  -7.409  1.00  0.00     0.074 A 
ATOM     24  C   UNL     1      10.674   3.247  -6.726  1.00  0.00     0.031 C 
ATOM     25  C   UNL     1       5.689   5.667  -2.610  1.00  0.00     0.029 A 
ATOM     26  C   UNL     1       5.533   5.954  -4.031  1.00  0.00     0.049 A 
ATOM     27  H   UNL     1       6.787   5.376  -5.591  1.00  0.00     0.167 HD
ATOM     28  C   UNL     1       9.552   4.149  -8.748  1.00  0.00     0.037 A 
ATOM     29  C   UNL     1       4.526   6.665  -4.569  1.00  0.00     0.037 A 
ATOM     30  C   UNL     1       8.486   4.848  -9.421  1.00  0.00     0.049 A 
ATOM     31  C   UNL     1       4.504   6.888  -6.053  1.00  0.00     0.074 A 
ATOM     32  C   UNL     1       8.319   5.064 -10.779  1.00  0.00     0.029 A 
ATOM     33  N   UNL     1       7.409   5.449  -8.787  1.00  0.00    -0.354 N 
ATOM     34  N   UNL     1       5.344   6.461  -6.964  1.00  0.00    -0.248 NA
ATOM     35  C   UNL     1       3.398   7.696  -6.582  1.00  0.00     0.031 C 
ATOM     36  C   UNL     1       7.167   5.837 -10.962  1.00  0.00     0.029 A 
ATOM     37  C   UNL     1       6.587   6.057  -9.724  1.00  0.00     0.049 A 
ATOM     38  H   UNL     1       7.251   5.445  -7.816  1.00  0.00     0.167 HD
ATOM     39  C   UNL     1       4.857   6.929  -8.176  1.00  0.00     0.074 A 
ATOM     40  C   UNL     1       3.638   7.656  -7.885  1.00  0.00     0.031 C 
ATOM     41  C   UNL     1       5.375   6.773  -9.419  1.00  0.00     0.037 A 
BRANCH  28  42
ATOM     42  C   UNL     1      10.680   3.614  -9.584  1.00  0.00     0.057 A 
ATOM     43  C   UNL     1      10.841   2.243  -9.820  1.00  0.00     0.134 A 
ATOM     44  C   UNL     1      11.578   4.486 -10.213  1.00  0.00     0.134 A 
ATOM     45  F   UNL     1      10.021   1.352  -9.242  1.00  0.00    -0.206 F 
ATOM     46  C   UNL     1      11.863   1.757 -10.639  1.00  0.00     0.040 A 
ATOM     47  C   UNL     1      12.590   4.015 -11.052  1.00  0.00     0.040 A 
ATOM     48  F   UNL     1      11.476   5.812 -10.037  1.00  0.00    -0.206 F 
ATOM     49  C   UNL     1      12.736   2.646 -11.264  1.00  0.00     0.006 A 
ENDBRANCH  28  42
BRANCH  29  50
ATOM     50  C   UNL     1       3.465   7.223  -3.695  1.00  0.00     0.057 A 
ATOM     51  C   UNL     1       2.154   6.738  -3.745  1.00  0.00     0.134 A 
ATOM     52  C   UNL     1       3.739   8.252  -2.785  1.00  0.00     0.134 A 
ATOM     53  F   UNL     1       1.827   5.764  -4.606  1.00  0.00    -0.206 F 
ATOM     54  C   UNL     1       1.148   7.269  -2.936  1.00  0.00     0.040 A 
ATOM     55  C   UNL     1       2.751   8.772  -1.950  1.00  0.00     0.040 A 
ATOM     56  F   UNL     1       4.979   8.753  -2.682  1.00  0.00    -0.206 F 
ATOM     57  C   UNL     1       1.448   8.285  -2.030  1.00  0.00     0.006 A 
ENDBRANCH  29  50
BRANCH  41  58
ATOM     58  C   UNL     1       4.603   7.371 -10.558  1.00  0.00     0.057 A 
ATOM     59  C   UNL     1       4.551   8.754 -10.771  1.00  0.00     0.134 A 
ATOM     60  C   UNL     1       3.922   6.549 -11.465  1.00  0.00     0.134 A 
ATOM     61  F   UNL     1       5.168   9.596  -9.928  1.00  0.00    -0.206 F 
ATOM     62  C   UNL     1       3.829   9.300 -11.833  1.00  0.00     0.040 A 
ATOM     63  C   UNL     1       3.219   7.082 -12.546  1.00  0.00     0.040 A 
ATOM     64  F   UNL     1       3.937   5.215 -11.321  1.00  0.00    -0.206 F 
ATOM     65  C   UNL     1       3.166   8.462 -12.728  1.00  0.00     0.006 A 
ENDBRANCH  41  58
ENDBRANCH  15  16
ENDBRANCH   8  10
ENDBRANCH   5   6
ENDBRANCH   4   5
ENDBRANCH   3   4
ENDBRANCH   2   3
ENDBRANCH   1   2
BRANCH   1  66
ATOM     66  C   UNL     1      10.434  -5.121   0.244  1.00  0.00     0.116 C 
BRANCH  66  67
ATOM     67  N   UNL     1      11.047  -6.115   1.101  1.00  0.00    -0.354 N 
ATOM     68  C   UNL     1      11.144  -7.467   0.931  1.00  0.00     0.247 C 
ATOM     69  H   UNL     1      11.453  -5.765   1.927  1.00  0.00     0.163 HD
ATOM     70  O   UNL     1      11.847  -8.073   1.750  1.00  0.00    -0.272 OA
BRANCH  68  71
ATOM     71  C   UNL     1      10.362  -8.226  -0.191  1.00  0.00     0.202 C 
BRANCH  71  72
ATOM     72  C   UNL     1      10.591  -7.643  -1.575  1.00  0.00    -0.016 A 
ATOM     73  C   UNL     1      11.892  -7.449  -2.070  1.00  0.00     0.006 A 
ATOM     74  C   UNL     1       9.502  -7.245  -2.369  1.00  0.00     0.006 A 
ATOM     75  C   UNL     1      12.098  -6.828  -3.301  1.00  0.00     0.000 A 
ATOM     76  C   UNL     1       9.712  -6.620  -3.599  1.00  0.00     0.000 A 
ATOM     77  C   UNL     1      11.009  -6.404  -4.060  1.00  0.00     0.000 A 
ENDBRANCH  71  72
BRANCH  71  78
ATOM     78  N   UNL     1      10.832  -9.612  -0.173  1.00  0.00    -0.340 N 
ATOM     79  C   UNL     1      10.204 -10.804  -0.275  1.00  0.00     0.224 C 
ATOM     80  H   UNL     1      11.807  -9.693  -0.064  1.00  0.00     0.164 HD
ATOM     81  O   UNL     1      10.908 -11.817  -0.255  1.00  0.00    -0.275 OA
BRANCH  79  82
ATOM     82  C   UNL     1       8.691 -10.895  -0.450  1.00  0.00     0.078 C 
ATOM     83  C   UNL     1       8.357 -10.956  -1.947  1.00  0.00     0.014 C 
ATOM     84  C   UNL     1       8.184 -12.136   0.314  1.00  0.00     0.014 C 
ATOM     85  C   UNL     1       6.905 -11.354  -2.221  1.00  0.00     0.006 C 
ATOM     86  C   UNL     1       6.741 -12.505  -0.016  1.00  0.00     0.006 C 
ATOM     87  C   UNL     1       6.506 -12.666  -1.526  1.00  0.00     0.008 C 
BRANCH  87  88
ATOM     88  C   UNL     1       7.251 -13.870  -2.142  1.00  0.00     0.119 C 
BRANCH  88  89
ATOM     89  N   UNL     1       6.795 -15.137  -1.596  1.00  0.00    -0.351 N 
ATOM     90  C   UNL     1       6.248 -16.223  -2.211  1.00  0.00     0.278 C 
ATOM     91  H   UNL     1       6.899 -15.226  -0.621  1.00  0.00     0.163 HD
ATOM     92  O   UNL     1       6.071 -17.241  -1.533  1.00  0.00    -0.268 OA
BRANCH  90  93
ATOM     93  C   UNL     1       5.902 -16.203  -3.709  1.00  0.00     0.277 C 
ATOM     94  C   UNL     1       4.396 -16.480  -3.867  1.00  0.00     0.111 C 
ATOM     95  N   UNL     1       6.814 -17.143  -4.419  1.00  0.00    -0.332 N 
ATOM     96  C   UNL     1       4.080 -16.568  -5.336  1.00  0.00    -0.033 A 
ATOM     97  C   UNL     1       6.158 -17.950  -5.456  1.00  0.00     0.298 C 
ATOM     98  H   UNL     1       7.220 -17.776  -3.730  1.00  0.00     0.347 HD
ATOM     99  H   UNL     1       7.514 -16.571  -4.891  1.00  0.00     0.347 HD
ATOM    100  C   UNL     1       2.941 -15.993  -5.902  1.00  0.00     0.004 A 
ATOM    101  C   UNL     1       4.998 -17.268  -6.138  1.00  0.00     0.010 A 
ATOM    102  C   UNL     1       2.725 -16.101  -7.275  1.00  0.00     0.000 A 
ATOM    103  C   UNL     1       4.766 -17.383  -7.511  1.00  0.00     0.010 A 
ATOM    104  C   UNL     1       3.635 -16.791  -8.078  1.00  0.00     0.001 A 
ENDBRANCH  90  93
ENDBRANCH  88  89
ENDBRANCH  87  88
ENDBRANCH  79  82
ENDBRANCH  71  78
ENDBRANCH  68  71
ENDBRANCH  66  67
ENDBRANCH   1  66
TORSDOF 19
