REMARK SMILES CN(CCOCC1CC1)C(=O)N1CC[C@H](C(=O)NCCCCCCNC(=O)c2ccc(-c3c4nc(c(-c5c(F)cccc5F)c5ccc([nH]5)c(-c5c(F)cccc5F)c5nc(c(-c6c(F)cccc6F)c6ccc3[nH]6)C=C5)C=C4)cc2)C1
REMARK SMILES IDX 19 1 18 2 16 3 17 4 15 6 12 7 13 8 82 9 14 10 10 11 11 12
REMARK SMILES IDX 2 13 1 14 3 15 4 16 5 17 6 18 7 19 8 20 9 21 20 22 21 23
REMARK SMILES IDX 22 24 23 25 24 26 25 27 26 28 27 30 28 31 29 32 81 33 30 34
REMARK SMILES IDX 80 35 31 36 32 37 33 38 74 39 34 40 79 41 73 42 75 43 35 44
REMARK SMILES IDX 78 45 72 46 71 47 36 49 62 50 45 51 61 52 46 53 49 54 60 55
REMARK SMILES IDX 76 56 47 57 48 58 59 60 77 61 50 62 37 63 38 64 43 65 39 66
REMARK SMILES IDX 40 67 42 68 44 69 41 70 63 71 64 72 69 73 65 74 66 75 68 76
REMARK SMILES IDX 70 77 67 78 51 79 52 80 57 81 53 82 54 83 56 84 58 85 55 86
REMARK H PARENT 18 5 25 29 75 48 49 59
REMARK Flexibility Score: inf
ROOT
ATOM      1  C   UNL     1       2.086   3.474   4.558  1.00  0.00     0.116 C 
ENDROOT
BRANCH   1   2
ATOM      2  N   UNL     1       2.265   3.353   5.990  1.00  0.00    -0.356 N 
ATOM      3  C   UNL     1       1.797   2.424   6.867  1.00  0.00     0.224 C 
ATOM      4  O   UNL     1       2.132   2.534   8.049  1.00  0.00    -0.275 OA
ATOM      5  H   UNL     1       2.817   4.060   6.397  1.00  0.00     0.163 HD
BRANCH   3   6
ATOM      6  C   UNL     1       0.872   1.295   6.442  1.00  0.00     0.100 C 
ATOM      7  N   UNL     1       0.660   0.616   4.171  1.00  0.00    -0.324 N 
ATOM      8  C   UNL     1      -0.678   0.981   4.624  1.00  0.00     0.122 C 
ATOM      9  C   UNL     1       1.478   0.404   5.363  1.00  0.00     0.134 C 
ATOM     10  C   UNL     1      -0.463   1.791   5.892  1.00  0.00     0.037 C 
BRANCH   7  11
ATOM     11  C   UNL     1       1.242   0.364   2.951  1.00  0.00     0.319 C 
ATOM     12  O   UNL     1       2.351  -0.186   2.933  1.00  0.00    -0.248 OA
BRANCH  11  13
ATOM     13  N   UNL     1       0.640   0.703   1.757  1.00  0.00    -0.325 N 
ATOM     14  C   UNL     1       1.263   0.196   0.533  1.00  0.00     0.148 C 
BRANCH  13  15
ATOM     15  C   UNL     1      -0.565   1.497   1.527  1.00  0.00     0.149 C 
BRANCH  15  16
ATOM     16  C   UNL     1      -1.826   0.673   1.204  1.00  0.00     0.181 C 
BRANCH  16  17
ATOM     17  O   UNL     1      -2.396  -0.057   2.288  1.00  0.00    -0.379 OA
BRANCH  17  18
ATOM     18  C   UNL     1      -1.758  -1.287   2.625  1.00  0.00     0.163 C 
BRANCH  18  19
ATOM     19  C   UNL     1      -2.049  -2.386   1.660  1.00  0.00     0.015 C 
ATOM     20  C   UNL     1      -0.927  -3.116   0.959  1.00  0.00     0.006 C 
ATOM     21  C   UNL     1      -1.670  -3.788   2.075  1.00  0.00     0.006 C 
ENDBRANCH  18  19
ENDBRANCH  17  18
ENDBRANCH  16  17
ENDBRANCH  15  16
ENDBRANCH  13  15
ENDBRANCH  11  13
ENDBRANCH   7  11
ENDBRANCH   3   6
ENDBRANCH   1   2
BRANCH   1  22
ATOM     22  C   UNL     1       1.513   4.821   4.145  1.00  0.00     0.021 C 
BRANCH  22  23
ATOM     23  C   UNL     1       2.467   5.990   4.368  1.00  0.00     0.002 C 
BRANCH  23  24
ATOM     24  C   UNL     1       3.842   5.817   3.718  1.00  0.00     0.002 C 
BRANCH  24  25
ATOM     25  C   UNL     1       3.812   5.525   2.215  1.00  0.00     0.021 C 
BRANCH  25  26
ATOM     26  C   UNL     1       3.071   6.570   1.390  1.00  0.00     0.116 C 
BRANCH  26  27
ATOM     27  N   UNL     1       3.658   7.892   1.540  1.00  0.00    -0.352 N 
ATOM     28  C   UNL     1       4.149   8.732   0.576  1.00  0.00     0.251 C 
ATOM     29  H   UNL     1       3.709   8.231   2.463  1.00  0.00     0.163 HD
ATOM     30  O   UNL     1       4.816   9.717   0.882  1.00  0.00    -0.269 OA
BRANCH  28  31
ATOM     31  C   UNL     1       3.878   8.432  -0.842  1.00  0.00     0.039 A 
ATOM     32  C   UNL     1       4.927   8.472  -1.762  1.00  0.00     0.014 A 
ATOM     33  C   UNL     1       2.586   8.090  -1.250  1.00  0.00     0.014 A 
ATOM     34  C   UNL     1       4.691   8.106  -3.087  1.00  0.00     0.010 A 
ATOM     35  C   UNL     1       2.370   7.653  -2.550  1.00  0.00     0.010 A 
ATOM     36  C   UNL     1       3.420   7.658  -3.482  1.00  0.00    -0.014 A 
BRANCH  36  37
ATOM     37  C   UNL     1       3.154   7.189  -4.863  1.00  0.00     0.031 A 
ATOM     38  C   UNL     1       2.162   7.922  -5.722  1.00  0.00     0.074 A 
ATOM     39  C   UNL     1       3.734   6.058  -5.309  1.00  0.00     0.049 A 
ATOM     40  N   UNL     1       1.691   7.601  -6.899  1.00  0.00    -0.248 NA
ATOM     41  C   UNL     1       1.603   9.166  -5.168  1.00  0.00     0.031 C 
ATOM     42  C   UNL     1       4.689   5.242  -4.557  1.00  0.00     0.029 A 
ATOM     43  N   UNL     1       3.589   5.388  -6.498  1.00  0.00    -0.354 N 
ATOM     44  C   UNL     1       0.772   8.592  -7.219  1.00  0.00     0.074 A 
ATOM     45  C   UNL     1       0.711   9.494  -6.090  1.00  0.00     0.031 C 
ATOM     46  C   UNL     1       5.055   4.190  -5.307  1.00  0.00     0.029 A 
ATOM     47  C   UNL     1       4.324   4.229  -6.570  1.00  0.00     0.049 A 
ATOM     48  H   UNL     1       3.012   5.707  -7.229  1.00  0.00     0.167 HD
ATOM     49  C   UNL     1       0.060   8.746  -8.360  1.00  0.00     0.037 A 
ATOM     50  C   UNL     1       4.385   3.293  -7.537  1.00  0.00     0.037 A 
ATOM     51  C   UNL     1       0.141   7.854  -9.486  1.00  0.00     0.049 A 
ATOM     52  C   UNL     1       3.556   3.468  -8.780  1.00  0.00     0.074 A 
ATOM     53  C   UNL     1      -0.501   7.951 -10.708  1.00  0.00     0.029 A 
ATOM     54  N   UNL     1       0.907   6.699  -9.525  1.00  0.00    -0.354 N 
ATOM     55  N   UNL     1       2.733   4.439  -9.094  1.00  0.00    -0.248 NA
ATOM     56  C   UNL     1       3.663   2.418  -9.803  1.00  0.00     0.031 C 
ATOM     57  C   UNL     1      -0.167   6.825 -11.465  1.00  0.00     0.029 A 
ATOM     58  C   UNL     1       0.732   6.059 -10.740  1.00  0.00     0.049 A 
ATOM     59  H   UNL     1       1.490   6.382  -8.797  1.00  0.00     0.167 HD
ATOM     60  C   UNL     1       2.255   4.138 -10.363  1.00  0.00     0.074 A 
ATOM     61  C   UNL     1       2.882   2.896 -10.762  1.00  0.00     0.031 C 
ATOM     62  C   UNL     1       1.378   4.831 -11.130  1.00  0.00     0.037 A 
BRANCH  49  63
ATOM     63  C   UNL     1      -0.872   9.921  -8.444  1.00  0.00     0.057 A 
ATOM     64  C   UNL     1      -0.400  11.238  -8.522  1.00  0.00     0.134 A 
ATOM     65  C   UNL     1      -2.259   9.730  -8.486  1.00  0.00     0.134 A 
ATOM     66  F   UNL     1       0.917  11.492  -8.476  1.00  0.00    -0.206 F 
ATOM     67  C   UNL     1      -1.273  12.323  -8.608  1.00  0.00     0.040 A 
ATOM     68  C   UNL     1      -3.142  10.805  -8.604  1.00  0.00     0.040 A 
ATOM     69  F   UNL     1      -2.780   8.495  -8.422  1.00  0.00    -0.206 F 
ATOM     70  C   UNL     1      -2.649  12.107  -8.658  1.00  0.00     0.006 A 
ENDBRANCH  49  63
BRANCH  50  71
ATOM     71  C   UNL     1       5.269   2.110  -7.373  1.00  0.00     0.057 A 
ATOM     72  C   UNL     1       6.403   1.940  -8.175  1.00  0.00     0.134 A 
ATOM     73  C   UNL     1       4.997   1.117  -6.423  1.00  0.00     0.134 A 
ATOM     74  F   UNL     1       6.707   2.848  -9.115  1.00  0.00    -0.206 F 
ATOM     75  C   UNL     1       7.224   0.817  -8.055  1.00  0.00     0.040 A 
ATOM     76  C   UNL     1       5.825   0.003  -6.272  1.00  0.00     0.040 A 
ATOM     77  F   UNL     1       3.930   1.223  -5.617  1.00  0.00    -0.206 F 
ATOM     78  C   UNL     1       6.937  -0.153  -7.097  1.00  0.00     0.006 A 
ENDBRANCH  50  71
BRANCH  62  79
ATOM     79  C   UNL     1       1.078   4.296 -12.500  1.00  0.00     0.057 A 
ATOM     80  C   UNL     1       0.287   3.158 -12.697  1.00  0.00     0.134 A 
ATOM     81  C   UNL     1       1.526   4.979 -13.639  1.00  0.00     0.134 A 
ATOM     82  F   UNL     1      -0.163   2.453 -11.648  1.00  0.00    -0.206 F 
ATOM     83  C   UNL     1      -0.038   2.710 -13.978  1.00  0.00     0.040 A 
ATOM     84  C   UNL     1       1.184   4.558 -14.924  1.00  0.00     0.040 A 
ATOM     85  F   UNL     1       2.280   6.082 -13.520  1.00  0.00    -0.206 F 
ATOM     86  C   UNL     1       0.402   3.418 -15.096  1.00  0.00     0.006 A 
ENDBRANCH  62  79
ENDBRANCH  36  37
ENDBRANCH  28  31
ENDBRANCH  26  27
ENDBRANCH  25  26
ENDBRANCH  24  25
ENDBRANCH  23  24
ENDBRANCH  22  23
ENDBRANCH   1  22
TORSDOF 20
