REMARK SMILES COC(=O)[C@H]1CCN(S(=O)(=O)N2CCC[C@H](C(=O)NCCCCCCNC(=O)c3ccc(-c4c5nc(c(-c6c(F)cccc6F)c6ccc([nH]6)c(-c6c(F)cccc6F)c6nc(c(-c7c(F)cccc7F)c7ccc4[nH]7)C=C6)C=C5)cc3)C2)C1
REMARK SMILES IDX 21 1 20 2 19 3 17 4 18 5 16 7 12 8 13 9 83 10 14 11 15 12
REMARK SMILES IDX 9 13 10 14 11 15 8 16 5 17 6 18 84 19 7 20 3 21 4 22 2 23
REMARK SMILES IDX 1 24 22 25 23 26 24 27 25 28 26 29 27 30 28 32 29 33 30 34
REMARK SMILES IDX 82 35 31 36 81 37 32 38 33 39 34 40 75 41 35 42 80 43 74 44
REMARK SMILES IDX 76 45 36 46 79 47 73 48 72 49 37 51 63 52 46 53 62 54 47 55
REMARK SMILES IDX 50 56 61 57 77 58 48 59 49 60 60 62 78 63 51 64 38 65 39 66
REMARK SMILES IDX 44 67 40 68 41 69 43 70 45 71 42 72 64 73 65 74 70 75 66 76
REMARK SMILES IDX 67 77 69 78 71 79 68 80 52 81 53 82 58 83 54 84 55 85 57 86
REMARK SMILES IDX 59 87 56 88
REMARK H PARENT 19 6 26 31 76 50 50 61
REMARK Flexibility Score: inf
ROOT
ATOM      1  C   UNL     1      -4.671   9.061   1.103  1.00  0.00     0.021 C 
ENDROOT
BRANCH   1   2
ATOM      2  C   UNL     1      -4.484   7.756   1.869  1.00  0.00     0.116 C 
BRANCH   2   3
ATOM      3  N   UNL     1      -5.722   7.027   1.992  1.00  0.00    -0.356 N 
ATOM      4  C   UNL     1      -6.112   5.832   1.492  1.00  0.00     0.224 C 
ATOM      5  O   UNL     1      -7.252   5.458   1.796  1.00  0.00    -0.275 OA
ATOM      6  H   UNL     1      -6.406   7.480   2.536  1.00  0.00     0.163 HD
BRANCH   4   7
ATOM      7  C   UNL     1      -5.251   4.939   0.598  1.00  0.00     0.094 C 
ATOM      8  N   UNL     1      -2.812   5.145   1.072  1.00  0.00    -0.188 NA
ATOM      9  C   UNL     1      -2.465   5.450  -0.326  1.00  0.00     0.103 C 
ATOM     10  C   UNL     1      -4.029   4.340   1.275  1.00  0.00     0.117 C 
ATOM     11  C   UNL     1      -3.641   6.109  -1.050  1.00  0.00     0.018 C 
ATOM     12  C   UNL     1      -4.984   5.423  -0.826  1.00  0.00     0.016 C 
BRANCH   8  13
ATOM     13  S   UNL     1      -1.579   5.072   2.206  1.00  0.00     0.282 S 
ATOM     14  O   UNL     1      -2.135   4.714   3.486  1.00  0.00    -0.195 OA
ATOM     15  O   UNL     1      -0.780   6.269   2.055  1.00  0.00    -0.195 OA
BRANCH  13  16
ATOM     16  N   UNL     1      -0.632   3.775   1.663  1.00  0.00    -0.188 NA
ATOM     17  C   UNL     1       0.671   2.212   2.996  1.00  0.00     0.116 C 
ATOM     18  C   UNL     1      -0.767   1.742   2.892  1.00  0.00     0.033 C 
ATOM     19  C   UNL     1       0.653   3.632   2.440  1.00  0.00     0.118 C 
ATOM     20  C   UNL     1      -1.245   2.428   1.635  1.00  0.00     0.104 C 
BRANCH  17  21
ATOM     21  C   UNL     1       1.163   2.197   4.420  1.00  0.00     0.310 C 
ATOM     22  O   UNL     1       0.459   2.334   5.410  1.00  0.00    -0.252 OA
BRANCH  21  23
ATOM     23  O   UNL     1       2.511   2.009   4.445  1.00  0.00    -0.469 OA
ATOM     24  C   UNL     1       3.049   1.942   5.768  1.00  0.00     0.282 C 
ENDBRANCH  21  23
ENDBRANCH  17  21
ENDBRANCH  13  16
ENDBRANCH   8  13
ENDBRANCH   4   7
ENDBRANCH   2   3
ENDBRANCH   1   2
BRANCH   1  25
ATOM     25  C   UNL     1      -5.037  10.243   1.999  1.00  0.00     0.002 C 
BRANCH  25  26
ATOM     26  C   UNL     1      -4.001  10.565   3.084  1.00  0.00     0.002 C 
BRANCH  26  27
ATOM     27  C   UNL     1      -2.567  10.756   2.578  1.00  0.00     0.021 C 
BRANCH  27  28
ATOM     28  C   UNL     1      -2.418  11.829   1.504  1.00  0.00     0.116 C 
BRANCH  28  29
ATOM     29  N   UNL     1      -2.920  13.117   1.959  1.00  0.00    -0.352 N 
ATOM     30  C   UNL     1      -2.262  14.310   2.097  1.00  0.00     0.251 C 
ATOM     31  H   UNL     1      -3.874  13.133   2.203  1.00  0.00     0.163 HD
ATOM     32  O   UNL     1      -2.770  15.228   2.732  1.00  0.00    -0.269 OA
BRANCH  30  33
ATOM     33  C   UNL     1      -0.934  14.486   1.478  1.00  0.00     0.039 A 
ATOM     34  C   UNL     1       0.076  15.116   2.207  1.00  0.00     0.014 A 
ATOM     35  C   UNL     1      -0.697  14.046   0.172  1.00  0.00     0.014 A 
ATOM     36  C   UNL     1       1.343  15.259   1.642  1.00  0.00     0.010 A 
ATOM     37  C   UNL     1       0.586  14.121  -0.359  1.00  0.00     0.010 A 
ATOM     38  C   UNL     1       1.617  14.735   0.367  1.00  0.00    -0.014 A 
BRANCH  38  39
ATOM     39  C   UNL     1       2.974  14.829  -0.226  1.00  0.00     0.031 A 
ATOM     40  C   UNL     1       3.193  15.622  -1.485  1.00  0.00     0.074 A 
ATOM     41  C   UNL     1       3.996  14.162   0.346  1.00  0.00     0.049 A 
ATOM     42  N   UNL     1       4.285  15.764  -2.192  1.00  0.00    -0.248 NA
ATOM     43  C   UNL     1       2.026  16.332  -2.036  1.00  0.00     0.031 C 
ATOM     44  C   UNL     1       3.901  13.331   1.548  1.00  0.00     0.029 A 
ATOM     45  N   UNL     1       5.318  14.073  -0.014  1.00  0.00    -0.354 N 
ATOM     46  C   UNL     1       3.939  16.579  -3.262  1.00  0.00     0.074 A 
ATOM     47  C   UNL     1       2.522  16.845  -3.152  1.00  0.00     0.031 C 
ATOM     48  C   UNL     1       5.115  12.837   1.839  1.00  0.00     0.029 A 
ATOM     49  C   UNL     1       6.064  13.276   0.822  1.00  0.00     0.049 A 
ATOM     50  H   UNL     1       5.696  14.535  -0.796  1.00  0.00     0.167 HD
ATOM     51  C   UNL     1       4.736  17.086  -4.231  1.00  0.00     0.037 A 
ATOM     52  C   UNL     1       7.363  12.930   0.764  1.00  0.00     0.037 A 
ATOM     53  C   UNL     1       6.149  16.828  -4.333  1.00  0.00     0.049 A 
ATOM     54  C   UNL     1       8.213  13.470  -0.356  1.00  0.00     0.074 A 
ATOM     55  C   UNL     1       7.048  17.310  -5.268  1.00  0.00     0.029 A 
ATOM     56  N   UNL     1       6.868  16.021  -3.465  1.00  0.00    -0.354 N 
ATOM     57  N   UNL     1       7.882  14.281  -1.331  1.00  0.00    -0.248 NA
ATOM     58  C   UNL     1       9.621  13.049  -0.380  1.00  0.00     0.031 C 
ATOM     59  C   UNL     1       8.302  16.760  -4.992  1.00  0.00     0.029 A 
ATOM     60  C   UNL     1       8.197  15.980  -3.852  1.00  0.00     0.049 A 
ATOM     61  H   UNL     1       6.490  15.547  -2.689  1.00  0.00     0.167 HD
ATOM     62  C   UNL     1       9.046  14.499  -2.056  1.00  0.00     0.074 A 
ATOM     63  C   UNL     1      10.095  13.749  -1.399  1.00  0.00     0.031 C 
ATOM     64  C   UNL     1       9.233  15.250  -3.169  1.00  0.00     0.037 A 
BRANCH  51  65
ATOM     65  C   UNL     1       4.108  17.992  -5.250  1.00  0.00     0.057 A 
ATOM     66  C   UNL     1       3.675  19.282  -4.915  1.00  0.00     0.134 A 
ATOM     67  C   UNL     1       3.994  17.601  -6.590  1.00  0.00     0.134 A 
ATOM     68  F   UNL     1       3.745  19.714  -3.646  1.00  0.00    -0.206 F 
ATOM     69  C   UNL     1       3.140  20.145  -5.872  1.00  0.00     0.040 A 
ATOM     70  C   UNL     1       3.487  18.466  -7.562  1.00  0.00     0.040 A 
ATOM     71  F   UNL     1       4.395  16.382  -6.981  1.00  0.00    -0.206 F 
ATOM     72  C   UNL     1       3.056  19.741  -7.203  1.00  0.00     0.006 A 
ENDBRANCH  51  65
BRANCH  52  73
ATOM     73  C   UNL     1       7.956  12.027   1.786  1.00  0.00     0.057 A 
ATOM     74  C   UNL     1       8.954  12.478   2.659  1.00  0.00     0.134 A 
ATOM     75  C   UNL     1       7.587  10.680   1.874  1.00  0.00     0.134 A 
ATOM     76  F   UNL     1       9.364  13.755   2.614  1.00  0.00    -0.206 F 
ATOM     77  C   UNL     1       9.595  11.614   3.549  1.00  0.00     0.040 A 
ATOM     78  C   UNL     1       8.196   9.812   2.783  1.00  0.00     0.040 A 
ATOM     79  F   UNL     1       6.632  10.183   1.074  1.00  0.00    -0.206 F 
ATOM     80  C   UNL     1       9.215  10.276   3.612  1.00  0.00     0.006 A 
ENDBRANCH  52  73
BRANCH  64  81
ATOM     81  C   UNL     1      10.630  15.347  -3.709  1.00  0.00     0.057 A 
ATOM     82  C   UNL     1      11.265  14.264  -4.330  1.00  0.00     0.134 A 
ATOM     83  C   UNL     1      11.336  16.555  -3.636  1.00  0.00     0.134 A 
ATOM     84  F   UNL     1      10.649  13.075  -4.421  1.00  0.00    -0.206 F 
ATOM     85  C   UNL     1      12.563  14.370  -4.832  1.00  0.00     0.040 A 
ATOM     86  C   UNL     1      12.621  16.683  -4.163  1.00  0.00     0.040 A 
ATOM     87  F   UNL     1      10.783  17.635  -3.064  1.00  0.00    -0.206 F 
ATOM     88  C   UNL     1      13.242  15.585  -4.756  1.00  0.00     0.006 A 
ENDBRANCH  64  81
ENDBRANCH  38  39
ENDBRANCH  30  33
ENDBRANCH  28  29
ENDBRANCH  27  28
ENDBRANCH  26  27
ENDBRANCH  25  26
ENDBRANCH   1  25
TORSDOF 17
