REMARK SMILES CC(C)c1ccc(NC(=O)C(=O)N/N=C/c2ccccc2C(=O)NCCCCCCNC(=O)c2ccc(-c3c4nc(c(-c5c(F)cccc5F)c5ccc([nH]5)c(-c5c(F)cccc5F)c5nc(c(-c6c(F)cccc6F)c6ccc3[nH]6)C=C5)C=C4)cc2)cc1
REMARK SMILES IDX 26 1 25 2 24 3 22 4 23 5 21 7 16 8 17 9 18 10 20 11 19 12
REMARK SMILES IDX 15 13 14 14 13 15 11 16 12 17 9 19 8 20 10 22 7 23 4 24 5 25
REMARK SMILES IDX 89 26 6 27 88 28 2 29 1 30 3 31 27 32 28 33 29 34 30 35
REMARK SMILES IDX 31 36 32 37 33 39 34 40 35 41 87 42 36 43 86 44 37 45 38 46
REMARK SMILES IDX 39 47 80 48 40 49 85 50 79 51 81 52 41 53 84 54 78 55 77 56
REMARK SMILES IDX 42 58 68 59 51 60 67 61 52 62 55 63 66 64 82 65 53 66 54 67
REMARK SMILES IDX 65 69 83 70 56 71 43 72 44 73 49 74 45 75 46 76 48 77 50 78
REMARK SMILES IDX 47 79 69 80 70 81 75 82 71 83 72 84 74 85 76 86 73 87 57 88
REMARK SMILES IDX 58 89 63 90 59 91 60 92 62 93 64 94 61 95
REMARK H PARENT 24 6 13 18 8 21 31 38 81 57 55 68
REMARK Flexibility Score: inf
ROOT
ATOM      1  C   UNL     1      -5.857   4.939  -0.962  1.00  0.00     0.021 C 
ENDROOT
BRANCH   1   2
ATOM      2  C   UNL     1      -6.922   5.259   0.087  1.00  0.00     0.116 C 
BRANCH   2   3
ATOM      3  N   UNL     1      -8.170   5.749  -0.441  1.00  0.00    -0.352 N 
ATOM      4  C   UNL     1      -9.509   5.538  -0.229  1.00  0.00     0.251 C 
ATOM      5  O   UNL     1     -10.205   6.355  -0.854  1.00  0.00    -0.269 OA
ATOM      6  H   UNL     1      -8.021   6.418  -1.148  1.00  0.00     0.163 HD
BRANCH   4   7
ATOM      7  C   UNL     1     -10.248   4.511   0.606  1.00  0.00     0.048 A 
ATOM      8  C   UNL     1      -9.817   3.532   1.517  1.00  0.00     0.007 A 
ATOM      9  C   UNL     1     -10.728   2.718   2.230  1.00  0.00     0.010 A 
ATOM     10  C   UNL     1     -12.099   2.835   2.032  1.00  0.00     0.001 A 
ATOM     11  C   UNL     1     -11.660   4.585   0.436  1.00  0.00     0.014 A 
ATOM     12  C   UNL     1     -12.567   3.766   1.122  1.00  0.00     0.001 A 
BRANCH   8  13
ATOM     13  C   UNL     1      -8.430   3.167   1.777  1.00  0.00     0.142 C 
ATOM     14  N   UNL     1      -7.832   3.567   2.850  1.00  0.00    -0.180 NA
BRANCH  14  15
ATOM     15  N   UNL     1      -6.491   3.358   3.009  1.00  0.00    -0.239 N 
ATOM     16  C   UNL     1      -5.581   2.490   2.418  1.00  0.00     0.329 C 
ATOM     17  O   UNL     1      -4.403   2.830   2.371  1.00  0.00    -0.262 OA
ATOM     18  H   UNL     1      -6.084   3.947   3.686  1.00  0.00     0.194 HD
BRANCH  16  19
ATOM     19  C   UNL     1      -6.024   1.061   2.017  1.00  0.00     0.315 C 
ATOM     20  N   UNL     1      -5.105   0.122   1.587  1.00  0.00    -0.318 N 
ATOM     21  H   UNL     1      -5.426  -0.803   1.689  1.00  0.00     0.170 HD
ATOM     22  O   UNL     1      -7.171   0.680   2.244  1.00  0.00    -0.263 OA
BRANCH  20  23
ATOM     23  C   UNL     1      -3.814   0.194   1.037  1.00  0.00     0.041 A 
ATOM     24  C   UNL     1      -1.165   0.142  -0.006  1.00  0.00    -0.045 A 
ATOM     25  C   UNL     1      -2.025   1.221  -0.254  1.00  0.00     0.006 A 
ATOM     26  C   UNL     1      -1.682  -0.938   0.726  1.00  0.00     0.006 A 
ATOM     27  C   UNL     1      -3.332   1.250   0.269  1.00  0.00     0.026 A 
ATOM     28  C   UNL     1      -2.992  -0.922   1.216  1.00  0.00     0.026 A 
BRANCH  24  29
ATOM     29  C   UNL     1       0.303   0.113  -0.410  1.00  0.00     0.013 C 
ATOM     30  C   UNL     1       0.623  -1.019  -1.391  1.00  0.00     0.012 C 
ATOM     31  C   UNL     1       0.889   1.421  -0.953  1.00  0.00     0.012 C 
ENDBRANCH  24  29
ENDBRANCH  20  23
ENDBRANCH  16  19
ENDBRANCH  14  15
ENDBRANCH   8  13
ENDBRANCH   4   7
ENDBRANCH   2   3
ENDBRANCH   1   2
BRANCH   1  32
ATOM     32  C   UNL     1      -4.797   5.995  -1.278  1.00  0.00     0.002 C 
BRANCH  32  33
ATOM     33  C   UNL     1      -4.215   6.835  -0.136  1.00  0.00     0.002 C 
BRANCH  33  34
ATOM     34  C   UNL     1      -3.738   6.132   1.140  1.00  0.00     0.021 C 
BRANCH  34  35
ATOM     35  C   UNL     1      -2.594   5.122   1.030  1.00  0.00     0.116 C 
BRANCH  35  36
ATOM     36  N   UNL     1      -1.322   5.713   0.667  1.00  0.00    -0.352 N 
ATOM     37  C   UNL     1      -0.021   5.405   0.990  1.00  0.00     0.251 C 
ATOM     38  H   UNL     1      -1.405   6.492   0.070  1.00  0.00     0.163 HD
ATOM     39  O   UNL     1       0.847   6.152   0.530  1.00  0.00    -0.269 OA
BRANCH  37  40
ATOM     40  C   UNL     1       0.420   4.247   1.838  1.00  0.00     0.039 A 
ATOM     41  C   UNL     1       1.755   4.257   2.293  1.00  0.00     0.014 A 
ATOM     42  C   UNL     1      -0.354   3.127   2.145  1.00  0.00     0.014 A 
ATOM     43  C   UNL     1       2.291   3.194   3.038  1.00  0.00     0.010 A 
ATOM     44  C   UNL     1       0.176   2.061   2.891  1.00  0.00     0.010 A 
ATOM     45  C   UNL     1       1.501   2.083   3.345  1.00  0.00    -0.014 A 
BRANCH  45  46
ATOM     46  C   UNL     1       1.988   0.995   4.230  1.00  0.00     0.031 A 
ATOM     47  C   UNL     1       2.615  -0.254   3.684  1.00  0.00     0.074 A 
ATOM     48  C   UNL     1       1.751   1.102   5.549  1.00  0.00     0.049 A 
ATOM     49  N   UNL     1       2.921  -1.368   4.304  1.00  0.00    -0.248 NA
ATOM     50  C   UNL     1       2.908  -0.269   2.248  1.00  0.00     0.031 C 
ATOM     51  C   UNL     1       1.123   2.254   6.196  1.00  0.00     0.029 A 
ATOM     52  N   UNL     1       1.980   0.221   6.574  1.00  0.00    -0.354 N 
ATOM     53  C   UNL     1       3.385  -2.237   3.324  1.00  0.00     0.074 A 
ATOM     54  C   UNL     1       3.313  -1.521   2.066  1.00  0.00     0.031 C 
ATOM     55  C   UNL     1       0.988   1.998   7.506  1.00  0.00     0.029 A 
ATOM     56  C   UNL     1       1.517   0.665   7.786  1.00  0.00     0.049 A 
ATOM     57  H   UNL     1       2.433  -0.645   6.452  1.00  0.00     0.167 HD
ATOM     58  C   UNL     1       3.836  -3.509   3.468  1.00  0.00     0.037 A 
ATOM     59  C   UNL     1       1.515   0.068   8.991  1.00  0.00     0.037 A 
ATOM     60  C   UNL     1       3.995  -4.175   4.739  1.00  0.00     0.049 A 
ATOM     61  C   UNL     1       2.136  -1.287   9.145  1.00  0.00     0.074 A 
ATOM     62  C   UNL     1       4.557  -5.415   5.000  1.00  0.00     0.029 A 
ATOM     63  N   UNL     1       3.611  -3.650   5.963  1.00  0.00    -0.354 N 
ATOM     64  N   UNL     1       2.609  -2.085   8.220  1.00  0.00    -0.248 NA
ATOM     65  C   UNL     1       2.252  -1.811  10.513  1.00  0.00     0.031 C 
ATOM     66  C   UNL     1       4.496  -5.647   6.379  1.00  0.00     0.029 A 
ATOM     67  C   UNL     1       3.927  -4.537   6.981  1.00  0.00     0.049 A 
ATOM     68  H   UNL     1       3.177  -2.775   6.092  1.00  0.00     0.167 HD
ATOM     69  C   UNL     1       3.105  -3.192   8.892  1.00  0.00     0.074 A 
ATOM     70  C   UNL     1       2.879  -2.961  10.305  1.00  0.00     0.031 C 
ATOM     71  C   UNL     1       3.700  -4.297   8.382  1.00  0.00     0.037 A 
BRANCH  58  72
ATOM     72  C   UNL     1       4.211  -4.278   2.232  1.00  0.00     0.057 A 
ATOM     73  C   UNL     1       5.359  -3.982   1.487  1.00  0.00     0.134 A 
ATOM     74  C   UNL     1       3.460  -5.395   1.836  1.00  0.00     0.134 A 
ATOM     75  F   UNL     1       6.124  -2.928   1.808  1.00  0.00    -0.206 F 
ATOM     76  C   UNL     1       5.738  -4.755   0.386  1.00  0.00     0.040 A 
ATOM     77  C   UNL     1       3.843  -6.191   0.754  1.00  0.00     0.040 A 
ATOM     78  F   UNL     1       2.355  -5.747   2.511  1.00  0.00    -0.206 F 
ATOM     79  C   UNL     1       4.984  -5.870   0.023  1.00  0.00     0.006 A 
ENDBRANCH  58  72
BRANCH  59  80
ATOM     80  C   UNL     1       0.961   0.799  10.153  1.00  0.00     0.057 A 
ATOM     81  C   UNL     1       1.810   1.433  11.066  1.00  0.00     0.134 A 
ATOM     82  C   UNL     1      -0.418   0.940  10.337  1.00  0.00     0.134 A 
ATOM     83  F   UNL     1       3.140   1.320  10.940  1.00  0.00    -0.206 F 
ATOM     84  C   UNL     1       1.306   2.183  12.128  1.00  0.00     0.040 A 
ATOM     85  C   UNL     1      -0.936   1.701  11.386  1.00  0.00     0.040 A 
ATOM     86  F   UNL     1      -1.278   0.366   9.484  1.00  0.00    -0.206 F 
ATOM     87  C   UNL     1      -0.071   2.325  12.285  1.00  0.00     0.006 A 
ENDBRANCH  59  80
BRANCH  71  88
ATOM     88  C   UNL     1       4.178  -5.325   9.363  1.00  0.00     0.057 A 
ATOM     89  C   UNL     1       3.291  -6.187  10.019  1.00  0.00     0.134 A 
ATOM     90  C   UNL     1       5.543  -5.460   9.643  1.00  0.00     0.134 A 
ATOM     91  F   UNL     1       1.971  -6.098   9.802  1.00  0.00    -0.206 F 
ATOM     92  C   UNL     1       3.745  -7.134  10.939  1.00  0.00     0.040 A 
ATOM     93  C   UNL     1       6.010  -6.416  10.546  1.00  0.00     0.040 A 
ATOM     94  F   UNL     1       6.444  -4.667   9.043  1.00  0.00    -0.206 F 
ATOM     95  C   UNL     1       5.109  -7.252  11.202  1.00  0.00     0.006 A 
ENDBRANCH  71  88
ENDBRANCH  45  46
ENDBRANCH  37  40
ENDBRANCH  35  36
ENDBRANCH  34  35
ENDBRANCH  33  34
ENDBRANCH  32  33
ENDBRANCH   1  32
TORSDOF 18
