REMARK SMILES CN1C(=O)C[C@@H](C(=O)NCCCCCCNC(=O)c2ccc(-c3c4nc(c(-c5c(F)cccc5F)c5ccc([nH]5)c(-c5c(F)cccc5F)c5nc(c(-c6c(F)cccc6F)c6ccc3[nH]6)C=C5)C=C4)cc2)C12CCN(C(=O)c1cccc3ccccc13)CC2
REMARK SMILES IDX 13 1 12 2 11 3 10 4 9 5 7 6 8 7 6 9 1 10 2 11 3 12 73 13
REMARK SMILES IDX 4 14 5 15 74 16 90 17 75 18 89 19 76 20 77 21 78 22 79 23
REMARK SMILES IDX 80 24 88 25 81 26 83 27 87 28 82 29 84 30 86 31 85 32 14 33
REMARK SMILES IDX 15 34 16 35 17 36 18 38 19 39 20 40 72 41 21 42 71 43 22 44
REMARK SMILES IDX 23 45 24 46 65 47 25 48 70 49 64 50 66 51 26 52 69 53 63 54
REMARK SMILES IDX 62 55 27 57 53 58 36 59 52 60 37 61 40 62 51 63 67 64 38 65
REMARK SMILES IDX 39 66 50 68 68 69 41 70 28 71 29 72 34 73 30 74 31 75 33 76
REMARK SMILES IDX 35 77 32 78 54 79 55 80 60 81 56 82 57 83 59 84 61 85 58 86
REMARK SMILES IDX 42 87 43 88 48 89 44 90 45 91 47 92 49 93 46 94
REMARK H PARENT 9 8 16 37 66 56 40 67
REMARK Flexibility Score: inf
ROOT
ATOM      1  C   UNL     1      -5.330   0.472   0.632  1.00  0.00     0.002 C 
ENDROOT
BRANCH   1   2
ATOM      2  C   UNL     1      -4.505  -0.807   0.747  1.00  0.00     0.002 C 
BRANCH   2   3
ATOM      3  C   UNL     1      -2.998  -0.589   0.641  1.00  0.00     0.021 C 
BRANCH   3   4
ATOM      4  C   UNL     1      -2.405   0.319   1.726  1.00  0.00     0.116 C 
BRANCH   4   5
ATOM      5  N   UNL     1      -2.382  -0.290   3.044  1.00  0.00    -0.356 N 
ATOM      6  C   UNL     1      -1.385  -0.581   3.917  1.00  0.00     0.226 C 
ATOM      7  O   UNL     1      -1.737  -1.080   4.993  1.00  0.00    -0.275 OA
ATOM      8  H   UNL     1      -3.274  -0.544   3.372  1.00  0.00     0.163 HD
BRANCH   6   9
ATOM      9  C   UNL     1       0.114  -0.367   3.666  1.00  0.00     0.113 C 
ATOM     10  C   UNL     1       1.258  -0.123   0.096  1.00  0.00     0.147 C 
ATOM     11  N   UNL     1       0.898   0.031   1.494  1.00  0.00    -0.339 N 
ATOM     12  C   UNL     1       0.811   1.288   2.083  1.00  0.00     0.223 C 
ATOM     13  C   UNL     1       0.769  -1.079   2.457  1.00  0.00     0.058 C 
ATOM     14  O   UNL     1       0.961   2.361   1.531  1.00  0.00    -0.275 OA
ATOM     15  C   UNL     1       0.463   1.114   3.534  1.00  0.00     0.116 C 
ATOM     16  C   UNL     1      -0.065  -2.259   1.933  1.00  0.00     0.051 C 
ATOM     17  C   UNL     1       2.191  -1.628   2.782  1.00  0.00     0.051 C 
ATOM     18  C   UNL     1      -0.110  -3.436   2.902  1.00  0.00     0.122 C 
ATOM     19  C   UNL     1       2.184  -2.945   3.573  1.00  0.00     0.122 C 
ATOM     20  N   UNL     1       1.244  -3.920   3.012  1.00  0.00    -0.338 N 
ATOM     21  C   UNL     1       1.702  -5.127   2.494  1.00  0.00     0.254 C 
ATOM     22  O   UNL     1       2.904  -5.373   2.382  1.00  0.00    -0.269 OA
BRANCH  21  23
ATOM     23  C   UNL     1       0.771  -6.252   2.183  1.00  0.00     0.047 A 
ATOM     24  C   UNL     1       0.871  -7.320   3.091  1.00  0.00     0.014 A 
ATOM     25  C   UNL     1       0.018  -6.400   0.977  1.00  0.00    -0.006 A 
ATOM     26  C   UNL     1       0.309  -8.557   2.794  1.00  0.00     0.001 A 
ATOM     27  C   UNL     1      -0.502  -7.686   0.674  1.00  0.00    -0.018 A 
ATOM     28  C   UNL     1      -0.272  -5.373   0.049  1.00  0.00     0.009 A 
ATOM     29  C   UNL     1      -0.330  -8.747   1.574  1.00  0.00     0.009 A 
ATOM     30  C   UNL     1      -1.194  -7.913  -0.528  1.00  0.00     0.009 A 
ATOM     31  C   UNL     1      -1.069  -5.585  -1.083  1.00  0.00     0.001 A 
ATOM     32  C   UNL     1      -1.500  -6.865  -1.390  1.00  0.00     0.001 A 
ENDBRANCH  21  23
ENDBRANCH   6   9
ENDBRANCH   4   5
ENDBRANCH   3   4
ENDBRANCH   2   3
ENDBRANCH   1   2
BRANCH   1  33
ATOM     33  C   UNL     1      -4.975   1.348  -0.572  1.00  0.00     0.021 C 
BRANCH  33  34
ATOM     34  C   UNL     1      -5.027   0.622  -1.911  1.00  0.00     0.116 C 
BRANCH  34  35
ATOM     35  N   UNL     1      -6.367   0.147  -2.215  1.00  0.00    -0.352 N 
ATOM     36  C   UNL     1      -7.146   0.447  -3.304  1.00  0.00     0.251 C 
ATOM     37  H   UNL     1      -6.765  -0.467  -1.557  1.00  0.00     0.163 HD
ATOM     38  O   UNL     1      -8.336   0.159  -3.329  1.00  0.00    -0.269 OA
BRANCH  36  39
ATOM     39  C   UNL     1      -6.519   1.141  -4.444  1.00  0.00     0.039 A 
ATOM     40  C   UNL     1      -7.103   2.307  -4.942  1.00  0.00     0.014 A 
ATOM     41  C   UNL     1      -5.322   0.655  -4.978  1.00  0.00     0.014 A 
ATOM     42  C   UNL     1      -6.451   3.023  -5.947  1.00  0.00     0.010 A 
ATOM     43  C   UNL     1      -4.639   1.409  -5.922  1.00  0.00     0.010 A 
ATOM     44  C   UNL     1      -5.199   2.597  -6.421  1.00  0.00    -0.014 A 
BRANCH  44  45
ATOM     45  C   UNL     1      -4.452   3.356  -7.454  1.00  0.00     0.031 A 
ATOM     46  C   UNL     1      -4.161   2.706  -8.779  1.00  0.00     0.074 A 
ATOM     47  C   UNL     1      -3.957   4.576  -7.171  1.00  0.00     0.049 A 
ATOM     48  N   UNL     1      -3.400   3.124  -9.757  1.00  0.00    -0.248 NA
ATOM     49  C   UNL     1      -4.786   1.395  -9.023  1.00  0.00     0.031 C 
ATOM     50  C   UNL     1      -4.150   5.301  -5.913  1.00  0.00     0.029 A 
ATOM     51  N   UNL     1      -3.168   5.415  -7.918  1.00  0.00    -0.354 N 
ATOM     52  C   UNL     1      -3.429   2.117 -10.713  1.00  0.00     0.074 A 
ATOM     53  C   UNL     1      -4.250   1.051 -10.184  1.00  0.00     0.031 C 
ATOM     54  C   UNL     1      -3.510   6.481  -5.982  1.00  0.00     0.029 A 
ATOM     55  C   UNL     1      -2.819   6.573  -7.265  1.00  0.00     0.049 A 
ATOM     56  H   UNL     1      -2.880   5.207  -8.836  1.00  0.00     0.167 HD
ATOM     57  C   UNL     1      -2.835   2.092 -11.928  1.00  0.00     0.037 A 
ATOM     58  C   UNL     1      -2.014   7.582  -7.650  1.00  0.00     0.037 A 
ATOM     59  C   UNL     1      -2.054   3.174 -12.464  1.00  0.00     0.049 A 
ATOM     60  C   UNL     1      -1.346   7.514  -8.998  1.00  0.00     0.074 A 
ATOM     61  C   UNL     1      -1.475   3.277 -13.716  1.00  0.00     0.029 A 
ATOM     62  N   UNL     1      -1.740   4.337 -11.778  1.00  0.00    -0.354 N 
ATOM     63  N   UNL     1      -1.438   6.587  -9.921  1.00  0.00    -0.248 NA
ATOM     64  C   UNL     1      -0.460   8.631  -9.358  1.00  0.00     0.031 C 
ATOM     65  C   UNL     1      -0.759   4.476 -13.767  1.00  0.00     0.029 A 
ATOM     66  C   UNL     1      -0.948   5.149 -12.571  1.00  0.00     0.049 A 
ATOM     67  H   UNL     1      -2.035   4.553 -10.864  1.00  0.00     0.167 HD
ATOM     68  C   UNL     1      -0.663   7.033 -10.986  1.00  0.00     0.074 A 
ATOM     69  C   UNL     1      -0.110   8.312 -10.596  1.00  0.00     0.031 C 
ATOM     70  C   UNL     1      -0.434   6.437 -12.181  1.00  0.00     0.037 A 
BRANCH  57  71
ATOM     71  C   UNL     1      -2.997   0.858 -12.766  1.00  0.00     0.057 A 
ATOM     72  C   UNL     1      -4.219   0.516 -13.358  1.00  0.00     0.134 A 
ATOM     73  C   UNL     1      -1.896   0.036 -13.036  1.00  0.00     0.134 A 
ATOM     74  F   UNL     1      -5.316   1.254 -13.131  1.00  0.00    -0.206 F 
ATOM     75  C   UNL     1      -4.344  -0.609 -14.176  1.00  0.00     0.040 A 
ATOM     76  C   UNL     1      -2.001  -1.074 -13.875  1.00  0.00     0.040 A 
ATOM     77  F   UNL     1      -0.694   0.309 -12.505  1.00  0.00    -0.206 F 
ATOM     78  C   UNL     1      -3.230  -1.401 -14.445  1.00  0.00     0.006 A 
ENDBRANCH  57  71
BRANCH  58  79
ATOM     79  C   UNL     1      -1.787   8.752  -6.761  1.00  0.00     0.057 A 
ATOM     80  C   UNL     1      -2.244  10.027  -7.117  1.00  0.00     0.134 A 
ATOM     81  C   UNL     1      -1.069   8.640  -5.564  1.00  0.00     0.134 A 
ATOM     82  F   UNL     1      -2.922  10.204  -8.261  1.00  0.00    -0.206 F 
ATOM     83  C   UNL     1      -1.967  11.151  -6.338  1.00  0.00     0.040 A 
ATOM     84  C   UNL     1      -0.810   9.750  -4.758  1.00  0.00     0.040 A 
ATOM     85  F   UNL     1      -0.608   7.447  -5.159  1.00  0.00    -0.206 F 
ATOM     86  C   UNL     1      -1.248  11.013  -5.152  1.00  0.00     0.006 A 
ENDBRANCH  58  79
BRANCH  70  87
ATOM     87  C   UNL     1       0.390   7.185 -13.187  1.00  0.00     0.057 A 
ATOM     88  C   UNL     1       1.773   7.346 -13.047  1.00  0.00     0.134 A 
ATOM     89  C   UNL     1      -0.206   7.686 -14.353  1.00  0.00     0.134 A 
ATOM     90  F   UNL     1       2.402   6.901 -11.949  1.00  0.00    -0.206 F 
ATOM     91  C   UNL     1       2.533   7.992 -14.024  1.00  0.00     0.040 A 
ATOM     92  C   UNL     1       0.548   8.305 -15.350  1.00  0.00     0.040 A 
ATOM     93  F   UNL     1      -1.526   7.555 -14.554  1.00  0.00    -0.206 F 
ATOM     94  C   UNL     1       1.922   8.463 -15.185  1.00  0.00     0.006 A 
ENDBRANCH  70  87
ENDBRANCH  44  45
ENDBRANCH  36  39
ENDBRANCH  34  35
ENDBRANCH  33  34
ENDBRANCH   1  33
TORSDOF 14
