REMARK SMILES O=C(CCC(=O)/[NH+]=C1\S[C@H]2CS(=O)(=O)C[C@@H]2N1c1ccc2c(c1)OCO2)NCCCCCCNC(=O)c1ccc(-c2c3nc(c(-c4c(F)cccc4F)c4ccc([nH]4)c(-c4c(F)cccc4F)c4nc(c(-c5c(F)cccc5F)c5ccc2[nH]5)C=C4)C=C3)cc1
REMARK SMILES IDX 30 1 29 2 28 3 27 4 2 5 1 6 3 8 4 9 5 10 6 11 7 12 8 13 9 15
REMARK SMILES IDX 17 16 10 17 16 18 11 19 15 20 12 21 13 22 14 23 18 24 19 25
REMARK SMILES IDX 23 26 20 27 22 28 21 29 24 30 26 31 25 32 31 33 32 34 33 35
REMARK SMILES IDX 34 36 35 37 36 39 37 40 38 41 90 42 39 43 89 44 40 45 41 46
REMARK SMILES IDX 42 47 83 48 43 49 88 50 82 51 84 52 44 53 87 54 81 55 80 56
REMARK SMILES IDX 45 58 71 59 54 60 70 61 55 62 58 63 69 64 85 65 56 66 57 67
REMARK SMILES IDX 68 69 86 70 59 71 46 72 47 73 52 74 48 75 49 76 51 77 53 78
REMARK SMILES IDX 50 79 72 80 73 81 78 82 74 83 75 84 77 85 79 86 76 87 60 88
REMARK SMILES IDX 61 89 66 90 62 91 63 92 65 93 67 94 64 95
REMARK H PARENT 27 7 7 14 34 38 84 57 58 68
REMARK Flexibility Score: inf
ROOT
ATOM      1  C   UNL     1       2.679   2.311   2.767  1.00  0.00     0.002 C 
ENDROOT
BRANCH   1   2
ATOM      2  C   UNL     1       1.739   1.933   1.620  1.00  0.00     0.021 C 
BRANCH   2   3
ATOM      3  C   UNL     1       2.089   2.594   0.286  1.00  0.00     0.116 C 
BRANCH   3   4
ATOM      4  N   UNL     1       3.509   2.541  -0.021  1.00  0.00    -0.356 N 
ATOM      5  C   UNL     1       4.211   1.707  -0.829  1.00  0.00     0.220 C 
ATOM      6  O   UNL     1       5.440   1.804  -0.856  1.00  0.00    -0.275 OA
ATOM      7  H   UNL     1       4.052   3.224   0.435  1.00  0.00     0.163 HD
BRANCH   5   8
ATOM      8  C   UNL     1       3.489   0.715  -1.699  1.00  0.00     0.112 C 
BRANCH   8   9
ATOM      9  C   UNL     1       3.261  -0.695  -1.175  1.00  0.00     0.138 C 
BRANCH   9  10
ATOM     10  C   UNL     1       3.220  -1.053   0.307  1.00  0.00     0.308 C 
ATOM     11  O   UNL     1       2.450  -1.940   0.672  1.00  0.00    -0.247 OA
ATOM     12  N   UNL     1       3.982  -0.378   1.218  1.00  0.00    -0.204 N 
ATOM     13  C   UNL     1       5.269  -0.445   1.243  1.00  0.00     0.319 C 
ATOM     14  H   UNL     1       3.528   0.186   1.885  1.00  0.00     0.316 HD
ATOM     15  S   UNL     1       6.268  -1.330   0.053  1.00  0.00    -0.029 SA
ATOM     16  N   UNL     1       6.103   0.230   2.135  1.00  0.00    -0.216 N 
ATOM     17  C   UNL     1       7.782  -0.809   0.886  1.00  0.00     0.120 C 
ATOM     18  C   UNL     1       7.403   0.518   1.556  1.00  0.00     0.212 C 
ATOM     19  C   UNL     1       9.031  -0.499   0.106  1.00  0.00     0.156 C 
ATOM     20  C   UNL     1       8.596   0.849   2.422  1.00  0.00     0.188 C 
ATOM     21  S   UNL     1       9.969   0.432   1.332  1.00  0.00     0.155 S 
ATOM     22  O   UNL     1      10.836  -0.493   2.038  1.00  0.00    -0.229 OA
ATOM     23  O   UNL     1      10.462   1.640   0.719  1.00  0.00    -0.229 OA
BRANCH  16  24
ATOM     24  C   UNL     1       5.747   0.606   3.430  1.00  0.00     0.132 A 
ATOM     25  C   UNL     1       5.936   1.926   3.905  1.00  0.00     0.056 A 
ATOM     26  C   UNL     1       5.155  -0.337   4.290  1.00  0.00     0.102 A 
ATOM     27  C   UNL     1       5.500   2.316   5.179  1.00  0.00     0.055 A 
ATOM     28  C   UNL     1       4.736   0.070   5.538  1.00  0.00     0.170 A 
ATOM     29  C   UNL     1       4.887   1.366   5.963  1.00  0.00     0.166 A 
ATOM     30  O   UNL     1       4.110  -0.708   6.462  1.00  0.00    -0.453 OA
ATOM     31  O   UNL     1       4.335   1.575   7.186  1.00  0.00    -0.454 OA
ATOM     32  C   UNL     1       3.719   0.292   7.427  1.00  0.00     0.468 C 
ENDBRANCH  16  24
ENDBRANCH   9  10
ENDBRANCH   8   9
ENDBRANCH   5   8
ENDBRANCH   3   4
ENDBRANCH   2   3
ENDBRANCH   1   2
BRANCH   1  33
ATOM     33  C   UNL     1       2.509   3.728   3.308  1.00  0.00     0.002 C 
BRANCH  33  34
ATOM     34  C   UNL     1       1.132   4.009   3.896  1.00  0.00     0.021 C 
BRANCH  34  35
ATOM     35  C   UNL     1       0.686   3.001   4.947  1.00  0.00     0.116 C 
BRANCH  35  36
ATOM     36  N   UNL     1       1.447   3.108   6.184  1.00  0.00    -0.352 N 
ATOM     37  C   UNL     1       0.958   3.327   7.451  1.00  0.00     0.251 C 
ATOM     38  H   UNL     1       2.424   3.012   6.105  1.00  0.00     0.163 HD
ATOM     39  O   UNL     1       1.697   3.561   8.399  1.00  0.00    -0.269 OA
BRANCH  37  40
ATOM     40  C   UNL     1      -0.504   3.287   7.638  1.00  0.00     0.039 A 
ATOM     41  C   UNL     1      -1.159   4.400   8.163  1.00  0.00     0.014 A 
ATOM     42  C   UNL     1      -1.222   2.177   7.182  1.00  0.00     0.014 A 
ATOM     43  C   UNL     1      -2.554   4.427   8.169  1.00  0.00     0.010 A 
ATOM     44  C   UNL     1      -2.606   2.245   7.107  1.00  0.00     0.010 A 
ATOM     45  C   UNL     1      -3.286   3.367   7.606  1.00  0.00    -0.014 A 
BRANCH  45  46
ATOM     46  C   UNL     1      -4.768   3.405   7.542  1.00  0.00     0.031 A 
ATOM     47  C   UNL     1      -5.572   2.374   8.283  1.00  0.00     0.074 A 
ATOM     48  C   UNL     1      -5.384   4.321   6.769  1.00  0.00     0.049 A 
ATOM     49  N   UNL     1      -6.868   2.197   8.311  1.00  0.00    -0.248 NA
ATOM     50  C   UNL     1      -4.816   1.389   9.075  1.00  0.00     0.031 C 
ATOM     51  C   UNL     1      -4.711   5.335   5.955  1.00  0.00     0.029 A 
ATOM     52  N   UNL     1      -6.718   4.541   6.536  1.00  0.00    -0.354 N 
ATOM     53  C   UNL     1      -7.078   1.081   9.110  1.00  0.00     0.074 A 
ATOM     54  C   UNL     1      -5.777   0.579   9.490  1.00  0.00     0.031 C 
ATOM     55  C   UNL     1      -5.636   6.085   5.334  1.00  0.00     0.029 A 
ATOM     56  C   UNL     1      -6.963   5.583   5.675  1.00  0.00     0.049 A 
ATOM     57  H   UNL     1      -7.433   4.002   6.946  1.00  0.00     0.167 HD
ATOM     58  C   UNL     1      -8.250   0.541   9.517  1.00  0.00     0.037 A 
ATOM     59  C   UNL     1      -8.128   6.075   5.212  1.00  0.00     0.037 A 
ATOM     60  C   UNL     1      -9.542   1.056   9.151  1.00  0.00     0.049 A 
ATOM     61  C   UNL     1      -9.418   5.455   5.674  1.00  0.00     0.074 A 
ATOM     62  C   UNL     1     -10.791   0.615   9.551  1.00  0.00     0.029 A 
ATOM     63  N   UNL     1      -9.750   2.127   8.295  1.00  0.00    -0.354 N 
ATOM     64  N   UNL     1      -9.605   4.445   6.489  1.00  0.00    -0.248 NA
ATOM     65  C   UNL     1     -10.660   6.048   5.159  1.00  0.00     0.031 C 
ATOM     66  C   UNL     1     -11.756   1.390   8.899  1.00  0.00     0.029 A 
ATOM     67  C   UNL     1     -11.107   2.349   8.137  1.00  0.00     0.049 A 
ATOM     68  H   UNL     1      -9.037   2.652   7.863  1.00  0.00     0.167 HD
ATOM     69  C   UNL     1     -10.981   4.299   6.607  1.00  0.00     0.074 A 
ATOM     70  C   UNL     1     -11.581   5.335   5.792  1.00  0.00     0.031 C 
ATOM     71  C   UNL     1     -11.685   3.389   7.325  1.00  0.00     0.037 A 
BRANCH  58  72
ATOM     72  C   UNL     1      -8.180  -0.664  10.411  1.00  0.00     0.057 A 
ATOM     73  C   UNL     1      -7.707  -0.581  11.728  1.00  0.00     0.134 A 
ATOM     74  C   UNL     1      -8.605  -1.919   9.957  1.00  0.00     0.134 A 
ATOM     75  F   UNL     1      -7.269   0.588  12.220  1.00  0.00    -0.206 F 
ATOM     76  C   UNL     1      -7.629  -1.706  12.550  1.00  0.00     0.040 A 
ATOM     77  C   UNL     1      -8.561  -3.046  10.780  1.00  0.00     0.040 A 
ATOM     78  F   UNL     1      -9.074  -2.071   8.710  1.00  0.00    -0.206 F 
ATOM     79  C   UNL     1      -8.064  -2.942  12.078  1.00  0.00     0.006 A 
ENDBRANCH  58  72
BRANCH  59  80
ATOM     80  C   UNL     1      -8.130   7.230   4.277  1.00  0.00     0.057 A 
ATOM     81  C   UNL     1      -8.602   8.486   4.678  1.00  0.00     0.134 A 
ATOM     82  C   UNL     1      -7.670   7.106   2.961  1.00  0.00     0.134 A 
ATOM     83  F   UNL     1      -9.072   8.664   5.921  1.00  0.00    -0.206 F 
ATOM     84  C   UNL     1      -8.635   9.570   3.800  1.00  0.00     0.040 A 
ATOM     85  C   UNL     1      -7.673   8.189   2.079  1.00  0.00     0.040 A 
ATOM     86  F   UNL     1      -7.196   5.933   2.515  1.00  0.00    -0.206 F 
ATOM     87  C   UNL     1      -8.165   9.424   2.497  1.00  0.00     0.006 A 
ENDBRANCH  59  80
BRANCH  71  88
ATOM     88  C   UNL     1     -13.182   3.496   7.289  1.00  0.00     0.057 A 
ATOM     89  C   UNL     1     -13.922   3.153   6.151  1.00  0.00     0.134 A 
ATOM     90  C   UNL     1     -13.893   3.905   8.425  1.00  0.00     0.134 A 
ATOM     91  F   UNL     1     -13.301   2.765   5.027  1.00  0.00    -0.206 F 
ATOM     92  C   UNL     1     -15.316   3.236   6.136  1.00  0.00     0.040 A 
ATOM     93  C   UNL     1     -15.287   3.965   8.431  1.00  0.00     0.040 A 
ATOM     94  F   UNL     1     -13.245   4.238   9.551  1.00  0.00    -0.206 F 
ATOM     95  C   UNL     1     -16.002   3.636   7.282  1.00  0.00     0.006 A 
ENDBRANCH  71  88
ENDBRANCH  45  46
ENDBRANCH  37  40
ENDBRANCH  35  36
ENDBRANCH  34  35
ENDBRANCH  33  34
ENDBRANCH   1  33
TORSDOF 16
