REMARK SMILES COCC[C@H](NC(=O)c1ccc(C)cc1F)C(=O)NCCCCCCNC(=O)c1ccc(-c2c3nc(c(-c4c(F)cccc4F)c4ccc([nH]4)c(-c4c(F)cccc4F)c4nc(c(-c5c(F)cccc5F)c5ccc2[nH]5)C=C4)C=C3)cc1
REMARK SMILES IDX 22 1 21 2 20 3 19 4 17 5 18 6 5 8 4 9 3 10 2 11 1 12 6 13
REMARK SMILES IDX 7 14 8 16 9 17 10 18 15 19 11 20 14 21 16 22 12 23 13 24
REMARK SMILES IDX 23 25 24 26 25 27 26 28 27 29 28 31 29 32 30 33 82 34 31 35
REMARK SMILES IDX 81 36 32 37 33 38 34 39 75 40 35 41 80 42 74 43 76 44 36 45
REMARK SMILES IDX 79 46 73 47 72 48 37 50 63 51 46 52 62 53 47 54 50 55 61 56
REMARK SMILES IDX 77 57 48 58 49 59 60 61 78 62 51 63 38 64 39 65 44 66 40 67
REMARK SMILES IDX 41 68 43 69 45 70 42 71 64 72 65 73 70 74 66 75 67 76 69 77
REMARK SMILES IDX 71 78 68 79 52 80 53 81 58 82 54 83 55 84 57 85 59 86 56 87
REMARK H PARENT 19 7 6 15 26 30 76 49 50 60
REMARK Flexibility Score: inf
ROOT
ATOM      1  C   UNL     1       0.350  -7.499   2.018  1.00  0.00     0.002 C 
ENDROOT
BRANCH   1   2
ATOM      2  C   UNL     1       0.541  -6.097   2.616  1.00  0.00     0.021 C 
BRANCH   2   3
ATOM      3  C   UNL     1       1.213  -5.126   1.655  1.00  0.00     0.116 C 
BRANCH   3   4
ATOM      4  N   UNL     1       0.328  -4.744   0.575  1.00  0.00    -0.354 N 
ATOM      5  C   UNL     1       0.244  -3.608  -0.166  1.00  0.00     0.242 C 
ATOM      6  O   UNL     1      -0.588  -3.600  -1.080  1.00  0.00    -0.273 OA
ATOM      7  H   UNL     1      -0.334  -5.431   0.334  1.00  0.00     0.163 HD
BRANCH   5   8
ATOM      8  C   UNL     1       1.091  -2.358   0.121  1.00  0.00     0.173 C 
BRANCH   8   9
ATOM      9  C   UNL     1       2.618  -2.347  -0.061  1.00  0.00     0.063 C 
BRANCH   9  10
ATOM     10  C   UNL     1       3.393  -3.586  -0.504  1.00  0.00     0.162 C 
BRANCH  10  11
ATOM     11  O   UNL     1       3.375  -3.854  -1.899  1.00  0.00    -0.385 OA
ATOM     12  C   UNL     1       2.206  -4.494  -2.381  1.00  0.00     0.194 C 
ENDBRANCH  10  11
ENDBRANCH   9  10
ENDBRANCH   8   9
BRANCH   8  13
ATOM     13  N   UNL     1       0.664  -1.900   1.455  1.00  0.00    -0.340 N 
ATOM     14  C   UNL     1      -0.135  -0.856   1.837  1.00  0.00     0.254 C 
ATOM     15  H   UNL     1       1.014  -2.439   2.201  1.00  0.00     0.164 HD
ATOM     16  O   UNL     1      -0.579  -0.834   2.982  1.00  0.00    -0.269 OA
BRANCH  14  17
ATOM     17  C   UNL     1      -0.395   0.262   0.924  1.00  0.00     0.075 A 
ATOM     18  C   UNL     1      -1.034   0.095  -0.307  1.00  0.00     0.017 A 
ATOM     19  C   UNL     1       0.022   1.529   1.325  1.00  0.00     0.136 A 
ATOM     20  C   UNL     1      -1.157   1.185  -1.173  1.00  0.00     0.004 A 
ATOM     21  C   UNL     1      -0.124   2.621   0.476  1.00  0.00     0.043 A 
ATOM     22  F   UNL     1       0.612   1.720   2.514  1.00  0.00    -0.206 F 
ATOM     23  C   UNL     1      -0.684   2.450  -0.795  1.00  0.00    -0.048 A 
ATOM     24  C   UNL     1      -0.773   3.622  -1.727  1.00  0.00     0.044 C 
ENDBRANCH  14  17
ENDBRANCH   8  13
ENDBRANCH   5   8
ENDBRANCH   3   4
ENDBRANCH   2   3
ENDBRANCH   1   2
BRANCH   1  25
ATOM     25  C   UNL     1       1.636  -8.191   1.545  1.00  0.00     0.002 C 
BRANCH  25  26
ATOM     26  C   UNL     1       2.754  -8.270   2.586  1.00  0.00     0.021 C 
BRANCH  26  27
ATOM     27  C   UNL     1       2.334  -8.878   3.917  1.00  0.00     0.116 C 
BRANCH  27  28
ATOM     28  N   UNL     1       1.815 -10.227   3.771  1.00  0.00    -0.352 N 
ATOM     29  C   UNL     1       2.063 -11.333   4.545  1.00  0.00     0.251 C 
ATOM     30  H   UNL     1       1.202 -10.366   3.014  1.00  0.00     0.163 HD
ATOM     31  O   UNL     1       1.666 -12.436   4.199  1.00  0.00    -0.269 OA
BRANCH  29  32
ATOM     32  C   UNL     1       2.845 -11.178   5.788  1.00  0.00     0.039 A 
ATOM     33  C   UNL     1       3.887 -12.072   6.040  1.00  0.00     0.014 A 
ATOM     34  C   UNL     1       2.563 -10.146   6.687  1.00  0.00     0.014 A 
ATOM     35  C   UNL     1       4.682 -11.898   7.173  1.00  0.00     0.010 A 
ATOM     36  C   UNL     1       3.405  -9.926   7.771  1.00  0.00     0.010 A 
ATOM     37  C   UNL     1       4.467 -10.806   8.030  1.00  0.00    -0.014 A 
BRANCH  37  38
ATOM     38  C   UNL     1       5.341 -10.576   9.207  1.00  0.00     0.031 A 
ATOM     39  C   UNL     1       4.769 -10.639  10.595  1.00  0.00     0.074 A 
ATOM     40  C   UNL     1       6.638 -10.264   9.021  1.00  0.00     0.049 A 
ATOM     41  N   UNL     1       5.361 -10.432  11.743  1.00  0.00    -0.248 NA
ATOM     42  C   UNL     1       3.335 -10.951  10.708  1.00  0.00     0.031 C 
ATOM     43  C   UNL     1       7.298 -10.125   7.721  1.00  0.00     0.029 A 
ATOM     44  N   UNL     1       7.633 -10.001   9.928  1.00  0.00    -0.354 N 
ATOM     45  C   UNL     1       4.374 -10.577  12.709  1.00  0.00     0.074 A 
ATOM     46  C   UNL     1       3.132 -10.829  12.011  1.00  0.00     0.031 C 
ATOM     47  C   UNL     1       8.593  -9.831   7.915  1.00  0.00     0.029 A 
ATOM     48  C   UNL     1       8.847  -9.721   9.348  1.00  0.00     0.049 A 
ATOM     49  H   UNL     1       7.491 -10.011  10.902  1.00  0.00     0.167 HD
ATOM     50  C   UNL     1       4.495 -10.531  14.057  1.00  0.00     0.037 A 
ATOM     51  C   UNL     1      10.029  -9.405   9.909  1.00  0.00     0.037 A 
ATOM     52  C   UNL     1       5.737 -10.296  14.747  1.00  0.00     0.049 A 
ATOM     53  C   UNL     1      10.134  -9.344  11.408  1.00  0.00     0.074 A 
ATOM     54  C   UNL     1       5.977 -10.285  16.109  1.00  0.00     0.029 A 
ATOM     55  N   UNL     1       6.946 -10.024  14.125  1.00  0.00    -0.354 N 
ATOM     56  N   UNL     1       9.208  -9.557  12.312  1.00  0.00    -0.248 NA
ATOM     57  C   UNL     1      11.451  -9.007  11.965  1.00  0.00     0.031 C 
ATOM     58  C   UNL     1       7.319  -9.952  16.314  1.00  0.00     0.029 A 
ATOM     59  C   UNL     1       7.931  -9.816  15.077  1.00  0.00     0.049 A 
ATOM     60  H   UNL     1       7.085  -9.984  13.151  1.00  0.00     0.167 HD
ATOM     61  C   UNL     1       9.836  -9.410  13.542  1.00  0.00     0.074 A 
ATOM     62  C   UNL     1      11.225  -9.106  13.267  1.00  0.00     0.031 C 
ATOM     63  C   UNL     1       9.311  -9.519  14.787  1.00  0.00     0.037 A 
BRANCH  50  64
ATOM     64  C   UNL     1       3.250 -10.737  14.872  1.00  0.00     0.057 A 
ATOM     65  C   UNL     1       2.601 -11.978  14.932  1.00  0.00     0.134 A 
ATOM     66  C   UNL     1       2.710  -9.691  15.630  1.00  0.00     0.134 A 
ATOM     67  F   UNL     1       3.058 -13.020  14.221  1.00  0.00    -0.206 F 
ATOM     68  C   UNL     1       1.443 -12.162  15.690  1.00  0.00     0.040 A 
ATOM     69  C   UNL     1       1.571  -9.871  16.417  1.00  0.00     0.040 A 
ATOM     70  F   UNL     1       3.284  -8.478  15.625  1.00  0.00    -0.206 F 
ATOM     71  C   UNL     1       0.929 -11.107  16.442  1.00  0.00     0.006 A 
ENDBRANCH  50  64
BRANCH  51  72
ATOM     72  C   UNL     1      11.213  -9.143   9.052  1.00  0.00     0.057 A 
ATOM     73  C   UNL     1      12.301 -10.025   9.031  1.00  0.00     0.134 A 
ATOM     74  C   UNL     1      11.293  -8.005   8.242  1.00  0.00     0.134 A 
ATOM     75  F   UNL     1      12.292 -11.125   9.799  1.00  0.00    -0.206 F 
ATOM     76  C   UNL     1      13.433  -9.773   8.255  1.00  0.00     0.040 A 
ATOM     77  C   UNL     1      12.407  -7.754   7.439  1.00  0.00     0.040 A 
ATOM     78  F   UNL     1      10.281  -7.125   8.208  1.00  0.00    -0.206 F 
ATOM     79  C   UNL     1      13.486  -8.636   7.452  1.00  0.00     0.006 A 
ENDBRANCH  51  72
BRANCH  63  80
ATOM     80  C   UNL     1      10.249  -9.346  15.947  1.00  0.00     0.057 A 
ATOM     81  C   UNL     1      10.796  -8.101  16.283  1.00  0.00     0.134 A 
ATOM     82  C   UNL     1      10.581 -10.437  16.761  1.00  0.00     0.134 A 
ATOM     83  F   UNL     1      10.529  -7.018  15.537  1.00  0.00    -0.206 F 
ATOM     84  C   UNL     1      11.660  -7.952  17.369  1.00  0.00     0.040 A 
ATOM     85  C   UNL     1      11.418 -10.295  17.868  1.00  0.00     0.040 A 
ATOM     86  F   UNL     1      10.085 -11.657  16.503  1.00  0.00    -0.206 F 
ATOM     87  C   UNL     1      11.966  -9.051  18.170  1.00  0.00     0.006 A 
ENDBRANCH  63  80
ENDBRANCH  37  38
ENDBRANCH  29  32
ENDBRANCH  27  28
ENDBRANCH  26  27
ENDBRANCH  25  26
ENDBRANCH   1  25
TORSDOF 18
