REMARK SMILES [NH3+]Cc1c(-c2ccccc2)c(C(=O)NCCCCCCNC(=O)c2ccc(-c3c4nc(c(-c5c(F)cccc5F)c5ccc([nH]5)c(-c5c(F)cccc5F)c5nc(c(-c6c(F)cccc6F)c6ccc3[nH]6)C=C5)C=C4)cc2)c2ccccn12
REMARK SMILES IDX 17 1 16 2 15 3 14 4 12 5 13 6 11 8 3 9 4 10 83 11 78 12
REMARK SMILES IDX 82 13 79 14 81 15 80 16 2 17 1 18 5 22 6 23 10 24 7 25 9 26
REMARK SMILES IDX 8 27 18 28 19 29 20 30 21 31 22 32 23 34 24 35 25 36 77 37
REMARK SMILES IDX 26 38 76 39 27 40 28 41 29 42 70 43 30 44 75 45 69 46 71 47
REMARK SMILES IDX 31 48 74 49 68 50 67 51 32 53 58 54 41 55 57 56 42 57 45 58
REMARK SMILES IDX 56 59 72 60 43 61 44 62 55 64 73 65 46 66 33 67 34 68 39 69
REMARK SMILES IDX 35 70 36 71 38 72 40 73 37 74 59 75 60 76 65 77 61 78 62 79
REMARK SMILES IDX 64 80 66 81 63 82 47 83 48 84 53 85 49 86 50 87 52 88 54 89
REMARK SMILES IDX 51 90
REMARK H PARENT 14 7 1 19 1 20 1 21 21 33 71 52 45 63
REMARK Flexibility Score: inf
ROOT
ATOM      1  C   UNL     1       1.490   6.974   6.745  1.00  0.00     0.002 C 
ENDROOT
BRANCH   1   2
ATOM      2  C   UNL     1       0.554   6.090   5.917  1.00  0.00     0.021 C 
BRANCH   2   3
ATOM      3  C   UNL     1       1.160   5.358   4.723  1.00  0.00     0.116 C 
BRANCH   3   4
ATOM      4  N   UNL     1       2.241   4.454   5.040  1.00  0.00    -0.352 N 
ATOM      5  C   UNL     1       2.665   3.305   4.408  1.00  0.00     0.254 C 
ATOM      6  O   UNL     1       3.688   2.786   4.855  1.00  0.00    -0.269 OA
ATOM      7  H   UNL     1       2.760   4.700   5.839  1.00  0.00     0.163 HD
BRANCH   5   8
ATOM      8  C   UNL     1       1.899   2.690   3.316  1.00  0.00     0.073 A 
ATOM      9  C   UNL     1       0.933   1.061   2.001  1.00  0.00     0.086 A 
ATOM     10  C   UNL     1       1.768   1.268   3.094  1.00  0.00     0.022 A 
ATOM     11  N   UNL     1       0.520   2.307   1.566  1.00  0.00    -0.314 N 
ATOM     12  C   UNL     1       1.265   3.284   2.229  1.00  0.00     0.059 A 
ATOM     13  C   UNL     1      -0.447   2.627   0.603  1.00  0.00     0.092 A 
ATOM     14  C   UNL     1       1.190   4.607   1.694  1.00  0.00     0.027 A 
ATOM     15  C   UNL     1      -0.624   3.903   0.229  1.00  0.00     0.018 A 
ATOM     16  C   UNL     1       0.267   4.912   0.764  1.00  0.00     0.004 A 
BRANCH   9  17
ATOM     17  C   UNL     1       0.483  -0.205   1.347  1.00  0.00     0.315 C 
BRANCH  17  18
ATOM     18  N   UNL     1       1.144  -0.372   0.057  1.00  0.00    -0.353 N 
ATOM     19  H   UNL     1       0.828  -1.239  -0.377  1.00  0.00     0.344 HD
ATOM     20  H   UNL     1       2.154  -0.409   0.195  1.00  0.00     0.344 HD
ATOM     21  H   UNL     1       0.912   0.416  -0.548  1.00  0.00     0.344 HD
ENDBRANCH  17  18
ENDBRANCH   9  17
BRANCH  10  22
ATOM     22  C   UNL     1       2.387   0.178   3.837  1.00  0.00    -0.016 A 
ATOM     23  C   UNL     1       2.039  -0.060   5.171  1.00  0.00     0.009 A 
ATOM     24  C   UNL     1       3.378  -0.608   3.235  1.00  0.00     0.009 A 
ATOM     25  C   UNL     1       2.683  -1.067   5.896  1.00  0.00     0.001 A 
ATOM     26  C   UNL     1       4.016  -1.617   3.959  1.00  0.00     0.001 A 
ATOM     27  C   UNL     1       3.672  -1.843   5.290  1.00  0.00     0.000 A 
ENDBRANCH  10  22
ENDBRANCH   5   8
ENDBRANCH   3   4
ENDBRANCH   2   3
ENDBRANCH   1   2
BRANCH   1  28
ATOM     28  C   UNL     1       2.368   7.978   5.994  1.00  0.00     0.002 C 
BRANCH  28  29
ATOM     29  C   UNL     1       1.671   8.916   5.007  1.00  0.00     0.021 C 
BRANCH  29  30
ATOM     30  C   UNL     1       0.467   9.688   5.537  1.00  0.00     0.116 C 
BRANCH  30  31
ATOM     31  N   UNL     1       0.784  10.546   6.664  1.00  0.00    -0.352 N 
ATOM     32  C   UNL     1       0.555  11.891   6.842  1.00  0.00     0.251 C 
ATOM     33  H   UNL     1       1.232  10.097   7.417  1.00  0.00     0.163 HD
ATOM     34  O   UNL     1       0.999  12.465   7.827  1.00  0.00    -0.269 OA
BRANCH  32  35
ATOM     35  C   UNL     1      -0.196  12.660   5.823  1.00  0.00     0.039 A 
ATOM     36  C   UNL     1       0.326  13.882   5.389  1.00  0.00     0.014 A 
ATOM     37  C   UNL     1      -1.399  12.184   5.295  1.00  0.00     0.014 A 
ATOM     38  C   UNL     1      -0.310  14.583   4.360  1.00  0.00     0.010 A 
ATOM     39  C   UNL     1      -1.997  12.851   4.227  1.00  0.00     0.010 A 
ATOM     40  C   UNL     1      -1.449  14.047   3.738  1.00  0.00    -0.014 A 
BRANCH  40  41
ATOM     41  C   UNL     1      -2.051  14.693   2.543  1.00  0.00     0.031 A 
ATOM     42  C   UNL     1      -3.446  15.248   2.596  1.00  0.00     0.074 A 
ATOM     43  C   UNL     1      -1.368  14.699   1.381  1.00  0.00     0.049 A 
ATOM     44  N   UNL     1      -4.174  15.747   1.630  1.00  0.00    -0.248 NA
ATOM     45  C   UNL     1      -4.118  15.218   3.904  1.00  0.00     0.031 C 
ATOM     46  C   UNL     1      -0.020  14.159   1.190  1.00  0.00     0.029 A 
ATOM     47  N   UNL     1      -1.720  15.158   0.136  1.00  0.00    -0.354 N 
ATOM     48  C   UNL     1      -5.392  16.081   2.208  1.00  0.00     0.074 A 
ATOM     49  C   UNL     1      -5.321  15.686   3.599  1.00  0.00     0.031 C 
ATOM     50  C   UNL     1       0.345  14.329  -0.090  1.00  0.00     0.029 A 
ATOM     51  C   UNL     1      -0.758  14.946  -0.822  1.00  0.00     0.049 A 
ATOM     52  H   UNL     1      -2.581  15.597  -0.053  1.00  0.00     0.167 HD
ATOM     53  C   UNL     1      -6.464  16.677   1.634  1.00  0.00     0.037 A 
ATOM     54  C   UNL     1      -0.768  15.200  -2.144  1.00  0.00     0.037 A 
ATOM     55  C   UNL     1      -6.526  17.081   0.253  1.00  0.00     0.049 A 
ATOM     56  C   UNL     1      -1.985  15.826  -2.764  1.00  0.00     0.074 A 
ATOM     57  C   UNL     1      -7.545  17.749  -0.404  1.00  0.00     0.029 A 
ATOM     58  N   UNL     1      -5.532  16.847  -0.685  1.00  0.00    -0.354 N 
ATOM     59  N   UNL     1      -3.106  16.194  -2.192  1.00  0.00    -0.248 NA
ATOM     60  C   UNL     1      -1.942  16.068  -4.213  1.00  0.00     0.031 C 
ATOM     61  C   UNL     1      -7.189  17.873  -1.751  1.00  0.00     0.029 A 
ATOM     62  C   UNL     1      -5.928  17.327  -1.923  1.00  0.00     0.049 A 
ATOM     63  H   UNL     1      -4.672  16.405  -0.498  1.00  0.00     0.167 HD
ATOM     64  C   UNL     1      -3.891  16.731  -3.204  1.00  0.00     0.074 A 
ATOM     65  C   UNL     1      -3.113  16.653  -4.424  1.00  0.00     0.031 C 
ATOM     66  C   UNL     1      -5.144  17.241  -3.129  1.00  0.00     0.037 A 
BRANCH  53  67
ATOM     67  C   UNL     1      -7.665  16.926   2.501  1.00  0.00     0.057 A 
ATOM     68  C   UNL     1      -7.657  17.895   3.513  1.00  0.00     0.134 A 
ATOM     69  C   UNL     1      -8.856  16.218   2.294  1.00  0.00     0.134 A 
ATOM     70  F   UNL     1      -6.546  18.602   3.769  1.00  0.00    -0.206 F 
ATOM     71  C   UNL     1      -8.782  18.132   4.306  1.00  0.00     0.040 A 
ATOM     72  C   UNL     1      -9.995  16.465   3.063  1.00  0.00     0.040 A 
ATOM     73  F   UNL     1      -8.935  15.282   1.337  1.00  0.00    -0.206 F 
ATOM     74  C   UNL     1      -9.957  17.420   4.077  1.00  0.00     0.006 A 
ENDBRANCH  53  67
BRANCH  54  75
ATOM     75  C   UNL     1       0.418  14.864  -2.973  1.00  0.00     0.057 A 
ATOM     76  C   UNL     1       1.224  15.870  -3.517  1.00  0.00     0.134 A 
ATOM     77  C   UNL     1       0.772  13.537  -3.241  1.00  0.00     0.134 A 
ATOM     78  F   UNL     1       0.924  17.161  -3.312  1.00  0.00    -0.206 F 
ATOM     79  C   UNL     1       2.332  15.569  -4.311  1.00  0.00     0.040 A 
ATOM     80  C   UNL     1       1.892  13.221  -4.013  1.00  0.00     0.040 A 
ATOM     81  F   UNL     1       0.044  12.526  -2.743  1.00  0.00    -0.206 F 
ATOM     82  C   UNL     1       2.671  14.240  -4.556  1.00  0.00     0.006 A 
ENDBRANCH  54  75
BRANCH  66  83
ATOM     83  C   UNL     1      -5.747  17.774  -4.396  1.00  0.00     0.057 A 
ATOM     84  C   UNL     1      -6.194  16.923  -5.414  1.00  0.00     0.134 A 
ATOM     85  C   UNL     1      -5.928  19.151  -4.576  1.00  0.00     0.134 A 
ATOM     86  F   UNL     1      -6.035  15.595  -5.309  1.00  0.00    -0.206 F 
ATOM     87  C   UNL     1      -6.787  17.424  -6.574  1.00  0.00     0.040 A 
ATOM     88  C   UNL     1      -6.543  19.663  -5.720  1.00  0.00     0.040 A 
ATOM     89  F   UNL     1      -5.529  20.020  -3.636  1.00  0.00    -0.206 F 
ATOM     90  C   UNL     1      -6.970  18.797  -6.725  1.00  0.00     0.006 A 
ENDBRANCH  66  83
ENDBRANCH  40  41
ENDBRANCH  32  35
ENDBRANCH  30  31
ENDBRANCH  29  30
ENDBRANCH  28  29
ENDBRANCH   1  28
TORSDOF 16
