REMARK SMILES O=C(NCCCCCCNC(=O)c1ccc(COc2cccc(C(F)(F)F)c2)nc1)c1ccc(-c2c3nc(c(-c4c(F)cccc4F)c4ccc([nH]4)c(-c4c(F)cccc4F)c4nc(c(-c5c(F)cccc5F)c5ccc2[nH]5)C=C4)C=C3)cc1
REMARK SMILES IDX 7 1 6 2 5 3 4 4 3 5 1 6 2 7 31 9 32 10 84 11 33 12 83 13
REMARK SMILES IDX 34 14 35 15 36 16 77 17 37 18 82 19 76 20 78 21 38 22 81 23
REMARK SMILES IDX 75 24 74 25 39 27 65 28 48 29 64 30 49 31 52 32 63 33 79 34
REMARK SMILES IDX 50 35 51 36 62 38 80 39 53 40 40 41 41 42 46 43 42 44 43 45
REMARK SMILES IDX 45 46 47 47 44 48 66 49 67 50 72 51 68 52 69 53 71 54 73 55
REMARK SMILES IDX 70 56 54 57 55 58 60 59 56 60 57 61 59 62 61 63 58 64 8 65
REMARK SMILES IDX 9 66 10 67 11 68 12 70 13 71 14 72 30 73 15 74 29 75 16 76
REMARK SMILES IDX 17 77 18 78 19 79 20 80 28 81 21 82 23 83 22 84 24 85 25 86
REMARK SMILES IDX 26 87 27 88
REMARK H PARENT 3 8 78 26 52 37 10 69
REMARK Flexibility Score: inf
ROOT
ATOM      1  C   UNL     1       4.752  -2.759   3.422  1.00  0.00     0.002 C 
ENDROOT
BRANCH   1   2
ATOM      2  C   UNL     1       4.229  -1.333   3.619  1.00  0.00     0.002 C 
BRANCH   2   3
ATOM      3  C   UNL     1       4.730  -0.311   2.597  1.00  0.00     0.021 C 
BRANCH   3   4
ATOM      4  C   UNL     1       4.483  -0.697   1.144  1.00  0.00     0.116 C 
BRANCH   4   5
ATOM      5  N   UNL     1       3.067  -0.828   0.852  1.00  0.00    -0.352 N 
ATOM      6  O   UNL     1       1.078  -0.229  -0.025  1.00  0.00    -0.269 OA
ATOM      7  C   UNL     1       2.302  -0.140  -0.053  1.00  0.00     0.251 C 
ATOM      8  H   UNL     1       2.588  -1.508   1.379  1.00  0.00     0.163 HD
BRANCH   7   9
ATOM      9  C   UNL     1       2.956   0.724  -1.055  1.00  0.00     0.039 A 
ATOM     10  C   UNL     1       4.064   0.270  -1.778  1.00  0.00     0.014 A 
ATOM     11  C   UNL     1       2.431   1.995  -1.292  1.00  0.00     0.014 A 
ATOM     12  C   UNL     1       4.713   1.127  -2.661  1.00  0.00     0.010 A 
ATOM     13  C   UNL     1       3.038   2.827  -2.231  1.00  0.00     0.010 A 
ATOM     14  C   UNL     1       4.194   2.406  -2.909  1.00  0.00    -0.014 A 
BRANCH  14  15
ATOM     15  C   UNL     1       4.819   3.284  -3.927  1.00  0.00     0.031 A 
ATOM     16  C   UNL     1       5.443   4.589  -3.533  1.00  0.00     0.074 A 
ATOM     17  C   UNL     1       4.770   2.917  -5.221  1.00  0.00     0.049 A 
ATOM     18  N   UNL     1       5.933   5.534  -4.295  1.00  0.00    -0.248 NA
ATOM     19  C   UNL     1       5.515   4.877  -2.093  1.00  0.00     0.031 C 
ATOM     20  C   UNL     1       4.182   1.673  -5.721  1.00  0.00     0.029 A 
ATOM     21  N   UNL     1       5.197   3.564  -6.352  1.00  0.00    -0.354 N 
ATOM     22  C   UNL     1       6.347   6.539  -3.432  1.00  0.00     0.074 A 
ATOM     23  C   UNL     1       6.030   6.099  -2.090  1.00  0.00     0.031 C 
ATOM     24  C   UNL     1       4.283   1.648  -7.058  1.00  0.00     0.029 A 
ATOM     25  C   UNL     1       4.882   2.898  -7.510  1.00  0.00     0.049 A 
ATOM     26  H   UNL     1       5.682   4.421  -6.335  1.00  0.00     0.167 HD
ATOM     27  C   UNL     1       6.939   7.720  -3.737  1.00  0.00     0.037 A 
ATOM     28  C   UNL     1       5.018   3.269  -8.796  1.00  0.00     0.037 A 
ATOM     29  C   UNL     1       7.245   8.146  -5.079  1.00  0.00     0.049 A 
ATOM     30  C   UNL     1       5.632   4.600  -9.114  1.00  0.00     0.074 A 
ATOM     31  C   UNL     1       7.884   9.302  -5.492  1.00  0.00     0.029 A 
ATOM     32  N   UNL     1       6.915   7.440  -6.228  1.00  0.00    -0.354 N 
ATOM     33  N   UNL     1       6.064   5.524  -8.291  1.00  0.00    -0.248 NA
ATOM     34  C   UNL     1       5.780   4.942 -10.535  1.00  0.00     0.031 C 
ATOM     35  C   UNL     1       7.885   9.324  -6.890  1.00  0.00     0.029 A 
ATOM     36  C   UNL     1       7.307   8.151  -7.350  1.00  0.00     0.049 A 
ATOM     37  H   UNL     1       6.468   6.562  -6.243  1.00  0.00     0.167 HD
ATOM     38  C   UNL     1       6.560   6.545  -9.090  1.00  0.00     0.074 A 
ATOM     39  C   UNL     1       6.376   6.125 -10.465  1.00  0.00     0.031 C 
ATOM     40  C   UNL     1       7.125   7.718  -8.714  1.00  0.00     0.037 A 
BRANCH  27  41
ATOM     41  C   UNL     1       7.251   8.649  -2.598  1.00  0.00     0.057 A 
ATOM     42  C   UNL     1       8.237   8.360  -1.645  1.00  0.00     0.134 A 
ATOM     43  C   UNL     1       6.558   9.859  -2.458  1.00  0.00     0.134 A 
ATOM     44  F   UNL     1       8.934   7.215  -1.713  1.00  0.00    -0.206 F 
ATOM     45  C   UNL     1       8.493   9.217  -0.573  1.00  0.00     0.040 A 
ATOM     46  C   UNL     1       6.826  10.739  -1.408  1.00  0.00     0.040 A 
ATOM     47  F   UNL     1       5.609  10.208  -3.339  1.00  0.00    -0.206 F 
ATOM     48  C   UNL     1       7.788  10.414  -0.454  1.00  0.00     0.006 A 
ENDBRANCH  27  41
BRANCH  28  49
ATOM     49  C   UNL     1       4.539   2.357  -9.863  1.00  0.00     0.057 A 
ATOM     50  C   UNL     1       5.436   1.655 -10.674  1.00  0.00     0.134 A 
ATOM     51  C   UNL     1       3.171   2.118 -10.053  1.00  0.00     0.134 A 
ATOM     52  F   UNL     1       6.757   1.851 -10.546  1.00  0.00    -0.206 F 
ATOM     53  C   UNL     1       4.992   0.747 -11.636  1.00  0.00     0.040 A 
ATOM     54  C   UNL     1       2.714   1.194 -10.993  1.00  0.00     0.040 A 
ATOM     55  F   UNL     1       2.262   2.750  -9.296  1.00  0.00    -0.206 F 
ATOM     56  C   UNL     1       3.627   0.507 -11.790  1.00  0.00     0.006 A 
ENDBRANCH  28  49
BRANCH  40  57
ATOM     57  C   UNL     1       7.632   8.623  -9.799  1.00  0.00     0.057 A 
ATOM     58  C   UNL     1       6.769   9.369 -10.609  1.00  0.00     0.134 A 
ATOM     59  C   UNL     1       9.010   8.806  -9.977  1.00  0.00     0.134 A 
ATOM     60  F   UNL     1       5.440   9.228 -10.499  1.00  0.00    -0.206 F 
ATOM     61  C   UNL     1       7.259  10.265 -11.562  1.00  0.00     0.040 A 
ATOM     62  C   UNL     1       9.511   9.717 -10.908  1.00  0.00     0.040 A 
ATOM     63  F   UNL     1       9.891   8.125  -9.228  1.00  0.00    -0.206 F 
ATOM     64  C   UNL     1       8.634  10.449 -11.704  1.00  0.00     0.006 A 
ENDBRANCH  40  57
ENDBRANCH  14  15
ENDBRANCH   7   9
ENDBRANCH   4   5
ENDBRANCH   3   4
ENDBRANCH   2   3
ENDBRANCH   1   2
BRANCH   1  65
ATOM     65  C   UNL     1       6.273  -2.880   3.310  1.00  0.00     0.021 C 
BRANCH  65  66
ATOM     66  C   UNL     1       7.035  -2.261   4.474  1.00  0.00     0.116 C 
BRANCH  66  67
ATOM     67  N   UNL     1       6.788  -2.981   5.710  1.00  0.00    -0.352 N 
ATOM     68  C   UNL     1       7.686  -3.680   6.467  1.00  0.00     0.252 C 
ATOM     69  H   UNL     1       5.862  -2.963   6.044  1.00  0.00     0.163 HD
ATOM     70  O   UNL     1       7.302  -4.450   7.348  1.00  0.00    -0.269 OA
BRANCH  68  71
ATOM     71  C   UNL     1       9.121  -3.506   6.222  1.00  0.00     0.058 A 
ATOM     72  C   UNL     1       9.705  -2.240   6.150  1.00  0.00     0.017 A 
ATOM     73  C   UNL     1       9.931  -4.621   6.112  1.00  0.00     0.125 A 
ATOM     74  C   UNL     1      11.079  -2.135   5.963  1.00  0.00     0.028 A 
ATOM     75  N   UNL     1      11.272  -4.546   5.938  1.00  0.00    -0.257 NA
ATOM     76  C   UNL     1      11.836  -3.308   5.912  1.00  0.00     0.078 A 
BRANCH  76  77
ATOM     77  C   UNL     1      13.341  -3.225   6.069  1.00  0.00     0.285 C 
BRANCH  77  78
ATOM     78  O   UNL     1      13.852  -3.897   7.241  1.00  0.00    -0.487 OA
BRANCH  78  79
ATOM     79  C   UNL     1      13.583  -3.304   8.446  1.00  0.00     0.120 A 
ATOM     80  C   UNL     1      14.663  -3.035   9.281  1.00  0.00     0.046 A 
ATOM     81  C   UNL     1      12.290  -3.105   8.930  1.00  0.00     0.059 A 
ATOM     82  C   UNL     1      14.448  -2.523  10.565  1.00  0.00     0.004 A 
ATOM     83  C   UNL     1      12.054  -2.536  10.190  1.00  0.00     0.059 A 
ATOM     84  C   UNL     1      13.151  -2.262  11.013  1.00  0.00     0.013 A 
BRANCH  83  85
ATOM     85  C   UNL     1      10.643  -2.267  10.649  1.00  0.00     0.416 C 
ATOM     86  F   UNL     1      10.204  -3.168  11.568  1.00  0.00    -0.166 F 
ATOM     87  F   UNL     1      10.511  -1.041  11.231  1.00  0.00    -0.166 F 
ATOM     88  F   UNL     1       9.731  -2.283   9.635  1.00  0.00    -0.166 F 
ENDBRANCH  83  85
ENDBRANCH  78  79
ENDBRANCH  77  78
ENDBRANCH  76  77
ENDBRANCH  68  71
ENDBRANCH  66  67
ENDBRANCH  65  66
ENDBRANCH   1  65
TORSDOF 17
