REMARK SMILES O=C(NCCCCCCNC(=O)c1cc(F)ccc1N1CCCc2ccccc21)c1ccc(-c2c3nc(c(-c4c(F)cccc4F)c4ccc([nH]4)c(-c4c(F)cccc4F)c4nc(c(-c5c(F)cccc5F)c5ccc2[nH]5)C=C4)C=C3)cc1
REMARK SMILES IDX 6 1 5 2 4 3 3 4 1 5 2 6 30 8 31 9 83 10 32 11 82 12 33 13
REMARK SMILES IDX 34 14 35 15 76 16 36 17 81 18 75 19 77 20 37 21 80 22 74 23
REMARK SMILES IDX 73 24 38 26 64 27 47 28 63 29 48 30 51 31 62 32 78 33 49 34
REMARK SMILES IDX 50 35 61 37 79 38 52 39 39 40 40 41 45 42 41 43 42 44 44 45
REMARK SMILES IDX 46 46 43 47 65 48 66 49 71 50 67 51 68 52 70 53 72 54 69 55
REMARK SMILES IDX 53 56 54 57 59 58 55 59 56 60 58 61 60 62 57 63 7 64 8 65
REMARK SMILES IDX 9 66 10 67 11 68 12 70 13 71 14 72 19 73 15 74 18 75 16 76
REMARK SMILES IDX 17 77 20 78 21 79 29 80 22 81 24 82 28 83 23 84 25 85 27 86
REMARK SMILES IDX 26 87
REMARK H PARENT 3 7 77 25 51 36 10 69
REMARK Flexibility Score: inf
ROOT
ATOM      1  C   UNL     1       4.165  -1.522  -3.517  1.00  0.00     0.002 C 
ENDROOT
BRANCH   1   2
ATOM      2  C   UNL     1       4.632  -1.621  -2.066  1.00  0.00     0.021 C 
BRANCH   2   3
ATOM      3  C   UNL     1       4.366  -0.381  -1.226  1.00  0.00     0.116 C 
BRANCH   3   4
ATOM      4  N   UNL     1       2.947  -0.115  -1.055  1.00  0.00    -0.352 N 
ATOM      5  O   UNL     1       1.002   0.085   0.078  1.00  0.00    -0.269 OA
ATOM      6  C   UNL     1       2.229   0.027   0.106  1.00  0.00     0.251 C 
ATOM      7  H   UNL     1       2.429  -0.025  -1.888  1.00  0.00     0.163 HD
BRANCH   6   8
ATOM      8  C   UNL     1       2.943   0.087   1.398  1.00  0.00     0.039 A 
ATOM      9  C   UNL     1       4.082   0.881   1.539  1.00  0.00     0.014 A 
ATOM     10  C   UNL     1       2.471  -0.665   2.478  1.00  0.00     0.014 A 
ATOM     11  C   UNL     1       4.831   0.812   2.706  1.00  0.00     0.010 A 
ATOM     12  C   UNL     1       3.172  -0.656   3.686  1.00  0.00     0.010 A 
ATOM     13  C   UNL     1       4.371   0.064   3.802  1.00  0.00    -0.014 A 
BRANCH  13  14
ATOM     14  C   UNL     1       5.118   0.125   5.083  1.00  0.00     0.031 A 
ATOM     15  C   UNL     1       5.767  -1.094   5.673  1.00  0.00     0.074 A 
ATOM     16  C   UNL     1       5.225   1.317   5.702  1.00  0.00     0.049 A 
ATOM     17  N   UNL     1       6.457  -1.201   6.780  1.00  0.00    -0.248 NA
ATOM     18  C   UNL     1       5.623  -2.357   4.932  1.00  0.00     0.031 C 
ATOM     19  C   UNL     1       4.631   2.568   5.222  1.00  0.00     0.029 A 
ATOM     20  N   UNL     1       5.879   1.681   6.850  1.00  0.00    -0.354 N 
ATOM     21  C   UNL     1       6.820  -2.538   6.877  1.00  0.00     0.074 A 
ATOM     22  C   UNL     1       6.249  -3.213   5.731  1.00  0.00     0.031 C 
ATOM     23  C   UNL     1       4.992   3.568   6.037  1.00  0.00     0.029 A 
ATOM     24  C   UNL     1       5.775   3.020   7.138  1.00  0.00     0.049 A 
ATOM     25  H   UNL     1       6.375   1.045   7.414  1.00  0.00     0.167 HD
ATOM     26  C   UNL     1       7.569  -3.139   7.832  1.00  0.00     0.037 A 
ATOM     27  C   UNL     1       6.238   3.732   8.182  1.00  0.00     0.037 A 
ATOM     28  C   UNL     1       8.139  -2.454   8.965  1.00  0.00     0.049 A 
ATOM     29  C   UNL     1       7.022   3.029   9.250  1.00  0.00     0.074 A 
ATOM     30  C   UNL     1       8.936  -2.974   9.971  1.00  0.00     0.029 A 
ATOM     31  N   UNL     1       7.970  -1.106   9.247  1.00  0.00    -0.354 N 
ATOM     32  N   UNL     1       7.377   1.769   9.315  1.00  0.00    -0.248 NA
ATOM     33  C   UNL     1       7.464   3.841  10.391  1.00  0.00     0.031 C 
ATOM     34  C   UNL     1       9.202  -1.956  10.890  1.00  0.00     0.029 A 
ATOM     35  C   UNL     1       8.625  -0.785  10.425  1.00  0.00     0.049 A 
ATOM     36  H   UNL     1       7.461  -0.472   8.692  1.00  0.00     0.167 HD
ATOM     37  C   UNL     1       8.098   1.638  10.493  1.00  0.00     0.074 A 
ATOM     38  C   UNL     1       8.145   2.952  11.102  1.00  0.00     0.031 C 
ATOM     39  C   UNL     1       8.666   0.528  11.021  1.00  0.00     0.037 A 
BRANCH  26  40
ATOM     40  C   UNL     1       7.818  -4.616   7.711  1.00  0.00     0.057 A 
ATOM     41  C   UNL     1       7.263  -5.512   8.634  1.00  0.00     0.134 A 
ATOM     42  C   UNL     1       8.680  -5.143   6.741  1.00  0.00     0.134 A 
ATOM     43  F   UNL     1       6.437  -5.074   9.596  1.00  0.00    -0.206 F 
ATOM     44  C   UNL     1       7.571  -6.874   8.609  1.00  0.00     0.040 A 
ATOM     45  C   UNL     1       8.975  -6.507   6.689  1.00  0.00     0.040 A 
ATOM     46  F   UNL     1       9.239  -4.342   5.821  1.00  0.00    -0.206 F 
ATOM     47  C   UNL     1       8.428  -7.375   7.632  1.00  0.00     0.006 A 
ENDBRANCH  26  40
BRANCH  27  48
ATOM     48  C   UNL     1       5.964   5.188   8.251  1.00  0.00     0.057 A 
ATOM     49  C   UNL     1       4.664   5.679   8.432  1.00  0.00     0.134 A 
ATOM     50  C   UNL     1       6.989   6.125   8.090  1.00  0.00     0.134 A 
ATOM     51  F   UNL     1       3.635   4.831   8.581  1.00  0.00    -0.206 F 
ATOM     52  C   UNL     1       4.389   7.046   8.422  1.00  0.00     0.040 A 
ATOM     53  C   UNL     1       6.734   7.497   8.107  1.00  0.00     0.040 A 
ATOM     54  F   UNL     1       8.257   5.718   7.927  1.00  0.00    -0.206 F 
ATOM     55  C   UNL     1       5.428   7.960   8.263  1.00  0.00     0.006 A 
ENDBRANCH  27  48
BRANCH  39  56
ATOM     56  C   UNL     1       9.412   0.680  12.315  1.00  0.00     0.057 A 
ATOM     57  C   UNL     1      10.806   0.544  12.354  1.00  0.00     0.134 A 
ATOM     58  C   UNL     1       8.747   0.885  13.530  1.00  0.00     0.134 A 
ATOM     59  F   UNL     1      11.502   0.337  11.226  1.00  0.00    -0.206 F 
ATOM     60  C   UNL     1      11.510   0.589  13.557  1.00  0.00     0.040 A 
ATOM     61  C   UNL     1       9.443   0.961  14.737  1.00  0.00     0.040 A 
ATOM     62  F   UNL     1       7.414   1.036  13.559  1.00  0.00    -0.206 F 
ATOM     63  C   UNL     1      10.828   0.801  14.754  1.00  0.00     0.006 A 
ENDBRANCH  39  56
ENDBRANCH  13  14
ENDBRANCH   6   8
ENDBRANCH   3   4
ENDBRANCH   2   3
ENDBRANCH   1   2
BRANCH   1  64
ATOM     64  C   UNL     1       4.710  -0.322  -4.298  1.00  0.00     0.002 C 
BRANCH  64  65
ATOM     65  C   UNL     1       6.233  -0.164  -4.289  1.00  0.00     0.021 C 
BRANCH  65  66
ATOM     66  C   UNL     1       7.010  -1.392  -4.751  1.00  0.00     0.116 C 
BRANCH  66  67
ATOM     67  N   UNL     1       6.688  -1.762  -6.118  1.00  0.00    -0.352 N 
ATOM     68  C   UNL     1       7.526  -1.936  -7.192  1.00  0.00     0.253 C 
ATOM     69  H   UNL     1       5.732  -1.909  -6.301  1.00  0.00     0.163 HD
ATOM     70  O   UNL     1       7.052  -2.188  -8.297  1.00  0.00    -0.269 OA
BRANCH  68  71
ATOM     71  C   UNL     1       8.986  -1.847  -6.984  1.00  0.00     0.066 A 
ATOM     72  C   UNL     1       9.554  -2.733  -6.052  1.00  0.00     0.055 A 
ATOM     73  C   UNL     1       9.800  -0.972  -7.727  1.00  0.00     0.054 A 
ATOM     74  C   UNL     1      10.914  -2.683  -5.790  1.00  0.00     0.124 A 
ATOM     75  C   UNL     1      11.180  -0.954  -7.430  1.00  0.00     0.030 A 
ATOM     76  F   UNL     1      11.440  -3.504  -4.873  1.00  0.00    -0.207 F 
ATOM     77  C   UNL     1      11.733  -1.788  -6.458  1.00  0.00     0.041 A 
BRANCH  73  78
ATOM     78  N   UNL     1       9.348  -0.152  -8.775  1.00  0.00    -0.341 N 
ATOM     79  C   UNL     1       8.343   0.874  -8.484  1.00  0.00     0.123 C 
ATOM     80  C   UNL     1       9.817  -0.194 -10.109  1.00  0.00     0.044 A 
ATOM     81  C   UNL     1       8.855   2.228  -8.964  1.00  0.00     0.027 C 
ATOM     82  C   UNL     1       9.739   0.934 -10.946  1.00  0.00    -0.024 A 
ATOM     83  C   UNL     1      10.387  -1.371 -10.628  1.00  0.00     0.026 A 
ATOM     84  C   UNL     1       9.086   2.207 -10.472  1.00  0.00     0.039 C 
ATOM     85  C   UNL     1      10.242   0.871 -12.257  1.00  0.00     0.006 A 
ATOM     86  C   UNL     1      10.878  -1.429 -11.932  1.00  0.00     0.002 A 
ATOM     87  C   UNL     1      10.814  -0.303 -12.744  1.00  0.00     0.000 A 
ENDBRANCH  73  78
ENDBRANCH  68  71
ENDBRANCH  66  67
ENDBRANCH  65  66
ENDBRANCH  64  65
ENDBRANCH   1  64
TORSDOF 14
