REMARK SMILES COC(=O)c1ccc(Cl)c(-c2ccc(F)cc2C(=O)NCCCCCCNC(=O)c2ccc(-c3c4nc(c(-c5c(F)cccc5F)c5ccc([nH]5)c(-c5c(F)cccc5F)c5nc(c(-c6c(F)cccc6F)c6ccc3[nH]6)C=C5)C=C4)cc2)c1
REMARK SMILES IDX 23 1 22 2 21 3 20 4 18 5 19 6 17 8 11 9 12 10 13 11 16 12
REMARK SMILES IDX 14 13 15 14 10 15 5 16 6 17 84 18 7 19 8 20 9 21 3 22 4 23
REMARK SMILES IDX 2 24 1 25 24 26 25 27 26 28 27 29 28 30 29 32 30 33 31 34
REMARK SMILES IDX 83 35 32 36 82 37 33 38 34 39 35 40 76 41 36 42 81 43 75 44
REMARK SMILES IDX 77 45 37 46 80 47 74 48 73 49 38 51 64 52 47 53 63 54 48 55
REMARK SMILES IDX 51 56 62 57 78 58 49 59 50 60 61 62 79 63 52 64 39 65 40 66
REMARK SMILES IDX 45 67 41 68 42 69 44 70 46 71 43 72 65 73 66 74 71 75 67 76
REMARK SMILES IDX 68 77 70 78 72 79 69 80 53 81 54 82 59 83 55 84 56 85 58 86
REMARK SMILES IDX 60 87 57 88
REMARK H PARENT 20 7 27 31 77 50 51 61
REMARK Flexibility Score: inf
ROOT
ATOM      1  C   UNL     1       0.128  -4.121   2.893  1.00  0.00     0.002 C 
ENDROOT
BRANCH   1   2
ATOM      2  C   UNL     1      -0.101  -5.439   2.142  1.00  0.00     0.021 C 
BRANCH   2   3
ATOM      3  C   UNL     1       0.607  -5.637   0.806  1.00  0.00     0.116 C 
BRANCH   3   4
ATOM      4  N   UNL     1       2.046  -5.636   0.847  1.00  0.00    -0.352 N 
ATOM      5  C   UNL     1       2.962  -6.201  -0.007  1.00  0.00     0.252 C 
ATOM      6  O   UNL     1       4.152  -5.959   0.202  1.00  0.00    -0.269 OA
ATOM      7  H   UNL     1       2.437  -5.153   1.611  1.00  0.00     0.163 HD
BRANCH   5   8
ATOM      8  C   UNL     1       2.632  -7.146  -1.120  1.00  0.00     0.050 A 
ATOM      9  C   UNL     1       1.698  -6.956  -2.171  1.00  0.00    -0.004 A 
ATOM     10  C   UNL     1       1.658  -7.925  -3.207  1.00  0.00     0.012 A 
ATOM     11  C   UNL     1       2.489  -9.043  -3.209  1.00  0.00     0.040 A 
ATOM     12  C   UNL     1       3.476  -8.278  -1.150  1.00  0.00     0.053 A 
ATOM     13  C   UNL     1       3.394  -9.208  -2.177  1.00  0.00     0.124 A 
ATOM     14  F   UNL     1       4.213 -10.267  -2.183  1.00  0.00    -0.207 F 
BRANCH   9  15
ATOM     15  C   UNL     1       0.789  -5.801  -2.307  1.00  0.00     0.002 A 
ATOM     16  C   UNL     1       0.483  -3.383  -2.433  1.00  0.00     0.060 A 
ATOM     17  C   UNL     1      -0.907  -3.537  -2.450  1.00  0.00     0.017 A 
ATOM     18  C   UNL     1       1.325  -4.504  -2.406  1.00  0.00     0.026 A 
ATOM     19  C   UNL     1      -1.458  -4.815  -2.399  1.00  0.00     0.022 A 
ATOM     20  C   UNL     1      -0.623  -5.935  -2.315  1.00  0.00     0.048 A 
ATOM     21  Cl  UNL     1      -1.409  -7.467  -2.110  1.00  0.00    -0.084 Cl
BRANCH  16  22
ATOM     22  C   UNL     1       1.112  -2.046  -2.326  1.00  0.00     0.337 C 
ATOM     23  O   UNL     1       2.161  -1.741  -2.845  1.00  0.00    -0.246 OA
BRANCH  22  24
ATOM     24  O   UNL     1       0.388  -1.319  -1.436  1.00  0.00    -0.465 OA
ATOM     25  C   UNL     1       1.028  -0.120  -0.996  1.00  0.00     0.282 C 
ENDBRANCH  22  24
ENDBRANCH  16  22
ENDBRANCH   9  15
ENDBRANCH   5   8
ENDBRANCH   3   4
ENDBRANCH   2   3
ENDBRANCH   1   2
BRANCH   1  26
ATOM     26  C   UNL     1       0.009  -2.796   2.130  1.00  0.00     0.002 C 
BRANCH  26  27
ATOM     27  C   UNL     1      -1.201  -2.594   1.217  1.00  0.00     0.021 C 
BRANCH  27  28
ATOM     28  C   UNL     1      -2.584  -2.763   1.831  1.00  0.00     0.116 C 
BRANCH  28  29
ATOM     29  N   UNL     1      -2.929  -1.692   2.746  1.00  0.00    -0.352 N 
ATOM     30  C   UNL     1      -3.914  -0.735   2.697  1.00  0.00     0.251 C 
ATOM     31  H   UNL     1      -2.355  -1.641   3.544  1.00  0.00     0.163 HD
ATOM     32  O   UNL     1      -3.896   0.167   3.534  1.00  0.00    -0.269 OA
BRANCH  30  33
ATOM     33  C   UNL     1      -4.989  -0.737   1.669  1.00  0.00     0.039 A 
ATOM     34  C   UNL     1      -5.476   0.501   1.225  1.00  0.00     0.014 A 
ATOM     35  C   UNL     1      -5.592  -1.906   1.199  1.00  0.00     0.014 A 
ATOM     36  C   UNL     1      -6.523   0.565   0.298  1.00  0.00     0.010 A 
ATOM     37  C   UNL     1      -6.589  -1.845   0.219  1.00  0.00     0.010 A 
ATOM     38  C   UNL     1      -7.076  -0.609  -0.233  1.00  0.00    -0.014 A 
BRANCH  38  39
ATOM     39  C   UNL     1      -8.177  -0.558  -1.234  1.00  0.00     0.031 A 
ATOM     40  C   UNL     1      -9.543  -1.095  -0.898  1.00  0.00     0.074 A 
ATOM     41  C   UNL     1      -7.945  -0.065  -2.467  1.00  0.00     0.049 A 
ATOM     42  N   UNL     1     -10.603  -1.197  -1.661  1.00  0.00    -0.248 NA
ATOM     43  C   UNL     1      -9.738  -1.604   0.468  1.00  0.00     0.031 C 
ATOM     44  C   UNL     1      -6.666   0.465  -2.938  1.00  0.00     0.029 A 
ATOM     45  N   UNL     1      -8.779   0.064  -3.551  1.00  0.00    -0.354 N 
ATOM     46  C   UNL     1     -11.580  -1.798  -0.877  1.00  0.00     0.074 A 
ATOM     47  C   UNL     1     -10.976  -2.073   0.409  1.00  0.00     0.031 C 
ATOM     48  C   UNL     1      -6.803   0.880  -4.207  1.00  0.00     0.029 A 
ATOM     49  C   UNL     1      -8.169   0.615  -4.652  1.00  0.00     0.049 A 
ATOM     50  H   UNL     1      -9.723  -0.212  -3.541  1.00  0.00     0.167 HD
ATOM     51  C   UNL     1     -12.867  -2.079  -1.191  1.00  0.00     0.037 A 
ATOM     52  C   UNL     1      -8.649   0.874  -5.884  1.00  0.00     0.037 A 
ATOM     53  C   UNL     1     -13.486  -1.769  -2.453  1.00  0.00     0.049 A 
ATOM     54  C   UNL     1     -10.080   0.557  -6.211  1.00  0.00     0.074 A 
ATOM     55  C   UNL     1     -14.805  -1.952  -2.831  1.00  0.00     0.029 A 
ATOM     56  N   UNL     1     -12.832  -1.210  -3.539  1.00  0.00    -0.354 N 
ATOM     57  N   UNL     1     -11.001   0.028  -5.444  1.00  0.00    -0.248 NA
ATOM     58  C   UNL     1     -10.540   0.874  -7.571  1.00  0.00     0.031 C 
ATOM     59  C   UNL     1     -14.941  -1.540  -4.161  1.00  0.00     0.029 A 
ATOM     60  C   UNL     1     -13.716  -1.063  -4.596  1.00  0.00     0.049 A 
ATOM     61  H   UNL     1     -11.882  -0.955  -3.557  1.00  0.00     0.167 HD
ATOM     62  C   UNL     1     -12.151  -0.039  -6.220  1.00  0.00     0.074 A 
ATOM     63  C   UNL     1     -11.816   0.515  -7.516  1.00  0.00     0.031 C 
ATOM     64  C   UNL     1     -13.374  -0.516  -5.884  1.00  0.00     0.037 A 
BRANCH  51  65
ATOM     65  C   UNL     1     -13.706  -2.754  -0.146  1.00  0.00     0.057 A 
ATOM     66  C   UNL     1     -14.107  -4.087  -0.304  1.00  0.00     0.134 A 
ATOM     67  C   UNL     1     -14.165  -2.071   0.988  1.00  0.00     0.134 A 
ATOM     68  F   UNL     1     -13.710  -4.796  -1.372  1.00  0.00    -0.206 F 
ATOM     69  C   UNL     1     -14.937  -4.715   0.626  1.00  0.00     0.040 A 
ATOM     70  C   UNL     1     -14.975  -2.696   1.937  1.00  0.00     0.040 A 
ATOM     71  F   UNL     1     -13.809  -0.796   1.202  1.00  0.00    -0.206 F 
ATOM     72  C   UNL     1     -15.370  -4.020   1.753  1.00  0.00     0.006 A 
ENDBRANCH  51  65
BRANCH  52  73
ATOM     73  C   UNL     1      -7.757   1.496  -6.894  1.00  0.00     0.057 A 
ATOM     74  C   UNL     1      -6.723   0.772  -7.499  1.00  0.00     0.134 A 
ATOM     75  C   UNL     1      -7.895   2.844  -7.241  1.00  0.00     0.134 A 
ATOM     76  F   UNL     1      -6.537  -0.522  -7.201  1.00  0.00    -0.206 F 
ATOM     77  C   UNL     1      -5.843   1.374  -8.400  1.00  0.00     0.040 A 
ATOM     78  C   UNL     1      -7.034   3.453  -8.155  1.00  0.00     0.040 A 
ATOM     79  F   UNL     1      -8.880   3.580  -6.706  1.00  0.00    -0.206 F 
ATOM     80  C   UNL     1      -5.998   2.719  -8.730  1.00  0.00     0.006 A 
ENDBRANCH  52  73
BRANCH  64  81
ATOM     81  C   UNL     1     -14.453  -0.458  -6.923  1.00  0.00     0.057 A 
ATOM     82  C   UNL     1     -15.509   0.456  -6.809  1.00  0.00     0.134 A 
ATOM     83  C   UNL     1     -14.489  -1.359  -7.994  1.00  0.00     0.134 A 
ATOM     84  F   UNL     1     -15.538   1.339  -5.800  1.00  0.00    -0.206 F 
ATOM     85  C   UNL     1     -16.570   0.462  -7.715  1.00  0.00     0.040 A 
ATOM     86  C   UNL     1     -15.534  -1.349  -8.919  1.00  0.00     0.040 A 
ATOM     87  F   UNL     1     -13.502  -2.252  -8.165  1.00  0.00    -0.206 F 
ATOM     88  C   UNL     1     -16.583  -0.443  -8.775  1.00  0.00     0.006 A 
ENDBRANCH  64  81
ENDBRANCH  38  39
ENDBRANCH  30  33
ENDBRANCH  28  29
ENDBRANCH  27  28
ENDBRANCH  26  27
ENDBRANCH   1  26
TORSDOF 16
