REMARK SMILES O=C(NCCCCCCNC(=O)c1cc(S(=O)(=O)NCc2ccncc2)c(Cl)cc1Cl)c1ccc(-c2c3nc(c(-c4c(F)cccc4F)c4ccc([nH]4)c(-c4c(F)cccc4F)c4nc(c(-c5c(F)cccc5F)c5ccc2[nH]5)C=C4)C=C3)cc1
REMARK SMILES IDX 7 1 6 2 5 3 4 4 3 5 1 6 2 7 32 9 33 10 85 11 34 12 84 13
REMARK SMILES IDX 35 14 36 15 37 16 78 17 38 18 83 19 77 20 79 21 39 22 82 23
REMARK SMILES IDX 76 24 75 25 40 27 66 28 49 29 65 30 50 31 53 32 64 33 80 34
REMARK SMILES IDX 51 35 52 36 63 38 81 39 54 40 41 41 42 42 47 43 43 44 44 45
REMARK SMILES IDX 46 46 48 47 45 48 67 49 68 50 73 51 69 52 70 53 72 54 74 55
REMARK SMILES IDX 71 56 55 57 56 58 61 59 57 60 58 61 60 62 62 63 59 64 8 65
REMARK SMILES IDX 9 66 10 67 11 68 12 70 13 71 14 72 30 73 15 74 29 75 31 76
REMARK SMILES IDX 27 77 28 78 16 79 17 80 18 81 19 82 20 84 21 85 22 86 26 87
REMARK SMILES IDX 23 88 25 89 24 90
REMARK H PARENT 3 8 79 26 53 37 10 69 19 83
REMARK Flexibility Score: inf
ROOT
ATOM      1  C   UNL     1       4.776  -2.068   3.795  1.00  0.00     0.002 C 
ENDROOT
BRANCH   1   2
ATOM      2  C   UNL     1       4.242  -0.633   3.819  1.00  0.00     0.002 C 
BRANCH   2   3
ATOM      3  C   UNL     1       4.695   0.265   2.667  1.00  0.00     0.021 C 
BRANCH   3   4
ATOM      4  C   UNL     1       4.436  -0.285   1.268  1.00  0.00     0.116 C 
BRANCH   4   5
ATOM      5  N   UNL     1       3.022  -0.466   0.992  1.00  0.00    -0.352 N 
ATOM      6  O   UNL     1       1.056  -0.134  -0.058  1.00  0.00    -0.269 OA
ATOM      7  C   UNL     1       2.277  -0.007  -0.065  1.00  0.00     0.251 C 
ATOM      8  H   UNL     1       2.526  -0.994   1.659  1.00  0.00     0.163 HD
BRANCH   7   9
ATOM      9  C   UNL     1       2.938   0.660  -1.206  1.00  0.00     0.039 A 
ATOM     10  C   UNL     1       4.079   0.114  -1.804  1.00  0.00     0.014 A 
ATOM     11  C   UNL     1       2.379   1.838  -1.709  1.00  0.00     0.014 A 
ATOM     12  C   UNL     1       4.716   0.796  -2.837  1.00  0.00     0.010 A 
ATOM     13  C   UNL     1       2.985   2.492  -2.783  1.00  0.00     0.010 A 
ATOM     14  C   UNL     1       4.169   1.985  -3.342  1.00  0.00    -0.014 A 
BRANCH  14  15
ATOM     15  C   UNL     1       4.799   2.665  -4.499  1.00  0.00     0.031 A 
ATOM     16  C   UNL     1       5.439   4.013  -4.345  1.00  0.00     0.074 A 
ATOM     17  C   UNL     1       4.754   2.072  -5.706  1.00  0.00     0.049 A 
ATOM     18  N   UNL     1       5.966   4.785  -5.262  1.00  0.00    -0.248 NA
ATOM     19  C   UNL     1       5.482   4.574  -2.987  1.00  0.00     0.031 C 
ATOM     20  C   UNL     1       4.141   0.771  -5.982  1.00  0.00     0.029 A 
ATOM     21  N   UNL     1       5.215   2.490  -6.928  1.00  0.00    -0.354 N 
ATOM     22  C   UNL     1       6.383   5.931  -4.598  1.00  0.00     0.074 A 
ATOM     23  C   UNL     1       6.032   5.761  -3.203  1.00  0.00     0.031 C 
ATOM     24  C   UNL     1       4.266   0.496  -7.288  1.00  0.00     0.029 A 
ATOM     25  C   UNL     1       4.923   1.620  -7.948  1.00  0.00     0.049 A 
ATOM     26  H   UNL     1       5.708   3.332  -7.060  1.00  0.00     0.167 HD
ATOM     27  C   UNL     1       7.006   7.021  -5.107  1.00  0.00     0.037 A 
ATOM     28  C   UNL     1       5.130   1.726  -9.273  1.00  0.00     0.037 A 
ATOM     29  C   UNL     1       7.369   7.176  -6.492  1.00  0.00     0.049 A 
ATOM     30  C   UNL     1       5.808   2.947  -9.817  1.00  0.00     0.074 A 
ATOM     31  C   UNL     1       8.059   8.215  -7.092  1.00  0.00     0.029 A 
ATOM     32  N   UNL     1       7.063   6.268  -7.495  1.00  0.00    -0.354 N 
ATOM     33  N   UNL     1       6.242   4.002  -9.171  1.00  0.00    -0.248 NA
ATOM     34  C   UNL     1       6.024   2.997 -11.269  1.00  0.00     0.031 C 
ATOM     35  C   UNL     1       8.134   7.955  -8.465  1.00  0.00     0.029 A 
ATOM     36  C   UNL     1       7.525   6.736  -8.714  1.00  0.00     0.049 A 
ATOM     37  H   UNL     1       6.587   5.417  -7.360  1.00  0.00     0.167 HD
ATOM     38  C   UNL     1       6.794   4.836 -10.133  1.00  0.00     0.074 A 
ATOM     39  C   UNL     1       6.649   4.159 -11.407  1.00  0.00     0.031 C 
ATOM     40  C   UNL     1       7.370   6.052  -9.973  1.00  0.00     0.037 A 
BRANCH  27  41
ATOM     41  C   UNL     1       7.314   8.144  -4.161  1.00  0.00     0.057 A 
ATOM     42  C   UNL     1       8.336   8.051  -3.208  1.00  0.00     0.134 A 
ATOM     43  C   UNL     1       6.595   9.344  -4.224  1.00  0.00     0.134 A 
ATOM     44  F   UNL     1       9.056   6.925  -3.090  1.00  0.00    -0.206 F 
ATOM     45  C   UNL     1       8.615   9.103  -2.333  1.00  0.00     0.040 A 
ATOM     46  C   UNL     1       6.879  10.411  -3.369  1.00  0.00     0.040 A 
ATOM     47  F   UNL     1       5.608   9.501  -5.119  1.00  0.00    -0.206 F 
ATOM     48  C   UNL     1       7.888  10.289  -2.415  1.00  0.00     0.006 A 
ENDBRANCH  27  41
BRANCH  28  49
ATOM     49  C   UNL     1       4.670   0.635 -10.164  1.00  0.00     0.057 A 
ATOM     50  C   UNL     1       5.575  -0.264 -10.735  1.00  0.00     0.134 A 
ATOM     51  C   UNL     1       3.307   0.431 -10.412  1.00  0.00     0.134 A 
ATOM     52  F   UNL     1       6.893  -0.110 -10.542  1.00  0.00    -0.206 F 
ATOM     53  C   UNL     1       5.141  -1.331 -11.523  1.00  0.00     0.040 A 
ATOM     54  C   UNL     1       2.858  -0.643 -11.180  1.00  0.00     0.040 A 
ATOM     55  F   UNL     1       2.392   1.256  -9.882  1.00  0.00    -0.206 F 
ATOM     56  C   UNL     1       3.778  -1.528 -11.739  1.00  0.00     0.006 A 
ENDBRANCH  28  49
BRANCH  40  57
ATOM     57  C   UNL     1       7.904   6.723 -11.201  1.00  0.00     0.057 A 
ATOM     58  C   UNL     1       7.056   7.352 -12.120  1.00  0.00     0.134 A 
ATOM     59  C   UNL     1       9.282   6.788 -11.437  1.00  0.00     0.134 A 
ATOM     60  F   UNL     1       5.725   7.312 -11.956  1.00  0.00    -0.206 F 
ATOM     61  C   UNL     1       7.561   8.016 -13.239  1.00  0.00     0.040 A 
ATOM     62  C   UNL     1       9.800   7.465 -12.542  1.00  0.00     0.040 A 
ATOM     63  F   UNL     1      10.146   6.209 -10.590  1.00  0.00    -0.206 F 
ATOM     64  C   UNL     1       8.938   8.080 -13.447  1.00  0.00     0.006 A 
ENDBRANCH  40  57
ENDBRANCH  14  15
ENDBRANCH   7   9
ENDBRANCH   4   5
ENDBRANCH   3   4
ENDBRANCH   2   3
ENDBRANCH   1   2
BRANCH   1  65
ATOM     65  C   UNL     1       6.298  -2.216   3.687  1.00  0.00     0.021 C 
BRANCH  65  66
ATOM     66  C   UNL     1       7.109  -1.480   4.749  1.00  0.00     0.116 C 
BRANCH  66  67
ATOM     67  N   UNL     1       6.784  -1.925   6.091  1.00  0.00    -0.352 N 
ATOM     68  C   UNL     1       7.597  -2.361   7.102  1.00  0.00     0.252 C 
ATOM     69  H   UNL     1       5.824  -1.913   6.309  1.00  0.00     0.163 HD
ATOM     70  O   UNL     1       7.105  -2.744   8.159  1.00  0.00    -0.269 OA
BRANCH  68  71
ATOM     71  C   UNL     1       9.068  -2.309   6.964  1.00  0.00     0.059 A 
ATOM     72  C   UNL     1       9.674  -1.090   6.631  1.00  0.00     0.038 A 
ATOM     73  C   UNL     1       9.870  -3.408   7.276  1.00  0.00     0.055 A 
ATOM     74  C   UNL     1      11.075  -0.962   6.605  1.00  0.00     0.101 A 
ATOM     75  C   UNL     1      11.263  -3.262   7.306  1.00  0.00     0.043 A 
ATOM     76  Cl  UNL     1       9.227  -4.977   7.598  1.00  0.00    -0.083 Cl
ATOM     77  C   UNL     1      11.870  -2.033   7.004  1.00  0.00     0.062 A 
ATOM     78  Cl  UNL     1      13.578  -1.950   7.227  1.00  0.00    -0.083 Cl
BRANCH  74  79
ATOM     79  S   UNL     1      11.691   0.604   6.050  1.00  0.00     0.242 S 
ATOM     80  O   UNL     1      10.758   1.071   5.049  1.00  0.00    -0.207 OA
ATOM     81  O   UNL     1      11.962   1.378   7.240  1.00  0.00    -0.207 OA
BRANCH  79  82
ATOM     82  N   UNL     1      13.153   0.377   5.292  1.00  0.00    -0.207 NA
ATOM     83  H   UNL     1      13.790   0.041   6.014  1.00  0.00     0.141 HD
BRANCH  82  84
ATOM     84  C   UNL     1      13.350  -0.504   4.151  1.00  0.00     0.134 C 
BRANCH  84  85
ATOM     85  C   UNL     1      12.799  -0.036   2.834  1.00  0.00    -0.030 A 
ATOM     86  C   UNL     1      12.862   1.302   2.438  1.00  0.00     0.025 A 
ATOM     87  C   UNL     1      12.281  -0.970   1.929  1.00  0.00     0.025 A 
ATOM     88  C   UNL     1      12.382   1.647   1.184  1.00  0.00     0.111 A 
ATOM     89  C   UNL     1      11.831  -0.528   0.696  1.00  0.00     0.111 A 
ATOM     90  N   UNL     1      11.868   0.761   0.304  1.00  0.00    -0.265 NA
ENDBRANCH  84  85
ENDBRANCH  82  84
ENDBRANCH  79  82
ENDBRANCH  74  79
ENDBRANCH  68  71
ENDBRANCH  66  67
ENDBRANCH  65  66
ENDBRANCH   1  65
TORSDOF 17
