REMARK SMILES Cc1cccc(C)c1OCC(=O)N1CCC[C@@H](C(=O)NCCCCCCNC(=O)c2ccc(-c3c4nc(c(-c5c(F)cccc5F)c5ccc([nH]5)c(-c5c(F)cccc5F)c5nc(c(-c6c(F)cccc6F)c6ccc3[nH]6)C=C5)C=C4)cc2)C1
REMARK SMILES IDX 22 1 21 2 20 3 18 4 19 5 17 7 13 8 14 9 84 10 15 11 16 12
REMARK SMILES IDX 11 13 12 14 10 15 9 16 8 17 1 18 2 19 3 20 4 21 6 22 5 23
REMARK SMILES IDX 7 24 23 25 24 26 25 27 26 28 27 29 28 30 29 32 30 33 31 34
REMARK SMILES IDX 83 35 32 36 82 37 33 38 34 39 35 40 76 41 36 42 81 43 75 44
REMARK SMILES IDX 77 45 37 46 80 47 74 48 73 49 38 51 64 52 47 53 63 54 48 55
REMARK SMILES IDX 51 56 62 57 78 58 49 59 50 60 61 62 79 63 52 64 39 65 40 66
REMARK SMILES IDX 45 67 41 68 42 69 44 70 46 71 43 72 65 73 66 74 71 75 67 76
REMARK SMILES IDX 68 77 70 78 72 79 69 80 53 81 54 82 59 83 55 84 56 85 58 86
REMARK SMILES IDX 60 87 57 88
REMARK H PARENT 20 6 27 31 77 50 51 61
REMARK Flexibility Score: inf
ROOT
ATOM      1  C   UNL     1      -1.178  -1.895   4.891  1.00  0.00     0.021 C 
ENDROOT
BRANCH   1   2
ATOM      2  C   UNL     1      -1.100  -0.813   3.816  1.00  0.00     0.116 C 
BRANCH   2   3
ATOM      3  N   UNL     1      -1.753   0.408   4.253  1.00  0.00    -0.356 N 
ATOM      4  C   UNL     1      -1.273   1.673   4.380  1.00  0.00     0.224 C 
ATOM      5  O   UNL     1      -2.027   2.542   4.820  1.00  0.00    -0.275 OA
ATOM      6  H   UNL     1      -2.701   0.302   4.498  1.00  0.00     0.163 HD
BRANCH   4   7
ATOM      7  C   UNL     1       0.152   1.989   3.985  1.00  0.00     0.098 C 
ATOM      8  N   UNL     1       1.515   3.462   2.595  1.00  0.00    -0.339 N 
ATOM      9  C   UNL     1       2.403   3.817   3.704  1.00  0.00     0.119 C 
ATOM     10  C   UNL     1       0.141   3.161   3.001  1.00  0.00     0.133 C 
ATOM     11  C   UNL     1       2.411   2.738   4.789  1.00  0.00     0.022 C 
ATOM     12  C   UNL     1       0.993   2.349   5.216  1.00  0.00     0.017 C 
BRANCH   8  13
ATOM     13  C   UNL     1       2.017   3.416   1.304  1.00  0.00     0.260 C 
ATOM     14  O   UNL     1       3.213   3.629   1.073  1.00  0.00    -0.271 OA
BRANCH  13  15
ATOM     15  C   UNL     1       1.064   3.200   0.107  1.00  0.00     0.329 C 
BRANCH  15  16
ATOM     16  O   UNL     1       0.018   2.267   0.103  1.00  0.00    -0.483 OA
BRANCH  16  17
ATOM     17  C   UNL     1       0.142   0.914   0.017  1.00  0.00     0.125 A 
ATOM     18  C   UNL     1       2.715   0.636  -0.070  1.00  0.00     0.048 C 
ATOM     19  C   UNL     1       1.303   0.126  -0.042  1.00  0.00    -0.009 A 
ATOM     20  C   UNL     1       1.162  -1.281  -0.056  1.00  0.00     0.007 A 
ATOM     21  C   UNL     1      -0.085  -1.898  -0.053  1.00  0.00     0.001 A 
ATOM     22  C   UNL     1      -1.129   0.277   0.003  1.00  0.00    -0.009 A 
ATOM     23  C   UNL     1      -1.231  -1.120  -0.037  1.00  0.00     0.007 A 
ATOM     24  C   UNL     1      -2.400   1.092   0.013  1.00  0.00     0.048 C 
ENDBRANCH  16  17
ENDBRANCH  15  16
ENDBRANCH  13  15
ENDBRANCH   8  13
ENDBRANCH   4   7
ENDBRANCH   2   3
ENDBRANCH   1   2
BRANCH   1  25
ATOM     25  C   UNL     1      -2.602  -2.367   5.208  1.00  0.00     0.002 C 
BRANCH  25  26
ATOM     26  C   UNL     1      -3.394  -2.898   4.008  1.00  0.00     0.002 C 
BRANCH  26  27
ATOM     27  C   UNL     1      -2.717  -4.034   3.239  1.00  0.00     0.021 C 
BRANCH  27  28
ATOM     28  C   UNL     1      -2.389  -5.262   4.081  1.00  0.00     0.116 C 
BRANCH  28  29
ATOM     29  N   UNL     1      -3.583  -5.899   4.613  1.00  0.00    -0.352 N 
ATOM     30  C   UNL     1      -3.990  -7.207   4.518  1.00  0.00     0.251 C 
ATOM     31  H   UNL     1      -4.189  -5.306   5.114  1.00  0.00     0.163 HD
ATOM     32  O   UNL     1      -5.119  -7.530   4.865  1.00  0.00    -0.269 OA
BRANCH  30  33
ATOM     33  C   UNL     1      -3.066  -8.224   3.971  1.00  0.00     0.039 A 
ATOM     34  C   UNL     1      -3.554  -9.152   3.049  1.00  0.00     0.014 A 
ATOM     35  C   UNL     1      -1.726  -8.262   4.367  1.00  0.00     0.014 A 
ATOM     36  C   UNL     1      -2.682 -10.081   2.477  1.00  0.00     0.010 A 
ATOM     37  C   UNL     1      -0.844  -9.135   3.738  1.00  0.00     0.010 A 
ATOM     38  C   UNL     1      -1.313 -10.057   2.790  1.00  0.00    -0.014 A 
BRANCH  38  39
ATOM     39  C   UNL     1      -0.358 -10.986   2.134  1.00  0.00     0.031 A 
ATOM     40  C   UNL     1       0.396 -11.999   2.950  1.00  0.00     0.074 A 
ATOM     41  C   UNL     1      -0.125 -10.878   0.812  1.00  0.00     0.049 A 
ATOM     42  N   UNL     1       1.309 -12.855   2.568  1.00  0.00    -0.248 NA
ATOM     43  C   UNL     1       0.105 -12.035   4.392  1.00  0.00     0.031 C 
ATOM     44  C   UNL     1      -0.760  -9.909  -0.083  1.00  0.00     0.029 A 
ATOM     45  N   UNL     1       0.716 -11.586  -0.009  1.00  0.00    -0.354 N 
ATOM     46  C   UNL     1       1.706 -13.523   3.719  1.00  0.00     0.074 A 
ATOM     47  C   UNL     1       0.981 -12.930   4.822  1.00  0.00     0.031 C 
ATOM     48  C   UNL     1      -0.308 -10.103  -1.332  1.00  0.00     0.029 A 
ATOM     49  C   UNL     1       0.678 -11.178  -1.321  1.00  0.00     0.049 A 
ATOM     50  H   UNL     1       1.292 -12.318   0.311  1.00  0.00     0.167 HD
ATOM     51  C   UNL     1       2.576 -14.554   3.845  1.00  0.00     0.037 A 
ATOM     52  C   UNL     1       1.366 -11.616  -2.392  1.00  0.00     0.037 A 
ATOM     53  C   UNL     1       3.288 -15.149   2.743  1.00  0.00     0.049 A 
ATOM     54  C   UNL     1       2.350 -12.741  -2.224  1.00  0.00     0.074 A 
ATOM     55  C   UNL     1       4.151 -16.230   2.757  1.00  0.00     0.029 A 
ATOM     56  N   UNL     1       3.225 -14.705   1.430  1.00  0.00    -0.354 N 
ATOM     57  N   UNL     1       2.664 -13.410  -1.141  1.00  0.00    -0.248 NA
ATOM     58  C   UNL     1       3.070 -13.175  -3.428  1.00  0.00     0.031 C 
ATOM     59  C   UNL     1       4.655 -16.405   1.464  1.00  0.00     0.029 A 
ATOM     60  C   UNL     1       4.058 -15.472   0.631  1.00  0.00     0.049 A 
ATOM     61  H   UNL     1       2.670 -13.957   1.112  1.00  0.00     0.167 HD
ATOM     62  C   UNL     1       3.595 -14.362  -1.538  1.00  0.00     0.074 A 
ATOM     63  C   UNL     1       3.783 -14.192  -2.964  1.00  0.00     0.031 C 
ATOM     64  C   UNL     1       4.235 -15.294  -0.789  1.00  0.00     0.037 A 
BRANCH  51  65
ATOM     65  C   UNL     1       2.809 -15.096   5.227  1.00  0.00     0.057 A 
ATOM     66  C   UNL     1       1.811 -15.784   5.932  1.00  0.00     0.134 A 
ATOM     67  C   UNL     1       4.052 -14.945   5.855  1.00  0.00     0.134 A 
ATOM     68  F   UNL     1       0.594 -15.956   5.394  1.00  0.00    -0.206 F 
ATOM     69  C   UNL     1       2.028 -16.266   7.224  1.00  0.00     0.040 A 
ATOM     70  C   UNL     1       4.291 -15.452   7.134  1.00  0.00     0.040 A 
ATOM     71  F   UNL     1       5.056 -14.305   5.237  1.00  0.00    -0.206 F 
ATOM     72  C   UNL     1       3.274 -16.106   7.826  1.00  0.00     0.006 A 
ENDBRANCH  51  65
BRANCH  52  73
ATOM     73  C   UNL     1       1.131 -11.005  -3.725  1.00  0.00     0.057 A 
ATOM     74  C   UNL     1       0.501 -11.724  -4.747  1.00  0.00     0.134 A 
ATOM     75  C   UNL     1       1.526  -9.692  -4.010  1.00  0.00     0.134 A 
ATOM     76  F   UNL     1       0.115 -12.992  -4.540  1.00  0.00    -0.206 F 
ATOM     77  C   UNL     1       0.289 -11.169  -6.010  1.00  0.00     0.040 A 
ATOM     78  C   UNL     1       1.296  -9.115  -5.260  1.00  0.00     0.040 A 
ATOM     79  F   UNL     1       2.127  -8.946  -3.071  1.00  0.00    -0.206 F 
ATOM     80  C   UNL     1       0.682  -9.857  -6.266  1.00  0.00     0.006 A 
ENDBRANCH  52  73
BRANCH  64  81
ATOM     81  C   UNL     1       5.172 -16.226  -1.503  1.00  0.00     0.057 A 
ATOM     82  C   UNL     1       6.401 -15.794  -2.018  1.00  0.00     0.134 A 
ATOM     83  C   UNL     1       4.855 -17.584  -1.642  1.00  0.00     0.134 A 
ATOM     84  F   UNL     1       6.760 -14.504  -1.931  1.00  0.00    -0.206 F 
ATOM     85  C   UNL     1       7.269 -16.674  -2.669  1.00  0.00     0.040 A 
ATOM     86  C   UNL     1       5.728 -18.479  -2.262  1.00  0.00     0.040 A 
ATOM     87  F   UNL     1       3.699 -18.067  -1.163  1.00  0.00    -0.206 F 
ATOM     88  C   UNL     1       6.936 -18.022  -2.784  1.00  0.00     0.006 A 
ENDBRANCH  64  81
ENDBRANCH  38  39
ENDBRANCH  30  33
ENDBRANCH  28  29
ENDBRANCH  27  28
ENDBRANCH  26  27
ENDBRANCH  25  26
ENDBRANCH   1  25
TORSDOF 17
