REMARK SMILES Cc1ccc(NC(=O)C[C@H]2SC[C@H](C(=O)NCCCCCCNC(=O)c3ccc(-c4c5nc(c(-c6c(F)cccc6F)c6ccc([nH]6)c(-c6c(F)cccc6F)c6nc(c(-c7c(F)cccc7F)c7ccc4[nH]7)C=C6)C=C5)cc3)NC2=O)cc1
REMARK SMILES IDX 19 1 18 2 17 3 16 4 14 5 15 6 13 8 10 9 11 10 81 11 12 12
REMARK SMILES IDX 80 13 82 14 9 16 7 17 6 18 8 20 5 21 1 22 2 23 3 24 84 25
REMARK SMILES IDX 4 26 83 27 20 28 21 29 22 30 23 31 24 32 25 34 26 35 27 36
REMARK SMILES IDX 79 37 28 38 78 39 29 40 30 41 31 42 72 43 32 44 77 45 71 46
REMARK SMILES IDX 73 47 33 48 76 49 70 50 69 51 34 53 60 54 43 55 59 56 44 57
REMARK SMILES IDX 47 58 58 59 74 60 45 61 46 62 57 64 75 65 48 66 35 67 36 68
REMARK SMILES IDX 41 69 37 70 38 71 40 72 42 73 39 74 61 75 62 76 67 77 63 78
REMARK SMILES IDX 64 79 66 80 68 81 65 82 49 83 50 84 55 85 51 86 52 87 54 88
REMARK SMILES IDX 56 89 53 90
REMARK H PARENT 16 7 80 15 6 19 23 33 73 52 47 63
REMARK Flexibility Score: inf
ROOT
ATOM      1  C   UNL     1      -8.836  -3.505  -1.013  1.00  0.00     0.002 C 
ENDROOT
BRANCH   1   2
ATOM      2  C   UNL     1      -7.370  -3.046  -0.932  1.00  0.00     0.021 C 
BRANCH   2   3
ATOM      3  C   UNL     1      -6.332  -4.081  -1.379  1.00  0.00     0.116 C 
BRANCH   3   4
ATOM      4  N   UNL     1      -6.494  -4.413  -2.781  1.00  0.00    -0.354 N 
ATOM      5  C   UNL     1      -5.687  -4.195  -3.856  1.00  0.00     0.243 C 
ATOM      6  O   UNL     1      -6.104  -4.559  -4.959  1.00  0.00    -0.273 OA
ATOM      7  H   UNL     1      -7.336  -4.877  -2.994  1.00  0.00     0.163 HD
BRANCH   5   8
ATOM      8  C   UNL     1      -4.296  -3.555  -3.720  1.00  0.00     0.181 C 
ATOM      9  C   UNL     1      -2.042  -2.701  -1.875  1.00  0.00     0.145 C 
ATOM     10  S   UNL     1      -2.699  -1.399  -3.008  1.00  0.00    -0.145 SA
ATOM     11  C   UNL     1      -2.167  -4.082  -2.532  1.00  0.00     0.234 C 
ATOM     12  C   UNL     1      -4.361  -2.100  -3.265  1.00  0.00     0.105 C 
ATOM     13  N   UNL     1      -3.420  -4.446  -2.963  1.00  0.00    -0.343 N 
ATOM     14  O   UNL     1      -1.277  -4.923  -2.594  1.00  0.00    -0.274 OA
ATOM     15  H   UNL     1      -3.743  -5.351  -2.751  1.00  0.00     0.164 HD
BRANCH   9  16
ATOM     16  C   UNL     1      -0.675  -2.266  -1.335  1.00  0.00     0.124 C 
BRANCH  16  17
ATOM     17  C   UNL     1       0.367  -3.322  -1.032  1.00  0.00     0.226 C 
ATOM     18  N   UNL     1       0.145  -4.391  -0.223  1.00  0.00    -0.326 N 
ATOM     19  H   UNL     1       0.892  -5.032  -0.213  1.00  0.00     0.169 HD
ATOM     20  O   UNL     1       1.491  -3.223  -1.540  1.00  0.00    -0.275 OA
BRANCH  18  21
ATOM     21  C   UNL     1      -0.921  -4.771   0.599  1.00  0.00     0.041 A 
ATOM     22  C   UNL     1      -4.190  -6.245   2.998  1.00  0.00     0.044 C 
ATOM     23  C   UNL     1      -3.037  -5.738   2.184  1.00  0.00    -0.051 A 
ATOM     24  C   UNL     1      -2.832  -4.362   2.025  1.00  0.00     0.005 A 
ATOM     25  C   UNL     1      -2.159  -6.628   1.562  1.00  0.00     0.005 A 
ATOM     26  C   UNL     1      -1.775  -3.881   1.242  1.00  0.00     0.026 A 
ATOM     27  C   UNL     1      -1.099  -6.145   0.792  1.00  0.00     0.026 A 
ENDBRANCH  18  21
ENDBRANCH  16  17
ENDBRANCH   9  16
ENDBRANCH   5   8
ENDBRANCH   3   4
ENDBRANCH   2   3
ENDBRANCH   1   2
BRANCH   1  28
ATOM     28  C   UNL     1      -9.186  -4.823  -0.303  1.00  0.00     0.002 C 
BRANCH  28  29
ATOM     29  C   UNL     1      -8.714  -4.952   1.147  1.00  0.00     0.021 C 
BRANCH  29  30
ATOM     30  C   UNL     1      -9.377  -3.979   2.117  1.00  0.00     0.116 C 
BRANCH  30  31
ATOM     31  N   UNL     1     -10.537  -4.514   2.804  1.00  0.00    -0.352 N 
ATOM     32  C   UNL     1     -11.455  -3.864   3.629  1.00  0.00     0.251 C 
ATOM     33  H   UNL     1     -10.700  -5.476   2.669  1.00  0.00     0.163 HD
ATOM     34  O   UNL     1     -12.362  -4.484   4.139  1.00  0.00    -0.269 OA
BRANCH  32  35
ATOM     35  C   UNL     1     -11.384  -2.385   3.762  1.00  0.00     0.039 A 
ATOM     36  C   UNL     1     -12.575  -1.665   3.610  1.00  0.00     0.014 A 
ATOM     37  C   UNL     1     -10.168  -1.712   3.835  1.00  0.00     0.014 A 
ATOM     38  C   UNL     1     -12.519  -0.314   3.269  1.00  0.00     0.010 A 
ATOM     39  C   UNL     1     -10.102  -0.395   3.415  1.00  0.00     0.010 A 
ATOM     40  C   UNL     1     -11.272   0.278   3.057  1.00  0.00    -0.014 A 
BRANCH  40  41
ATOM     41  C   UNL     1     -11.115   1.502   2.278  1.00  0.00     0.031 A 
ATOM     42  C   UNL     1     -10.786   2.795   2.907  1.00  0.00     0.074 A 
ATOM     43  C   UNL     1     -11.254   1.452   0.934  1.00  0.00     0.049 A 
ATOM     44  N   UNL     1     -11.205   3.931   2.455  1.00  0.00    -0.248 NA
ATOM     45  C   UNL     1      -9.968   2.909   4.109  1.00  0.00     0.031 C 
ATOM     46  C   UNL     1     -10.919   2.497  -0.029  1.00  0.00     0.029 A 
ATOM     47  N   UNL     1     -11.935   0.488   0.182  1.00  0.00    -0.354 N 
ATOM     48  C   UNL     1     -10.508   4.912   3.114  1.00  0.00     0.074 A 
ATOM     49  C   UNL     1      -9.810   4.236   4.186  1.00  0.00     0.031 C 
ATOM     50  C   UNL     1     -11.600   2.275  -1.164  1.00  0.00     0.029 A 
ATOM     51  C   UNL     1     -12.498   1.159  -0.921  1.00  0.00     0.049 A 
ATOM     52  H   UNL     1     -12.006  -0.472   0.385  1.00  0.00     0.167 HD
ATOM     53  C   UNL     1     -10.452   6.177   2.611  1.00  0.00     0.037 A 
ATOM     54  C   UNL     1     -13.842   1.169  -1.148  1.00  0.00     0.037 A 
ATOM     55  C   UNL     1     -11.169   6.309   1.351  1.00  0.00     0.049 A 
ATOM     56  C   UNL     1     -14.452   2.549  -1.200  1.00  0.00     0.074 A 
ATOM     57  C   UNL     1     -10.742   6.268   0.033  1.00  0.00     0.029 A 
ATOM     58  N   UNL     1     -12.555   6.201   1.317  1.00  0.00    -0.354 N 
ATOM     59  N   UNL     1     -13.870   3.616  -0.731  1.00  0.00    -0.248 NA
ATOM     60  C   UNL     1     -15.787   2.826  -1.725  1.00  0.00     0.031 C 
ATOM     61  C   UNL     1     -11.874   6.110  -0.797  1.00  0.00     0.029 A 
ATOM     62  C   UNL     1     -12.993   6.058   0.014  1.00  0.00     0.049 A 
ATOM     63  H   UNL     1     -13.140   6.224   2.108  1.00  0.00     0.167 HD
ATOM     64  C   UNL     1     -14.732   4.680  -0.815  1.00  0.00     0.074 A 
ATOM     65  C   UNL     1     -15.904   4.143  -1.478  1.00  0.00     0.031 C 
ATOM     66  C   UNL     1     -14.405   5.901  -0.299  1.00  0.00     0.037 A 
BRANCH  53  67
ATOM     67  C   UNL     1      -9.460   7.178   3.136  1.00  0.00     0.057 A 
ATOM     68  C   UNL     1      -8.678   7.970   2.276  1.00  0.00     0.134 A 
ATOM     69  C   UNL     1      -9.204   7.354   4.506  1.00  0.00     0.134 A 
ATOM     70  F   UNL     1      -8.855   7.962   0.950  1.00  0.00    -0.206 F 
ATOM     71  C   UNL     1      -7.646   8.795   2.738  1.00  0.00     0.040 A 
ATOM     72  C   UNL     1      -8.148   8.144   4.980  1.00  0.00     0.040 A 
ATOM     73  F   UNL     1      -9.969   6.755   5.432  1.00  0.00    -0.206 F 
ATOM     74  C   UNL     1      -7.354   8.857   4.092  1.00  0.00     0.006 A 
ENDBRANCH  53  67
BRANCH  54  75
ATOM     75  C   UNL     1     -14.545  -0.031  -0.625  1.00  0.00     0.057 A 
ATOM     76  C   UNL     1     -14.251  -1.288  -1.180  1.00  0.00     0.134 A 
ATOM     77  C   UNL     1     -15.210  -0.013   0.603  1.00  0.00     0.134 A 
ATOM     78  F   UNL     1     -13.605  -1.374  -2.354  1.00  0.00    -0.206 F 
ATOM     79  C   UNL     1     -14.516  -2.476  -0.495  1.00  0.00     0.040 A 
ATOM     80  C   UNL     1     -15.489  -1.197   1.294  1.00  0.00     0.040 A 
ATOM     81  F   UNL     1     -15.502   1.148   1.206  1.00  0.00    -0.206 F 
ATOM     82  C   UNL     1     -15.111  -2.429   0.762  1.00  0.00     0.006 A 
ENDBRANCH  54  75
BRANCH  66  83
ATOM     83  C   UNL     1     -15.330   7.081  -0.125  1.00  0.00     0.057 A 
ATOM     84  C   UNL     1     -16.716   6.981   0.065  1.00  0.00     0.134 A 
ATOM     85  C   UNL     1     -14.804   8.387   0.001  1.00  0.00     0.134 A 
ATOM     86  F   UNL     1     -17.339   5.795   0.082  1.00  0.00    -0.206 F 
ATOM     87  C   UNL     1     -17.525   8.100   0.307  1.00  0.00     0.040 A 
ATOM     88  C   UNL     1     -15.594   9.503   0.294  1.00  0.00     0.040 A 
ATOM     89  F   UNL     1     -13.492   8.635  -0.131  1.00  0.00    -0.206 F 
ATOM     90  C   UNL     1     -16.965   9.365   0.434  1.00  0.00     0.006 A 
ENDBRANCH  66  83
ENDBRANCH  40  41
ENDBRANCH  32  35
ENDBRANCH  30  31
ENDBRANCH  29  30
ENDBRANCH  28  29
ENDBRANCH   1  28
TORSDOF 16
