REMARK SMILES O=C(C[C@@H]1CSCC[NH2+]1)NC[C@H]1CC[C@@H](C(=O)NCCCCCCNC(=O)c2ccc(-c3c4nc(c(-c5c(F)cccc5F)c5ccc([nH]5)c(-c5c(F)cccc5F)c5nc(c(-c6c(F)cccc6F)c6ccc3[nH]6)C=C5)C=C4)cc2)O1
REMARK SMILES IDX 20 1 19 2 18 3 16 4 17 5 15 7 12 8 13 9 82 10 14 11 11 12
REMARK SMILES IDX 10 13 1 14 2 15 3 17 4 18 5 19 9 20 6 21 8 22 7 25 21 26
REMARK SMILES IDX 22 27 23 28 24 29 25 30 26 31 27 33 28 34 29 35 81 36 30 37
REMARK SMILES IDX 80 38 31 39 32 40 33 41 74 42 34 43 79 44 73 45 75 46 35 47
REMARK SMILES IDX 78 48 72 49 71 50 36 52 62 53 45 54 61 55 46 56 49 57 60 58
REMARK SMILES IDX 76 59 47 60 48 61 59 63 77 64 50 65 37 66 38 67 43 68 39 69
REMARK SMILES IDX 40 70 42 71 44 72 41 73 63 74 64 75 69 76 65 77 66 78 68 79
REMARK SMILES IDX 70 80 67 81 51 82 52 83 57 84 53 85 54 86 56 87 58 88 55 89
REMARK H PARENT 18 6 10 16 9 23 9 24 25 32 75 51 49 62
REMARK Flexibility Score: inf
ROOT
ATOM      1  C   UNL     1       2.781  -8.408  -2.071  1.00  0.00     0.021 C 
ENDROOT
BRANCH   1   2
ATOM      2  C   UNL     1       3.092  -6.937  -2.344  1.00  0.00     0.116 C 
BRANCH   2   3
ATOM      3  N   UNL     1       2.834  -6.591  -3.728  1.00  0.00    -0.354 N 
ATOM      4  C   UNL     1       2.252  -5.463  -4.230  1.00  0.00     0.249 C 
ATOM      5  O   UNL     1       2.154  -5.359  -5.453  1.00  0.00    -0.272 OA
ATOM      6  H   UNL     1       3.117  -7.258  -4.394  1.00  0.00     0.163 HD
BRANCH   4   7
ATOM      7  C   UNL     1       1.719  -4.391  -3.264  1.00  0.00     0.207 C 
ATOM      8  C   UNL     1       2.541  -2.461  -2.199  1.00  0.00     0.138 C 
ATOM      9  C   UNL     1       1.299  -2.078  -2.992  1.00  0.00     0.037 C 
ATOM     10  O   UNL     1       2.743  -3.880  -2.395  1.00  0.00    -0.363 OA
ATOM     11  C   UNL     1       1.158  -3.187  -4.004  1.00  0.00     0.045 C 
BRANCH   8  12
ATOM     12  C   UNL     1       3.812  -1.706  -2.621  1.00  0.00     0.147 C 
BRANCH  12  13
ATOM     13  N   UNL     1       4.180  -2.023  -3.984  1.00  0.00    -0.353 N 
ATOM     14  O   UNL     1       5.719  -0.358  -4.332  1.00  0.00    -0.275 OA
ATOM     15  C   UNL     1       5.139  -1.367  -4.711  1.00  0.00     0.226 C 
ATOM     16  H   UNL     1       3.706  -2.766  -4.423  1.00  0.00     0.163 HD
BRANCH  15  17
ATOM     17  C   UNL     1       5.460  -2.084  -6.005  1.00  0.00     0.165 C 
BRANCH  17  18
ATOM     18  C   UNL     1       6.721  -2.970  -5.903  1.00  0.00     0.201 C 
ATOM     19  C   UNL     1       6.834  -3.904  -7.131  1.00  0.00     0.135 C 
ATOM     20  N   UNL     1       6.944  -3.689  -4.629  1.00  0.00    -0.342 N 
ATOM     21  S   UNL     1       5.690  -5.326  -7.090  1.00  0.00    -0.150 SA
ATOM     22  C   UNL     1       6.049  -4.822  -4.389  1.00  0.00     0.271 C 
ATOM     23  H   UNL     1       6.822  -3.023  -3.865  1.00  0.00     0.346 HD
ATOM     24  H   UNL     1       7.886  -4.077  -4.683  1.00  0.00     0.346 HD
ATOM     25  C   UNL     1       6.130  -5.933  -5.435  1.00  0.00     0.131 C 
ENDBRANCH  17  18
ENDBRANCH  15  17
ENDBRANCH  12  13
ENDBRANCH   8  12
ENDBRANCH   4   7
ENDBRANCH   2   3
ENDBRANCH   1   2
BRANCH   1  26
ATOM     26  C   UNL     1       3.691  -9.405  -2.801  1.00  0.00     0.002 C 
BRANCH  26  27
ATOM     27  C   UNL     1       5.170  -9.356  -2.407  1.00  0.00     0.002 C 
BRANCH  27  28
ATOM     28  C   UNL     1       5.457  -9.552  -0.917  1.00  0.00     0.021 C 
BRANCH  28  29
ATOM     29  C   UNL     1       4.865 -10.818  -0.305  1.00  0.00     0.116 C 
BRANCH  29  30
ATOM     30  N   UNL     1       5.419 -12.033  -0.880  1.00  0.00    -0.352 N 
ATOM     31  C   UNL     1       5.904 -13.147  -0.241  1.00  0.00     0.251 C 
ATOM     32  H   UNL     1       5.452 -12.060  -1.864  1.00  0.00     0.163 HD
ATOM     33  O   UNL     1       6.482 -14.025  -0.878  1.00  0.00    -0.269 OA
BRANCH  31  34
ATOM     34  C   UNL     1       5.752 -13.279   1.224  1.00  0.00     0.039 A 
ATOM     35  C   UNL     1       6.847 -13.701   1.982  1.00  0.00     0.014 A 
ATOM     36  C   UNL     1       4.536 -12.988   1.848  1.00  0.00     0.014 A 
ATOM     37  C   UNL     1       6.738 -13.776   3.372  1.00  0.00     0.010 A 
ATOM     38  C   UNL     1       4.453 -12.986   3.237  1.00  0.00     0.010 A 
ATOM     39  C   UNL     1       5.550 -13.389   4.015  1.00  0.00    -0.014 A 
BRANCH  39  40
ATOM     40  C   UNL     1       5.429 -13.421   5.495  1.00  0.00     0.031 A 
ATOM     41  C   UNL     1       4.429 -14.336   6.150  1.00  0.00     0.074 A 
ATOM     42  C   UNL     1       6.179 -12.593   6.249  1.00  0.00     0.049 A 
ATOM     43  N   UNL     1       4.127 -14.461   7.418  1.00  0.00    -0.248 NA
ATOM     44  C   UNL     1       3.646 -15.207   5.259  1.00  0.00     0.031 C 
ATOM     45  C   UNL     1       7.157 -11.632   5.736  1.00  0.00     0.029 A 
ATOM     46  N   UNL     1       6.230 -12.422   7.610  1.00  0.00    -0.354 N 
ATOM     47  C   UNL     1       3.117 -15.414   7.473  1.00  0.00     0.074 A 
ATOM     48  C   UNL     1       2.813 -15.789   6.110  1.00  0.00     0.031 C 
ATOM     49  C   UNL     1       7.728 -10.991   6.769  1.00  0.00     0.029 A 
ATOM     50  C   UNL     1       7.129 -11.464   8.013  1.00  0.00     0.049 A 
ATOM     51  H   UNL     1       5.674 -12.937   8.239  1.00  0.00     0.167 HD
ATOM     52  C   UNL     1       2.516 -15.950   8.562  1.00  0.00     0.037 A 
ATOM     53  C   UNL     1       7.430 -11.012   9.245  1.00  0.00     0.037 A 
ATOM     54  C   UNL     1       2.832 -15.591   9.919  1.00  0.00     0.049 A 
ATOM     55  C   UNL     1       6.728 -11.606  10.437  1.00  0.00     0.074 A 
ATOM     56  C   UNL     1       2.309 -16.107  11.092  1.00  0.00     0.029 A 
ATOM     57  N   UNL     1       3.756 -14.623  10.285  1.00  0.00    -0.354 N 
ATOM     58  N   UNL     1       5.818 -12.549  10.477  1.00  0.00    -0.248 NA
ATOM     59  C   UNL     1       7.100 -11.076  11.756  1.00  0.00     0.031 C 
ATOM     60  C   UNL     1       2.879 -15.417  12.166  1.00  0.00     0.029 A 
ATOM     61  C   UNL     1       3.802 -14.512  11.665  1.00  0.00     0.049 A 
ATOM     62  H   UNL     1       4.298 -14.092   9.657  1.00  0.00     0.167 HD
ATOM     63  C   UNL     1       5.539 -12.752  11.823  1.00  0.00     0.074 A 
ATOM     64  C   UNL     1       6.385 -11.843  12.567  1.00  0.00     0.031 C 
ATOM     65  C   UNL     1       4.662 -13.614  12.393  1.00  0.00     0.037 A 
BRANCH  52  66
ATOM     66  C   UNL     1       1.456 -16.989   8.329  1.00  0.00     0.057 A 
ATOM     67  C   UNL     1       1.767 -18.264   7.836  1.00  0.00     0.134 A 
ATOM     68  C   UNL     1       0.116 -16.729   8.641  1.00  0.00     0.134 A 
ATOM     69  F   UNL     1       3.030 -18.576   7.506  1.00  0.00    -0.206 F 
ATOM     70  C   UNL     1       0.781 -19.232   7.636  1.00  0.00     0.040 A 
ATOM     71  C   UNL     1      -0.875 -17.698   8.475  1.00  0.00     0.040 A 
ATOM     72  F   UNL     1      -0.252 -15.532   9.123  1.00  0.00    -0.206 F 
ATOM     73  C   UNL     1      -0.544 -18.952   7.965  1.00  0.00     0.006 A 
ENDBRANCH  52  66
BRANCH  53  74
ATOM     74  C   UNL     1       8.455  -9.951   9.427  1.00  0.00     0.057 A 
ATOM     75  C   UNL     1       9.672 -10.223  10.065  1.00  0.00     0.134 A 
ATOM     76  C   UNL     1       8.232  -8.636   9.001  1.00  0.00     0.134 A 
ATOM     77  F   UNL     1       9.937 -11.458  10.514  1.00  0.00    -0.206 F 
ATOM     78  C   UNL     1      10.615  -9.221  10.301  1.00  0.00     0.040 A 
ATOM     79  C   UNL     1       9.180  -7.631   9.203  1.00  0.00     0.040 A 
ATOM     80  F   UNL     1       7.091  -8.310   8.376  1.00  0.00    -0.206 F 
ATOM     81  C   UNL     1      10.371  -7.920   9.866  1.00  0.00     0.006 A 
ENDBRANCH  53  74
BRANCH  65  82
ATOM     82  C   UNL     1       4.611 -13.656  13.893  1.00  0.00     0.057 A 
ATOM     83  C   UNL     1       4.074 -12.607  14.650  1.00  0.00     0.134 A 
ATOM     84  C   UNL     1       5.075 -14.781  14.587  1.00  0.00     0.134 A 
ATOM     85  F   UNL     1       3.623 -11.496  14.049  1.00  0.00    -0.206 F 
ATOM     86  C   UNL     1       4.027 -12.664  16.044  1.00  0.00     0.040 A 
ATOM     87  C   UNL     1       5.004 -14.863  15.978  1.00  0.00     0.040 A 
ATOM     88  F   UNL     1       5.592 -15.827  13.924  1.00  0.00    -0.206 F 
ATOM     89  C   UNL     1       4.486 -13.798  16.712  1.00  0.00     0.006 A 
ENDBRANCH  65  82
ENDBRANCH  39  40
ENDBRANCH  31  34
ENDBRANCH  29  30
ENDBRANCH  28  29
ENDBRANCH  27  28
ENDBRANCH  26  27
ENDBRANCH   1  26
TORSDOF 17
