REMARK SMILES CC[C@@H](NC(=O)[C@H](C)C[NH2+]C)C(=O)NCCCCCCNC(=O)c1ccc(-c2c3nc(c(-c4c(F)cccc4F)c4ccc([nH]4)c(-c4c(F)cccc4F)c4nc(c(-c5c(F)cccc5F)c5ccc2[nH]5)C=C4)C=C3)cc1
REMARK SMILES IDX 16 1 15 2 14 3 12 4 13 5 3 7 2 8 1 9 4 10 5 11 6 13 7 14
REMARK SMILES IDX 8 15 9 16 10 17 11 18 17 21 18 22 19 23 20 24 21 25 22 26
REMARK SMILES IDX 23 28 24 29 25 30 77 31 26 32 76 33 27 34 28 35 29 36 70 37
REMARK SMILES IDX 30 38 75 39 69 40 71 41 31 42 74 43 68 44 67 45 32 47 58 48
REMARK SMILES IDX 41 49 57 50 42 51 45 52 56 53 72 54 43 55 44 56 55 58 73 59
REMARK SMILES IDX 46 60 33 61 34 62 39 63 35 64 36 65 38 66 40 67 37 68 59 69
REMARK SMILES IDX 60 70 65 71 61 72 62 73 64 74 66 75 63 76 47 77 48 78 53 79
REMARK SMILES IDX 49 80 50 81 52 82 54 83 51 84
REMARK H PARENT 14 6 4 12 10 19 10 20 21 27 71 46 45 57
REMARK Flexibility Score: inf
ROOT
ATOM      1  C   UNL     1      -0.660  -5.362  -0.829  1.00  0.00     0.021 C 
ENDROOT
BRANCH   1   2
ATOM      2  C   UNL     1      -1.265  -4.533  -1.957  1.00  0.00     0.116 C 
BRANCH   2   3
ATOM      3  N   UNL     1      -0.975  -5.113  -3.255  1.00  0.00    -0.354 N 
ATOM      4  C   UNL     1      -1.519  -4.858  -4.478  1.00  0.00     0.242 C 
ATOM      5  O   UNL     1      -1.110  -5.532  -5.430  1.00  0.00    -0.273 OA
ATOM      6  H   UNL     1      -0.272  -5.803  -3.251  1.00  0.00     0.163 HD
BRANCH   4   7
ATOM      7  C   UNL     1      -2.711  -3.892  -4.669  1.00  0.00     0.171 C 
BRANCH   7   8
ATOM      8  C   UNL     1      -3.967  -4.611  -4.124  1.00  0.00     0.031 C 
ATOM      9  C   UNL     1      -5.292  -3.945  -4.466  1.00  0.00     0.006 C 
ENDBRANCH   7   8
BRANCH   7  10
ATOM     10  N   UNL     1      -2.591  -2.518  -4.148  1.00  0.00    -0.344 N 
ATOM     11  C   UNL     1      -1.633  -1.627  -4.588  1.00  0.00     0.229 C 
ATOM     12  H   UNL     1      -3.223  -2.222  -3.454  1.00  0.00     0.164 HD
ATOM     13  O   UNL     1      -1.986  -0.572  -5.109  1.00  0.00    -0.275 OA
BRANCH  11  14
ATOM     14  C   UNL     1      -0.194  -1.900  -4.189  1.00  0.00     0.130 C 
ATOM     15  C   UNL     1       0.162  -0.975  -3.023  1.00  0.00     0.024 C 
BRANCH  14  16
ATOM     16  C   UNL     1       0.799  -1.793  -5.349  1.00  0.00     0.273 C 
BRANCH  16  17
ATOM     17  N   UNL     1       1.849  -2.802  -5.139  1.00  0.00    -0.348 N 
ATOM     18  C   UNL     1       2.833  -2.821  -6.207  1.00  0.00     0.330 C 
ATOM     19  H   UNL     1       1.411  -3.722  -5.084  1.00  0.00     0.346 HD
ATOM     20  H   UNL     1       2.337  -2.563  -4.276  1.00  0.00     0.346 HD
ENDBRANCH  16  17
ENDBRANCH  14  16
ENDBRANCH  11  14
ENDBRANCH   7  10
ENDBRANCH   4   7
ENDBRANCH   2   3
ENDBRANCH   1   2
BRANCH   1  21
ATOM     21  C   UNL     1       0.868  -5.277  -0.717  1.00  0.00     0.002 C 
BRANCH  21  22
ATOM     22  C   UNL     1       1.445  -3.889  -0.424  1.00  0.00     0.002 C 
BRANCH  22  23
ATOM     23  C   UNL     1       0.839  -3.146   0.768  1.00  0.00     0.021 C 
BRANCH  23  24
ATOM     24  C   UNL     1       0.795  -3.928   2.076  1.00  0.00     0.116 C 
BRANCH  24  25
ATOM     25  N   UNL     1       2.103  -4.346   2.546  1.00  0.00    -0.352 N 
ATOM     26  C   UNL     1       2.570  -4.430   3.837  1.00  0.00     0.251 C 
ATOM     27  H   UNL     1       2.744  -4.604   1.844  1.00  0.00     0.163 HD
ATOM     28  O   UNL     1       3.737  -4.722   4.055  1.00  0.00    -0.269 OA
BRANCH  26  29
ATOM     29  C   UNL     1       1.660  -4.126   4.966  1.00  0.00     0.039 A 
ATOM     30  C   UNL     1       2.119  -3.286   5.984  1.00  0.00     0.014 A 
ATOM     31  C   UNL     1       0.368  -4.656   5.022  1.00  0.00     0.014 A 
ATOM     32  C   UNL     1       1.262  -2.928   7.026  1.00  0.00     0.010 A 
ATOM     33  C   UNL     1      -0.507  -4.243   6.023  1.00  0.00     0.010 A 
ATOM     34  C   UNL     1      -0.069  -3.378   7.037  1.00  0.00    -0.014 A 
BRANCH  34  35
ATOM     35  C   UNL     1      -1.010  -2.959   8.105  1.00  0.00     0.031 A 
ATOM     36  C   UNL     1      -1.575  -3.977   9.057  1.00  0.00     0.074 A 
ATOM     37  C   UNL     1      -1.403  -1.672   8.182  1.00  0.00     0.049 A 
ATOM     38  N   UNL     1      -2.452  -3.816  10.015  1.00  0.00    -0.248 NA
ATOM     39  C   UNL     1      -1.114  -5.364   8.892  1.00  0.00     0.031 C 
ATOM     40  C   UNL     1      -0.968  -0.600   7.284  1.00  0.00     0.029 A 
ATOM     41  N   UNL     1      -2.264  -1.050   9.050  1.00  0.00    -0.354 N 
ATOM     42  C   UNL     1      -2.660  -5.080  10.553  1.00  0.00     0.074 A 
ATOM     43  C   UNL     1      -1.857  -6.005   9.783  1.00  0.00     0.031 C 
ATOM     44  C   UNL     1      -1.548   0.551   7.661  1.00  0.00     0.029 A 
ATOM     45  C   UNL     1      -2.418   0.293   8.805  1.00  0.00     0.049 A 
ATOM     46  H   UNL     1      -2.728  -1.521   9.779  1.00  0.00     0.167 HD
ATOM     47  C   UNL     1      -3.431  -5.435  11.608  1.00  0.00     0.037 A 
ATOM     48  C   UNL     1      -3.178   1.213   9.430  1.00  0.00     0.037 A 
ATOM     49  C   UNL     1      -4.203  -4.508  12.393  1.00  0.00     0.049 A 
ATOM     50  C   UNL     1      -4.012   0.797  10.609  1.00  0.00     0.074 A 
ATOM     51  C   UNL     1      -4.965  -4.759  13.520  1.00  0.00     0.029 A 
ATOM     52  N   UNL     1      -4.310  -3.150  12.131  1.00  0.00    -0.354 N 
ATOM     53  N   UNL     1      -4.146  -0.390  11.149  1.00  0.00    -0.248 NA
ATOM     54  C   UNL     1      -4.794   1.850  11.272  1.00  0.00     0.031 C 
ATOM     55  C   UNL     1      -5.564  -3.559  13.919  1.00  0.00     0.029 A 
ATOM     56  C   UNL     1      -5.139  -2.553  13.066  1.00  0.00     0.049 A 
ATOM     57  H   UNL     1      -3.862  -2.681  11.391  1.00  0.00     0.167 HD
ATOM     58  C   UNL     1      -5.004  -0.223  12.228  1.00  0.00     0.074 A 
ATOM     59  C   UNL     1      -5.348   1.183  12.274  1.00  0.00     0.031 C 
ATOM     60  C   UNL     1      -5.466  -1.151  13.101  1.00  0.00     0.037 A 
BRANCH  47  61
ATOM     61  C   UNL     1      -3.471  -6.889  11.978  1.00  0.00     0.057 A 
ATOM     62  C   UNL     1      -2.370  -7.533  12.557  1.00  0.00     0.134 A 
ATOM     63  C   UNL     1      -4.633  -7.645  11.784  1.00  0.00     0.134 A 
ATOM     64  F   UNL     1      -1.222  -6.869  12.758  1.00  0.00    -0.206 F 
ATOM     65  C   UNL     1      -2.414  -8.884  12.905  1.00  0.00     0.040 A 
ATOM     66  C   UNL     1      -4.699  -8.990  12.153  1.00  0.00     0.040 A 
ATOM     67  F   UNL     1      -5.726  -7.089  11.239  1.00  0.00    -0.206 F 
ATOM     68  C   UNL     1      -3.584  -9.615  12.709  1.00  0.00     0.006 A 
ENDBRANCH  47  61
BRANCH  48  69
ATOM     69  C   UNL     1      -3.163   2.624   8.970  1.00  0.00     0.057 A 
ATOM     70  C   UNL     1      -2.555   3.626   9.736  1.00  0.00     0.134 A 
ATOM     71  C   UNL     1      -3.756   3.006   7.762  1.00  0.00     0.134 A 
ATOM     72  F   UNL     1      -1.986   3.323  10.912  1.00  0.00    -0.206 F 
ATOM     73  C   UNL     1      -2.552   4.960   9.326  1.00  0.00     0.040 A 
ATOM     74  C   UNL     1      -3.740   4.333   7.328  1.00  0.00     0.040 A 
ATOM     75  F   UNL     1      -4.348   2.092   6.979  1.00  0.00    -0.206 F 
ATOM     76  C   UNL     1      -3.143   5.315   8.115  1.00  0.00     0.006 A 
ENDBRANCH  48  69
BRANCH  60  77
ATOM     77  C   UNL     1      -6.367  -0.669  14.199  1.00  0.00     0.057 A 
ATOM     78  C   UNL     1      -7.692  -0.290  13.954  1.00  0.00     0.134 A 
ATOM     79  C   UNL     1      -5.914  -0.623  15.524  1.00  0.00     0.134 A 
ATOM     80  F   UNL     1      -8.183  -0.300  12.705  1.00  0.00    -0.206 F 
ATOM     81  C   UNL     1      -8.529   0.140  14.985  1.00  0.00     0.040 A 
ATOM     82  C   UNL     1      -6.748  -0.219  16.566  1.00  0.00     0.040 A 
ATOM     83  F   UNL     1      -4.657  -0.982  15.827  1.00  0.00    -0.206 F 
ATOM     84  C   UNL     1      -8.059   0.169  16.297  1.00  0.00     0.006 A 
ENDBRANCH  60  77
ENDBRANCH  34  35
ENDBRANCH  26  29
ENDBRANCH  24  25
ENDBRANCH  23  24
ENDBRANCH  22  23
ENDBRANCH  21  22
ENDBRANCH   1  21
TORSDOF 18
