REMARK SMILES C=CCCCOC(F)(F)C(=O)NCCCCCCNC(=O)c1ccc(-c2c3nc(c(-c4c(F)cccc4F)c4ccc([nH]4)c(-c4c(F)cccc4F)c4nc(c(-c5c(F)cccc5F)c5ccc2[nH]5)C=C4)C=C3)cc1
REMARK SMILES IDX 14 1 13 2 12 3 10 4 11 5 7 7 8 8 9 9 6 10 5 11 4 12 3 13
REMARK SMILES IDX 2 14 1 15 15 16 16 17 17 18 18 19 19 20 20 21 21 23 22 24
REMARK SMILES IDX 23 25 75 26 24 27 74 28 25 29 26 30 27 31 68 32 28 33 73 34
REMARK SMILES IDX 67 35 69 36 29 37 72 38 66 39 65 40 30 42 56 43 39 44 55 45
REMARK SMILES IDX 40 46 43 47 54 48 70 49 41 50 42 51 53 53 71 54 44 55 31 56
REMARK SMILES IDX 32 57 37 58 33 59 34 60 36 61 38 62 35 63 57 64 58 65 63 66
REMARK SMILES IDX 59 67 60 68 62 69 64 70 61 71 45 72 46 73 51 74 47 75 48 76
REMARK SMILES IDX 50 77 52 78 49 79
REMARK H PARENT 12 6 19 22 69 41 43 52
REMARK Flexibility Score: inf
ROOT
ATOM      1  C   UNL     1      -1.530  -4.089   2.765  1.00  0.00     0.021 C 
ENDROOT
BRANCH   1   2
ATOM      2  C   UNL     1      -0.652  -4.422   1.563  1.00  0.00     0.116 C 
BRANCH   2   3
ATOM      3  N   UNL     1      -1.285  -5.363   0.649  1.00  0.00    -0.349 N 
ATOM      4  C   UNL     1      -1.744  -5.094  -0.633  1.00  0.00     0.320 C 
ATOM      5  O   UNL     1      -2.232  -6.011  -1.295  1.00  0.00    -0.265 OA
ATOM      6  H   UNL     1      -1.400  -6.285   0.974  1.00  0.00     0.163 HD
BRANCH   4   7
ATOM      7  C   UNL     1      -1.599  -3.612  -1.129  1.00  0.00     0.436 C 
ATOM      8  F   UNL     1      -0.283  -3.257  -1.024  1.00  0.00    -0.165 F 
ATOM      9  F   UNL     1      -2.292  -2.823  -0.258  1.00  0.00    -0.165 F 
BRANCH   7  10
ATOM     10  O   UNL     1      -2.027  -3.229  -2.410  1.00  0.00    -0.313 OA
BRANCH  10  11
ATOM     11  C   UNL     1      -1.372  -2.060  -2.909  1.00  0.00     0.168 C 
BRANCH  11  12
ATOM     12  C   UNL     1      -1.737  -0.731  -2.225  1.00  0.00     0.033 C 
BRANCH  12  13
ATOM     13  C   UNL     1      -1.075  -0.353  -0.884  1.00  0.00     0.029 C 
BRANCH  13  14
ATOM     14  C   UNL     1       0.422  -0.446  -0.808  1.00  0.00    -0.035 C 
ATOM     15  C   UNL     1       1.171   0.365  -0.048  1.00  0.00     0.004 C 
ENDBRANCH  13  14
ENDBRANCH  12  13
ENDBRANCH  11  12
ENDBRANCH  10  11
ENDBRANCH   7  10
ENDBRANCH   4   7
ENDBRANCH   2   3
ENDBRANCH   1   2
BRANCH   1  16
ATOM     16  C   UNL     1      -1.825  -5.285   3.671  1.00  0.00     0.002 C 
BRANCH  16  17
ATOM     17  C   UNL     1      -0.587  -6.048   4.152  1.00  0.00     0.002 C 
BRANCH  17  18
ATOM     18  C   UNL     1       0.437  -5.206   4.917  1.00  0.00     0.021 C 
BRANCH  18  19
ATOM     19  C   UNL     1      -0.100  -4.553   6.184  1.00  0.00     0.116 C 
BRANCH  19  20
ATOM     20  N   UNL     1      -0.561  -5.534   7.153  1.00  0.00    -0.352 N 
ATOM     21  C   UNL     1      -0.248  -5.662   8.482  1.00  0.00     0.251 C 
ATOM     22  H   UNL     1      -1.191  -6.205   6.804  1.00  0.00     0.163 HD
ATOM     23  O   UNL     1      -0.586  -6.666   9.100  1.00  0.00    -0.269 OA
BRANCH  21  24
ATOM     24  C   UNL     1       0.510  -4.595   9.170  1.00  0.00     0.039 A 
ATOM     25  C   UNL     1       1.520  -4.954  10.066  1.00  0.00     0.014 A 
ATOM     26  C   UNL     1       0.209  -3.247   8.956  1.00  0.00     0.014 A 
ATOM     27  C   UNL     1       2.253  -3.961  10.718  1.00  0.00     0.010 A 
ATOM     28  C   UNL     1       0.995  -2.259   9.541  1.00  0.00     0.010 A 
ATOM     29  C   UNL     1       2.010  -2.605  10.445  1.00  0.00    -0.014 A 
BRANCH  29  30
ATOM     30  C   UNL     1       2.776  -1.533  11.130  1.00  0.00     0.031 A 
ATOM     31  C   UNL     1       2.064  -0.568  12.040  1.00  0.00     0.074 A 
ATOM     32  C   UNL     1       4.095  -1.396  10.899  1.00  0.00     0.049 A 
ATOM     33  N   UNL     1       2.540   0.467  12.685  1.00  0.00    -0.248 NA
ATOM     34  C   UNL     1       0.620  -0.778  12.227  1.00  0.00     0.031 C 
ATOM     35  C   UNL     1       4.892  -2.240  10.007  1.00  0.00     0.029 A 
ATOM     36  N   UNL     1       4.998  -0.488  11.393  1.00  0.00    -0.354 N 
ATOM     37  C   UNL     1       1.454   1.036  13.339  1.00  0.00     0.074 A 
ATOM     38  C   UNL     1       0.285   0.272  12.961  1.00  0.00     0.031 C 
ATOM     39  C   UNL     1       6.170  -1.828  10.039  1.00  0.00     0.029 A 
ATOM     40  C   UNL     1       6.276  -0.670  10.922  1.00  0.00     0.049 A 
ATOM     41  H   UNL     1       4.753   0.226  12.025  1.00  0.00     0.167 HD
ATOM     42  C   UNL     1       1.433   2.083  14.198  1.00  0.00     0.037 A 
ATOM     43  C   UNL     1       7.403   0.020  11.175  1.00  0.00     0.037 A 
ATOM     44  C   UNL     1       2.601   2.829  14.589  1.00  0.00     0.049 A 
ATOM     45  C   UNL     1       7.355   1.183  12.128  1.00  0.00     0.074 A 
ATOM     46  C   UNL     1       2.694   3.880  15.484  1.00  0.00     0.029 A 
ATOM     47  N   UNL     1       3.881   2.599  14.106  1.00  0.00    -0.354 N 
ATOM     48  N   UNL     1       6.331   1.676  12.783  1.00  0.00    -0.248 NA
ATOM     49  C   UNL     1       8.624   1.876  12.389  1.00  0.00     0.031 C 
ATOM     50  C   UNL     1       4.023   4.316  15.509  1.00  0.00     0.029 A 
ATOM     51  C   UNL     1       4.768   3.498  14.675  1.00  0.00     0.049 A 
ATOM     52  H   UNL     1       4.123   1.901  13.456  1.00  0.00     0.167 HD
ATOM     53  C   UNL     1       6.839   2.707  13.564  1.00  0.00     0.074 A 
ATOM     54  C   UNL     1       8.263   2.762  13.306  1.00  0.00     0.031 C 
ATOM     55  C   UNL     1       6.187   3.529  14.422  1.00  0.00     0.037 A 
BRANCH  42  56
ATOM     56  C   UNL     1       0.102   2.479  14.771  1.00  0.00     0.057 A 
ATOM     57  C   UNL     1      -0.589   1.659  15.675  1.00  0.00     0.134 A 
ATOM     58  C   UNL     1      -0.491   3.701  14.430  1.00  0.00     0.134 A 
ATOM     59  F   UNL     1      -0.086   0.469  16.036  1.00  0.00    -0.206 F 
ATOM     60  C   UNL     1      -1.834   2.024  16.190  1.00  0.00     0.040 A 
ATOM     61  C   UNL     1      -1.721   4.092  14.963  1.00  0.00     0.040 A 
ATOM     62  F   UNL     1       0.116   4.538  13.575  1.00  0.00    -0.206 F 
ATOM     63  C   UNL     1      -2.400   3.248  15.839  1.00  0.00     0.006 A 
ENDBRANCH  42  56
BRANCH  43  64
ATOM     64  C   UNL     1       8.685  -0.390  10.545  1.00  0.00     0.057 A 
ATOM     65  C   UNL     1       9.719  -0.944  11.309  1.00  0.00     0.134 A 
ATOM     66  C   UNL     1       8.913  -0.227   9.174  1.00  0.00     0.134 A 
ATOM     67  F   UNL     1       9.567  -1.109  12.632  1.00  0.00    -0.206 F 
ATOM     68  C   UNL     1      10.943  -1.296  10.739  1.00  0.00     0.040 A 
ATOM     69  C   UNL     1      10.122  -0.601   8.585  1.00  0.00     0.040 A 
ATOM     70  F   UNL     1       7.959   0.288   8.385  1.00  0.00    -0.206 F 
ATOM     71  C   UNL     1      11.145  -1.128   9.371  1.00  0.00     0.006 A 
ENDBRANCH  43  64
BRANCH  55  72
ATOM     72  C   UNL     1       7.016   4.515  15.194  1.00  0.00     0.057 A 
ATOM     73  C   UNL     1       7.624   5.622  14.586  1.00  0.00     0.134 A 
ATOM     74  C   UNL     1       7.188   4.364  16.577  1.00  0.00     0.134 A 
ATOM     75  F   UNL     1       7.509   5.820  13.264  1.00  0.00    -0.206 F 
ATOM     76  C   UNL     1       8.399   6.522  15.319  1.00  0.00     0.040 A 
ATOM     77  C   UNL     1       7.934   5.274  17.325  1.00  0.00     0.040 A 
ATOM     78  F   UNL     1       6.624   3.333  17.225  1.00  0.00    -0.206 F 
ATOM     79  C   UNL     1       8.551   6.352  16.695  1.00  0.00     0.006 A 
ENDBRANCH  55  72
ENDBRANCH  29  30
ENDBRANCH  21  24
ENDBRANCH  19  20
ENDBRANCH  18  19
ENDBRANCH  17  18
ENDBRANCH  16  17
ENDBRANCH   1  16
TORSDOF 18
