REMARK SMILES CC(C)C(=O)Nc1ccc2c([C@H](C(=O)NCCCCCCNC(=O)c3ccc(-c4c5nc(c(-c6c(F)cccc6F)c6ccc([nH]6)c(-c6c(F)cccc6F)c6nc(c(-c7c(F)cccc7F)c7ccc4[nH]7)C=C6)C=C5)cc3)[NH+]3CC[NH+](CC(=O)N(C)C)CC3)c[nH]c2c1
REMARK SMILES IDX 18 1 17 2 16 3 15 4 13 5 14 6 12 8 11 9 7 10 8 11 94 12 9 13
REMARK SMILES IDX 93 14 10 15 92 16 91 17 6 19 4 20 5 21 2 23 1 24 3 25 79 26
REMARK SMILES IDX 80 27 90 28 81 30 89 31 82 32 83 34 84 35 85 36 86 37 87 38
REMARK SMILES IDX 88 39 19 40 20 41 21 42 22 43 23 44 24 46 25 47 26 48 78 49
REMARK SMILES IDX 27 50 77 51 28 52 29 53 30 54 71 55 31 56 76 57 70 58 72 59
REMARK SMILES IDX 32 60 75 61 69 62 68 63 33 65 59 66 42 67 58 68 43 69 46 70
REMARK SMILES IDX 57 71 73 72 44 73 45 74 56 76 74 77 47 78 34 79 35 80 40 81
REMARK SMILES IDX 36 82 37 83 39 84 41 85 38 86 60 87 61 88 66 89 62 90 63 91
REMARK SMILES IDX 65 92 67 93 64 94 48 95 49 96 54 97 50 98 51 99 53 100
REMARK SMILES IDX 55 101 52 102
REMARK H PARENT 15 7 92 18 6 22 79 29 82 33 22 45 72 64 46 75
REMARK Flexibility Score: inf
ROOT
ATOM      1  C   UNL     1      -0.684  -1.304   1.258  1.00  0.00     0.002 C 
ENDROOT
BRANCH   1   2
ATOM      2  C   UNL     1       0.541  -1.607   2.131  1.00  0.00     0.021 C 
BRANCH   2   3
ATOM      3  C   UNL     1       0.267  -2.523   3.320  1.00  0.00     0.116 C 
BRANCH   3   4
ATOM      4  N   UNL     1      -0.466  -3.704   2.911  1.00  0.00    -0.351 N 
ATOM      5  C   UNL     1      -0.232  -5.030   3.110  1.00  0.00     0.283 C 
ATOM      6  O   UNL     1      -1.118  -5.793   2.718  1.00  0.00    -0.268 OA
ATOM      7  H   UNL     1      -1.282  -3.512   2.395  1.00  0.00     0.163 HD
BRANCH   5   8
ATOM      8  C   UNL     1       1.049  -5.489   3.825  1.00  0.00     0.308 C 
BRANCH   8   9
ATOM      9  C   UNL     1       0.751  -6.131   5.158  1.00  0.00     0.044 A 
ATOM     10  C   UNL     1       3.072  -6.909   8.556  1.00  0.00     0.043 A 
ATOM     11  C   UNL     1       3.782  -6.578   7.409  1.00  0.00     0.027 A 
ATOM     12  C   UNL     1       1.698  -7.173   8.494  1.00  0.00     0.052 A 
ATOM     13  C   UNL     1       3.123  -6.310   6.211  1.00  0.00     0.013 A 
ATOM     14  C   UNL     1       1.048  -6.889   7.289  1.00  0.00     0.048 A 
ATOM     15  C   UNL     1       1.723  -6.421   6.164  1.00  0.00     0.009 A 
ATOM     16  N   UNL     1      -0.282  -6.967   6.955  1.00  0.00    -0.361 N 
ATOM     17  C   UNL     1      -0.476  -6.490   5.689  1.00  0.00     0.094 A 
ATOM     18  H   UNL     1      -0.992  -7.316   7.541  1.00  0.00     0.166 HD
BRANCH  10  19
ATOM     19  N   UNL     1       3.701  -7.021   9.797  1.00  0.00    -0.326 N 
ATOM     20  C   UNL     1       4.636  -6.225  10.393  1.00  0.00     0.226 C 
ATOM     21  O   UNL     1       5.166  -6.655  11.424  1.00  0.00    -0.274 OA
ATOM     22  H   UNL     1       3.425  -7.802  10.330  1.00  0.00     0.169 HD
BRANCH  20  23
ATOM     23  C   UNL     1       4.965  -4.799   9.920  1.00  0.00     0.072 C 
ATOM     24  C   UNL     1       5.978  -4.701   8.787  1.00  0.00     0.018 C 
ATOM     25  C   UNL     1       3.739  -3.916   9.692  1.00  0.00     0.018 C 
ENDBRANCH  20  23
ENDBRANCH  10  19
ENDBRANCH   8   9
BRANCH   8  26
ATOM     26  N   UNL     1       1.950  -6.327   3.010  1.00  0.00    -0.312 N 
ATOM     27  C   UNL     1       1.473  -7.668   2.652  1.00  0.00     0.325 C 
ATOM     28  C   UNL     1       2.545  -5.632   1.869  1.00  0.00     0.325 C 
ATOM     29  H   UNL     1       2.697  -6.509   3.679  1.00  0.00     0.349 HD
ATOM     30  C   UNL     1       0.752  -7.822   1.292  1.00  0.00     0.325 C 
ATOM     31  C   UNL     1       1.788  -5.750   0.530  1.00  0.00     0.325 C 
ATOM     32  N   UNL     1       1.321  -7.083   0.153  1.00  0.00    -0.318 N 
ATOM     33  H   UNL     1       0.553  -6.900  -0.492  1.00  0.00     0.348 HD
BRANCH  32  34
ATOM     34  C   UNL     1       2.234  -7.881  -0.683  1.00  0.00     0.364 C 
BRANCH  34  35
ATOM     35  C   UNL     1       3.411  -8.495   0.080  1.00  0.00     0.277 C 
ATOM     36  O   UNL     1       3.273  -9.595   0.628  1.00  0.00    -0.268 OA
ATOM     37  N   UNL     1       4.596  -7.782   0.198  1.00  0.00    -0.344 N 
ATOM     38  C   UNL     1       5.015  -6.668  -0.636  1.00  0.00     0.146 C 
ATOM     39  C   UNL     1       5.548  -8.242   1.194  1.00  0.00     0.146 C 
ENDBRANCH  34  35
ENDBRANCH  32  34
ENDBRANCH   8  26
ENDBRANCH   5   8
ENDBRANCH   3   4
ENDBRANCH   2   3
ENDBRANCH   1   2
BRANCH   1  40
ATOM     40  C   UNL     1      -1.940  -0.850   2.010  1.00  0.00     0.002 C 
BRANCH  40  41
ATOM     41  C   UNL     1      -1.739   0.342   2.942  1.00  0.00     0.021 C 
BRANCH  41  42
ATOM     42  C   UNL     1      -1.171   1.573   2.256  1.00  0.00     0.116 C 
BRANCH  42  43
ATOM     43  N   UNL     1      -2.087   2.111   1.264  1.00  0.00    -0.352 N 
ATOM     44  C   UNL     1      -2.656   3.361   1.209  1.00  0.00     0.251 C 
ATOM     45  H   UNL     1      -2.332   1.499   0.534  1.00  0.00     0.163 HD
ATOM     46  O   UNL     1      -3.570   3.600   0.436  1.00  0.00    -0.269 OA
BRANCH  44  47
ATOM     47  C   UNL     1      -2.159   4.407   2.126  1.00  0.00     0.039 A 
ATOM     48  C   UNL     1      -3.078   5.141   2.877  1.00  0.00     0.014 A 
ATOM     49  C   UNL     1      -0.785   4.619   2.277  1.00  0.00     0.014 A 
ATOM     50  C   UNL     1      -2.615   6.036   3.842  1.00  0.00     0.010 A 
ATOM     51  C   UNL     1      -0.327   5.450   3.292  1.00  0.00     0.010 A 
ATOM     52  C   UNL     1      -1.237   6.161   4.088  1.00  0.00    -0.014 A 
BRANCH  52  53
ATOM     53  C   UNL     1      -0.726   7.009   5.193  1.00  0.00     0.031 A 
ATOM     54  C   UNL     1       0.144   8.196   4.892  1.00  0.00     0.074 A 
ATOM     55  C   UNL     1      -0.981   6.660   6.468  1.00  0.00     0.049 A 
ATOM     56  N   UNL     1       0.758   9.001   5.721  1.00  0.00    -0.248 NA
ATOM     57  C   UNL     1       0.373   8.506   3.472  1.00  0.00     0.031 C 
ATOM     58  C   UNL     1      -1.776   5.503   6.887  1.00  0.00     0.029 A 
ATOM     59  N   UNL     1      -0.585   7.234   7.650  1.00  0.00    -0.354 N 
ATOM     60  C   UNL     1       1.452   9.903   4.926  1.00  0.00     0.074 A 
ATOM     61  C   UNL     1       1.227   9.516   3.550  1.00  0.00     0.031 C 
ATOM     62  C   UNL     1      -1.825   5.465   8.228  1.00  0.00     0.029 A 
ATOM     63  C   UNL     1      -1.026   6.562   8.764  1.00  0.00     0.049 A 
ATOM     64  H   UNL     1      -0.036   8.050   7.695  1.00  0.00     0.167 HD
ATOM     65  C   UNL     1       2.192  10.971   5.309  1.00  0.00     0.037 A 
ATOM     66  C   UNL     1      -0.798   6.794  10.071  1.00  0.00     0.037 A 
ATOM     67  C   UNL     1       2.401  11.358   6.680  1.00  0.00     0.049 A 
ATOM     68  C   UNL     1       0.058   7.964  10.468  1.00  0.00     0.074 A 
ATOM     69  C   UNL     1       3.084  12.458   7.169  1.00  0.00     0.029 A 
ATOM     70  N   UNL     1       1.939  10.652   7.781  1.00  0.00    -0.354 N 
ATOM     71  N   UNL     1       0.648   8.853   9.707  1.00  0.00    -0.248 NA
ATOM     72  C   UNL     1       0.281   8.163  11.907  1.00  0.00     0.031 C 
ATOM     73  C   UNL     1       3.085  12.386   8.565  1.00  0.00     0.029 A 
ATOM     74  C   UNL     1       2.354  11.273   8.948  1.00  0.00     0.049 A 
ATOM     75  H   UNL     1       1.397   9.832   7.739  1.00  0.00     0.167 HD
ATOM     76  C   UNL     1       1.294   9.727  10.572  1.00  0.00     0.074 A 
ATOM     77  C   UNL     1       1.004   9.274  11.916  1.00  0.00     0.031 C 
ATOM     78  C   UNL     1       2.061  10.806  10.280  1.00  0.00     0.037 A 
BRANCH  65  79
ATOM     79  C   UNL     1       2.833  11.794   4.230  1.00  0.00     0.057 A 
ATOM     80  C   UNL     1       2.080  12.598   3.365  1.00  0.00     0.134 A 
ATOM     81  C   UNL     1       4.226  11.814   4.080  1.00  0.00     0.134 A 
ATOM     82  F   UNL     1       0.741  12.616   3.446  1.00  0.00    -0.206 F 
ATOM     83  C   UNL     1       2.685  13.373   2.373  1.00  0.00     0.040 A 
ATOM     84  C   UNL     1       4.845  12.607   3.112  1.00  0.00     0.040 A 
ATOM     85  F   UNL     1       5.009  11.072   4.878  1.00  0.00    -0.206 F 
ATOM     86  C   UNL     1       4.073  13.385   2.251  1.00  0.00     0.006 A 
ENDBRANCH  65  79
BRANCH  66  87
ATOM     87  C   UNL     1      -1.387   5.900  11.100  1.00  0.00     0.057 A 
ATOM     88  C   UNL     1      -2.388   6.355  11.967  1.00  0.00     0.134 A 
ATOM     89  C   UNL     1      -0.958   4.576  11.252  1.00  0.00     0.134 A 
ATOM     90  F   UNL     1      -2.828   7.620  11.884  1.00  0.00    -0.206 F 
ATOM     91  C   UNL     1      -2.924   5.535  12.961  1.00  0.00     0.040 A 
ATOM     92  C   UNL     1      -1.506   3.736  12.223  1.00  0.00     0.040 A 
ATOM     93  F   UNL     1      -0.008   4.075  10.449  1.00  0.00    -0.206 F 
ATOM     94  C   UNL     1      -2.486   4.218  13.087  1.00  0.00     0.006 A 
ENDBRANCH  66  87
BRANCH  78  95
ATOM     95  C   UNL     1       2.625  11.581  11.435  1.00  0.00     0.057 A 
ATOM     96  C   UNL     1       3.655  11.068  12.235  1.00  0.00     0.134 A 
ATOM     97  C   UNL     1       2.160  12.870  11.727  1.00  0.00     0.134 A 
ATOM     98  F   UNL     1       4.135   9.835  12.018  1.00  0.00    -0.206 F 
ATOM     99  C   UNL     1       4.186  11.801  13.298  1.00  0.00     0.040 A 
ATOM    100  C   UNL     1       2.704  13.623  12.768  1.00  0.00     0.040 A 
ATOM    101  F   UNL     1       1.182  13.424  10.995  1.00  0.00    -0.206 F 
ATOM    102  C   UNL     1       3.716  13.086  13.561  1.00  0.00     0.006 A 
ENDBRANCH  78  95
ENDBRANCH  52  53
ENDBRANCH  44  47
ENDBRANCH  42  43
ENDBRANCH  41  42
ENDBRANCH  40  41
ENDBRANCH   1  40
TORSDOF 19
