REMARK SMILES COC[C@H]1CCN(C(=O)N2CC[C@H](C(=O)NCCCCCCNC(=O)c3ccc(-c4c5nc(c(-c6c(F)cccc6F)c6ccc([nH]6)c(-c6c(F)cccc6F)c6nc(c(-c7c(F)cccc7F)c7ccc4[nH]7)C=C6)C=C5)cc3)[C@@H]2C)C1
REMARK SMILES IDX 18 1 17 2 16 3 14 4 15 5 13 7 10 8 11 9 80 10 12 11 81 12
REMARK SMILES IDX 8 13 9 14 7 15 4 16 5 17 82 18 6 19 3 20 2 21 1 22 19 23
REMARK SMILES IDX 20 24 21 25 22 26 23 27 24 28 25 30 26 31 27 32 79 33 28 34
REMARK SMILES IDX 78 35 29 36 30 37 31 38 72 39 32 40 77 41 71 42 73 43 33 44
REMARK SMILES IDX 76 45 70 46 69 47 34 49 60 50 43 51 59 52 44 53 47 54 58 55
REMARK SMILES IDX 74 56 45 57 46 58 57 60 75 61 48 62 35 63 36 64 41 65 37 66
REMARK SMILES IDX 38 67 40 68 42 69 39 70 61 71 62 72 67 73 63 74 64 75 66 76
REMARK SMILES IDX 68 77 65 78 49 79 50 80 55 81 51 82 52 83 54 84 56 85 53 86
REMARK H PARENT 16 6 23 29 73 48 47 59
REMARK Flexibility Score: inf
ROOT
ATOM      1  C   UNL     1      -4.453   3.023  -3.754  1.00  0.00     0.021 C 
ENDROOT
BRANCH   1   2
ATOM      2  C   UNL     1      -3.988   4.444  -3.454  1.00  0.00     0.116 C 
BRANCH   2   3
ATOM      3  N   UNL     1      -5.012   5.435  -3.707  1.00  0.00    -0.356 N 
ATOM      4  C   UNL     1      -5.413   6.506  -2.973  1.00  0.00     0.225 C 
ATOM      5  O   UNL     1      -6.265   7.242  -3.482  1.00  0.00    -0.275 OA
ATOM      6  H   UNL     1      -5.499   5.313  -4.554  1.00  0.00     0.163 HD
BRANCH   4   7
ATOM      7  C   UNL     1      -4.885   6.822  -1.578  1.00  0.00     0.102 C 
ATOM      8  N   UNL     1      -2.856   6.034  -0.674  1.00  0.00    -0.321 N 
ATOM      9  C   UNL     1      -3.884   5.610   0.258  1.00  0.00     0.122 C 
ATOM     10  C   UNL     1      -3.384   7.159  -1.440  1.00  0.00     0.096 C 
ATOM     11  C   UNL     1      -5.165   5.708  -0.549  1.00  0.00     0.037 C 
ATOM     12  C   UNL     1      -2.628   7.487  -2.722  1.00  0.00     0.032 C 
BRANCH   8  13
ATOM     13  C   UNL     1      -1.519   5.870  -0.408  1.00  0.00     0.320 C 
ATOM     14  O   UNL     1      -0.740   6.820  -0.363  1.00  0.00    -0.248 OA
BRANCH  13  15
ATOM     15  N   UNL     1      -1.089   4.569  -0.270  1.00  0.00    -0.324 N 
ATOM     16  C   UNL     1       0.408   2.746   0.057  1.00  0.00     0.036 C 
ATOM     17  C   UNL     1      -1.046   2.269   0.047  1.00  0.00     0.029 C 
ATOM     18  C   UNL     1       0.291   4.278   0.085  1.00  0.00     0.127 C 
ATOM     19  C   UNL     1      -1.754   3.363  -0.721  1.00  0.00     0.122 C 
BRANCH  16  20
ATOM     20  C   UNL     1       1.236   2.215   1.222  1.00  0.00     0.165 C 
BRANCH  20  21
ATOM     21  O   UNL     1       1.374   0.796   1.190  1.00  0.00    -0.384 OA
ATOM     22  C   UNL     1       0.375   0.093   1.917  1.00  0.00     0.194 C 
ENDBRANCH  20  21
ENDBRANCH  16  20
ENDBRANCH  13  15
ENDBRANCH   8  13
ENDBRANCH   4   7
ENDBRANCH   2   3
ENDBRANCH   1   2
BRANCH   1  23
ATOM     23  C   UNL     1      -4.639   2.715  -5.243  1.00  0.00     0.002 C 
BRANCH  23  24
ATOM     24  C   UNL     1      -3.418   2.977  -6.132  1.00  0.00     0.002 C 
BRANCH  24  25
ATOM     25  C   UNL     1      -2.115   2.308  -5.687  1.00  0.00     0.021 C 
BRANCH  25  26
ATOM     26  C   UNL     1      -2.184   0.794  -5.517  1.00  0.00     0.116 C 
BRANCH  26  27
ATOM     27  N   UNL     1      -2.555   0.111  -6.745  1.00  0.00    -0.352 N 
ATOM     28  C   UNL     1      -1.968  -0.963  -7.359  1.00  0.00     0.251 C 
ATOM     29  H   UNL     1      -3.346   0.474  -7.203  1.00  0.00     0.163 HD
ATOM     30  O   UNL     1      -2.340  -1.302  -8.486  1.00  0.00    -0.269 OA
BRANCH  28  31
ATOM     31  C   UNL     1      -0.877  -1.708  -6.697  1.00  0.00     0.039 A 
ATOM     32  C   UNL     1       0.234  -2.084  -7.457  1.00  0.00     0.014 A 
ATOM     33  C   UNL     1      -0.951  -2.057  -5.345  1.00  0.00     0.014 A 
ATOM     34  C   UNL     1       1.293  -2.762  -6.850  1.00  0.00     0.010 A 
ATOM     35  C   UNL     1       0.136  -2.673  -4.726  1.00  0.00     0.010 A 
ATOM     36  C   UNL     1       1.266  -3.034  -5.473  1.00  0.00    -0.014 A 
BRANCH  36  37
ATOM     37  C   UNL     1       2.422  -3.685  -4.805  1.00  0.00     0.031 A 
ATOM     38  C   UNL     1       2.284  -5.053  -4.197  1.00  0.00     0.074 A 
ATOM     39  C   UNL     1       3.588  -3.018  -4.706  1.00  0.00     0.049 A 
ATOM     40  N   UNL     1       3.175  -5.766  -3.556  1.00  0.00    -0.248 NA
ATOM     41  C   UNL     1       0.964  -5.694  -4.300  1.00  0.00     0.031 C 
ATOM     42  C   UNL     1       3.833  -1.664  -5.205  1.00  0.00     0.029 A 
ATOM     43  N   UNL     1       4.786  -3.387  -4.146  1.00  0.00    -0.354 N 
ATOM     44  C   UNL     1       2.524  -6.931  -3.172  1.00  0.00     0.074 A 
ATOM     45  C   UNL     1       1.149  -6.808  -3.606  1.00  0.00     0.031 C 
ATOM     46  C   UNL     1       5.106  -1.325  -4.950  1.00  0.00     0.029 A 
ATOM     47  C   UNL     1       5.759  -2.422  -4.244  1.00  0.00     0.049 A 
ATOM     48  H   UNL     1       4.933  -4.260  -3.715  1.00  0.00     0.167 HD
ATOM     49  C   UNL     1       3.031  -8.014  -2.535  1.00  0.00     0.037 A 
ATOM     50  C   UNL     1       7.033  -2.421  -3.811  1.00  0.00     0.037 A 
ATOM     51  C   UNL     1       4.405  -8.143  -2.125  1.00  0.00     0.049 A 
ATOM     52  C   UNL     1       7.574  -3.639  -3.115  1.00  0.00     0.074 A 
ATOM     53  C   UNL     1       5.031  -9.229  -1.537  1.00  0.00     0.029 A 
ATOM     54  N   UNL     1       5.366  -7.152  -2.256  1.00  0.00    -0.354 N 
ATOM     55  N   UNL     1       6.968  -4.766  -2.830  1.00  0.00    -0.248 NA
ATOM     56  C   UNL     1       8.979  -3.587  -2.688  1.00  0.00     0.031 C 
ATOM     57  C   UNL     1       6.359  -8.878  -1.272  1.00  0.00     0.029 A 
ATOM     58  C   UNL     1       6.574  -7.591  -1.738  1.00  0.00     0.049 A 
ATOM     59  H   UNL     1       5.212  -6.266  -2.658  1.00  0.00     0.167 HD
ATOM     60  C   UNL     1       7.921  -5.564  -2.212  1.00  0.00     0.074 A 
ATOM     61  C   UNL     1       9.151  -4.800  -2.181  1.00  0.00     0.031 C 
ATOM     62  C   UNL     1       7.789  -6.818  -1.712  1.00  0.00     0.037 A 
BRANCH  49  63
ATOM     63  C   UNL     1       2.092  -9.150  -2.246  1.00  0.00     0.057 A 
ATOM     64  C   UNL     1       1.589  -9.970  -3.265  1.00  0.00     0.134 A 
ATOM     65  C   UNL     1       1.716  -9.450  -0.931  1.00  0.00     0.134 A 
ATOM     66  F   UNL     1       1.901  -9.730  -4.548  1.00  0.00    -0.206 F 
ATOM     67  C   UNL     1       0.724 -11.030  -2.990  1.00  0.00     0.040 A 
ATOM     68  C   UNL     1       0.873 -10.525  -0.640  1.00  0.00     0.040 A 
ATOM     69  F   UNL     1       2.166  -8.710   0.093  1.00  0.00    -0.206 F 
ATOM     70  C   UNL     1       0.369 -11.314  -1.672  1.00  0.00     0.006 A 
ENDBRANCH  49  63
BRANCH  50  71
ATOM     71  C   UNL     1       7.895  -1.236  -4.047  1.00  0.00     0.057 A 
ATOM     72  C   UNL     1       8.949  -1.281  -4.966  1.00  0.00     0.134 A 
ATOM     73  C   UNL     1       7.686  -0.033  -3.362  1.00  0.00     0.134 A 
ATOM     74  F   UNL     1       9.209  -2.412  -5.640  1.00  0.00    -0.206 F 
ATOM     75  C   UNL     1       9.778  -0.179  -5.183  1.00  0.00     0.040 A 
ATOM     76  C   UNL     1       8.491   1.084  -3.588  1.00  0.00     0.040 A 
ATOM     77  F   UNL     1       6.687   0.077  -2.475  1.00  0.00    -0.206 F 
ATOM     78  C   UNL     1       9.546   1.010  -4.496  1.00  0.00     0.006 A 
ENDBRANCH  50  71
BRANCH  62  79
ATOM     79  C   UNL     1       9.012  -7.446  -1.112  1.00  0.00     0.057 A 
ATOM     80  C   UNL     1       9.531  -7.023   0.118  1.00  0.00     0.134 A 
ATOM     81  C   UNL     1       9.664  -8.502  -1.761  1.00  0.00     0.134 A 
ATOM     82  F   UNL     1       8.961  -6.007   0.784  1.00  0.00    -0.206 F 
ATOM     83  C   UNL     1      10.671  -7.612   0.670  1.00  0.00     0.040 A 
ATOM     84  C   UNL     1      10.788  -9.117  -1.206  1.00  0.00     0.040 A 
ATOM     85  F   UNL     1       9.213  -8.961  -2.938  1.00  0.00    -0.206 F 
ATOM     86  C   UNL     1      11.298  -8.666   0.009  1.00  0.00     0.006 A 
ENDBRANCH  62  79
ENDBRANCH  36  37
ENDBRANCH  28  31
ENDBRANCH  26  27
ENDBRANCH  25  26
ENDBRANCH  24  25
ENDBRANCH  23  24
ENDBRANCH   1  23
TORSDOF 17
