REMARK SMILES CC1(C)CCC[N@H+](CC[C@@H]2CCC[C@]2([NH3+])C(=O)NCCCCCCNC(=O)c2ccc(-c3c4nc(c(-c5c(F)cccc5F)c5ccc([nH]5)c(-c5c(F)cccc5F)c5nc(c(-c6c(F)cccc6F)c6ccc3[nH]6)C=C5)C=C4)cc2)CC1
REMARK SMILES IDX 19 1 18 2 16 3 17 4 14 6 10 7 11 8 12 9 13 10 9 11 8 12 7 13
REMARK SMILES IDX 82 15 83 16 2 17 1 18 3 19 4 20 6 22 5 23 15 25 20 29 21 30
REMARK SMILES IDX 22 31 23 32 24 33 25 34 26 35 27 37 28 38 29 39 81 40 30 41
REMARK SMILES IDX 80 42 31 43 32 44 33 45 74 46 34 47 79 48 73 49 75 50 35 51
REMARK SMILES IDX 78 52 72 53 71 54 36 56 62 57 45 58 61 59 46 60 49 61 60 62
REMARK SMILES IDX 76 63 47 64 48 65 59 67 77 68 50 69 37 70 38 71 43 72 39 73
REMARK SMILES IDX 40 74 42 75 44 76 41 77 63 78 64 79 69 80 65 81 66 82 68 83
REMARK SMILES IDX 70 84 67 85 51 86 52 87 57 88 53 89 54 90 56 91 58 92 55 93
REMARK H PARENT 18 5 7 14 15 26 15 27 15 28 25 36 75 55 49 66
REMARK Flexibility Score: 80.00
ROOT
ATOM      1  C   UNL     1      -1.976   3.591   7.168  1.00  0.00     0.116 C 
ENDROOT
BRANCH   1   2
ATOM      2  N   UNL     1      -0.757   4.207   7.635  1.00  0.00    -0.351 N 
ATOM      3  C   UNL     1       0.267   4.786   6.951  1.00  0.00     0.281 C 
ATOM      4  O   UNL     1       1.156   5.284   7.652  1.00  0.00    -0.268 OA
ATOM      5  H   UNL     1      -0.647   4.208   8.613  1.00  0.00     0.163 HD
BRANCH   3   6
ATOM      6  C   UNL     1       0.327   4.843   5.381  1.00  0.00     0.177 C 
ATOM      7  C   UNL     1       0.777   3.556   4.651  1.00  0.00     0.066 C 
ATOM      8  C   UNL     1       2.261   3.448   5.033  1.00  0.00     0.011 C 
ATOM      9  C   UNL     1       2.762   4.890   5.077  1.00  0.00     0.008 C 
ATOM     10  C   UNL     1       1.509   5.769   4.976  1.00  0.00     0.079 C 
BRANCH   7  11
ATOM     11  C   UNL     1       0.071   2.205   4.802  1.00  0.00     0.072 C 
BRANCH  11  12
ATOM     12  C   UNL     1      -1.280   2.019   4.084  1.00  0.00     0.262 C 
BRANCH  12  13
ATOM     13  N   UNL     1      -1.243   1.692   2.664  1.00  0.00    -0.335 N 
ATOM     14  H   UNL     1      -2.210   1.829   2.368  1.00  0.00     0.348 HD
BRANCH  13  15
ATOM     15  C   UNL     1      -1.218   0.286   2.314  1.00  0.00     0.262 C 
BRANCH  15  16
ATOM     16  C   UNL     1      -0.715  -0.104   0.916  1.00  0.00     0.068 C 
BRANCH  16  17
ATOM     17  C   UNL     1       0.777   0.183   0.608  1.00  0.00    -0.030 C 
ATOM     18  C   UNL     1       1.175  -0.606  -0.658  1.00  0.00     0.011 C 
ATOM     19  C   UNL     1       1.691  -0.295   1.752  1.00  0.00     0.011 C 
BRANCH  17  20
ATOM     20  C   UNL     1       1.012   1.673   0.278  1.00  0.00     0.012 CG0
ATOM     21  G   UNL     1       0.658   2.663   1.371  1.00  0.00     0.000 G0
ENDBRANCH  17  20
ENDBRANCH  16  17
ENDBRANCH  15  16
ENDBRANCH  13  15
BRANCH  13  22
ATOM     22  C   UNL     1      -0.824   2.709   1.733  1.00  0.00     0.262 C 
BRANCH  22  23
ATOM     23  C   UNL     1       0.658   2.663   1.371  1.00  0.00     0.062 CG0
ATOM     24  G   UNL     1       1.012   1.673   0.278  1.00  0.00     0.000 G0
ENDBRANCH  22  23
ENDBRANCH  13  22
ENDBRANCH  12  13
ENDBRANCH  11  12
ENDBRANCH   7  11
BRANCH   6  25
ATOM     25  N   UNL     1      -0.924   5.417   4.848  1.00  0.00    -0.345 N 
ATOM     26  H   UNL     1      -0.877   5.450   3.830  1.00  0.00     0.345 HD
ATOM     27  H   UNL     1      -1.048   6.361   5.213  1.00  0.00     0.345 HD
ATOM     28  H   UNL     1      -1.713   4.837   5.133  1.00  0.00     0.345 HD
ENDBRANCH   6  25
ENDBRANCH   3   6
ENDBRANCH   1   2
BRANCH   1  29
ATOM     29  C   UNL     1      -2.028   2.118   7.576  1.00  0.00     0.021 C 
BRANCH  29  30
ATOM     30  C   UNL     1      -2.819   1.864   8.854  1.00  0.00     0.002 C 
BRANCH  30  31
ATOM     31  C   UNL     1      -4.322   2.128   8.720  1.00  0.00     0.002 C 
BRANCH  31  32
ATOM     32  C   UNL     1      -5.026   1.338   7.613  1.00  0.00     0.021 C 
BRANCH  32  33
ATOM     33  C   UNL     1      -4.812  -0.172   7.677  1.00  0.00     0.116 C 
BRANCH  33  34
ATOM     34  N   UNL     1      -5.226  -0.720   8.961  1.00  0.00    -0.352 N 
ATOM     35  C   UNL     1      -6.267  -1.563   9.249  1.00  0.00     0.251 C 
ATOM     36  H   UNL     1      -4.681  -0.445   9.733  1.00  0.00     0.163 HD
ATOM     37  O   UNL     1      -6.641  -1.724  10.409  1.00  0.00    -0.269 OA
BRANCH  35  38
ATOM     38  C   UNL     1      -6.938  -2.279   8.150  1.00  0.00     0.039 A 
ATOM     39  C   UNL     1      -8.334  -2.297   8.091  1.00  0.00     0.014 A 
ATOM     40  C   UNL     1      -6.176  -2.929   7.175  1.00  0.00     0.014 A 
ATOM     41  C   UNL     1      -8.967  -2.918   7.013  1.00  0.00     0.010 A 
ATOM     42  C   UNL     1      -6.806  -3.479   6.067  1.00  0.00     0.010 A 
ATOM     43  C   UNL     1      -8.207  -3.483   5.977  1.00  0.00    -0.014 A 
BRANCH  43  44
ATOM     44  C   UNL     1      -8.839  -4.102   4.787  1.00  0.00     0.031 A 
ATOM     45  C   UNL     1      -8.637  -5.567   4.518  1.00  0.00     0.074 A 
ATOM     46  C   UNL     1      -9.507  -3.335   3.905  1.00  0.00     0.049 A 
ATOM     47  N   UNL     1      -8.970  -6.270   3.467  1.00  0.00    -0.248 NA
ATOM     48  C   UNL     1      -7.937  -6.335   5.560  1.00  0.00     0.031 C 
ATOM     49  C   UNL     1      -9.752  -1.899   4.045  1.00  0.00     0.029 A 
ATOM     50  N   UNL     1     -10.085  -3.655   2.703  1.00  0.00    -0.354 N 
ATOM     51  C   UNL     1      -8.505  -7.556   3.713  1.00  0.00     0.074 A 
ATOM     52  C   UNL     1      -7.817  -7.521   4.985  1.00  0.00     0.031 C 
ATOM     53  C   UNL     1     -10.445  -1.466   2.980  1.00  0.00     0.029 A 
ATOM     54  C   UNL     1     -10.647  -2.580   2.058  1.00  0.00     0.049 A 
ATOM     55  H   UNL     1     -10.097  -4.569   2.337  1.00  0.00     0.167 HD
ATOM     56  C   UNL     1      -8.658  -8.669   2.958  1.00  0.00     0.037 A 
ATOM     57  C   UNL     1     -11.239  -2.500   0.852  1.00  0.00     0.037 A 
ATOM     58  C   UNL     1      -9.354  -8.696   1.699  1.00  0.00     0.049 A 
ATOM     59  C   UNL     1     -11.347  -3.738   0.004  1.00  0.00     0.074 A 
ATOM     60  C   UNL     1      -9.599  -9.779   0.873  1.00  0.00     0.029 A 
ATOM     61  N   UNL     1      -9.910  -7.586   1.081  1.00  0.00    -0.354 N 
ATOM     62  N   UNL     1     -10.949  -4.959   0.268  1.00  0.00    -0.248 NA
ATOM     63  C   UNL     1     -11.984  -3.587  -1.313  1.00  0.00     0.031 C 
ATOM     64  C   UNL     1     -10.257  -9.314  -0.270  1.00  0.00     0.029 A 
ATOM     65  C   UNL     1     -10.476  -7.953  -0.128  1.00  0.00     0.049 A 
ATOM     66  H   UNL     1      -9.904  -6.672   1.448  1.00  0.00     0.167 HD
ATOM     67  C   UNL     1     -11.325  -5.728  -0.826  1.00  0.00     0.074 A 
ATOM     68  C   UNL     1     -11.981  -4.836  -1.759  1.00  0.00     0.031 C 
ATOM     69  C   UNL     1     -11.149  -7.056  -1.034  1.00  0.00     0.037 A 
BRANCH  56  70
ATOM     70  C   UNL     1      -8.050  -9.942   3.474  1.00  0.00     0.057 A 
ATOM     71  C   UNL     1      -8.539 -10.585   4.620  1.00  0.00     0.134 A 
ATOM     72  C   UNL     1      -6.971 -10.540   2.812  1.00  0.00     0.134 A 
ATOM     73  F   UNL     1      -9.565 -10.061   5.308  1.00  0.00    -0.206 F 
ATOM     74  C   UNL     1      -7.953 -11.753   5.110  1.00  0.00     0.040 A 
ATOM     75  C   UNL     1      -6.397 -11.726   3.273  1.00  0.00     0.040 A 
ATOM     76  F   UNL     1      -6.457  -9.985   1.704  1.00  0.00    -0.206 F 
ATOM     77  C   UNL     1      -6.881 -12.330   4.432  1.00  0.00     0.006 A 
ENDBRANCH  56  70
BRANCH  57  78
ATOM     78  C   UNL     1     -11.796  -1.206   0.379  1.00  0.00     0.057 A 
ATOM     79  C   UNL     1     -13.179  -1.025   0.253  1.00  0.00     0.134 A 
ATOM     80  C   UNL     1     -10.972  -0.128   0.037  1.00  0.00     0.134 A 
ATOM     81  F   UNL     1     -14.020  -2.027   0.548  1.00  0.00    -0.206 F 
ATOM     82  C   UNL     1     -13.721   0.173  -0.215  1.00  0.00     0.040 A 
ATOM     83  C   UNL     1     -11.501   1.085  -0.406  1.00  0.00     0.040 A 
ATOM     84  F   UNL     1      -9.639  -0.233   0.143  1.00  0.00    -0.206 F 
ATOM     85  C   UNL     1     -12.880   1.235  -0.541  1.00  0.00     0.006 A 
ENDBRANCH  57  78
BRANCH  69  86
ATOM     86  C   UNL     1     -11.723  -7.647  -2.288  1.00  0.00     0.057 A 
ATOM     87  C   UNL     1     -11.150  -7.428  -3.546  1.00  0.00     0.134 A 
ATOM     88  C   UNL     1     -12.821  -8.516  -2.219  1.00  0.00     0.134 A 
ATOM     89  F   UNL     1     -10.106  -6.596  -3.682  1.00  0.00    -0.206 F 
ATOM     90  C   UNL     1     -11.653  -8.045  -4.693  1.00  0.00     0.040 A 
ATOM     91  C   UNL     1     -13.315  -9.161  -3.353  1.00  0.00     0.040 A 
ATOM     92  F   UNL     1     -13.412  -8.775  -1.042  1.00  0.00    -0.206 F 
ATOM     93  C   UNL     1     -12.731  -8.924  -4.595  1.00  0.00     0.006 A 
ENDBRANCH  69  86
ENDBRANCH  43  44
ENDBRANCH  35  38
ENDBRANCH  33  34
ENDBRANCH  32  33
ENDBRANCH  31  32
ENDBRANCH  30  31
ENDBRANCH  29  30
ENDBRANCH   1  29
TORSDOF 17
