REMARK SMILES CC[NH2+][C@]1(C(=O)NCCCCCCNC(=O)c2ccc(-c3c4nc(c(-c5c(F)cccc5F)c5ccc([nH]5)c(-c5c(F)cccc5F)c5nc(c(-c6c(F)cccc6F)c6ccc3[nH]6)C=C5)C=C4)cc2)CCC[C@@H](n2cccn2)C1
REMARK SMILES IDX 10 1 9 2 8 3 7 4 5 5 6 6 4 8 71 9 80 10 72 11 74 12 73 13
REMARK SMILES IDX 3 14 2 17 1 18 75 19 76 20 79 21 77 22 78 23 11 24 12 25
REMARK SMILES IDX 13 26 14 27 15 28 16 30 17 31 18 32 70 33 19 34 69 35 20 36
REMARK SMILES IDX 21 37 22 38 63 39 23 40 68 41 62 42 64 43 24 44 67 45 61 46
REMARK SMILES IDX 60 47 25 49 51 50 34 51 50 52 35 53 38 54 49 55 65 56 36 57
REMARK SMILES IDX 37 58 48 60 66 61 39 62 26 63 27 64 32 65 28 66 29 67 31 68
REMARK SMILES IDX 33 69 30 70 52 71 53 72 58 73 54 74 55 75 57 76 59 77 56 78
REMARK SMILES IDX 40 79 41 80 46 81 42 82 43 83 45 84 47 85 44 86
REMARK H PARENT 7 7 3 15 3 16 14 29 64 48 38 59
REMARK Flexibility Score: inf
ROOT
ATOM      1  C   UNL     1       4.722   1.929   2.272  1.00  0.00     0.002 C 
ENDROOT
BRANCH   1   2
ATOM      2  C   UNL     1       4.089   0.942   3.260  1.00  0.00     0.021 C 
BRANCH   2   3
ATOM      3  C   UNL     1       2.614   1.233   3.543  1.00  0.00     0.116 C 
BRANCH   3   4
ATOM      4  N   UNL     1       1.766   0.672   2.504  1.00  0.00    -0.351 N 
ATOM      5  C   UNL     1       1.103  -0.503   2.339  1.00  0.00     0.281 C 
ATOM      6  O   UNL     1       0.805  -0.753   1.161  1.00  0.00    -0.268 OA
ATOM      7  H   UNL     1       1.644   1.285   1.744  1.00  0.00     0.163 HD
BRANCH   5   8
ATOM      8  C   UNL     1       0.601  -1.447   3.499  1.00  0.00     0.177 C 
ATOM      9  C   UNL     1       0.877  -2.909   3.065  1.00  0.00     0.079 C 
ATOM     10  C   UNL     1       1.302  -1.223   4.842  1.00  0.00     0.106 C 
ATOM     11  C   UNL     1       0.501  -3.939   4.131  1.00  0.00     0.009 C 
ATOM     12  C   UNL     1       1.016  -2.250   5.946  1.00  0.00     0.114 C 
ATOM     13  C   UNL     1       1.244  -3.680   5.436  1.00  0.00     0.028 C 
BRANCH   8  14
ATOM     14  N   UNL     1      -0.851  -1.170   3.750  1.00  0.00    -0.334 N 
ATOM     15  H   UNL     1      -1.129  -1.685   4.585  1.00  0.00     0.347 HD
ATOM     16  H   UNL     1      -0.930  -0.158   3.846  1.00  0.00     0.347 HD
BRANCH  14  17
ATOM     17  C   UNL     1      -1.762  -1.545   2.662  1.00  0.00     0.257 C 
ATOM     18  C   UNL     1      -3.198  -1.228   3.061  1.00  0.00     0.071 C 
ENDBRANCH  14  17
ENDBRANCH   8  14
BRANCH  12  19
ATOM     19  N   UNL     1       1.835  -1.903   7.119  1.00  0.00    -0.269 N 
ATOM     20  C   UNL     1       1.751  -0.737   7.840  1.00  0.00     0.109 A 
ATOM     21  N   UNL     1       2.892  -2.657   7.482  1.00  0.00    -0.181 NA
ATOM     22  C   UNL     1       2.820  -0.737   8.704  1.00  0.00     0.042 A 
ATOM     23  C   UNL     1       3.474  -1.955   8.455  1.00  0.00     0.135 A 
ENDBRANCH  12  19
ENDBRANCH   5   8
ENDBRANCH   3   4
ENDBRANCH   2   3
ENDBRANCH   1   2
BRANCH   1  24
ATOM     24  C   UNL     1       4.679   3.398   2.711  1.00  0.00     0.002 C 
BRANCH  24  25
ATOM     25  C   UNL     1       5.248   3.679   4.106  1.00  0.00     0.021 C 
BRANCH  25  26
ATOM     26  C   UNL     1       6.716   3.301   4.279  1.00  0.00     0.116 C 
BRANCH  26  27
ATOM     27  N   UNL     1       7.575   4.054   3.378  1.00  0.00    -0.352 N 
ATOM     28  C   UNL     1       8.646   4.857   3.658  1.00  0.00     0.251 C 
ATOM     29  H   UNL     1       7.351   3.973   2.423  1.00  0.00     0.163 HD
ATOM     30  O   UNL     1       9.105   5.594   2.782  1.00  0.00    -0.269 OA
BRANCH  28  31
ATOM     31  C   UNL     1       9.253   4.857   5.004  1.00  0.00     0.039 A 
ATOM     32  C   UNL     1       9.640   6.077   5.566  1.00  0.00     0.014 A 
ATOM     33  C   UNL     1       9.478   3.663   5.695  1.00  0.00     0.014 A 
ATOM     34  C   UNL     1      10.207   6.103   6.840  1.00  0.00     0.010 A 
ATOM     35  C   UNL     1       9.983   3.696   6.993  1.00  0.00     0.010 A 
ATOM     36  C   UNL     1      10.357   4.915   7.575  1.00  0.00    -0.014 A 
BRANCH  36  37
ATOM     37  C   UNL     1      10.891   4.945   8.958  1.00  0.00     0.031 A 
ATOM     38  C   UNL     1      12.211   4.307   9.286  1.00  0.00     0.074 A 
ATOM     39  C   UNL     1      10.156   5.511   9.934  1.00  0.00     0.049 A 
ATOM     40  N   UNL     1      12.831   4.236  10.437  1.00  0.00    -0.248 NA
ATOM     41  C   UNL     1      12.915   3.638   8.181  1.00  0.00     0.031 C 
ATOM     42  C   UNL     1       8.829   6.103   9.754  1.00  0.00     0.029 A 
ATOM     43  N   UNL     1      10.417   5.675  11.270  1.00  0.00    -0.354 N 
ATOM     44  C   UNL     1      13.992   3.514  10.197  1.00  0.00     0.074 A 
ATOM     45  C   UNL     1      13.961   3.118   8.805  1.00  0.00     0.031 C 
ATOM     46  C   UNL     1       8.402   6.586  10.931  1.00  0.00     0.029 A 
ATOM     47  C   UNL     1       9.412   6.316  11.950  1.00  0.00     0.049 A 
ATOM     48  H   UNL     1      11.246   5.364  11.700  1.00  0.00     0.167 HD
ATOM     49  C   UNL     1      15.004   3.227  11.051  1.00  0.00     0.037 A 
ATOM     50  C   UNL     1       9.314   6.650  13.250  1.00  0.00     0.037 A 
ATOM     51  C   UNL     1      15.035   3.630  12.434  1.00  0.00     0.049 A 
ATOM     52  C   UNL     1      10.453   6.340  14.176  1.00  0.00     0.074 A 
ATOM     53  C   UNL     1      16.040   3.443  13.367  1.00  0.00     0.029 A 
ATOM     54  N   UNL     1      14.007   4.296  13.085  1.00  0.00    -0.354 N 
ATOM     55  N   UNL     1      11.583   5.727  13.918  1.00  0.00    -0.248 NA
ATOM     56  C   UNL     1      10.310   6.778  15.571  1.00  0.00     0.031 C 
ATOM     57  C   UNL     1      15.603   3.959  14.592  1.00  0.00     0.029 A 
ATOM     58  C   UNL     1      14.343   4.508  14.412  1.00  0.00     0.049 A 
ATOM     59  H   UNL     1      13.162   4.578  12.665  1.00  0.00     0.167 HD
ATOM     60  C   UNL     1      12.291   5.714  15.112  1.00  0.00     0.074 A 
ATOM     61  C   UNL     1      11.472   6.404  16.089  1.00  0.00     0.031 C 
ATOM     62  C   UNL     1      13.508   5.178  15.377  1.00  0.00     0.037 A 
BRANCH  49  63
ATOM     63  C   UNL     1      16.159   2.439  10.504  1.00  0.00     0.057 A 
ATOM     64  C   UNL     1      17.052   2.989   9.572  1.00  0.00     0.134 A 
ATOM     65  C   UNL     1      16.387   1.119  10.913  1.00  0.00     0.134 A 
ATOM     66  F   UNL     1      16.884   4.244   9.129  1.00  0.00    -0.206 F 
ATOM     67  C   UNL     1      18.105   2.243   9.041  1.00  0.00     0.040 A 
ATOM     68  C   UNL     1      17.454   0.373  10.409  1.00  0.00     0.040 A 
ATOM     69  F   UNL     1      15.576   0.533  11.806  1.00  0.00    -0.206 F 
ATOM     70  C   UNL     1      18.311   0.932   9.463  1.00  0.00     0.006 A 
ENDBRANCH  49  63
BRANCH  50  71
ATOM     71  C   UNL     1       8.099   7.349  13.734  1.00  0.00     0.057 A 
ATOM     72  C   UNL     1       8.130   8.708  14.064  1.00  0.00     0.134 A 
ATOM     73  C   UNL     1       6.872   6.683  13.847  1.00  0.00     0.134 A 
ATOM     74  F   UNL     1       9.279   9.394  13.990  1.00  0.00    -0.206 F 
ATOM     75  C   UNL     1       6.986   9.380  14.497  1.00  0.00     0.040 A 
ATOM     76  C   UNL     1       5.716   7.347  14.258  1.00  0.00     0.040 A 
ATOM     77  F   UNL     1       6.777   5.382  13.534  1.00  0.00    -0.206 F 
ATOM     78  C   UNL     1       5.773   8.700  14.588  1.00  0.00     0.006 A 
ENDBRANCH  50  71
BRANCH  62  79
ATOM     79  C   UNL     1      14.020   5.320  16.781  1.00  0.00     0.057 A 
ATOM     80  C   UNL     1      13.472   4.586  17.841  1.00  0.00     0.134 A 
ATOM     81  C   UNL     1      15.080   6.186  17.073  1.00  0.00     0.134 A 
ATOM     82  F   UNL     1      12.445   3.749  17.630  1.00  0.00    -0.206 F 
ATOM     83  C   UNL     1      13.943   4.730  19.148  1.00  0.00     0.040 A 
ATOM     84  C   UNL     1      15.576   6.320  18.370  1.00  0.00     0.040 A 
ATOM     85  F   UNL     1      15.654   6.913  16.102  1.00  0.00    -0.206 F 
ATOM     86  C   UNL     1      15.002   5.597  19.414  1.00  0.00     0.006 A 
ENDBRANCH  62  79
ENDBRANCH  36  37
ENDBRANCH  28  31
ENDBRANCH  26  27
ENDBRANCH  25  26
ENDBRANCH  24  25
ENDBRANCH   1  24
TORSDOF 16
