REMARK SMILES Cc1ccsc1C(=O)NNC(=O)[C@@H]1[C@@H](C(=O)NCCCCCCNC(=O)c2ccc(-c3c4nc(c(-c5c(F)cccc5F)c5ccc([nH]5)c(-c5c(F)cccc5F)c5nc(c(-c6c(F)cccc6F)c6ccc3[nH]6)C=C5)C=C4)cc2)[C@H]2C=C[C@@H]1C2
REMARK SMILES IDX 20 1 19 2 18 3 17 4 15 5 16 6 14 8 13 9 84 10 81 11 83 12
REMARK SMILES IDX 85 13 82 14 11 15 10 16 12 18 9 19 7 20 8 21 6 23 1 24 2 25
REMARK SMILES IDX 3 26 4 27 5 28 21 29 22 30 23 31 24 32 25 33 26 35 27 36
REMARK SMILES IDX 28 37 80 38 29 39 79 40 30 41 31 42 32 43 73 44 33 45 78 46
REMARK SMILES IDX 72 47 74 48 34 49 77 50 71 51 70 52 35 54 61 55 44 56 60 57
REMARK SMILES IDX 45 58 48 59 59 60 75 61 46 62 47 63 58 65 76 66 49 67 36 68
REMARK SMILES IDX 37 69 42 70 38 71 39 72 41 73 43 74 40 75 62 76 63 77 68 78
REMARK SMILES IDX 64 79 65 80 67 81 69 82 66 83 50 84 51 85 56 86 52 87 53 88
REMARK SMILES IDX 55 89 57 90 54 91
REMARK H PARENT 17 7 10 17 9 22 24 34 74 53 48 64
REMARK Flexibility Score: inf
ROOT
ATOM      1  C   UNL     1       9.277  -7.020  -0.677  1.00  0.00     0.002 C 
ENDROOT
BRANCH   1   2
ATOM      2  C   UNL     1       7.895  -6.850  -0.045  1.00  0.00     0.021 C 
BRANCH   2   3
ATOM      3  C   UNL     1       7.189  -5.550  -0.411  1.00  0.00     0.116 C 
BRANCH   3   4
ATOM      4  N   UNL     1       6.463  -5.655  -1.659  1.00  0.00    -0.356 N 
ATOM      5  C   UNL     1       5.167  -5.481  -2.003  1.00  0.00     0.224 C 
ATOM      6  O   UNL     1       4.900  -5.654  -3.200  1.00  0.00    -0.275 OA
ATOM      7  H   UNL     1       7.035  -5.907  -2.420  1.00  0.00     0.163 HD
BRANCH   5   8
ATOM      8  C   UNL     1       4.022  -5.140  -1.059  1.00  0.00     0.098 C 
ATOM      9  C   UNL     1       4.216  -4.039   0.013  1.00  0.00     0.100 C 
ATOM     10  C   UNL     1       3.502  -4.662   1.247  1.00  0.00     0.025 C 
ATOM     11  C   UNL     1       3.455  -6.339  -0.250  1.00  0.00     0.025 C 
ATOM     12  C   UNL     1       4.417  -5.774   1.758  1.00  0.00    -0.027 C 
ATOM     13  C   UNL     1       2.453  -5.615   0.658  1.00  0.00     0.017 C 
ATOM     14  C   UNL     1       4.395  -6.765   0.848  1.00  0.00    -0.027 C 
BRANCH   9  15
ATOM     15  C   UNL     1       3.906  -2.627  -0.490  1.00  0.00     0.242 C 
ATOM     16  N   UNL     1       2.690  -2.211  -0.942  1.00  0.00    -0.267 N 
ATOM     17  H   UNL     1       2.666  -1.398  -1.498  1.00  0.00     0.191 HD
ATOM     18  O   UNL     1       4.831  -1.806  -0.556  1.00  0.00    -0.273 OA
BRANCH  16  19
ATOM     19  N   UNL     1       1.502  -2.833  -0.685  1.00  0.00    -0.263 N 
ATOM     20  C   UNL     1       0.373  -2.266  -0.118  1.00  0.00     0.280 C 
ATOM     21  O   UNL     1      -0.532  -3.063   0.149  1.00  0.00    -0.266 OA
ATOM     22  H   UNL     1       1.442  -3.785  -0.928  1.00  0.00     0.191 HD
BRANCH  20  23
ATOM     23  C   UNL     1       0.228  -0.815   0.015  1.00  0.00     0.096 A 
ATOM     24  C   UNL     1       2.483   0.187   0.852  1.00  0.00     0.046 C 
ATOM     25  C   UNL     1       1.069   0.240   0.370  1.00  0.00    -0.027 A 
ATOM     26  C   UNL     1       0.392   1.508   0.246  1.00  0.00     0.016 A 
ATOM     27  C   UNL     1      -0.925   1.388  -0.117  1.00  0.00     0.066 A 
ATOM     28  S   UNL     1      -1.369  -0.233  -0.338  1.00  0.00    -0.138 S 
ENDBRANCH  20  23
ENDBRANCH  16  19
ENDBRANCH   9  15
ENDBRANCH   5   8
ENDBRANCH   3   4
ENDBRANCH   2   3
ENDBRANCH   1   2
BRANCH   1  29
ATOM     29  C   UNL     1      10.285  -5.906  -0.371  1.00  0.00     0.002 C 
BRANCH  29  30
ATOM     30  C   UNL     1      10.430  -5.519   1.104  1.00  0.00     0.021 C 
BRANCH  30  31
ATOM     31  C   UNL     1      10.755  -6.670   2.052  1.00  0.00     0.116 C 
BRANCH  31  32
ATOM     32  N   UNL     1      11.976  -7.362   1.682  1.00  0.00    -0.352 N 
ATOM     33  C   UNL     1      13.099  -7.620   2.424  1.00  0.00     0.251 C 
ATOM     34  H   UNL     1      12.001  -7.697   0.756  1.00  0.00     0.163 HD
ATOM     35  O   UNL     1      14.104  -8.064   1.879  1.00  0.00    -0.269 OA
BRANCH  33  36
ATOM     36  C   UNL     1      13.110  -7.352   3.877  1.00  0.00     0.039 A 
ATOM     37  C   UNL     1      14.237  -6.742   4.436  1.00  0.00     0.014 A 
ATOM     38  C   UNL     1      12.040  -7.731   4.694  1.00  0.00     0.014 A 
ATOM     39  C   UNL     1      14.274  -6.474   5.805  1.00  0.00     0.010 A 
ATOM     40  C   UNL     1      12.050  -7.403   6.048  1.00  0.00     0.010 A 
ATOM     41  C   UNL     1      13.171  -6.782   6.618  1.00  0.00    -0.014 A 
BRANCH  41  42
ATOM     42  C   UNL     1      13.186  -6.469   8.068  1.00  0.00     0.031 A 
ATOM     43  C   UNL     1      13.164  -7.578   9.083  1.00  0.00     0.074 A 
ATOM     44  C   UNL     1      13.170  -5.184   8.470  1.00  0.00     0.049 A 
ATOM     45  N   UNL     1      13.139  -7.502  10.390  1.00  0.00    -0.248 NA
ATOM     46  C   UNL     1      13.139  -8.953   8.561  1.00  0.00     0.031 C 
ATOM     47  C   UNL     1      13.134  -4.021   7.582  1.00  0.00     0.029 A 
ATOM     48  N   UNL     1      13.172  -4.642   9.730  1.00  0.00    -0.354 N 
ATOM     49  C   UNL     1      13.081  -8.813  10.844  1.00  0.00     0.074 A 
ATOM     50  C   UNL     1      13.022  -9.663   9.674  1.00  0.00     0.031 C 
ATOM     51  C   UNL     1      13.137  -2.902   8.325  1.00  0.00     0.029 A 
ATOM     52  C   UNL     1      13.146  -3.269   9.738  1.00  0.00     0.049 A 
ATOM     53  H   UNL     1      13.190  -5.185  10.551  1.00  0.00     0.167 HD
ATOM     54  C   UNL     1      13.097  -9.270  12.119  1.00  0.00     0.037 A 
ATOM     55  C   UNL     1      13.129  -2.403  10.768  1.00  0.00     0.037 A 
ATOM     56  C   UNL     1      13.183  -8.423  13.280  1.00  0.00     0.049 A 
ATOM     57  C   UNL     1      13.168  -2.933  12.174  1.00  0.00     0.074 A 
ATOM     58  C   UNL     1      13.276  -8.790  14.611  1.00  0.00     0.029 A 
ATOM     59  N   UNL     1      13.185  -7.036  13.247  1.00  0.00    -0.354 N 
ATOM     60  N   UNL     1      13.190  -4.177  12.587  1.00  0.00    -0.248 NA
ATOM     61  C   UNL     1      13.191  -1.939  13.255  1.00  0.00     0.031 C 
ATOM     62  C   UNL     1      13.292  -7.625  15.386  1.00  0.00     0.029 A 
ATOM     63  C   UNL     1      13.256  -6.532  14.535  1.00  0.00     0.049 A 
ATOM     64  H   UNL     1      13.142  -6.491  12.428  1.00  0.00     0.167 HD
ATOM     65  C   UNL     1      13.254  -4.116  13.973  1.00  0.00     0.074 A 
ATOM     66  C   UNL     1      13.284  -2.712  14.328  1.00  0.00     0.031 C 
ATOM     67  C   UNL     1      13.284  -5.131  14.871  1.00  0.00     0.037 A 
BRANCH  54  68
ATOM     68  C   UNL     1      13.022 -10.755  12.322  1.00  0.00     0.057 A 
ATOM     69  C   UNL     1      14.088 -11.602  11.988  1.00  0.00     0.134 A 
ATOM     70  C   UNL     1      11.881 -11.344  12.880  1.00  0.00     0.134 A 
ATOM     71  F   UNL     1      15.206 -11.104  11.438  1.00  0.00    -0.206 F 
ATOM     72  C   UNL     1      14.009 -12.984  12.174  1.00  0.00     0.040 A 
ATOM     73  C   UNL     1      11.801 -12.721  13.096  1.00  0.00     0.040 A 
ATOM     74  F   UNL     1      10.826 -10.592  13.228  1.00  0.00    -0.206 F 
ATOM     75  C   UNL     1      12.864 -13.546  12.736  1.00  0.00     0.006 A 
ENDBRANCH  54  68
BRANCH  55  76
ATOM     76  C   UNL     1      13.100  -0.943  10.506  1.00  0.00     0.057 A 
ATOM     77  C   UNL     1      14.220  -0.142  10.755  1.00  0.00     0.134 A 
ATOM     78  C   UNL     1      11.957  -0.314   9.998  1.00  0.00     0.134 A 
ATOM     79  F   UNL     1      15.339  -0.684  11.258  1.00  0.00    -0.206 F 
ATOM     80  C   UNL     1      14.201   1.235  10.526  1.00  0.00     0.040 A 
ATOM     81  C   UNL     1      11.931   1.057   9.742  1.00  0.00     0.040 A 
ATOM     82  F   UNL     1      10.854  -1.029   9.730  1.00  0.00    -0.206 F 
ATOM     83  C   UNL     1      13.054   1.837  10.012  1.00  0.00     0.006 A 
ENDBRANCH  55  76
BRANCH  67  84
ATOM     84  C   UNL     1      13.381  -4.757  16.321  1.00  0.00     0.057 A 
ATOM     85  C   UNL     1      12.298  -4.201  17.014  1.00  0.00     0.134 A 
ATOM     86  C   UNL     1      14.563  -4.981  17.038  1.00  0.00     0.134 A 
ATOM     87  F   UNL     1      11.142  -3.950  16.381  1.00  0.00    -0.206 F 
ATOM     88  C   UNL     1      12.396  -3.857  18.363  1.00  0.00     0.040 A 
ATOM     89  C   UNL     1      14.665  -4.665  18.393  1.00  0.00     0.040 A 
ATOM     90  F   UNL     1      15.634  -5.518  16.435  1.00  0.00    -0.206 F 
ATOM     91  C   UNL     1      13.581  -4.095  19.058  1.00  0.00     0.006 A 
ENDBRANCH  67  84
ENDBRANCH  41  42
ENDBRANCH  33  36
ENDBRANCH  31  32
ENDBRANCH  30  31
ENDBRANCH  29  30
ENDBRANCH   1  29
TORSDOF 16
