REMARK SMILES Cc1c(CC(=O)N[C@@H](CCO)C(=O)NCCCCCCNC(=O)c2ccc(-c3c4nc(c(-c5c(F)cccc5F)c5ccc([nH]5)c(-c5c(F)cccc5F)c5nc(c(-c6c(F)cccc6F)c6ccc3[nH]6)C=C5)C=C4)cc2)cc(-c2ccc(S(C)(=O)=O)cc2)n1-c1ccc(F)cc1
REMARK SMILES IDX 16 1 15 2 14 3 12 4 13 5 8 7 7 8 5 9 6 10 4 12 3 13 1 14
REMARK SMILES IDX 2 15 90 16 78 17 79 18 91 19 92 20 97 21 93 22 96 23 94 24
REMARK SMILES IDX 95 25 80 26 81 27 89 28 82 29 88 30 83 31 84 32 85 33 86 34
REMARK SMILES IDX 87 35 9 36 10 37 11 38 17 40 18 41 19 42 20 43 21 44 22 45
REMARK SMILES IDX 23 47 24 48 25 49 77 50 26 51 76 52 27 53 28 54 29 55 70 56
REMARK SMILES IDX 30 57 75 58 69 59 71 60 31 61 74 62 68 63 67 64 32 66 58 67
REMARK SMILES IDX 41 68 57 69 42 70 45 71 56 72 72 73 43 74 44 75 55 77 73 78
REMARK SMILES IDX 46 79 33 80 34 81 39 82 35 83 36 84 38 85 40 86 37 87 59 88
REMARK SMILES IDX 60 89 65 90 61 91 62 92 64 93 66 94 63 95 47 96 48 97 53 98
REMARK SMILES IDX 49 99 50 100 52 101 54 102 51 103
REMARK H PARENT 14 6 7 11 11 39 21 46 71 65 45 76
REMARK Flexibility Score: inf
ROOT
ATOM      1  C   UNL     1       0.675  -2.876  -6.831  1.00  0.00     0.021 C 
ENDROOT
BRANCH   1   2
ATOM      2  C   UNL     1      -0.298  -3.196  -5.713  1.00  0.00     0.116 C 
BRANCH   2   3
ATOM      3  N   UNL     1       0.059  -4.406  -5.009  1.00  0.00    -0.354 N 
ATOM      4  C   UNL     1       0.251  -4.649  -3.686  1.00  0.00     0.242 C 
ATOM      5  O   UNL     1       0.401  -5.830  -3.357  1.00  0.00    -0.273 OA
ATOM      6  H   UNL     1       0.186  -5.191  -5.590  1.00  0.00     0.163 HD
BRANCH   4   7
ATOM      7  C   UNL     1       0.135  -3.554  -2.611  1.00  0.00     0.173 C 
BRANCH   7   8
ATOM      8  N   UNL     1       0.975  -2.380  -2.869  1.00  0.00    -0.344 N 
ATOM      9  C   UNL     1       2.040  -1.924  -2.142  1.00  0.00     0.225 C 
ATOM     10  O   UNL     1       2.723  -1.021  -2.632  1.00  0.00    -0.275 OA
ATOM     11  H   UNL     1       0.743  -1.853  -3.667  1.00  0.00     0.164 HD
BRANCH   9  12
ATOM     12  C   UNL     1       2.365  -2.517  -0.777  1.00  0.00     0.137 C 
BRANCH  12  13
ATOM     13  C   UNL     1       1.233  -2.348   0.194  1.00  0.00    -0.017 A 
ATOM     14  C   UNL     1       0.951   0.224   0.140  1.00  0.00     0.065 C 
ATOM     15  C   UNL     1       0.587  -1.169   0.542  1.00  0.00     0.024 A 
ATOM     16  N   UNL     1      -0.466  -1.484   1.395  1.00  0.00    -0.314 N 
ATOM     17  C   UNL     1       0.599  -3.393   0.912  1.00  0.00     0.033 A 
ATOM     18  C   UNL     1      -0.473  -2.865   1.607  1.00  0.00     0.053 A 
BRANCH  16  19
ATOM     19  C   UNL     1      -1.398  -0.565   1.950  1.00  0.00     0.046 A 
ATOM     20  C   UNL     1      -1.677  -0.616   3.323  1.00  0.00     0.029 A 
ATOM     21  C   UNL     1      -2.084   0.327   1.115  1.00  0.00     0.029 A 
ATOM     22  C   UNL     1      -2.657   0.216   3.859  1.00  0.00     0.041 A 
ATOM     23  C   UNL     1      -3.073   1.148   1.660  1.00  0.00     0.041 A 
ATOM     24  C   UNL     1      -3.351   1.082   3.022  1.00  0.00     0.123 A 
ATOM     25  F   UNL     1      -4.313   1.860   3.536  1.00  0.00    -0.207 F 
ENDBRANCH  16  19
BRANCH  18  26
ATOM     26  C   UNL     1      -1.489  -3.605   2.366  1.00  0.00    -0.001 A 
ATOM     27  C   UNL     1      -2.859  -3.468   2.086  1.00  0.00     0.011 A 
ATOM     28  C   UNL     1      -1.088  -4.459   3.401  1.00  0.00     0.011 A 
ATOM     29  C   UNL     1      -3.815  -4.119   2.871  1.00  0.00     0.021 A 
ATOM     30  C   UNL     1      -2.037  -5.116   4.188  1.00  0.00     0.021 A 
ATOM     31  C   UNL     1      -3.396  -4.922   3.933  1.00  0.00     0.067 A 
BRANCH  31  32
ATOM     32  S   UNL     1      -4.607  -5.728   4.953  1.00  0.00     0.175 S 
ATOM     33  C   UNL     1      -5.430  -4.394   5.783  1.00  0.00     0.163 C 
ATOM     34  O   UNL     1      -5.561  -6.363   4.054  1.00  0.00    -0.224 OA
ATOM     35  O   UNL     1      -3.902  -6.496   5.954  1.00  0.00    -0.224 OA
ENDBRANCH  31  32
ENDBRANCH  18  26
ENDBRANCH  12  13
ENDBRANCH   9  12
ENDBRANCH   7   8
BRANCH   7  36
ATOM     36  C   UNL     1      -1.304  -3.219  -2.164  1.00  0.00     0.063 C 
BRANCH  36  37
ATOM     37  C   UNL     1      -2.334  -2.787  -3.199  1.00  0.00     0.158 C 
BRANCH  37  38
ATOM     38  O   UNL     1      -2.847  -3.865  -3.966  1.00  0.00    -0.396 OA
ATOM     39  H   UNL     1      -2.125  -4.279  -4.464  1.00  0.00     0.210 HD
ENDBRANCH  37  38
ENDBRANCH  36  37
ENDBRANCH   7  36
ENDBRANCH   4   7
ENDBRANCH   2   3
ENDBRANCH   1   2
BRANCH   1  40
ATOM     40  C   UNL     1       0.458  -3.688  -8.110  1.00  0.00     0.002 C 
BRANCH  40  41
ATOM     41  C   UNL     1      -0.944  -3.646  -8.734  1.00  0.00     0.002 C 
BRANCH  41  42
ATOM     42  C   UNL     1      -1.659  -2.284  -8.846  1.00  0.00     0.021 C 
BRANCH  42  43
ATOM     43  C   UNL     1      -0.821  -1.029  -9.144  1.00  0.00     0.116 C 
BRANCH  43  44
ATOM     44  N   UNL     1      -0.802  -0.584 -10.514  1.00  0.00    -0.352 N 
ATOM     45  C   UNL     1      -0.366   0.654 -10.967  1.00  0.00     0.251 C 
ATOM     46  H   UNL     1      -1.130  -1.217 -11.193  1.00  0.00     0.163 HD
ATOM     47  O   UNL     1      -0.261   0.831 -12.178  1.00  0.00    -0.269 OA
BRANCH  45  48
ATOM     48  C   UNL     1      -0.101   1.801 -10.013  1.00  0.00     0.039 A 
ATOM     49  C   UNL     1      -1.156   2.634  -9.673  1.00  0.00     0.014 A 
ATOM     50  C   UNL     1       1.179   2.228  -9.613  1.00  0.00     0.014 A 
ATOM     51  C   UNL     1      -0.935   3.829  -8.920  1.00  0.00     0.010 A 
ATOM     52  C   UNL     1       1.407   3.491  -8.912  1.00  0.00     0.010 A 
ATOM     53  C   UNL     1       0.355   4.358  -8.545  1.00  0.00    -0.014 A 
BRANCH  53  54
ATOM     54  C   UNL     1       0.435   5.975  -8.382  1.00  0.00     0.031 A 
ATOM     55  C   UNL     1      -0.246   6.418  -9.636  1.00  0.00     0.074 A 
ATOM     56  C   UNL     1       0.965   7.017  -7.610  1.00  0.00     0.049 A 
ATOM     57  N   UNL     1       0.219   6.029 -10.792  1.00  0.00    -0.248 NA
ATOM     58  C   UNL     1      -1.634   6.884  -9.661  1.00  0.00     0.031 C 
ATOM     59  C   UNL     1       1.883   6.923  -6.460  1.00  0.00     0.029 A 
ATOM     60  N   UNL     1       0.808   8.448  -7.658  1.00  0.00    -0.354 N 
ATOM     61  C   UNL     1      -0.676   6.471 -11.732  1.00  0.00     0.074 A 
ATOM     62  C   UNL     1      -1.887   6.743 -10.967  1.00  0.00     0.031 C 
ATOM     63  C   UNL     1       2.079   8.134  -5.855  1.00  0.00     0.029 A 
ATOM     64  C   UNL     1       1.365   9.207  -6.552  1.00  0.00     0.049 A 
ATOM     65  H   UNL     1       0.346   8.891  -8.405  1.00  0.00     0.167 HD
ATOM     66  C   UNL     1      -0.134   7.231 -12.727  1.00  0.00     0.037 A 
ATOM     67  C   UNL     1       1.333  10.574  -6.245  1.00  0.00     0.037 A 
ATOM     68  C   UNL     1      -0.300   8.636 -12.475  1.00  0.00     0.049 A 
ATOM     69  C   UNL     1       1.080  11.273  -7.506  1.00  0.00     0.074 A 
ATOM     70  C   UNL     1      -1.368   9.385 -12.020  1.00  0.00     0.029 A 
ATOM     71  N   UNL     1       0.838   9.365 -12.209  1.00  0.00    -0.354 N 
ATOM     72  N   UNL     1       2.029  11.488  -8.362  1.00  0.00    -0.248 NA
ATOM     73  C   UNL     1      -0.213  11.864  -7.830  1.00  0.00     0.031 C 
ATOM     74  C   UNL     1      -0.809  10.215 -11.028  1.00  0.00     0.029 A 
ATOM     75  C   UNL     1       0.562  10.287 -11.226  1.00  0.00     0.049 A 
ATOM     76  H   UNL     1       1.709   9.245 -12.651  1.00  0.00     0.167 HD
ATOM     77  C   UNL     1       1.346  11.729  -9.506  1.00  0.00     0.074 A 
ATOM     78  C   UNL     1       0.048  12.227  -9.087  1.00  0.00     0.031 C 
ATOM     79  C   UNL     1       1.658  10.913 -10.540  1.00  0.00     0.037 A 
BRANCH  66  80
ATOM     80  C   UNL     1       1.089   6.633 -13.361  1.00  0.00     0.057 A 
ATOM     81  C   UNL     1       1.010   6.168 -14.673  1.00  0.00     0.134 A 
ATOM     82  C   UNL     1       2.296   6.402 -12.673  1.00  0.00     0.134 A 
ATOM     83  F   UNL     1      -0.083   6.411 -15.413  1.00  0.00    -0.206 F 
ATOM     84  C   UNL     1       2.053   5.441 -15.253  1.00  0.00     0.040 A 
ATOM     85  C   UNL     1       3.318   5.625 -13.217  1.00  0.00     0.040 A 
ATOM     86  F   UNL     1       2.520   6.939 -11.463  1.00  0.00    -0.206 F 
ATOM     87  C   UNL     1       3.194   5.134 -14.511  1.00  0.00     0.006 A 
ENDBRANCH  66  80
BRANCH  67  88
ATOM     88  C   UNL     1       1.615  11.670  -5.167  1.00  0.00     0.057 A 
ATOM     89  C   UNL     1       2.078  12.984  -5.536  1.00  0.00     0.134 A 
ATOM     90  C   UNL     1       1.022  11.650  -3.899  1.00  0.00     0.134 A 
ATOM     91  F   UNL     1       2.720  13.203  -6.691  1.00  0.00    -0.206 F 
ATOM     92  C   UNL     1       1.853  14.160  -4.788  1.00  0.00     0.040 A 
ATOM     93  C   UNL     1       0.830  12.826  -3.115  1.00  0.00     0.040 A 
ATOM     94  F   UNL     1       0.521  10.509  -3.410  1.00  0.00    -0.206 F 
ATOM     95  C   UNL     1       1.205  14.089  -3.573  1.00  0.00     0.006 A 
ENDBRANCH  67  88
BRANCH  79  96
ATOM     96  C   UNL     1       3.127  10.617 -10.761  1.00  0.00     0.057 A 
ATOM     97  C   UNL     1       4.049  10.110  -9.819  1.00  0.00     0.134 A 
ATOM     98  C   UNL     1       3.658  10.948 -12.012  1.00  0.00     0.134 A 
ATOM     99  F   UNL     1       3.671   9.660  -8.613  1.00  0.00    -0.206 F 
ATOM    100  C   UNL     1       5.422  10.023 -10.091  1.00  0.00     0.040 A 
ATOM    101  C   UNL     1       5.017  10.818 -12.313  1.00  0.00     0.040 A 
ATOM    102  F   UNL     1       2.852  11.403 -12.983  1.00  0.00    -0.206 F 
ATOM    103  C   UNL     1       5.909  10.377 -11.343  1.00  0.00     0.006 A 
ENDBRANCH  79  96
ENDBRANCH  53  54
ENDBRANCH  45  48
ENDBRANCH  43  44
ENDBRANCH  42  43
ENDBRANCH  41  42
ENDBRANCH  40  41
ENDBRANCH   1  40
TORSDOF 22
