REMARK SMILES O=C(NCCCCCCNC(=O)c1cc2c(Cl)c(C(F)(F)F)cnc2n1S(=O)(=O)c1ccccc1)c1ccc(-c2c3nc(c(-c4c(F)cccc4F)c4ccc([nH]4)c(-c4c(F)cccc4F)c4nc(c(-c5c(F)cccc5F)c5ccc2[nH]5)C=C4)C=C3)cc1
REMARK SMILES IDX 6 1 5 2 4 3 3 4 1 5 2 6 36 8 37 9 89 10 38 11 88 12 39 13
REMARK SMILES IDX 40 14 41 15 82 16 42 17 87 18 81 19 83 20 43 21 86 22 80 23
REMARK SMILES IDX 79 24 44 26 70 27 53 28 69 29 54 30 57 31 68 32 84 33 55 34
REMARK SMILES IDX 56 35 67 37 85 38 58 39 45 40 46 41 51 42 47 43 48 44 50 45
REMARK SMILES IDX 52 46 49 47 71 48 72 49 77 50 73 51 74 52 76 53 78 54 75 55
REMARK SMILES IDX 59 56 60 57 65 58 61 59 62 60 64 61 66 62 63 63 7 64 8 65
REMARK SMILES IDX 9 66 10 67 11 68 12 70 13 71 14 72 26 73 15 74 25 75 16 76
REMARK SMILES IDX 24 77 17 78 18 79 23 80 27 81 28 82 29 83 30 84 31 85 35 86
REMARK SMILES IDX 32 87 34 88 33 89 19 90 20 91 21 92 22 93
REMARK H PARENT 3 7 83 25 57 36 10 69
REMARK Flexibility Score: inf
ROOT
ATOM      1  C   UNL     1       4.053  -1.718   3.216  1.00  0.00     0.002 C 
ENDROOT
BRANCH   1   2
ATOM      2  C   UNL     1       4.659  -0.683   2.260  1.00  0.00     0.021 C 
BRANCH   2   3
ATOM      3  C   UNL     1       4.495  -1.004   0.777  1.00  0.00     0.116 C 
BRANCH   3   4
ATOM      4  N   UNL     1       3.123  -1.058   0.318  1.00  0.00    -0.352 N 
ATOM      5  O   UNL     1       1.136  -0.539  -0.516  1.00  0.00    -0.269 OA
ATOM      6  C   UNL     1       2.198  -0.120  -0.050  1.00  0.00     0.251 C 
ATOM      7  H   UNL     1       2.777  -1.978   0.258  1.00  0.00     0.163 HD
BRANCH   6   8
ATOM      8  C   UNL     1       2.360   1.344   0.149  1.00  0.00     0.039 A 
ATOM      9  C   UNL     1       3.575   2.000   0.335  1.00  0.00     0.014 A 
ATOM     10  C   UNL     1       1.172   2.103   0.161  1.00  0.00     0.014 A 
ATOM     11  C   UNL     1       3.599   3.355   0.638  1.00  0.00     0.010 A 
ATOM     12  C   UNL     1       1.192   3.466   0.435  1.00  0.00     0.010 A 
ATOM     13  C   UNL     1       2.407   4.081   0.711  1.00  0.00    -0.014 A 
BRANCH  13  14
ATOM     14  C   UNL     1       2.523   5.516   0.935  1.00  0.00     0.031 A 
ATOM     15  C   UNL     1       3.239   6.252  -0.145  1.00  0.00     0.074 A 
ATOM     16  C   UNL     1       1.985   6.171   1.981  1.00  0.00     0.049 A 
ATOM     17  N   UNL     1       4.371   6.874  -0.071  1.00  0.00    -0.248 NA
ATOM     18  C   UNL     1       2.676   6.191  -1.502  1.00  0.00     0.031 C 
ATOM     19  C   UNL     1       1.031   5.677   2.973  1.00  0.00     0.029 A 
ATOM     20  N   UNL     1       2.139   7.482   2.323  1.00  0.00    -0.354 N 
ATOM     21  C   UNL     1       4.590   7.429  -1.331  1.00  0.00     0.074 A 
ATOM     22  C   UNL     1       3.585   6.873  -2.200  1.00  0.00     0.031 C 
ATOM     23  C   UNL     1       0.535   6.726   3.671  1.00  0.00     0.029 A 
ATOM     24  C   UNL     1       1.232   7.937   3.267  1.00  0.00     0.049 A 
ATOM     25  H   UNL     1       2.837   8.057   1.933  1.00  0.00     0.167 HD
ATOM     26  C   UNL     1       5.462   8.458  -1.516  1.00  0.00     0.037 A 
ATOM     27  C   UNL     1       1.033   9.226   3.640  1.00  0.00     0.037 A 
ATOM     28  C   UNL     1       6.383   8.575  -0.416  1.00  0.00     0.049 A 
ATOM     29  C   UNL     1       2.232  10.007   3.252  1.00  0.00     0.074 A 
ATOM     30  C   UNL     1       7.351   7.765   0.145  1.00  0.00     0.029 A 
ATOM     31  N   UNL     1       6.166   9.574   0.499  1.00  0.00    -0.354 N 
ATOM     32  N   UNL     1       3.392   9.902   3.835  1.00  0.00    -0.248 NA
ATOM     33  C   UNL     1       2.254  10.611   1.928  1.00  0.00     0.031 C 
ATOM     34  C   UNL     1       7.296   8.038   1.544  1.00  0.00     0.029 A 
ATOM     35  C   UNL     1       6.328   9.022   1.741  1.00  0.00     0.049 A 
ATOM     36  H   UNL     1       5.937  10.511   0.300  1.00  0.00     0.167 HD
ATOM     37  C   UNL     1       4.314  10.007   2.806  1.00  0.00     0.074 A 
ATOM     38  C   UNL     1       3.563  10.545   1.675  1.00  0.00     0.031 C 
ATOM     39  C   UNL     1       5.529   9.389   2.884  1.00  0.00     0.037 A 
BRANCH  26  40
ATOM     40  C   UNL     1       5.247   9.594  -2.488  1.00  0.00     0.057 A 
ATOM     41  C   UNL     1       3.989   9.959  -3.007  1.00  0.00     0.134 A 
ATOM     42  C   UNL     1       6.260  10.561  -2.643  1.00  0.00     0.134 A 
ATOM     43  F   UNL     1       2.912   9.173  -2.902  1.00  0.00    -0.206 F 
ATOM     44  C   UNL     1       3.740  11.212  -3.576  1.00  0.00     0.040 A 
ATOM     45  C   UNL     1       6.008  11.835  -3.165  1.00  0.00     0.040 A 
ATOM     46  F   UNL     1       7.506  10.331  -2.201  1.00  0.00    -0.206 F 
ATOM     47  C   UNL     1       4.739  12.170  -3.617  1.00  0.00     0.006 A 
ENDBRANCH  26  40
BRANCH  27  48
ATOM     48  C   UNL     1      -0.222   9.883   4.066  1.00  0.00     0.057 A 
ATOM     49  C   UNL     1      -1.468   9.456   3.578  1.00  0.00     0.134 A 
ATOM     50  C   UNL     1      -0.212  11.113   4.739  1.00  0.00     0.134 A 
ATOM     51  F   UNL     1      -1.580   8.336   2.849  1.00  0.00    -0.206 F 
ATOM     52  C   UNL     1      -2.634  10.211   3.737  1.00  0.00     0.040 A 
ATOM     53  C   UNL     1      -1.371  11.883   4.899  1.00  0.00     0.040 A 
ATOM     54  F   UNL     1       0.937  11.628   5.202  1.00  0.00    -0.206 F 
ATOM     55  C   UNL     1      -2.586  11.437   4.388  1.00  0.00     0.006 A 
ENDBRANCH  27  48
BRANCH  39  56
ATOM     56  C   UNL     1       5.940   8.828   4.214  1.00  0.00     0.057 A 
ATOM     57  C   UNL     1       7.142   9.257   4.786  1.00  0.00     0.134 A 
ATOM     58  C   UNL     1       5.250   7.801   4.877  1.00  0.00     0.134 A 
ATOM     59  F   UNL     1       7.887  10.191   4.175  1.00  0.00    -0.206 F 
ATOM     60  C   UNL     1       7.627   8.710   5.975  1.00  0.00     0.040 A 
ATOM     61  C   UNL     1       5.707   7.270   6.086  1.00  0.00     0.040 A 
ATOM     62  F   UNL     1       4.148   7.252   4.349  1.00  0.00    -0.206 F 
ATOM     63  C   UNL     1       6.902   7.723   6.638  1.00  0.00     0.006 A 
ENDBRANCH  39  56
ENDBRANCH  13  14
ENDBRANCH   6   8
ENDBRANCH   3   4
ENDBRANCH   2   3
ENDBRANCH   1   2
BRANCH   1  64
ATOM     64  C   UNL     1       4.431  -3.186   2.970  1.00  0.00     0.002 C 
BRANCH  64  65
ATOM     65  C   UNL     1       5.926  -3.505   2.839  1.00  0.00     0.021 C 
BRANCH  65  66
ATOM     66  C   UNL     1       6.789  -3.006   3.987  1.00  0.00     0.116 C 
BRANCH  66  67
ATOM     67  N   UNL     1       6.560  -3.682   5.246  1.00  0.00    -0.351 N 
ATOM     68  C   UNL     1       7.457  -4.041   6.215  1.00  0.00     0.269 C 
ATOM     69  H   UNL     1       5.623  -3.918   5.432  1.00  0.00     0.163 HD
ATOM     70  O   UNL     1       7.024  -4.552   7.245  1.00  0.00    -0.268 OA
BRANCH  68  71
ATOM     71  C   UNL     1       8.871  -3.959   5.946  1.00  0.00     0.124 A 
ATOM     72  C   UNL     1       9.720  -5.050   5.814  1.00  0.00     0.047 A 
ATOM     73  N   UNL     1       9.678  -2.833   5.923  1.00  0.00    -0.211 N 
ATOM     74  C   UNL     1      11.052  -4.581   5.671  1.00  0.00     0.040 A 
ATOM     75  C   UNL     1      10.996  -3.191   5.760  1.00  0.00     0.156 A 
ATOM     76  C   UNL     1      12.327  -5.150   5.497  1.00  0.00     0.065 A 
ATOM     77  N   UNL     1      12.059  -2.370   5.686  1.00  0.00    -0.237 NA
ATOM     78  Cl  UNL     1      12.363  -6.859   5.423  1.00  0.00    -0.083 Cl
ATOM     79  C   UNL     1      13.453  -4.343   5.388  1.00  0.00     0.093 A 
ATOM     80  C   UNL     1      13.248  -2.979   5.492  1.00  0.00     0.128 A 
BRANCH  73  81
ATOM     81  S   UNL     1       9.135  -1.268   6.295  1.00  0.00     0.270 S 
ATOM     82  O   UNL     1       8.156  -0.946   5.298  1.00  0.00    -0.201 OA
ATOM     83  O   UNL     1       8.781  -1.344   7.712  1.00  0.00    -0.201 OA
BRANCH  81  84
ATOM     84  C   UNL     1      10.409  -0.059   6.090  1.00  0.00     0.088 A 
ATOM     85  C   UNL     1      10.766   0.755   7.166  1.00  0.00     0.022 A 
ATOM     86  C   UNL     1      10.932   0.183   4.811  1.00  0.00     0.022 A 
ATOM     87  C   UNL     1      11.688   1.784   6.973  1.00  0.00     0.001 A 
ATOM     88  C   UNL     1      11.872   1.197   4.631  1.00  0.00     0.001 A 
ATOM     89  C   UNL     1      12.247   1.996   5.711  1.00  0.00     0.000 A 
ENDBRANCH  81  84
ENDBRANCH  73  81
BRANCH  79  90
ATOM     90  C   UNL     1      14.825  -4.885   5.173  1.00  0.00     0.419 C 
ATOM     91  F   UNL     1      15.257  -5.665   6.200  1.00  0.00    -0.166 F 
ATOM     92  F   UNL     1      14.928  -5.639   4.045  1.00  0.00    -0.166 F 
ATOM     93  F   UNL     1      15.766  -3.907   5.038  1.00  0.00    -0.166 F 
ENDBRANCH  79  90
ENDBRANCH  68  71
ENDBRANCH  66  67
ENDBRANCH  65  66
ENDBRANCH  64  65
ENDBRANCH   1  64
TORSDOF 16
