REMARK SMILES Cc1ccc(C[C@@H](Cc2cc(F)cc(Br)c2)C(=O)NCCCCCCNC(=O)c2ccc(-c3c4nc(c(-c5c(F)cccc5F)c5ccc([nH]5)c(-c5c(F)cccc5F)c5nc(c(-c6c(F)cccc6F)c6ccc3[nH]6)C=C5)C=C4)cc2)cc1
REMARK SMILES IDX 22 1 21 2 20 3 19 4 17 5 18 6 7 8 6 9 5 10 1 11 2 12 3 13
REMARK SMILES IDX 84 14 4 15 83 16 8 17 9 18 10 19 16 20 11 21 14 22 12 23
REMARK SMILES IDX 13 24 15 25 23 26 24 27 25 28 26 29 27 30 28 32 29 33 30 34
REMARK SMILES IDX 82 35 31 36 81 37 32 38 33 39 34 40 75 41 35 42 80 43 74 44
REMARK SMILES IDX 76 45 36 46 79 47 73 48 72 49 37 51 63 52 46 53 62 54 47 55
REMARK SMILES IDX 50 56 61 57 77 58 48 59 49 60 60 62 78 63 51 64 38 65 39 66
REMARK SMILES IDX 44 67 40 68 41 69 43 70 45 71 42 72 64 73 65 74 70 75 66 76
REMARK SMILES IDX 67 77 69 78 71 79 68 80 52 81 53 82 58 83 54 84 55 85 57 86
REMARK SMILES IDX 59 87 56 88
REMARK H PARENT 19 7 26 31 76 50 50 61
REMARK Flexibility Score: inf
ROOT
ATOM      1  C   UNL     1      -7.712  -1.508   2.470  1.00  0.00     0.002 C 
ENDROOT
BRANCH   1   2
ATOM      2  C   UNL     1      -6.203  -1.259   2.352  1.00  0.00     0.021 C 
BRANCH   2   3
ATOM      3  C   UNL     1      -5.618  -1.624   0.993  1.00  0.00     0.116 C 
BRANCH   3   4
ATOM      4  N   UNL     1      -5.953  -0.643  -0.019  1.00  0.00    -0.356 N 
ATOM      5  C   UNL     1      -5.242  -0.222  -1.099  1.00  0.00     0.223 C 
ATOM      6  O   UNL     1      -5.803   0.538  -1.893  1.00  0.00    -0.275 OA
ATOM      7  H   UNL     1      -6.832  -0.215   0.091  1.00  0.00     0.163 HD
BRANCH   5   8
ATOM      8  C   UNL     1      -3.793  -0.636  -1.326  1.00  0.00     0.087 C 
BRANCH   8   9
ATOM      9  C   UNL     1      -2.956   0.088  -0.234  1.00  0.00     0.049 C 
BRANCH   9  10
ATOM     10  C   UNL     1      -1.445   0.061  -0.293  1.00  0.00    -0.047 A 
ATOM     11  C   UNL     1       2.873   0.140  -0.009  1.00  0.00     0.044 C 
ATOM     12  C   UNL     1       1.377   0.124  -0.110  1.00  0.00    -0.051 A 
ATOM     13  C   UNL     1       0.682  -1.076   0.045  1.00  0.00     0.004 A 
ATOM     14  C   UNL     1       0.656   1.293  -0.368  1.00  0.00     0.004 A 
ATOM     15  C   UNL     1      -0.713  -1.103  -0.027  1.00  0.00     0.004 A 
ATOM     16  C   UNL     1      -0.739   1.260  -0.461  1.00  0.00     0.004 A 
ENDBRANCH   9  10
ENDBRANCH   8   9
BRANCH   8  17
ATOM     17  C   UNL     1      -3.529  -2.154  -1.482  1.00  0.00     0.049 C 
BRANCH  17  18
ATOM     18  C   UNL     1      -4.610  -3.189  -1.740  1.00  0.00    -0.043 A 
ATOM     19  C   UNL     1      -4.348  -4.507  -1.318  1.00  0.00     0.043 A 
ATOM     20  C   UNL     1      -5.857  -2.930  -2.324  1.00  0.00     0.019 A 
ATOM     21  C   UNL     1      -5.335  -5.487  -1.374  1.00  0.00     0.124 A 
ATOM     22  C   UNL     1      -6.854  -3.916  -2.332  1.00  0.00     0.021 A 
ATOM     23  F   UNL     1      -5.063  -6.719  -0.924  1.00  0.00    -0.207 F 
ATOM     24  C   UNL     1      -6.602  -5.196  -1.849  1.00  0.00     0.055 A 
ATOM     25  Br  UNL     1      -8.592  -3.483  -2.941  1.00  0.00    -0.051 Br
ENDBRANCH  17  18
ENDBRANCH   8  17
ENDBRANCH   5   8
ENDBRANCH   3   4
ENDBRANCH   2   3
ENDBRANCH   1   2
BRANCH   1  26
ATOM     26  C   UNL     1      -8.194  -2.935   2.148  1.00  0.00     0.002 C 
BRANCH  26  27
ATOM     27  C   UNL     1      -7.389  -4.080   2.772  1.00  0.00     0.021 C 
BRANCH  27  28
ATOM     28  C   UNL     1      -7.410  -4.091   4.293  1.00  0.00     0.116 C 
BRANCH  28  29
ATOM     29  N   UNL     1      -8.506  -4.848   4.873  1.00  0.00    -0.352 N 
ATOM     30  C   UNL     1      -8.934  -4.943   6.187  1.00  0.00     0.251 C 
ATOM     31  H   UNL     1      -9.028  -5.379   4.229  1.00  0.00     0.163 HD
ATOM     32  O   UNL     1      -9.818  -5.731   6.469  1.00  0.00    -0.269 OA
BRANCH  30  33
ATOM     33  C   UNL     1      -8.436  -3.989   7.219  1.00  0.00     0.039 A 
ATOM     34  C   UNL     1      -9.355  -3.547   8.182  1.00  0.00     0.014 A 
ATOM     35  C   UNL     1      -7.186  -3.385   7.139  1.00  0.00     0.014 A 
ATOM     36  C   UNL     1      -9.129  -2.350   8.857  1.00  0.00     0.010 A 
ATOM     37  C   UNL     1      -7.001  -2.148   7.721  1.00  0.00     0.010 A 
ATOM     38  C   UNL     1      -8.005  -1.600   8.522  1.00  0.00    -0.014 A 
BRANCH  38  39
ATOM     39  C   UNL     1      -7.847  -0.193   8.857  1.00  0.00     0.031 A 
ATOM     40  C   UNL     1      -6.919   0.226   9.924  1.00  0.00     0.074 A 
ATOM     41  C   UNL     1      -8.473   0.731   8.095  1.00  0.00     0.049 A 
ATOM     42  N   UNL     1      -7.001   1.349  10.551  1.00  0.00    -0.248 NA
ATOM     43  C   UNL     1      -5.826  -0.617  10.391  1.00  0.00     0.031 C 
ATOM     44  C   UNL     1      -8.220   2.168   8.054  1.00  0.00     0.029 A 
ATOM     45  N   UNL     1      -9.630   0.559   7.323  1.00  0.00    -0.354 N 
ATOM     46  C   UNL     1      -5.851   1.501  11.290  1.00  0.00     0.074 A 
ATOM     47  C   UNL     1      -5.177   0.225  11.202  1.00  0.00     0.031 C 
ATOM     48  C   UNL     1      -9.303   2.784   7.555  1.00  0.00     0.029 A 
ATOM     49  C   UNL     1     -10.337   1.777   7.402  1.00  0.00     0.049 A 
ATOM     50  H   UNL     1      -9.895  -0.249   6.826  1.00  0.00     0.167 HD
ATOM     51  C   UNL     1      -5.531   2.731  11.784  1.00  0.00     0.037 A 
ATOM     52  C   UNL     1     -11.574   1.841   7.976  1.00  0.00     0.037 A 
ATOM     53  C   UNL     1      -6.559   3.715  11.459  1.00  0.00     0.049 A 
ATOM     54  C   UNL     1     -11.647   2.762   9.171  1.00  0.00     0.074 A 
ATOM     55  C   UNL     1      -6.672   4.641  10.435  1.00  0.00     0.029 A 
ATOM     56  N   UNL     1      -7.818   3.612  12.038  1.00  0.00    -0.354 N 
ATOM     57  N   UNL     1     -10.605   3.154   9.851  1.00  0.00    -0.248 NA
ATOM     58  C   UNL     1     -12.894   3.304   9.701  1.00  0.00     0.031 C 
ATOM     59  C   UNL     1      -8.022   5.061  10.367  1.00  0.00     0.029 A 
ATOM     60  C   UNL     1      -8.725   4.407  11.363  1.00  0.00     0.049 A 
ATOM     61  H   UNL     1      -8.034   3.053  12.819  1.00  0.00     0.167 HD
ATOM     62  C   UNL     1     -11.009   3.956  10.888  1.00  0.00     0.074 A 
ATOM     63  C   UNL     1     -12.449   4.035  10.739  1.00  0.00     0.031 C 
ATOM     64  C   UNL     1     -10.116   4.476  11.783  1.00  0.00     0.037 A 
BRANCH  51  65
ATOM     65  C   UNL     1      -4.154   3.089  12.289  1.00  0.00     0.057 A 
ATOM     66  C   UNL     1      -3.617   4.376  12.090  1.00  0.00     0.134 A 
ATOM     67  C   UNL     1      -3.288   2.193  12.938  1.00  0.00     0.134 A 
ATOM     68  F   UNL     1      -4.348   5.377  11.582  1.00  0.00    -0.206 F 
ATOM     69  C   UNL     1      -2.290   4.706  12.397  1.00  0.00     0.040 A 
ATOM     70  C   UNL     1      -1.942   2.491  13.202  1.00  0.00     0.040 A 
ATOM     71  F   UNL     1      -3.720   1.006  13.384  1.00  0.00    -0.206 F 
ATOM     72  C   UNL     1      -1.434   3.749  12.917  1.00  0.00     0.006 A 
ENDBRANCH  51  65
BRANCH  52  73
ATOM     73  C   UNL     1     -12.363   0.594   7.800  1.00  0.00     0.057 A 
ATOM     74  C   UNL     1     -12.779   0.247   6.503  1.00  0.00     0.134 A 
ATOM     75  C   UNL     1     -12.354  -0.422   8.760  1.00  0.00     0.134 A 
ATOM     76  F   UNL     1     -12.810   1.177   5.535  1.00  0.00    -0.206 F 
ATOM     77  C   UNL     1     -13.056  -1.075   6.145  1.00  0.00     0.040 A 
ATOM     78  C   UNL     1     -12.639  -1.749   8.414  1.00  0.00     0.040 A 
ATOM     79  F   UNL     1     -11.948  -0.173  10.014  1.00  0.00    -0.206 F 
ATOM     80  C   UNL     1     -12.949  -2.084   7.096  1.00  0.00     0.006 A 
ENDBRANCH  52  73
BRANCH  64  81
ATOM     81  C   UNL     1     -10.442   5.173  13.084  1.00  0.00     0.057 A 
ATOM     82  C   UNL     1     -11.608   4.954  13.831  1.00  0.00     0.134 A 
ATOM     83  C   UNL     1      -9.479   5.999  13.713  1.00  0.00     0.134 A 
ATOM     84  F   UNL     1     -12.561   4.110  13.417  1.00  0.00    -0.206 F 
ATOM     85  C   UNL     1     -11.823   5.550  15.082  1.00  0.00     0.040 A 
ATOM     86  C   UNL     1      -9.660   6.552  14.984  1.00  0.00     0.040 A 
ATOM     87  F   UNL     1      -8.305   6.285  13.133  1.00  0.00    -0.206 F 
ATOM     88  C   UNL     1     -10.844   6.340  15.670  1.00  0.00     0.006 A 
ENDBRANCH  64  81
ENDBRANCH  38  39
ENDBRANCH  30  33
ENDBRANCH  28  29
ENDBRANCH  27  28
ENDBRANCH  26  27
ENDBRANCH   1  26
TORSDOF 17
