REMARK SMILES Cc1ccccc1NC(=O)C[NH+]1CCC(CC(=O)NCCCCCCNC(=O)c2ccc(-c3c4nc(c(-c5c(F)cccc5F)c5ccc([nH]5)c(-c5c(F)cccc5F)c5nc(c(-c6c(F)cccc6F)c6ccc3[nH]6)C=C5)C=C4)cc2)CC1
REMARK SMILES IDX 21 1 20 2 19 3 17 4 18 5 16 7 15 8 12 9 13 10 84 11 14 13
REMARK SMILES IDX 83 14 11 15 9 16 8 17 10 19 7 20 1 21 2 22 3 23 4 24 6 25
REMARK SMILES IDX 5 26 22 27 23 28 24 29 25 30 26 31 27 32 28 34 29 35 30 36
REMARK SMILES IDX 82 37 31 38 81 39 32 40 33 41 34 42 75 43 35 44 80 45 74 46
REMARK SMILES IDX 76 47 36 48 79 49 73 50 72 51 37 53 63 54 46 55 62 56 47 57
REMARK SMILES IDX 50 58 61 59 77 60 48 61 49 62 60 64 78 65 51 66 38 67 39 68
REMARK SMILES IDX 44 69 40 70 41 71 43 72 45 73 42 74 64 75 65 76 70 77 66 78
REMARK SMILES IDX 67 79 69 80 71 81 68 82 52 83 53 84 58 85 54 86 55 87 57 88
REMARK SMILES IDX 59 89 56 90
REMARK H PARENT 19 6 12 12 8 18 26 33 76 52 50 63
REMARK Flexibility Score: inf
ROOT
ATOM      1  C   UNL     1      -1.301   4.893  -6.096  1.00  0.00     0.021 C 
ENDROOT
BRANCH   1   2
ATOM      2  C   UNL     1      -2.059   3.640  -6.551  1.00  0.00     0.116 C 
BRANCH   2   3
ATOM      3  N   UNL     1      -1.146   2.551  -6.853  1.00  0.00    -0.356 N 
ATOM      4  C   UNL     1      -0.953   1.368  -6.200  1.00  0.00     0.220 C 
ATOM      5  O   UNL     1      -0.055   0.618  -6.585  1.00  0.00    -0.275 OA
ATOM      6  H   UNL     1      -0.582   2.687  -7.648  1.00  0.00     0.163 HD
BRANCH   4   7
ATOM      7  C   UNL     1      -1.836   0.994  -5.026  1.00  0.00     0.104 C 
BRANCH   7   8
ATOM      8  C   UNL     1      -1.265   1.379  -3.653  1.00  0.00     0.009 C 
ATOM      9  N   UNL     1      -1.495   2.889  -1.135  1.00  0.00    -0.327 N 
ATOM     10  C   UNL     1      -0.479   3.272  -2.114  1.00  0.00     0.262 C 
ATOM     11  C   UNL     1      -1.780   1.457  -1.190  1.00  0.00     0.262 C 
ATOM     12  H   UNL     1      -2.360   3.360  -1.398  1.00  0.00     0.348 HD
ATOM     13  C   UNL     1      -0.912   2.863  -3.521  1.00  0.00     0.066 C 
ATOM     14  C   UNL     1      -2.277   1.014  -2.562  1.00  0.00     0.066 C 
BRANCH   9  15
ATOM     15  C   UNL     1      -1.202   3.392   0.231  1.00  0.00     0.363 C 
BRANCH  15  16
ATOM     16  C   UNL     1       0.269   3.345   0.678  1.00  0.00     0.279 C 
ATOM     17  N   UNL     1       0.917   2.195   1.034  1.00  0.00    -0.321 N 
ATOM     18  H   UNL     1       1.870   2.311   1.252  1.00  0.00     0.170 HD
ATOM     19  O   UNL     1       0.950   4.380   0.650  1.00  0.00    -0.268 OA
BRANCH  17  20
ATOM     20  C   UNL     1       0.449   0.879   1.141  1.00  0.00     0.044 A 
ATOM     21  C   UNL     1       2.601  -0.006   0.036  1.00  0.00     0.046 C 
ATOM     22  C   UNL     1       1.216  -0.173   0.601  1.00  0.00    -0.027 A 
ATOM     23  C   UNL     1       0.647  -1.459   0.538  1.00  0.00     0.005 A 
ATOM     24  C   UNL     1      -0.636  -1.703   1.026  1.00  0.00     0.000 A 
ATOM     25  C   UNL     1      -0.794   0.600   1.720  1.00  0.00     0.026 A 
ATOM     26  C   UNL     1      -1.345  -0.681   1.645  1.00  0.00     0.002 A 
ENDBRANCH  17  20
ENDBRANCH  15  16
ENDBRANCH   9  15
ENDBRANCH   7   8
ENDBRANCH   4   7
ENDBRANCH   2   3
ENDBRANCH   1   2
BRANCH   1  27
ATOM     27  C   UNL     1      -0.963   5.887  -7.206  1.00  0.00     0.002 C 
BRANCH  27  28
ATOM     28  C   UNL     1      -2.161   6.467  -7.969  1.00  0.00     0.002 C 
BRANCH  28  29
ATOM     29  C   UNL     1      -3.312   6.982  -7.104  1.00  0.00     0.021 C 
BRANCH  29  30
ATOM     30  C   UNL     1      -2.975   8.229  -6.299  1.00  0.00     0.116 C 
BRANCH  30  31
ATOM     31  N   UNL     1      -3.092   9.455  -7.076  1.00  0.00    -0.352 N 
ATOM     32  C   UNL     1      -2.886  10.776  -6.727  1.00  0.00     0.251 C 
ATOM     33  H   UNL     1      -3.364   9.319  -8.012  1.00  0.00     0.163 HD
ATOM     34  O   UNL     1      -3.145  11.652  -7.538  1.00  0.00    -0.269 OA
BRANCH  32  35
ATOM     35  C   UNL     1      -2.193  11.127  -5.459  1.00  0.00     0.039 A 
ATOM     36  C   UNL     1      -1.288  12.199  -5.509  1.00  0.00     0.014 A 
ATOM     37  C   UNL     1      -2.225  10.305  -4.339  1.00  0.00     0.014 A 
ATOM     38  C   UNL     1      -0.240  12.257  -4.596  1.00  0.00     0.010 A 
ATOM     39  C   UNL     1      -1.139  10.298  -3.492  1.00  0.00     0.010 A 
ATOM     40  C   UNL     1      -0.106  11.220  -3.682  1.00  0.00    -0.014 A 
BRANCH  40  41
ATOM     41  C   UNL     1       1.113  10.943  -2.942  1.00  0.00     0.031 A 
ATOM     42  C   UNL     1       1.194  11.267  -1.511  1.00  0.00     0.074 A 
ATOM     43  C   UNL     1       2.094  10.238  -3.545  1.00  0.00     0.049 A 
ATOM     44  N   UNL     1       2.286  11.273  -0.828  1.00  0.00    -0.248 NA
ATOM     45  C   UNL     1       0.030  11.684  -0.743  1.00  0.00     0.031 C 
ATOM     46  C   UNL     1       3.211   9.544  -2.911  1.00  0.00     0.029 A 
ATOM     47  N   UNL     1       2.394  10.203  -4.914  1.00  0.00    -0.354 N 
ATOM     48  C   UNL     1       1.946  11.381   0.500  1.00  0.00     0.074 A 
ATOM     49  C   UNL     1       0.554  11.760   0.483  1.00  0.00     0.031 C 
ATOM     50  C   UNL     1       4.200   9.413  -3.808  1.00  0.00     0.029 A 
ATOM     51  C   UNL     1       3.808  10.166  -4.986  1.00  0.00     0.049 A 
ATOM     52  H   UNL     1       1.758  10.203  -5.665  1.00  0.00     0.167 HD
ATOM     53  C   UNL     1       2.865  10.996   1.435  1.00  0.00     0.037 A 
ATOM     54  C   UNL     1       4.501  11.224  -5.501  1.00  0.00     0.037 A 
ATOM     55  C   UNL     1       4.181  10.778   0.815  1.00  0.00     0.049 A 
ATOM     56  C   UNL     1       5.444  11.906  -4.529  1.00  0.00     0.074 A 
ATOM     57  C   UNL     1       4.943   9.670   0.477  1.00  0.00     0.029 A 
ATOM     58  N   UNL     1       4.789  11.851   0.184  1.00  0.00    -0.354 N 
ATOM     59  N   UNL     1       5.558  11.601  -3.265  1.00  0.00    -0.248 NA
ATOM     60  C   UNL     1       6.275  13.054  -4.895  1.00  0.00     0.031 C 
ATOM     61  C   UNL     1       6.011  10.101  -0.368  1.00  0.00     0.029 A 
ATOM     62  C   UNL     1       5.901  11.469  -0.537  1.00  0.00     0.049 A 
ATOM     63  H   UNL     1       4.464  12.778   0.243  1.00  0.00     0.167 HD
ATOM     64  C   UNL     1       6.384  12.502  -2.645  1.00  0.00     0.074 A 
ATOM     65  C   UNL     1       6.814  13.390  -3.710  1.00  0.00     0.031 C 
ATOM     66  C   UNL     1       6.615  12.484  -1.299  1.00  0.00     0.037 A 
BRANCH  53  67
ATOM     67  C   UNL     1       2.539  10.599   2.867  1.00  0.00     0.057 A 
ATOM     68  C   UNL     1       3.458   9.839   3.621  1.00  0.00     0.134 A 
ATOM     69  C   UNL     1       1.329  10.842   3.545  1.00  0.00     0.134 A 
ATOM     70  F   UNL     1       4.698   9.588   3.180  1.00  0.00    -0.206 F 
ATOM     71  C   UNL     1       3.158   9.290   4.878  1.00  0.00     0.040 A 
ATOM     72  C   UNL     1       1.005  10.280   4.789  1.00  0.00     0.040 A 
ATOM     73  F   UNL     1       0.399  11.677   3.083  1.00  0.00    -0.206 F 
ATOM     74  C   UNL     1       1.915   9.484   5.456  1.00  0.00     0.006 A 
ENDBRANCH  53  67
BRANCH  54  75
ATOM     75  C   UNL     1       3.763  11.905  -6.600  1.00  0.00     0.057 A 
ATOM     76  C   UNL     1       3.507  11.188  -7.783  1.00  0.00     0.134 A 
ATOM     77  C   UNL     1       2.985  13.042  -6.362  1.00  0.00     0.134 A 
ATOM     78  F   UNL     1       4.217  10.085  -8.070  1.00  0.00    -0.206 F 
ATOM     79  C   UNL     1       2.444  11.515  -8.628  1.00  0.00     0.040 A 
ATOM     80  C   UNL     1       1.927  13.387  -7.211  1.00  0.00     0.040 A 
ATOM     81  F   UNL     1       3.155  13.764  -5.245  1.00  0.00    -0.206 F 
ATOM     82  C   UNL     1       1.627  12.599  -8.322  1.00  0.00     0.006 A 
ENDBRANCH  54  75
BRANCH  66  83
ATOM     83  C   UNL     1       7.512  13.460  -0.581  1.00  0.00     0.057 A 
ATOM     84  C   UNL     1       8.758  13.863  -1.081  1.00  0.00     0.134 A 
ATOM     85  C   UNL     1       7.196  13.946   0.706  1.00  0.00     0.134 A 
ATOM     86  F   UNL     1       9.215  13.403  -2.255  1.00  0.00    -0.206 F 
ATOM     87  C   UNL     1       9.602  14.735  -0.378  1.00  0.00     0.040 A 
ATOM     88  C   UNL     1       8.052  14.773   1.439  1.00  0.00     0.040 A 
ATOM     89  F   UNL     1       6.032  13.661   1.305  1.00  0.00    -0.206 F 
ATOM     90  C   UNL     1       9.254  15.186   0.890  1.00  0.00     0.006 A 
ENDBRANCH  66  83
ENDBRANCH  40  41
ENDBRANCH  32  35
ENDBRANCH  30  31
ENDBRANCH  29  30
ENDBRANCH  28  29
ENDBRANCH  27  28
ENDBRANCH   1  27
TORSDOF 17
