REMARK SMILES O=C(CCOc1cc(-c2ccncc2)nc(-c2ccc(C(F)(F)F)cc2)n1)NCCCCCCNC(=O)c1ccc(-c2c3nc(c(-c4c(F)cccc4F)c4ccc([nH]4)c(-c4c(F)cccc4F)c4nc(c(-c5c(F)cccc5F)c5ccc2[nH]5)C=C4)C=C3)cc1
REMARK SMILES IDX 30 1 29 2 28 3 1 4 2 5 3 7 4 8 5 9 6 10 7 11 27 12 8 13
REMARK SMILES IDX 16 14 15 15 9 16 10 17 14 18 11 19 13 20 12 21 17 22 18 23
REMARK SMILES IDX 26 24 19 25 25 26 20 27 21 28 22 29 23 30 24 31 31 32 32 33
REMARK SMILES IDX 33 34 34 35 35 36 36 37 37 39 38 40 39 41 91 42 40 43 90 44
REMARK SMILES IDX 41 45 42 46 43 47 84 48 44 49 89 50 83 51 85 52 45 53 88 54
REMARK SMILES IDX 82 55 81 56 46 58 72 59 55 60 71 61 56 62 59 63 70 64 86 65
REMARK SMILES IDX 57 66 58 67 69 69 87 70 60 71 47 72 48 73 53 74 49 75 50 76
REMARK SMILES IDX 52 77 54 78 51 79 73 80 74 81 79 82 75 83 76 84 78 85 80 86
REMARK SMILES IDX 77 87 61 88 62 89 67 90 63 91 64 92 66 93 68 94 65 95
REMARK H PARENT 28 6 35 38 85 57 59 68
REMARK Flexibility Score: inf
ROOT
ATOM      1  C   UNL     1       3.901  -1.908   3.148  1.00  0.00     0.021 C 
ENDROOT
BRANCH   1   2
ATOM      2  C   UNL     1       3.052  -1.724   1.884  1.00  0.00     0.116 C 
BRANCH   2   3
ATOM      3  N   UNL     1       3.710  -1.377   0.651  1.00  0.00    -0.356 N 
ATOM      4  O   UNL     1       1.715  -1.048  -0.446  1.00  0.00    -0.275 OA
ATOM      5  C   UNL     1       2.942  -0.989  -0.433  1.00  0.00     0.223 C 
ATOM      6  H   UNL     1       4.691  -1.416   0.580  1.00  0.00     0.163 HD
BRANCH   5   7
ATOM      7  C   UNL     1       3.703  -0.324  -1.550  1.00  0.00     0.141 C 
BRANCH   7   8
ATOM      8  C   UNL     1       3.597   1.189  -1.373  1.00  0.00     0.241 C 
BRANCH   8   9
ATOM      9  O   UNL     1       4.379   1.602  -0.254  1.00  0.00    -0.477 OA
BRANCH   9  10
ATOM     10  C   UNL     1       3.754   2.267   0.762  1.00  0.00     0.217 A 
ATOM     11  C   UNL     1       2.531   1.917   1.295  1.00  0.00     0.097 A 
ATOM     12  N   UNL     1       4.553   3.174   1.333  1.00  0.00    -0.193 NA
ATOM     13  C   UNL     1       2.173   2.519   2.494  1.00  0.00     0.078 A 
ATOM     14  C   UNL     1       4.125   3.730   2.476  1.00  0.00     0.163 A 
ATOM     15  N   UNL     1       2.963   3.437   3.095  1.00  0.00    -0.228 NA
BRANCH  13  16
ATOM     16  C   UNL     1       0.966   2.104   3.243  1.00  0.00     0.003 A 
ATOM     17  C   UNL     1       0.766   0.771   3.631  1.00  0.00     0.030 A 
ATOM     18  C   UNL     1      -0.027   3.009   3.616  1.00  0.00     0.030 A 
ATOM     19  C   UNL     1      -0.373   0.392   4.320  1.00  0.00     0.111 A 
ATOM     20  C   UNL     1      -1.143   2.543   4.305  1.00  0.00     0.111 A 
ATOM     21  N   UNL     1      -1.341   1.254   4.659  1.00  0.00    -0.265 NA
ENDBRANCH  13  16
BRANCH  14  22
ATOM     22  C   UNL     1       5.088   4.609   3.145  1.00  0.00     0.019 A 
ATOM     23  C   UNL     1       5.417   5.862   2.606  1.00  0.00     0.012 A 
ATOM     24  C   UNL     1       5.786   4.187   4.289  1.00  0.00     0.012 A 
ATOM     25  C   UNL     1       6.391   6.672   3.203  1.00  0.00     0.014 A 
ATOM     26  C   UNL     1       6.767   4.987   4.884  1.00  0.00     0.014 A 
ATOM     27  C   UNL     1       7.075   6.243   4.351  1.00  0.00     0.056 A 
BRANCH  27  28
ATOM     28  C   UNL     1       8.123   7.123   4.985  1.00  0.00     0.416 C 
ATOM     29  F   UNL     1       9.157   7.397   4.141  1.00  0.00    -0.166 F 
ATOM     30  F   UNL     1       7.623   8.332   5.366  1.00  0.00    -0.166 F 
ATOM     31  F   UNL     1       8.688   6.587   6.103  1.00  0.00    -0.166 F 
ENDBRANCH  27  28
ENDBRANCH  14  22
ENDBRANCH   9  10
ENDBRANCH   8   9
ENDBRANCH   7   8
ENDBRANCH   5   7
ENDBRANCH   2   3
ENDBRANCH   1   2
BRANCH   1  32
ATOM     32  C   UNL     1       5.155  -1.060   3.397  1.00  0.00     0.002 C 
BRANCH  32  33
ATOM     33  C   UNL     1       5.033   0.385   3.888  1.00  0.00     0.002 C 
BRANCH  33  34
ATOM     34  C   UNL     1       4.096   0.717   5.051  1.00  0.00     0.021 C 
BRANCH  34  35
ATOM     35  C   UNL     1       4.432   0.224   6.453  1.00  0.00     0.116 C 
BRANCH  35  36
ATOM     36  N   UNL     1       5.723   0.655   6.955  1.00  0.00    -0.352 N 
ATOM     37  C   UNL     1       6.114   1.232   8.142  1.00  0.00     0.251 C 
ATOM     38  H   UNL     1       6.463   0.506   6.323  1.00  0.00     0.163 HD
ATOM     39  O   UNL     1       7.304   1.520   8.267  1.00  0.00    -0.269 OA
BRANCH  37  40
ATOM     40  C   UNL     1       5.180   1.550   9.262  1.00  0.00     0.039 A 
ATOM     41  C   UNL     1       5.523   2.614  10.114  1.00  0.00     0.014 A 
ATOM     42  C   UNL     1       4.027   0.820   9.551  1.00  0.00     0.014 A 
ATOM     43  C   UNL     1       4.702   2.969  11.193  1.00  0.00     0.010 A 
ATOM     44  C   UNL     1       3.161   1.227  10.575  1.00  0.00     0.010 A 
ATOM     45  C   UNL     1       3.491   2.300  11.416  1.00  0.00    -0.014 A 
BRANCH  45  46
ATOM     46  C   UNL     1       2.572   2.702  12.520  1.00  0.00     0.031 A 
ATOM     47  C   UNL     1       2.256   1.750  13.645  1.00  0.00     0.074 A 
ATOM     48  C   UNL     1       1.974   3.910  12.490  1.00  0.00     0.049 A 
ATOM     49  N   UNL     1       1.445   1.905  14.663  1.00  0.00    -0.248 NA
ATOM     50  C   UNL     1       2.921   0.439  13.607  1.00  0.00     0.031 C 
ATOM     51  C   UNL     1       2.158   4.919  11.447  1.00  0.00     0.029 A 
ATOM     52  N   UNL     1       1.085   4.492  13.361  1.00  0.00    -0.354 N 
ATOM     53  C   UNL     1       1.485   0.709  15.370  1.00  0.00     0.074 A 
ATOM     54  C   UNL     1       2.364  -0.179  14.639  1.00  0.00     0.031 C 
ATOM     55  C   UNL     1       1.433   6.006  11.753  1.00  0.00     0.029 A 
ATOM     56  C   UNL     1       0.700   5.759  12.991  1.00  0.00     0.049 A 
ATOM     57  H   UNL     1       0.754   4.045  14.173  1.00  0.00     0.167 HD
ATOM     58  C   UNL     1       0.863   0.382  16.529  1.00  0.00     0.037 A 
ATOM     59  C   UNL     1      -0.149   6.625  13.578  1.00  0.00     0.037 A 
ATOM     60  C   UNL     1       0.009   1.273  17.273  1.00  0.00     0.049 A 
ATOM     61  C   UNL     1      -0.839   6.234  14.856  1.00  0.00     0.074 A 
ATOM     62  C   UNL     1      -0.606   1.059  18.496  1.00  0.00     0.029 A 
ATOM     63  N   UNL     1      -0.359   2.545  16.861  1.00  0.00    -0.354 N 
ATOM     64  N   UNL     1      -0.734   5.127  15.549  1.00  0.00    -0.248 NA
ATOM     65  C   UNL     1      -1.766   7.219  15.433  1.00  0.00     0.031 C 
ATOM     66  C   UNL     1      -1.386   2.181  18.798  1.00  0.00     0.029 A 
ATOM     67  C   UNL     1      -1.216   3.115  17.790  1.00  0.00     0.049 A 
ATOM     68  H   UNL     1      -0.056   2.978  16.031  1.00  0.00     0.167 HD
ATOM     69  C   UNL     1      -1.553   5.294  16.659  1.00  0.00     0.074 A 
ATOM     70  C   UNL     1      -2.140   6.613  16.551  1.00  0.00     0.031 C 
ATOM     71  C   UNL     1      -1.794   4.431  17.676  1.00  0.00     0.037 A 
BRANCH  58  72
ATOM     72  C   UNL     1       1.077  -1.008  17.061  1.00  0.00     0.057 A 
ATOM     73  C   UNL     1       2.313  -1.428  17.571  1.00  0.00     0.134 A 
ATOM     74  C   UNL     1       0.025  -1.934  17.082  1.00  0.00     0.134 A 
ATOM     75  F   UNL     1       3.365  -0.595  17.575  1.00  0.00    -0.206 F 
ATOM     76  C   UNL     1       2.506  -2.727  18.045  1.00  0.00     0.040 A 
ATOM     77  C   UNL     1       0.198  -3.227  17.581  1.00  0.00     0.040 A 
ATOM     78  F   UNL     1      -1.189  -1.598  16.621  1.00  0.00    -0.206 F 
ATOM     79  C   UNL     1       1.445  -3.630  18.055  1.00  0.00     0.006 A 
ENDBRANCH  58  72
BRANCH  59  80
ATOM     80  C   UNL     1      -0.367   7.969  12.985  1.00  0.00     0.057 A 
ATOM     81  C   UNL     1       0.126   9.118  13.615  1.00  0.00     0.134 A 
ATOM     82  C   UNL     1      -1.070   8.141  11.787  1.00  0.00     0.134 A 
ATOM     83  F   UNL     1       0.788   9.018  14.777  1.00  0.00    -0.206 F 
ATOM     84  C   UNL     1      -0.083  10.391  13.083  1.00  0.00     0.040 A 
ATOM     85  C   UNL     1      -1.265   9.407  11.231  1.00  0.00     0.040 A 
ATOM     86  F   UNL     1      -1.565   7.080  11.133  1.00  0.00    -0.206 F 
ATOM     87  C   UNL     1      -0.776  10.537  11.883  1.00  0.00     0.006 A 
ENDBRANCH  59  80
BRANCH  71  88
ATOM     88  C   UNL     1      -2.704   4.902  18.774  1.00  0.00     0.057 A 
ATOM     89  C   UNL     1      -4.084   5.050  18.583  1.00  0.00     0.134 A 
ATOM     90  C   UNL     1      -2.194   5.189  20.047  1.00  0.00     0.134 A 
ATOM     91  F   UNL     1      -4.634   4.805  17.384  1.00  0.00    -0.206 F 
ATOM     92  C   UNL     1      -4.919   5.493  19.610  1.00  0.00     0.040 A 
ATOM     93  C   UNL     1      -3.024   5.606  21.090  1.00  0.00     0.040 A 
ATOM     94  F   UNL     1      -0.883   5.061  20.302  1.00  0.00    -0.206 F 
ATOM     95  C   UNL     1      -4.390   5.766  20.870  1.00  0.00     0.006 A 
ENDBRANCH  71  88
ENDBRANCH  45  46
ENDBRANCH  37  40
ENDBRANCH  35  36
ENDBRANCH  34  35
ENDBRANCH  33  34
ENDBRANCH  32  33
ENDBRANCH   1  32
TORSDOF 19
