REMARK SMILES COC[C@@H](C)Nc1cnn(-c2ccccc2C(=O)NCCCCCCNC(=O)c2ccc(-c3c4nc(c(-c5c(F)cccc5F)c5ccc([nH]5)c(-c5c(F)cccc5F)c5nc(c(-c6c(F)cccc6F)c6ccc3[nH]6)C=C5)C=C4)cc2)c(=O)c1Cl
REMARK SMILES IDX 21 1 20 2 19 3 17 4 18 5 16 7 11 8 12 9 13 10 15 11 14 12
REMARK SMILES IDX 10 13 7 14 8 15 85 16 9 17 83 18 86 19 84 20 6 21 4 23 5 24
REMARK SMILES IDX 3 25 2 26 1 27 22 28 23 29 24 30 25 31 26 32 27 33 28 35
REMARK SMILES IDX 29 36 30 37 82 38 31 39 81 40 32 41 33 42 34 43 75 44 35 45
REMARK SMILES IDX 80 46 74 47 76 48 36 49 79 50 73 51 72 52 37 54 63 55 46 56
REMARK SMILES IDX 62 57 47 58 50 59 61 60 77 61 48 62 49 63 60 65 78 66 51 67
REMARK SMILES IDX 38 68 39 69 44 70 40 71 41 72 43 73 45 74 42 75 64 76 65 77
REMARK SMILES IDX 70 78 66 79 67 80 69 81 71 82 68 83 52 84 53 85 58 86 54 87
REMARK SMILES IDX 55 88 57 89 59 90 56 91
REMARK H PARENT 19 6 6 22 26 34 76 53 50 64
REMARK Flexibility Score: inf
ROOT
ATOM      1  C   UNL     1      -2.242   3.324  -3.342  1.00  0.00     0.021 C 
ENDROOT
BRANCH   1   2
ATOM      2  C   UNL     1      -2.004   4.821  -3.562  1.00  0.00     0.116 C 
BRANCH   2   3
ATOM      3  N   UNL     1      -2.452   5.385  -4.809  1.00  0.00    -0.352 N 
ATOM      4  C   UNL     1      -2.738   6.676  -5.202  1.00  0.00     0.253 C 
ATOM      5  O   UNL     1      -2.791   6.826  -6.432  1.00  0.00    -0.269 OA
ATOM      6  H   UNL     1      -2.579   4.718  -5.521  1.00  0.00     0.163 HD
BRANCH   4   7
ATOM      7  C   UNL     1      -3.107   7.871  -4.362  1.00  0.00     0.065 A 
ATOM      8  C   UNL     1      -2.620   8.350  -3.130  1.00  0.00     0.081 A 
ATOM      9  C   UNL     1      -3.121   9.581  -2.619  1.00  0.00     0.029 A 
ATOM     10  C   UNL     1      -4.130  10.304  -3.242  1.00  0.00     0.002 A 
ATOM     11  C   UNL     1      -4.144   8.638  -4.971  1.00  0.00     0.016 A 
ATOM     12  C   UNL     1      -4.659   9.818  -4.419  1.00  0.00     0.001 A 
BRANCH   8  13
ATOM     13  N   UNL     1      -1.704   7.682  -2.277  1.00  0.00    -0.195 N 
ATOM     14  C   UNL     1      -0.076   6.023  -0.735  1.00  0.00     0.079 A 
ATOM     15  C   UNL     1       0.250   6.576  -2.085  1.00  0.00     0.161 A 
ATOM     16  C   UNL     1      -1.085   6.678  -0.138  1.00  0.00     0.132 A 
ATOM     17  N   UNL     1      -0.513   7.307  -2.832  1.00  0.00    -0.171 NA
ATOM     18  C   UNL     1      -2.013   7.530  -0.919  1.00  0.00     0.292 A 
ATOM     19  Cl  UNL     1      -1.509   6.495   1.536  1.00  0.00    -0.076 Cl
ATOM     20  O   UNL     1      -3.045   7.944  -0.383  1.00  0.00    -0.266 OA
BRANCH  14  21
ATOM     21  N   UNL     1       0.682   4.953  -0.284  1.00  0.00    -0.378 N 
ATOM     22  H   UNL     1       1.591   4.859  -0.652  1.00  0.00     0.161 HD
BRANCH  21  23
ATOM     23  C   UNL     1       0.246   3.949   0.694  1.00  0.00     0.102 C 
ATOM     24  C   UNL     1       1.173   3.991   1.898  1.00  0.00     0.033 C 
BRANCH  23  25
ATOM     25  C   UNL     1       0.139   2.562   0.052  1.00  0.00     0.184 C 
BRANCH  25  26
ATOM     26  O   UNL     1      -0.472   1.645   0.964  1.00  0.00    -0.383 OA
ATOM     27  C   UNL     1      -1.252   0.628   0.345  1.00  0.00     0.194 C 
ENDBRANCH  25  26
ENDBRANCH  23  25
ENDBRANCH  21  23
ENDBRANCH  14  21
ENDBRANCH   8  13
ENDBRANCH   4   7
ENDBRANCH   2   3
ENDBRANCH   1   2
BRANCH   1  28
ATOM     28  C   UNL     1      -1.565   2.307  -4.276  1.00  0.00     0.002 C 
BRANCH  28  29
ATOM     29  C   UNL     1      -0.047   2.364  -4.540  1.00  0.00     0.002 C 
BRANCH  29  30
ATOM     30  C   UNL     1       0.995   1.986  -3.450  1.00  0.00     0.021 C 
BRANCH  30  31
ATOM     31  C   UNL     1       0.853   0.612  -2.759  1.00  0.00     0.116 C 
BRANCH  31  32
ATOM     32  N   UNL     1       2.088  -0.181  -2.648  1.00  0.00    -0.352 N 
ATOM     33  C   UNL     1       3.053  -0.544  -1.732  1.00  0.00     0.251 C 
ATOM     34  H   UNL     1       2.294  -0.590  -3.520  1.00  0.00     0.163 HD
ATOM     35  O   UNL     1       3.858  -1.394  -2.133  1.00  0.00    -0.269 OA
BRANCH  33  36
ATOM     36  C   UNL     1       3.307  -0.006  -0.358  1.00  0.00     0.039 A 
ATOM     37  C   UNL     1       2.365   0.183   0.640  1.00  0.00     0.014 A 
ATOM     38  C   UNL     1       4.647   0.162   0.028  1.00  0.00     0.014 A 
ATOM     39  C   UNL     1       2.718   0.747   1.900  1.00  0.00     0.010 A 
ATOM     40  C   UNL     1       5.010   0.620   1.317  1.00  0.00     0.010 A 
ATOM     41  C   UNL     1       4.050   1.026   2.256  1.00  0.00    -0.014 A 
BRANCH  41  42
ATOM     42  C   UNL     1       4.448   1.800   3.510  1.00  0.00     0.031 A 
ATOM     43  C   UNL     1       5.429   2.973   3.414  1.00  0.00     0.074 A 
ATOM     44  C   UNL     1       3.957   1.545   4.748  1.00  0.00     0.049 A 
ATOM     45  N   UNL     1       6.011   3.668   4.368  1.00  0.00    -0.248 NA
ATOM     46  C   UNL     1       5.818   3.405   2.064  1.00  0.00     0.031 C 
ATOM     47  C   UNL     1       3.005   0.494   5.096  1.00  0.00     0.029 A 
ATOM     48  N   UNL     1       4.189   2.180   5.958  1.00  0.00    -0.354 N 
ATOM     49  C   UNL     1       6.884   4.552   3.734  1.00  0.00     0.074 A 
ATOM     50  C   UNL     1       6.768   4.293   2.315  1.00  0.00     0.031 C 
ATOM     51  C   UNL     1       2.675   0.602   6.396  1.00  0.00     0.029 A 
ATOM     52  C   UNL     1       3.449   1.681   7.009  1.00  0.00     0.049 A 
ATOM     53  H   UNL     1       4.826   2.923   6.059  1.00  0.00     0.167 HD
ATOM     54  C   UNL     1       7.699   5.506   4.253  1.00  0.00     0.037 A 
ATOM     55  C   UNL     1       3.398   2.021   8.317  1.00  0.00     0.037 A 
ATOM     56  C   UNL     1       7.780   5.878   5.643  1.00  0.00     0.049 A 
ATOM     57  C   UNL     1       4.297   3.099   8.875  1.00  0.00     0.074 A 
ATOM     58  C   UNL     1       8.579   6.847   6.232  1.00  0.00     0.029 A 
ATOM     59  N   UNL     1       7.013   5.332   6.655  1.00  0.00    -0.354 N 
ATOM     60  N   UNL     1       5.154   3.871   8.256  1.00  0.00    -0.248 NA
ATOM     61  C   UNL     1       4.231   3.334  10.330  1.00  0.00     0.031 C 
ATOM     62  C   UNL     1       8.307   6.875   7.605  1.00  0.00     0.029 A 
ATOM     63  C   UNL     1       7.316   5.945   7.862  1.00  0.00     0.049 A 
ATOM     64  H   UNL     1       6.350   4.614   6.537  1.00  0.00     0.167 HD
ATOM     65  C   UNL     1       5.712   4.685   9.238  1.00  0.00     0.074 A 
ATOM     66  C   UNL     1       5.078   4.339  10.489  1.00  0.00     0.031 C 
ATOM     67  C   UNL     1       6.680   5.624   9.111  1.00  0.00     0.037 A 
BRANCH  54  68
ATOM     68  C   UNL     1       8.604   6.233   3.296  1.00  0.00     0.057 A 
ATOM     69  C   UNL     1       9.982   5.977   3.292  1.00  0.00     0.134 A 
ATOM     70  C   UNL     1       8.124   7.203   2.407  1.00  0.00     0.134 A 
ATOM     71  F   UNL     1      10.509   5.072   4.130  1.00  0.00    -0.206 F 
ATOM     72  C   UNL     1      10.848   6.655   2.433  1.00  0.00     0.040 A 
ATOM     73  C   UNL     1       8.977   7.868   1.525  1.00  0.00     0.040 A 
ATOM     74  F   UNL     1       6.814   7.486   2.353  1.00  0.00    -0.206 F 
ATOM     75  C   UNL     1      10.345   7.598   1.539  1.00  0.00     0.006 A 
ENDBRANCH  54  68
BRANCH  55  76
ATOM     76  C   UNL     1       2.467   1.322   9.248  1.00  0.00     0.057 A 
ATOM     77  C   UNL     1       2.674  -0.007   9.633  1.00  0.00     0.134 A 
ATOM     78  C   UNL     1       1.398   2.005   9.848  1.00  0.00     0.134 A 
ATOM     79  F   UNL     1       3.687  -0.712   9.110  1.00  0.00    -0.206 F 
ATOM     80  C   UNL     1       1.851  -0.635  10.570  1.00  0.00     0.040 A 
ATOM     81  C   UNL     1       0.587   1.398  10.810  1.00  0.00     0.040 A 
ATOM     82  F   UNL     1       1.173   3.295   9.558  1.00  0.00    -0.206 F 
ATOM     83  C   UNL     1       0.811   0.072  11.170  1.00  0.00     0.006 A 
ENDBRANCH  55  76
BRANCH  67  84
ATOM     84  C   UNL     1       7.088   6.375  10.346  1.00  0.00     0.057 A 
ATOM     85  C   UNL     1       6.725   7.717  10.523  1.00  0.00     0.134 A 
ATOM     86  C   UNL     1       7.841   5.774  11.363  1.00  0.00     0.134 A 
ATOM     87  F   UNL     1       6.010   8.358   9.586  1.00  0.00    -0.206 F 
ATOM     88  C   UNL     1       7.088   8.429  11.669  1.00  0.00     0.040 A 
ATOM     89  C   UNL     1       8.192   6.469  12.524  1.00  0.00     0.040 A 
ATOM     90  F   UNL     1       8.212   4.488  11.264  1.00  0.00    -0.206 F 
ATOM     91  C   UNL     1       7.816   7.802  12.678  1.00  0.00     0.006 A 
ENDBRANCH  67  84
ENDBRANCH  41  42
ENDBRANCH  33  36
ENDBRANCH  31  32
ENDBRANCH  30  31
ENDBRANCH  29  30
ENDBRANCH  28  29
ENDBRANCH   1  28
TORSDOF 18
