REMARK SMILES COC(=O)[C@@H]1CCN(S(=O)(=O)N2CCC(C(=O)NCCCCCCNC(=O)c3ccc(-c4c5nc(c(-c6c(F)cccc6F)c6ccc([nH]6)c(-c6c(F)cccc6F)c6nc(c(-c7c(F)cccc7F)c7ccc4[nH]7)C=C6)C=C5)cc3)CC2)C1
REMARK SMILES IDX 20 1 19 2 18 3 16 4 17 5 15 7 12 8 13 9 83 10 14 11 82 12
REMARK SMILES IDX 9 13 10 14 11 15 8 16 5 17 6 18 84 19 7 20 3 21 4 22 2 23
REMARK SMILES IDX 1 24 21 25 22 26 23 27 24 28 25 29 26 30 27 32 28 33 29 34
REMARK SMILES IDX 81 35 30 36 80 37 31 38 32 39 33 40 74 41 34 42 79 43 73 44
REMARK SMILES IDX 75 45 35 46 78 47 72 48 71 49 36 51 62 52 45 53 61 54 46 55
REMARK SMILES IDX 49 56 60 57 76 58 47 59 48 60 59 62 77 63 50 64 37 65 38 66
REMARK SMILES IDX 43 67 39 68 40 69 42 70 44 71 41 72 63 73 64 74 69 75 65 76
REMARK SMILES IDX 66 77 68 78 70 79 67 80 51 81 52 82 57 83 53 84 54 85 56 86
REMARK SMILES IDX 58 87 55 88
REMARK H PARENT 18 6 25 31 75 50 49 61
REMARK Flexibility Score: inf
ROOT
ATOM      1  C   UNL     1       4.386   5.718 -11.549  1.00  0.00     0.021 C 
ENDROOT
BRANCH   1   2
ATOM      2  C   UNL     1       4.401   4.345 -10.892  1.00  0.00     0.116 C 
BRANCH   2   3
ATOM      3  N   UNL     1       5.747   3.990 -10.483  1.00  0.00    -0.356 N 
ATOM      4  C   UNL     1       6.259   3.732  -9.252  1.00  0.00     0.223 C 
ATOM      5  O   UNL     1       7.472   3.541  -9.152  1.00  0.00    -0.275 OA
ATOM      6  H   UNL     1       6.397   3.927 -11.220  1.00  0.00     0.163 HD
BRANCH   4   7
ATOM      7  C   UNL     1       5.359   3.618  -8.040  1.00  0.00     0.081 C 
ATOM      8  N   UNL     1       2.735   3.670  -6.882  1.00  0.00    -0.189 NA
ATOM      9  C   UNL     1       3.665   4.762  -6.516  1.00  0.00     0.104 C 
ATOM     10  C   UNL     1       3.417   2.381  -7.085  1.00  0.00     0.104 C 
ATOM     11  C   UNL     1       4.711   4.943  -7.617  1.00  0.00     0.030 C 
ATOM     12  C   UNL     1       4.374   2.466  -8.244  1.00  0.00     0.030 C 
BRANCH   8  13
ATOM     13  S   UNL     1       1.253   3.634  -6.070  1.00  0.00     0.281 S 
ATOM     14  O   UNL     1       0.435   2.595  -6.645  1.00  0.00    -0.195 OA
ATOM     15  O   UNL     1       0.768   4.995  -5.979  1.00  0.00    -0.195 OA
BRANCH  13  16
ATOM     16  N   UNL     1       1.693   3.136  -4.505  1.00  0.00    -0.188 NA
ATOM     17  C   UNL     1       0.256   2.004  -2.881  1.00  0.00     0.116 C 
ATOM     18  C   UNL     1       0.858   1.009  -3.853  1.00  0.00     0.033 C 
ATOM     19  C   UNL     1       0.622   3.374  -3.464  1.00  0.00     0.118 C 
ATOM     20  C   UNL     1       2.104   1.724  -4.320  1.00  0.00     0.104 C 
BRANCH  17  21
ATOM     21  C   UNL     1       0.820   1.757  -1.498  1.00  0.00     0.310 C 
ATOM     22  O   UNL     1       1.536   2.518  -0.867  1.00  0.00    -0.252 OA
BRANCH  21  23
ATOM     23  O   UNL     1       0.430   0.518  -1.077  1.00  0.00    -0.469 OA
ATOM     24  C   UNL     1       1.020   0.088   0.149  1.00  0.00     0.282 C 
ENDBRANCH  21  23
ENDBRANCH  17  21
ENDBRANCH  13  16
ENDBRANCH   8  13
ENDBRANCH   4   7
ENDBRANCH   2   3
ENDBRANCH   1   2
BRANCH   1  25
ATOM     25  C   UNL     1       5.114   5.748 -12.896  1.00  0.00     0.002 C 
BRANCH  25  26
ATOM     26  C   UNL     1       4.601   4.726 -13.916  1.00  0.00     0.002 C 
BRANCH  26  27
ATOM     27  C   UNL     1       3.093   4.783 -14.172  1.00  0.00     0.021 C 
BRANCH  27  28
ATOM     28  C   UNL     1       2.588   6.152 -14.607  1.00  0.00     0.116 C 
BRANCH  28  29
ATOM     29  N   UNL     1       3.208   6.585 -15.850  1.00  0.00    -0.352 N 
ATOM     30  C   UNL     1       2.613   6.993 -17.015  1.00  0.00     0.251 C 
ATOM     31  H   UNL     1       4.192   6.584 -15.854  1.00  0.00     0.163 HD
ATOM     32  O   UNL     1       3.274   7.114 -18.041  1.00  0.00    -0.269 OA
BRANCH  30  33
ATOM     33  C   UNL     1       1.163   7.269 -17.029  1.00  0.00     0.039 A 
ATOM     34  C   UNL     1       0.393   6.780 -18.085  1.00  0.00     0.014 A 
ATOM     35  C   UNL     1       0.568   8.003 -15.998  1.00  0.00     0.014 A 
ATOM     36  C   UNL     1      -0.987   6.982 -18.079  1.00  0.00     0.010 A 
ATOM     37  C   UNL     1      -0.816   8.131 -15.952  1.00  0.00     0.010 A 
ATOM     38  C   UNL     1      -1.607   7.628 -16.996  1.00  0.00    -0.014 A 
BRANCH  38  39
ATOM     39  C   UNL     1      -3.080   7.788 -16.941  1.00  0.00     0.031 A 
ATOM     40  C   UNL     1      -3.693   9.161 -16.947  1.00  0.00     0.074 A 
ATOM     41  C   UNL     1      -3.864   6.698 -16.834  1.00  0.00     0.049 A 
ATOM     42  N   UNL     1      -4.953   9.504 -16.854  1.00  0.00    -0.248 NA
ATOM     43  C   UNL     1      -2.767  10.300 -17.047  1.00  0.00     0.031 C 
ATOM     44  C   UNL     1      -3.386   5.315 -16.776  1.00  0.00     0.029 A 
ATOM     45  N   UNL     1      -5.228   6.582 -16.749  1.00  0.00    -0.354 N 
ATOM     46  C   UNL     1      -4.968  10.893 -16.879  1.00  0.00     0.074 A 
ATOM     47  C   UNL     1      -3.591  11.331 -16.930  1.00  0.00     0.031 C 
ATOM     48  C   UNL     1      -4.441   4.489 -16.697  1.00  0.00     0.029 A 
ATOM     49  C   UNL     1      -5.665   5.283 -16.652  1.00  0.00     0.049 A 
ATOM     50  H   UNL     1      -5.837   7.356 -16.757  1.00  0.00     0.167 HD
ATOM     51  C   UNL     1      -6.035  11.728 -16.886  1.00  0.00     0.037 A 
ATOM     52  C   UNL     1      -6.911   4.788 -16.531  1.00  0.00     0.037 A 
ATOM     53  C   UNL     1      -7.404  11.287 -16.841  1.00  0.00     0.049 A 
ATOM     54  C   UNL     1      -8.077   5.737 -16.504  1.00  0.00     0.074 A 
ATOM     55  C   UNL     1      -8.557  12.051 -16.883  1.00  0.00     0.029 A 
ATOM     56  N   UNL     1      -7.806   9.963 -16.739  1.00  0.00    -0.354 N 
ATOM     57  N   UNL     1      -8.081   7.046 -16.589  1.00  0.00    -0.248 NA
ATOM     58  C   UNL     1      -9.412   5.140 -16.370  1.00  0.00     0.031 C 
ATOM     59  C   UNL     1      -9.655  11.195 -16.750  1.00  0.00     0.029 A 
ATOM     60  C   UNL     1      -9.189   9.891 -16.690  1.00  0.00     0.049 A 
ATOM     61  H   UNL     1      -7.199   9.189 -16.705  1.00  0.00     0.167 HD
ATOM     62  C   UNL     1      -9.416   7.426 -16.551  1.00  0.00     0.074 A 
ATOM     63  C   UNL     1     -10.194   6.208 -16.450  1.00  0.00     0.031 C 
ATOM     64  C   UNL     1      -9.951   8.671 -16.597  1.00  0.00     0.037 A 
BRANCH  51  65
ATOM     65  C   UNL     1      -5.758  13.203 -16.944  1.00  0.00     0.057 A 
ATOM     66  C   UNL     1      -5.220  13.810 -18.087  1.00  0.00     0.134 A 
ATOM     67  C   UNL     1      -6.064  14.034 -15.858  1.00  0.00     0.134 A 
ATOM     68  F   UNL     1      -4.893  13.072 -19.159  1.00  0.00    -0.206 F 
ATOM     69  C   UNL     1      -4.967  15.182 -18.137  1.00  0.00     0.040 A 
ATOM     70  C   UNL     1      -5.846  15.412 -15.909  1.00  0.00     0.040 A 
ATOM     71  F   UNL     1      -6.589  13.522 -14.735  1.00  0.00    -0.206 F 
ATOM     72  C   UNL     1      -5.289  15.989 -17.048  1.00  0.00     0.006 A 
ENDBRANCH  51  65
BRANCH  52  73
ATOM     73  C   UNL     1      -7.123   3.320 -16.448  1.00  0.00     0.057 A 
ATOM     74  C   UNL     1      -7.745   2.621 -17.489  1.00  0.00     0.134 A 
ATOM     75  C   UNL     1      -6.717   2.583 -15.330  1.00  0.00     0.134 A 
ATOM     76  F   UNL     1      -8.173   3.274 -18.580  1.00  0.00    -0.206 F 
ATOM     77  C   UNL     1      -7.974   1.246 -17.413  1.00  0.00     0.040 A 
ATOM     78  C   UNL     1      -6.914   1.203 -15.252  1.00  0.00     0.040 A 
ATOM     79  F   UNL     1      -6.107   3.191 -14.302  1.00  0.00    -0.206 F 
ATOM     80  C   UNL     1      -7.553   0.533 -16.293  1.00  0.00     0.006 A 
ENDBRANCH  52  73
BRANCH  64  81
ATOM     81  C   UNL     1     -11.449   8.779 -16.582  1.00  0.00     0.057 A 
ATOM     82  C   UNL     1     -12.205   8.492 -15.439  1.00  0.00     0.134 A 
ATOM     83  C   UNL     1     -12.140   9.216 -17.720  1.00  0.00     0.134 A 
ATOM     84  F   UNL     1     -11.607   8.057 -14.319  1.00  0.00    -0.206 F 
ATOM     85  C   UNL     1     -13.596   8.610 -15.436  1.00  0.00     0.040 A 
ATOM     86  C   UNL     1     -13.527   9.369 -17.719  1.00  0.00     0.040 A 
ATOM     87  F   UNL     1     -11.477   9.519 -18.846  1.00  0.00    -0.206 F 
ATOM     88  C   UNL     1     -14.260   9.057 -16.576  1.00  0.00     0.006 A 
ENDBRANCH  64  81
ENDBRANCH  38  39
ENDBRANCH  30  33
ENDBRANCH  28  29
ENDBRANCH  27  28
ENDBRANCH  26  27
ENDBRANCH  25  26
ENDBRANCH   1  25
TORSDOF 17
