REMARK SMILES O=C(NCCCCCCNC(=O)c1cc(Cl)c2c(c1)[C@H]1C=CC[C@H]1[C@H](c1ccc(S(=O)(=O)N3CCOCC3)cc1)N2)c1ccc(-c2c3nc(c(-c4c(F)cccc4F)c4ccc([nH]4)c(-c4c(F)cccc4F)c4nc(c(-c5c(F)cccc5F)c5ccc2[nH]5)C=C4)C=C3)cc1
REMARK SMILES IDX 7 1 6 2 5 3 4 4 3 5 1 6 2 7 42 9 43 10 95 11 44 12 94 13
REMARK SMILES IDX 45 14 46 15 47 16 88 17 48 18 93 19 87 20 89 21 49 22 92 23
REMARK SMILES IDX 86 24 85 25 50 27 76 28 59 29 75 30 60 31 63 32 74 33 90 34
REMARK SMILES IDX 61 35 62 36 73 38 91 39 64 40 51 41 52 42 57 43 53 44 54 45
REMARK SMILES IDX 56 46 58 47 55 48 77 49 78 50 83 51 79 52 80 53 82 54 84 55
REMARK SMILES IDX 81 56 65 57 66 58 71 59 67 60 68 61 70 62 72 63 69 64 8 65
REMARK SMILES IDX 9 66 10 67 11 68 12 70 13 71 14 72 19 73 15 74 18 75 16 76
REMARK SMILES IDX 17 77 20 78 41 79 21 80 24 81 25 82 22 84 23 85 26 86 27 87
REMARK SMILES IDX 40 88 28 89 39 90 29 91 30 92 31 93 32 94 33 95 34 96 38 97
REMARK SMILES IDX 35 98 37 99 36 100
REMARK H PARENT 3 8 89 26 63 37 10 69 41 83
REMARK Flexibility Score: inf
ROOT
ATOM      1  C   UNL     1       4.743   4.017   1.334  1.00  0.00     0.002 C 
ENDROOT
BRANCH   1   2
ATOM      2  C   UNL     1       4.243   3.705  -0.079  1.00  0.00     0.002 C 
BRANCH   2   3
ATOM      3  C   UNL     1       4.759   2.395  -0.680  1.00  0.00     0.021 C 
BRANCH   3   4
ATOM      4  C   UNL     1       4.496   1.154   0.167  1.00  0.00     0.116 C 
BRANCH   4   5
ATOM      5  N   UNL     1       3.076   0.921   0.364  1.00  0.00    -0.352 N 
ATOM      6  O   UNL     1       1.108  -0.155   0.115  1.00  0.00    -0.269 OA
ATOM      7  C   UNL     1       2.333  -0.191   0.064  1.00  0.00     0.251 C 
ATOM      8  H   UNL     1       2.577   1.667   0.771  1.00  0.00     0.163 HD
BRANCH   7   9
ATOM      9  C   UNL     1       3.017  -1.437  -0.335  1.00  0.00     0.039 A 
ATOM     10  C   UNL     1       4.063  -1.951   0.439  1.00  0.00     0.014 A 
ATOM     11  C   UNL     1       2.583  -2.110  -1.479  1.00  0.00     0.014 A 
ATOM     12  C   UNL     1       4.732  -3.098   0.020  1.00  0.00     0.010 A 
ATOM     13  C   UNL     1       3.227  -3.284  -1.875  1.00  0.00     0.010 A 
ATOM     14  C   UNL     1       4.316  -3.775  -1.137  1.00  0.00    -0.014 A 
BRANCH  14  15
ATOM     15  C   UNL     1       4.994  -5.029  -1.538  1.00  0.00     0.031 A 
ATOM     16  C   UNL     1       5.892  -5.067  -2.740  1.00  0.00     0.074 A 
ATOM     17  C   UNL     1       4.790  -6.139  -0.805  1.00  0.00     0.049 A 
ATOM     18  N   UNL     1       6.568  -6.074  -3.232  1.00  0.00    -0.248 NA
ATOM     19  C   UNL     1       6.053  -3.811  -3.489  1.00  0.00     0.031 C 
ATOM     20  C   UNL     1       3.929  -6.223   0.377  1.00  0.00     0.029 A 
ATOM     21  N   UNL     1       5.288  -7.409  -0.947  1.00  0.00    -0.354 N 
ATOM     22  C   UNL     1       7.234  -5.577  -4.345  1.00  0.00     0.074 A 
ATOM     23  C   UNL     1       6.859  -4.185  -4.475  1.00  0.00     0.031 C 
ATOM     24  C   UNL     1       3.964  -7.477   0.856  1.00  0.00     0.029 A 
ATOM     25  C   UNL     1       4.818  -8.289  -0.004  1.00  0.00     0.049 A 
ATOM     26  H   UNL     1       5.921  -7.664  -1.657  1.00  0.00     0.167 HD
ATOM     27  C   UNL     1       8.089  -6.224  -5.173  1.00  0.00     0.037 A 
ATOM     28  C   UNL     1       5.037  -9.609   0.138  1.00  0.00     0.037 A 
ATOM     29  C   UNL     1       8.458  -7.610  -5.040  1.00  0.00     0.049 A 
ATOM     30  C   UNL     1       5.943 -10.309  -0.833  1.00  0.00     0.074 A 
ATOM     31  C   UNL     1       9.356  -8.341  -5.800  1.00  0.00     0.029 A 
ATOM     32  N   UNL     1       7.936  -8.479  -4.094  1.00  0.00    -0.354 N 
ATOM     33  N   UNL     1       6.620  -9.812  -1.840  1.00  0.00    -0.248 NA
ATOM     34  C   UNL     1       6.115 -11.757  -0.648  1.00  0.00     0.031 C 
ATOM     35  C   UNL     1       9.343  -9.663  -5.342  1.00  0.00     0.029 A 
ATOM     36  C   UNL     1       8.468  -9.746  -4.272  1.00  0.00     0.049 A 
ATOM     37  H   UNL     1       7.284  -8.232  -3.399  1.00  0.00     0.167 HD
ATOM     38  C   UNL     1       7.308 -10.880  -2.398  1.00  0.00     0.074 A 
ATOM     39  C   UNL     1       6.987 -12.047  -1.602  1.00  0.00     0.031 C 
ATOM     40  C   UNL     1       8.131 -10.897  -3.475  1.00  0.00     0.037 A 
BRANCH  27  41
ATOM     41  C   UNL     1       8.684  -5.443  -6.307  1.00  0.00     0.057 A 
ATOM     42  C   UNL     1       8.287  -5.686  -7.628  1.00  0.00     0.134 A 
ATOM     43  C   UNL     1       9.693  -4.495  -6.098  1.00  0.00     0.134 A 
ATOM     44  F   UNL     1       7.329  -6.586  -7.896  1.00  0.00    -0.206 F 
ATOM     45  C   UNL     1       8.879  -5.019  -8.702  1.00  0.00     0.040 A 
ATOM     46  C   UNL     1      10.279  -3.808  -7.163  1.00  0.00     0.040 A 
ATOM     47  F   UNL     1      10.111  -4.209  -4.856  1.00  0.00    -0.206 F 
ATOM     48  C   UNL     1       9.877  -4.075  -8.470  1.00  0.00     0.006 A 
ENDBRANCH  27  41
BRANCH  28  49
ATOM     49  C   UNL     1       4.373 -10.364   1.228  1.00  0.00     0.057 A 
ATOM     50  C   UNL     1       2.995 -10.609   1.206  1.00  0.00     0.134 A 
ATOM     51  C   UNL     1       5.107 -10.892   2.295  1.00  0.00     0.134 A 
ATOM     52  F   UNL     1       2.236 -10.126   0.211  1.00  0.00    -0.206 F 
ATOM     53  C   UNL     1       2.370 -11.354   2.206  1.00  0.00     0.040 A 
ATOM     54  C   UNL     1       4.499 -11.660   3.289  1.00  0.00     0.040 A 
ATOM     55  F   UNL     1       6.434 -10.707   2.359  1.00  0.00    -0.206 F 
ATOM     56  C   UNL     1       3.125 -11.891   3.247  1.00  0.00     0.006 A 
ENDBRANCH  28  49
BRANCH  40  57
ATOM     57  C   UNL     1       8.745 -12.216  -3.835  1.00  0.00     0.057 A 
ATOM     58  C   UNL     1      10.103 -12.463  -3.598  1.00  0.00     0.134 A 
ATOM     59  C   UNL     1       7.991 -13.242  -4.418  1.00  0.00     0.134 A 
ATOM     60  F   UNL     1      10.881 -11.520  -3.046  1.00  0.00    -0.206 F 
ATOM     61  C   UNL     1      10.689 -13.686  -3.927  1.00  0.00     0.040 A 
ATOM     62  C   UNL     1       8.560 -14.478  -4.728  1.00  0.00     0.040 A 
ATOM     63  F   UNL     1       6.681 -13.074  -4.653  1.00  0.00    -0.206 F 
ATOM     64  C   UNL     1       9.914 -14.700  -4.486  1.00  0.00     0.006 A 
ENDBRANCH  40  57
ENDBRANCH  14  15
ENDBRANCH   7   9
ENDBRANCH   4   5
ENDBRANCH   3   4
ENDBRANCH   2   3
ENDBRANCH   1   2
BRANCH   1  65
ATOM     65  C   UNL     1       6.264   4.032   1.500  1.00  0.00     0.021 C 
BRANCH  65  66
ATOM     66  C   UNL     1       7.004   4.950   0.532  1.00  0.00     0.116 C 
BRANCH  66  67
ATOM     67  N   UNL     1       6.606   6.340   0.679  1.00  0.00    -0.352 N 
ATOM     68  C   UNL     1       7.407   7.443   0.824  1.00  0.00     0.251 C 
ATOM     69  H   UNL     1       5.637   6.512   0.674  1.00  0.00     0.163 HD
ATOM     70  O   UNL     1       6.936   8.544   1.083  1.00  0.00    -0.269 OA
BRANCH  68  71
ATOM     71  C   UNL     1       8.862   7.272   0.699  1.00  0.00     0.041 A 
ATOM     72  C   UNL     1       9.415   6.746  -0.467  1.00  0.00     0.036 A 
ATOM     73  C   UNL     1       9.668   7.617   1.780  1.00  0.00     0.020 A 
ATOM     74  C   UNL     1      10.778   6.476  -0.503  1.00  0.00     0.065 A 
ATOM     75  C   UNL     1      11.048   7.369   1.732  1.00  0.00    -0.015 A 
ATOM     76  Cl  UNL     1      11.427   5.753  -1.937  1.00  0.00    -0.082 Cl
ATOM     77  C   UNL     1      11.608   6.745   0.605  1.00  0.00     0.057 A 
ATOM     78  C   UNL     1      11.907   7.815   2.878  1.00  0.00     0.049 C 
ATOM     79  N   UNL     1      12.967   6.473   0.556  1.00  0.00    -0.376 N 
ATOM     80  C   UNL     1      11.770   6.999   4.138  1.00  0.00    -0.023 C 
ATOM     81  C   UNL     1      13.427   7.752   2.620  1.00  0.00     0.031 C 
ATOM     82  C   UNL     1      13.773   6.503   1.767  1.00  0.00     0.114 C 
ATOM     83  H   UNL     1      13.391   6.257  -0.306  1.00  0.00     0.161 HD
ATOM     84  C   UNL     1      12.932   6.955   4.801  1.00  0.00    -0.030 C 
ATOM     85  C   UNL     1      13.986   7.718   4.059  1.00  0.00     0.034 C 
BRANCH  82  86
ATOM     86  C   UNL     1      15.247   6.444   1.385  1.00  0.00    -0.025 A 
ATOM     87  C   UNL     1      15.759   6.916   0.160  1.00  0.00     0.007 A 
ATOM     88  C   UNL     1      16.145   5.906   2.310  1.00  0.00     0.007 A 
ATOM     89  C   UNL     1      17.133   6.870  -0.115  1.00  0.00     0.022 A 
ATOM     90  C   UNL     1      17.508   5.909   2.058  1.00  0.00     0.022 A 
ATOM     91  C   UNL     1      18.010   6.380   0.853  1.00  0.00     0.082 A 
BRANCH  91  92
ATOM     92  S   UNL     1      19.761   6.384   0.534  1.00  0.00     0.243 S 
ATOM     93  O   UNL     1      20.018   5.237  -0.314  1.00  0.00    -0.207 OA
ATOM     94  O   UNL     1      20.098   7.727   0.125  1.00  0.00    -0.207 OA
BRANCH  92  95
ATOM     95  N   UNL     1      20.480   6.103   2.023  1.00  0.00    -0.193 NA
ATOM     96  C   UNL     1      20.758   4.742   2.529  1.00  0.00     0.131 C 
ATOM     97  C   UNL     1      20.819   7.201   2.945  1.00  0.00     0.131 C 
ATOM     98  C   UNL     1      20.304   4.568   3.990  1.00  0.00     0.177 C 
ATOM     99  C   UNL     1      20.254   6.917   4.338  1.00  0.00     0.177 C 
ATOM    100  O   UNL     1      20.709   5.651   4.836  1.00  0.00    -0.379 OA
ENDBRANCH  92  95
ENDBRANCH  91  92
ENDBRANCH  82  86
ENDBRANCH  68  71
ENDBRANCH  66  67
ENDBRANCH  65  66
ENDBRANCH   1  65
TORSDOF 16
