REMARK SMILES CC[C@@H](Oc1ccccc1/C=C1/SC(=O)N(c2ccc(C)c(C)c2)C1=O)C(=O)NCCCCCCNC(=O)c1ccc(-c2c3nc(c(-c4c(F)cccc4F)c4ccc([nH]4)c(-c4c(F)cccc4F)c4nc(c(-c5c(F)cccc5F)c5ccc2[nH]5)C=C4)C=C3)cc1
REMARK SMILES IDX 31 1 30 2 29 3 27 4 28 5 3 7 2 8 1 9 4 10 5 11 6 12 10 13
REMARK SMILES IDX 7 14 9 15 8 16 11 17 12 18 13 19 25 20 14 21 16 22 26 23
REMARK SMILES IDX 15 24 17 25 18 26 24 27 19 28 22 29 20 30 23 31 21 32 32 33
REMARK SMILES IDX 33 34 34 35 35 36 36 37 37 38 38 40 39 41 40 42 92 43 41 44
REMARK SMILES IDX 91 45 42 46 43 47 44 48 85 49 45 50 90 51 84 52 86 53 46 54
REMARK SMILES IDX 89 55 83 56 82 57 47 59 73 60 56 61 72 62 57 63 60 64 71 65
REMARK SMILES IDX 87 66 58 67 59 68 70 70 88 71 61 72 48 73 49 74 54 75 50 76
REMARK SMILES IDX 51 77 53 78 55 79 52 80 74 81 75 82 80 83 76 84 77 85 79 86
REMARK SMILES IDX 81 87 78 88 62 89 63 90 68 91 64 92 65 93 67 94 69 95 66 96
REMARK H PARENT 29 6 36 39 86 58 60 69
REMARK Flexibility Score: inf
ROOT
ATOM      1  C   UNL     1      -2.405  -1.641   3.233  1.00  0.00     0.021 C 
ENDROOT
BRANCH   1   2
ATOM      2  C   UNL     1      -1.645  -0.341   3.511  1.00  0.00     0.116 C 
BRANCH   2   3
ATOM      3  N   UNL     1      -0.371  -0.538   4.177  1.00  0.00    -0.353 N 
ATOM      4  C   UNL     1       0.889  -0.136   3.824  1.00  0.00     0.261 C 
ATOM      5  O   UNL     1       1.772  -0.256   4.682  1.00  0.00    -0.271 OA
ATOM      6  H   UNL     1      -0.421  -1.043   5.021  1.00  0.00     0.163 HD
BRANCH   4   7
ATOM      7  C   UNL     1       1.264   0.315   2.386  1.00  0.00     0.261 C 
BRANCH   7   8
ATOM      8  C   UNL     1       1.364  -0.961   1.526  1.00  0.00     0.052 C 
ATOM      9  C   UNL     1       2.475  -0.897   0.482  1.00  0.00     0.008 C 
ENDBRANCH   7   8
BRANCH   7  10
ATOM     10  O   UNL     1       0.322   1.253   1.853  1.00  0.00    -0.480 OA
BRANCH  10  11
ATOM     11  C   UNL     1       0.803   2.039   0.833  1.00  0.00     0.127 A 
ATOM     12  C   UNL     1       1.507   3.203   1.139  1.00  0.00     0.047 A 
ATOM     13  C   UNL     1       0.440   1.769  -0.502  1.00  0.00     0.018 A 
ATOM     14  C   UNL     1       1.902   4.065   0.112  1.00  0.00     0.004 A 
ATOM     15  C   UNL     1       0.880   2.614  -1.526  1.00  0.00     0.012 A 
ATOM     16  C   UNL     1       1.607   3.762  -1.218  1.00  0.00     0.001 A 
BRANCH  13  17
ATOM     17  C   UNL     1      -0.447   0.659  -0.856  1.00  0.00     0.033 C 
ATOM     18  C   UNL     1      -1.742   0.629  -0.515  1.00  0.00     0.084 C 
ATOM     19  S   UNL     1      -2.754  -0.741  -0.773  1.00  0.00    -0.022 SA
ATOM     20  C   UNL     1      -2.504   1.710   0.180  1.00  0.00     0.272 C 
ATOM     21  C   UNL     1      -4.073  -0.038   0.154  1.00  0.00     0.298 C 
ATOM     22  N   UNL     1      -3.717   1.210   0.599  1.00  0.00    -0.236 N 
ATOM     23  O   UNL     1      -2.122   2.864   0.303  1.00  0.00    -0.268 OA
ATOM     24  O   UNL     1      -5.119  -0.649   0.337  1.00  0.00    -0.260 OA
BRANCH  22  25
ATOM     25  C   UNL     1      -4.622   2.033   1.294  1.00  0.00     0.053 A 
ATOM     26  C   UNL     1      -5.455   2.891   0.587  1.00  0.00     0.027 A 
ATOM     27  C   UNL     1      -4.677   2.002   2.689  1.00  0.00     0.030 A 
ATOM     28  C   UNL     1      -6.382   3.669   1.277  1.00  0.00     0.006 A 
ATOM     29  C   UNL     1      -5.638   2.742   3.395  1.00  0.00    -0.046 A 
ATOM     30  C   UNL     1      -6.510   3.577   2.674  1.00  0.00    -0.048 A 
ATOM     31  C   UNL     1      -5.740   2.580   4.888  1.00  0.00     0.044 C 
ATOM     32  C   UNL     1      -7.546   4.432   3.349  1.00  0.00     0.044 C 
ENDBRANCH  22  25
ENDBRANCH  13  17
ENDBRANCH  10  11
ENDBRANCH   7  10
ENDBRANCH   4   7
ENDBRANCH   2   3
ENDBRANCH   1   2
BRANCH   1  33
ATOM     33  C   UNL     1      -3.252  -2.201   4.387  1.00  0.00     0.002 C 
BRANCH  33  34
ATOM     34  C   UNL     1      -4.461  -1.365   4.841  1.00  0.00     0.002 C 
BRANCH  34  35
ATOM     35  C   UNL     1      -5.496  -1.022   3.765  1.00  0.00     0.021 C 
BRANCH  35  36
ATOM     36  C   UNL     1      -6.351  -2.166   3.233  1.00  0.00     0.116 C 
BRANCH  36  37
ATOM     37  N   UNL     1      -7.453  -2.485   4.126  1.00  0.00    -0.352 N 
ATOM     38  C   UNL     1      -8.788  -2.156   4.085  1.00  0.00     0.251 C 
ATOM     39  H   UNL     1      -7.198  -3.036   4.901  1.00  0.00     0.163 HD
ATOM     40  O   UNL     1      -9.467  -2.354   5.092  1.00  0.00    -0.269 OA
BRANCH  38  41
ATOM     41  C   UNL     1      -9.444  -1.562   2.886  1.00  0.00     0.039 A 
ATOM     42  C   UNL     1     -10.517  -0.681   3.087  1.00  0.00     0.014 A 
ATOM     43  C   UNL     1      -9.104  -1.914   1.579  1.00  0.00     0.014 A 
ATOM     44  C   UNL     1     -11.200  -0.124   1.997  1.00  0.00     0.010 A 
ATOM     45  C   UNL     1      -9.729  -1.294   0.491  1.00  0.00     0.010 A 
ATOM     46  C   UNL     1     -10.790  -0.397   0.684  1.00  0.00    -0.014 A 
BRANCH  46  47
ATOM     47  C   UNL     1     -11.452   0.244  -0.489  1.00  0.00     0.031 A 
ATOM     48  C   UNL     1     -12.154  -0.592  -1.529  1.00  0.00     0.074 A 
ATOM     49  C   UNL     1     -11.367   1.580  -0.658  1.00  0.00     0.049 A 
ATOM     50  N   UNL     1     -12.703  -0.221  -2.660  1.00  0.00    -0.248 NA
ATOM     51  C   UNL     1     -12.233  -2.040  -1.276  1.00  0.00     0.031 C 
ATOM     52  C   UNL     1     -10.687   2.506   0.250  1.00  0.00     0.029 A 
ATOM     53  N   UNL     1     -11.839   2.391  -1.663  1.00  0.00    -0.354 N 
ATOM     54  C   UNL     1     -13.165  -1.386  -3.262  1.00  0.00     0.074 A 
ATOM     55  C   UNL     1     -12.804  -2.481  -2.389  1.00  0.00     0.031 C 
ATOM     56  C   UNL     1     -10.797   3.754  -0.231  1.00  0.00     0.029 A 
ATOM     57  C   UNL     1     -11.506   3.715  -1.506  1.00  0.00     0.049 A 
ATOM     58  H   UNL     1     -12.366   2.054  -2.424  1.00  0.00     0.167 HD
ATOM     59  C   UNL     1     -13.838  -1.529  -4.430  1.00  0.00     0.037 A 
ATOM     60  C   UNL     1     -11.721   4.777  -2.309  1.00  0.00     0.037 A 
ATOM     61  C   UNL     1     -14.228  -0.436  -5.283  1.00  0.00     0.049 A 
ATOM     62  C   UNL     1     -12.454   4.585  -3.610  1.00  0.00     0.074 A 
ATOM     63  C   UNL     1     -14.990  -0.477  -6.439  1.00  0.00     0.029 A 
ATOM     64  N   UNL     1     -13.878   0.890  -5.082  1.00  0.00    -0.354 N 
ATOM     65  N   UNL     1     -12.958   3.489  -4.121  1.00  0.00    -0.248 NA
ATOM     66  C   UNL     1     -12.645   5.779  -4.448  1.00  0.00     0.031 C 
ATOM     67  C   UNL     1     -15.047   0.814  -6.971  1.00  0.00     0.029 A 
ATOM     68  C   UNL     1     -14.372   1.669  -6.116  1.00  0.00     0.049 A 
ATOM     69  H   UNL     1     -13.357   1.228  -4.318  1.00  0.00     0.167 HD
ATOM     70  C   UNL     1     -13.543   3.863  -5.325  1.00  0.00     0.074 A 
ATOM     71  C   UNL     1     -13.351   5.291  -5.459  1.00  0.00     0.031 C 
ATOM     72  C   UNL     1     -14.180   3.091  -6.238  1.00  0.00     0.037 A 
BRANCH  59  73
ATOM     73  C   UNL     1     -14.196  -2.920  -4.873  1.00  0.00     0.057 A 
ATOM     74  C   UNL     1     -15.184  -3.675  -4.228  1.00  0.00     0.134 A 
ATOM     75  C   UNL     1     -13.597  -3.480  -6.009  1.00  0.00     0.134 A 
ATOM     76  F   UNL     1     -15.796  -3.200  -3.133  1.00  0.00    -0.206 F 
ATOM     77  C   UNL     1     -15.549  -4.943  -4.685  1.00  0.00     0.040 A 
ATOM     78  C   UNL     1     -13.972  -4.735  -6.492  1.00  0.00     0.040 A 
ATOM     79  F   UNL     1     -12.652  -2.807  -6.683  1.00  0.00    -0.206 F 
ATOM     80  C   UNL     1     -14.948  -5.473  -5.826  1.00  0.00     0.006 A 
ENDBRANCH  59  73
BRANCH  60  81
ATOM     81  C   UNL     1     -11.218   6.121  -1.920  1.00  0.00     0.057 A 
ATOM     82  C   UNL     1     -12.098   7.165  -1.614  1.00  0.00     0.134 A 
ATOM     83  C   UNL     1      -9.846   6.403  -1.874  1.00  0.00     0.134 A 
ATOM     84  F   UNL     1     -13.424   6.966  -1.659  1.00  0.00    -0.206 F 
ATOM     85  C   UNL     1     -11.636   8.446  -1.304  1.00  0.00     0.040 A 
ATOM     86  C   UNL     1      -9.370   7.671  -1.536  1.00  0.00     0.040 A 
ATOM     87  F   UNL     1      -8.947   5.446  -2.148  1.00  0.00    -0.206 F 
ATOM     88  C   UNL     1     -10.267   8.700  -1.261  1.00  0.00     0.006 A 
ENDBRANCH  60  81
BRANCH  72  89
ATOM     89  C   UNL     1     -14.737   3.771  -7.455  1.00  0.00     0.057 A 
ATOM     90  C   UNL     1     -13.908   4.256  -8.475  1.00  0.00     0.134 A 
ATOM     91  C   UNL     1     -16.121   3.889  -7.637  1.00  0.00     0.134 A 
ATOM     92  F   UNL     1     -12.574   4.186  -8.358  1.00  0.00    -0.206 F 
ATOM     93  C   UNL     1     -14.436   4.847  -9.625  1.00  0.00     0.040 A 
ATOM     94  C   UNL     1     -16.661   4.452  -8.794  1.00  0.00     0.040 A 
ATOM     95  F   UNL     1     -16.972   3.438  -6.703  1.00  0.00    -0.206 F 
ATOM     96  C   UNL     1     -15.817   4.937  -9.791  1.00  0.00     0.006 A 
ENDBRANCH  72  89
ENDBRANCH  46  47
ENDBRANCH  38  41
ENDBRANCH  36  37
ENDBRANCH  35  36
ENDBRANCH  34  35
ENDBRANCH  33  34
ENDBRANCH   1  33
TORSDOF 18
