REMARK SMILES C[C@H]1[C@H](C(=O)NCCCCCCNC(=O)c2ccc(-c3c4nc(c(-c5c(F)cccc5F)c5ccc([nH]5)c(-c5c(F)cccc5F)c5nc(c(-c6c(F)cccc6F)c6ccc3[nH]6)C=C5)C=C4)cc2)CC[N@@H+]1CC(=O)N1CCCC1
REMARK SMILES IDX 9 1 8 2 7 3 6 4 4 5 5 6 3 8 1 9 2 10 72 11 70 12 71 13 73 15
REMARK SMILES IDX 74 16 75 17 76 18 77 19 80 20 78 21 79 22 10 23 11 24 12 25
REMARK SMILES IDX 13 26 14 27 15 29 16 30 17 31 69 32 18 33 68 34 19 35 20 36
REMARK SMILES IDX 21 37 62 38 22 39 67 40 61 41 63 42 23 43 66 44 60 45 59 46
REMARK SMILES IDX 24 48 50 49 33 50 49 51 34 52 37 53 48 54 64 55 35 56 36 57
REMARK SMILES IDX 47 59 65 60 38 61 25 62 26 63 31 64 27 65 28 66 30 67 32 68
REMARK SMILES IDX 29 69 51 70 52 71 57 72 53 73 54 74 56 75 58 76 55 77 39 78
REMARK SMILES IDX 40 79 45 80 41 81 42 82 44 83 46 84 43 85
REMARK H PARENT 6 7 72 14 13 28 63 47 37 58
REMARK Flexibility Score: inf
ROOT
ATOM      1  C   UNL     1      -1.741   1.278   5.517  1.00  0.00     0.002 C 
ENDROOT
BRANCH   1   2
ATOM      2  C   UNL     1      -1.787   0.352   4.295  1.00  0.00     0.021 C 
BRANCH   2   3
ATOM      3  C   UNL     1      -2.366   0.786   2.926  1.00  0.00     0.116 C 
BRANCH   3   4
ATOM      4  N   UNL     1      -1.703   1.892   2.227  1.00  0.00    -0.356 N 
ATOM      5  C   UNL     1      -1.277   2.171   0.962  1.00  0.00     0.229 C 
ATOM      6  O   UNL     1      -0.924   3.356   0.812  1.00  0.00    -0.275 OA
ATOM      7  H   UNL     1      -1.514   2.638   2.839  1.00  0.00     0.163 HD
BRANCH   5   8
ATOM      8  C   UNL     1      -1.080   1.239  -0.260  1.00  0.00     0.142 C 
ATOM      9  C   UNL     1       1.106   0.837  -1.678  1.00  0.00     0.076 C 
ATOM     10  C   UNL     1       0.342   0.674  -0.359  1.00  0.00     0.194 C 
ATOM     11  N   UNL     1       0.243  -0.767  -0.168  1.00  0.00    -0.324 N 
ATOM     12  C   UNL     1      -2.001   0.056  -0.437  1.00  0.00     0.081 C 
ATOM     13  C   UNL     1      -1.154  -1.181  -0.154  1.00  0.00     0.263 C 
ATOM     14  H   UNL     1       0.641  -1.231  -0.984  1.00  0.00     0.348 HD
BRANCH  11  15
ATOM     15  C   UNL     1       1.145  -1.326   0.854  1.00  0.00     0.364 C 
BRANCH  15  16
ATOM     16  C   UNL     1       1.003  -0.644   2.220  1.00  0.00     0.277 C 
ATOM     17  O   UNL     1       0.248  -1.173   3.034  1.00  0.00    -0.268 OA
ATOM     18  N   UNL     1       1.694   0.543   2.445  1.00  0.00    -0.338 N 
ATOM     19  C   UNL     1       3.016   0.853   1.938  1.00  0.00     0.119 C 
ATOM     20  C   UNL     1       1.228   1.684   3.214  1.00  0.00     0.119 C 
ATOM     21  C   UNL     1       3.551   1.958   2.859  1.00  0.00     0.023 C 
ATOM     22  C   UNL     1       2.459   2.224   3.887  1.00  0.00     0.023 C 
ENDBRANCH  15  16
ENDBRANCH  11  15
ENDBRANCH   5   8
ENDBRANCH   3   4
ENDBRANCH   2   3
ENDBRANCH   1   2
BRANCH   1  23
ATOM     23  C   UNL     1      -2.830   1.039   6.563  1.00  0.00     0.002 C 
BRANCH  23  24
ATOM     24  C   UNL     1      -3.065  -0.425   6.964  1.00  0.00     0.021 C 
BRANCH  24  25
ATOM     25  C   UNL     1      -1.817  -1.190   7.407  1.00  0.00     0.116 C 
BRANCH  25  26
ATOM     26  N   UNL     1      -1.297  -0.672   8.666  1.00  0.00    -0.352 N 
ATOM     27  C   UNL     1      -1.437  -1.216   9.918  1.00  0.00     0.251 C 
ATOM     28  H   UNL     1      -0.786   0.167   8.612  1.00  0.00     0.163 HD
ATOM     29  O   UNL     1      -1.232  -0.552  10.934  1.00  0.00    -0.269 OA
BRANCH  27  30
ATOM     30  C   UNL     1      -1.835  -2.630  10.022  1.00  0.00     0.039 A 
ATOM     31  C   UNL     1      -2.962  -2.986  10.762  1.00  0.00     0.014 A 
ATOM     32  C   UNL     1      -1.099  -3.592   9.323  1.00  0.00     0.014 A 
ATOM     33  C   UNL     1      -3.385  -4.315  10.759  1.00  0.00     0.010 A 
ATOM     34  C   UNL     1      -1.567  -4.897   9.259  1.00  0.00     0.010 A 
ATOM     35  C   UNL     1      -2.706  -5.274   9.986  1.00  0.00    -0.014 A 
BRANCH  35  36
ATOM     36  C   UNL     1      -3.155  -6.687   9.948  1.00  0.00     0.031 A 
ATOM     37  C   UNL     1      -2.260  -7.768  10.488  1.00  0.00     0.074 A 
ATOM     38  C   UNL     1      -4.337  -6.998   9.383  1.00  0.00     0.049 A 
ATOM     39  N   UNL     1      -2.447  -9.062  10.514  1.00  0.00    -0.248 NA
ATOM     40  C   UNL     1      -0.966  -7.338  11.044  1.00  0.00     0.031 C 
ATOM     41  C   UNL     1      -5.264  -6.040   8.777  1.00  0.00     0.029 A 
ATOM     42  N   UNL     1      -4.959  -8.210   9.221  1.00  0.00    -0.354 N 
ATOM     43  C   UNL     1      -1.296  -9.597  11.078  1.00  0.00     0.074 A 
ATOM     44  C   UNL     1      -0.388  -8.498  11.313  1.00  0.00     0.031 C 
ATOM     45  C   UNL     1      -6.351  -6.697   8.340  1.00  0.00     0.029 A 
ATOM     46  C   UNL     1      -6.182  -8.123   8.599  1.00  0.00     0.049 A 
ATOM     47  H   UNL     1      -4.567  -9.062   9.522  1.00  0.00     0.167 HD
ATOM     48  C   UNL     1      -1.032 -10.885  11.400  1.00  0.00     0.037 A 
ATOM     49  C   UNL     1      -7.062  -9.088   8.275  1.00  0.00     0.037 A 
ATOM     50  C   UNL     1      -1.950 -11.970  11.177  1.00  0.00     0.049 A 
ATOM     51  C   UNL     1      -6.740 -10.515   8.628  1.00  0.00     0.074 A 
ATOM     52  C   UNL     1      -1.809 -13.303  11.514  1.00  0.00     0.029 A 
ATOM     53  N   UNL     1      -3.182 -11.842  10.550  1.00  0.00    -0.354 N 
ATOM     54  N   UNL     1      -5.682 -10.999   9.234  1.00  0.00    -0.248 NA
ATOM     55  C   UNL     1      -7.736 -11.530   8.258  1.00  0.00     0.031 C 
ATOM     56  C   UNL     1      -2.930 -13.992  11.042  1.00  0.00     0.029 A 
ATOM     57  C   UNL     1      -3.798 -13.079  10.465  1.00  0.00     0.049 A 
ATOM     58  H   UNL     1      -3.561 -10.997  10.215  1.00  0.00     0.167 HD
ATOM     59  C   UNL     1      -5.896 -12.367   9.343  1.00  0.00     0.074 A 
ATOM     60  C   UNL     1      -7.194 -12.632   8.757  1.00  0.00     0.031 C 
ATOM     61  C   UNL     1      -5.093 -13.319   9.879  1.00  0.00     0.037 A 
BRANCH  48  62
ATOM     62  C   UNL     1       0.300 -11.182  12.027  1.00  0.00     0.057 A 
ATOM     63  C   UNL     1       0.630 -10.734  13.315  1.00  0.00     0.134 A 
ATOM     64  C   UNL     1       1.261 -11.939  11.345  1.00  0.00     0.134 A 
ATOM     65  F   UNL     1      -0.238  -9.993  14.020  1.00  0.00    -0.206 F 
ATOM     66  C   UNL     1       1.877 -10.997  13.884  1.00  0.00     0.040 A 
ATOM     67  C   UNL     1       2.499 -12.236  11.917  1.00  0.00     0.040 A 
ATOM     68  F   UNL     1       1.012 -12.405  10.112  1.00  0.00    -0.206 F 
ATOM     69  C   UNL     1       2.813 -11.757  13.187  1.00  0.00     0.006 A 
ENDBRANCH  48  62
BRANCH  49  70
ATOM     70  C   UNL     1      -8.341  -8.739   7.603  1.00  0.00     0.057 A 
ATOM     71  C   UNL     1      -9.567  -8.880   8.264  1.00  0.00     0.134 A 
ATOM     72  C   UNL     1      -8.372  -8.264   6.287  1.00  0.00     0.134 A 
ATOM     73  F   UNL     1      -9.607  -9.346   9.521  1.00  0.00    -0.206 F 
ATOM     74  C   UNL     1     -10.778  -8.584   7.635  1.00  0.00     0.040 A 
ATOM     75  C   UNL     1      -9.573  -7.937   5.654  1.00  0.00     0.040 A 
ATOM     76  F   UNL     1      -7.233  -8.097   5.599  1.00  0.00    -0.206 F 
ATOM     77  C   UNL     1     -10.782  -8.105   6.326  1.00  0.00     0.006 A 
ENDBRANCH  49  70
BRANCH  61  78
ATOM     78  C   UNL     1      -5.609 -14.729   9.883  1.00  0.00     0.057 A 
ATOM     79  C   UNL     1      -5.722 -15.481   8.708  1.00  0.00     0.134 A 
ATOM     80  C   UNL     1      -5.957 -15.355  11.088  1.00  0.00     0.134 A 
ATOM     81  F   UNL     1      -5.417 -14.937   7.520  1.00  0.00    -0.206 F 
ATOM     82  C   UNL     1      -6.186 -16.797   8.726  1.00  0.00     0.040 A 
ATOM     83  C   UNL     1      -6.391 -16.680  11.123  1.00  0.00     0.040 A 
ATOM     84  F   UNL     1      -5.862 -14.695  12.252  1.00  0.00    -0.206 F 
ATOM     85  C   UNL     1      -6.514 -17.402   9.938  1.00  0.00     0.006 A 
ENDBRANCH  61  78
ENDBRANCH  35  36
ENDBRANCH  27  30
ENDBRANCH  25  26
ENDBRANCH  24  25
ENDBRANCH  23  24
ENDBRANCH   1  23
TORSDOF 15
