REMARK SMILES CC1=C(C)C[C@@H](C(=O)NCCCCCCNC(=O)c2ccc(-c3c4nc(c(-c5c(F)cccc5F)c5ccc([nH]5)c(-c5c(F)cccc5F)c5nc(c(-c6c(F)cccc6F)c6ccc3[nH]6)C=C5)C=C4)cc2)[C@@H](C(=O)NCC[NH+]2CCOCC2)C1
REMARK SMILES IDX 11 1 10 2 9 3 7 4 8 5 6 7 1 8 2 9 3 10 85 11 4 12 5 13 73 14
REMARK SMILES IDX 74 15 75 16 76 17 77 19 78 20 79 21 80 22 84 23 81 25 83 26
REMARK SMILES IDX 82 27 12 28 13 29 14 30 15 31 16 32 17 33 18 35 19 36 20 37
REMARK SMILES IDX 72 38 21 39 71 40 22 41 23 42 24 43 65 44 25 45 70 46 64 47
REMARK SMILES IDX 66 48 26 49 69 50 63 51 62 52 27 54 53 55 36 56 52 57 37 58
REMARK SMILES IDX 40 59 51 60 67 61 38 62 39 63 50 65 68 66 41 67 28 68 29 69
REMARK SMILES IDX 34 70 30 71 31 72 33 73 35 74 32 75 54 76 55 77 60 78 56 79
REMARK SMILES IDX 57 80 59 81 61 82 58 83 42 84 43 85 48 86 44 87 45 88 47 89
REMARK SMILES IDX 49 90 46 91
REMARK H PARENT 9 6 76 18 79 24 16 34 66 53 40 64
REMARK Flexibility Score: inf
ROOT
ATOM      1  C   UNL     1      -2.494   3.099   0.506  1.00  0.00     0.021 C 
ENDROOT
BRANCH   1   2
ATOM      2  C   UNL     1      -2.157   2.257  -0.716  1.00  0.00     0.116 C 
BRANCH   2   3
ATOM      3  N   UNL     1      -2.411   2.933  -1.963  1.00  0.00    -0.356 N 
ATOM      4  C   UNL     1      -1.649   3.043  -3.072  1.00  0.00     0.224 C 
ATOM      5  O   UNL     1      -2.248   3.354  -4.109  1.00  0.00    -0.275 OA
ATOM      6  H   UNL     1      -3.281   3.389  -2.015  1.00  0.00     0.163 HD
BRANCH   4   7
ATOM      7  C   UNL     1      -0.155   2.736  -3.157  1.00  0.00     0.095 C 
ATOM      8  C   UNL     1       1.429   0.067  -0.008  1.00  0.00     0.039 C 
ATOM      9  C   UNL     1       1.036   0.872  -1.224  1.00  0.00    -0.074 C 
ATOM     10  C   UNL     1       0.425   0.372  -2.317  1.00  0.00    -0.074 C 
ATOM     11  C   UNL     1       1.346   2.353  -1.070  1.00  0.00     0.045 C 
ATOM     12  C   UNL     1       0.033  -1.068  -2.534  1.00  0.00     0.039 C 
ATOM     13  C   UNL     1       0.064   1.258  -3.478  1.00  0.00     0.045 C 
ATOM     14  C   UNL     1       0.829   3.345  -2.148  1.00  0.00     0.095 C 
BRANCH  14  15
ATOM     15  C   UNL     1       0.332   4.647  -1.504  1.00  0.00     0.224 C 
ATOM     16  O   UNL     1       0.189   4.765  -0.286  1.00  0.00    -0.275 OA
ATOM     17  N   UNL     1       0.056   5.748  -2.252  1.00  0.00    -0.350 N 
ATOM     18  H   UNL     1      -0.451   6.443  -1.775  1.00  0.00     0.163 HD
BRANCH  17  19
ATOM     19  C   UNL     1       0.375   6.083  -3.627  1.00  0.00     0.177 C 
BRANCH  19  20
ATOM     20  C   UNL     1      -0.841   6.354  -4.543  1.00  0.00     0.283 C 
BRANCH  20  21
ATOM     21  N   UNL     1      -1.702   7.486  -4.137  1.00  0.00    -0.330 N 
ATOM     22  C   UNL     1      -2.761   7.098  -3.167  1.00  0.00     0.291 C 
ATOM     23  C   UNL     1      -2.390   8.069  -5.320  1.00  0.00     0.291 C 
ATOM     24  H   UNL     1      -1.075   8.157  -3.694  1.00  0.00     0.348 HD
ATOM     25  C   UNL     1      -3.953   6.314  -3.752  1.00  0.00     0.221 C 
ATOM     26  C   UNL     1      -3.525   7.196  -5.881  1.00  0.00     0.221 C 
ATOM     27  O   UNL     1      -4.527   6.978  -4.882  1.00  0.00    -0.370 OA
ENDBRANCH  20  21
ENDBRANCH  19  20
ENDBRANCH  17  19
ENDBRANCH  14  15
ENDBRANCH   4   7
ENDBRANCH   2   3
ENDBRANCH   1   2
BRANCH   1  28
ATOM     28  C   UNL     1      -3.971   3.450   0.679  1.00  0.00     0.002 C 
BRANCH  28  29
ATOM     29  C   UNL     1      -4.936   2.264   0.693  1.00  0.00     0.002 C 
BRANCH  29  30
ATOM     30  C   UNL     1      -4.589   1.133   1.663  1.00  0.00     0.021 C 
BRANCH  30  31
ATOM     31  C   UNL     1      -4.336   1.553   3.108  1.00  0.00     0.116 C 
BRANCH  31  32
ATOM     32  N   UNL     1      -5.458   2.266   3.688  1.00  0.00    -0.352 N 
ATOM     33  C   UNL     1      -6.087   2.082   4.891  1.00  0.00     0.251 C 
ATOM     34  H   UNL     1      -5.823   2.992   3.132  1.00  0.00     0.163 HD
ATOM     35  O   UNL     1      -7.116   2.700   5.142  1.00  0.00    -0.269 OA
BRANCH  33  36
ATOM     36  C   UNL     1      -5.549   1.124   5.881  1.00  0.00     0.039 A 
ATOM     37  C   UNL     1      -6.450   0.293   6.552  1.00  0.00     0.014 A 
ATOM     38  C   UNL     1      -4.184   1.063   6.181  1.00  0.00     0.014 A 
ATOM     39  C   UNL     1      -5.981  -0.624   7.493  1.00  0.00     0.010 A 
ATOM     40  C   UNL     1      -3.709   0.102   7.074  1.00  0.00     0.010 A 
ATOM     41  C   UNL     1      -4.604  -0.741   7.747  1.00  0.00    -0.014 A 
BRANCH  41  42
ATOM     42  C   UNL     1      -4.112  -1.753   8.713  1.00  0.00     0.031 A 
ATOM     43  C   UNL     1      -3.483  -1.337  10.011  1.00  0.00     0.074 A 
ATOM     44  C   UNL     1      -4.213  -3.059   8.404  1.00  0.00     0.049 A 
ATOM     45  N   UNL     1      -3.071  -2.084  11.005  1.00  0.00    -0.248 NA
ATOM     46  C   UNL     1      -3.262   0.103  10.210  1.00  0.00     0.031 C 
ATOM     47  C   UNL     1      -4.725  -3.589   7.139  1.00  0.00     0.029 A 
ATOM     48  N   UNL     1      -3.894  -4.177   9.131  1.00  0.00    -0.354 N 
ATOM     49  C   UNL     1      -2.538  -1.208  11.941  1.00  0.00     0.074 A 
ATOM     50  C   UNL     1      -2.627   0.120  11.373  1.00  0.00     0.031 C 
ATOM     51  C   UNL     1      -4.712  -4.930   7.189  1.00  0.00     0.029 A 
ATOM     52  C   UNL     1      -4.183  -5.352   8.483  1.00  0.00     0.049 A 
ATOM     53  H   UNL     1      -3.496  -4.140  10.030  1.00  0.00     0.167 HD
ATOM     54  C   UNL     1      -2.041  -1.482  13.172  1.00  0.00     0.037 A 
ATOM     55  C   UNL     1      -4.055  -6.628   8.893  1.00  0.00     0.037 A 
ATOM     56  C   UNL     1      -1.969  -2.803  13.740  1.00  0.00     0.049 A 
ATOM     57  C   UNL     1      -3.567  -6.907  10.284  1.00  0.00     0.074 A 
ATOM     58  C   UNL     1      -1.555  -3.179  15.007  1.00  0.00     0.029 A 
ATOM     59  N   UNL     1      -2.314  -3.969  13.071  1.00  0.00    -0.354 N 
ATOM     60  N   UNL     1      -3.165  -6.063  11.203  1.00  0.00    -0.248 NA
ATOM     61  C   UNL     1      -3.538  -8.315  10.704  1.00  0.00     0.031 C 
ATOM     62  C   UNL     1      -1.614  -4.576  15.090  1.00  0.00     0.029 A 
ATOM     63  C   UNL     1      -2.105  -5.067  13.891  1.00  0.00     0.049 A 
ATOM     64  H   UNL     1      -2.657  -4.010  12.150  1.00  0.00     0.167 HD
ATOM     65  C   UNL     1      -2.849  -6.832  12.315  1.00  0.00     0.074 A 
ATOM     66  C   UNL     1      -3.128  -8.210  11.960  1.00  0.00     0.031 C 
ATOM     67  C   UNL     1      -2.372  -6.434  13.519  1.00  0.00     0.037 A 
BRANCH  54  68
ATOM     68  C   UNL     1      -1.537  -0.321  13.980  1.00  0.00     0.057 A 
ATOM     69  C   UNL     1      -2.406   0.641  14.512  1.00  0.00     0.134 A 
ATOM     70  C   UNL     1      -0.169  -0.162  14.231  1.00  0.00     0.134 A 
ATOM     71  F   UNL     1      -3.728   0.555  14.299  1.00  0.00    -0.206 F 
ATOM     72  C   UNL     1      -1.930   1.739  15.232  1.00  0.00     0.040 A 
ATOM     73  C   UNL     1       0.317   0.916  14.972  1.00  0.00     0.040 A 
ATOM     74  F   UNL     1       0.719  -1.050  13.757  1.00  0.00    -0.206 F 
ATOM     75  C   UNL     1      -0.564   1.876  15.466  1.00  0.00     0.006 A 
ENDBRANCH  54  68
BRANCH  55  76
ATOM     76  C   UNL     1      -4.457  -7.726   7.982  1.00  0.00     0.057 A 
ATOM     77  C   UNL     1      -5.645  -8.436   8.185  1.00  0.00     0.134 A 
ATOM     78  C   UNL     1      -3.684  -8.062   6.864  1.00  0.00     0.134 A 
ATOM     79  F   UNL     1      -6.419  -8.167   9.247  1.00  0.00    -0.206 F 
ATOM     80  C   UNL     1      -6.049  -9.448   7.313  1.00  0.00     0.040 A 
ATOM     81  C   UNL     1      -4.086  -9.057   5.973  1.00  0.00     0.040 A 
ATOM     82  F   UNL     1      -2.541  -7.408   6.610  1.00  0.00    -0.206 F 
ATOM     83  C   UNL     1      -5.271  -9.755   6.198  1.00  0.00     0.006 A 
ENDBRANCH  55  76
BRANCH  67  84
ATOM     84  C   UNL     1      -2.129  -7.505  14.540  1.00  0.00     0.057 A 
ATOM     85  C   UNL     1      -1.060  -8.404  14.425  1.00  0.00     0.134 A 
ATOM     86  C   UNL     1      -2.965  -7.634  15.656  1.00  0.00     0.134 A 
ATOM     87  F   UNL     1      -0.230  -8.343  13.373  1.00  0.00    -0.206 F 
ATOM     88  C   UNL     1      -0.850  -9.412  15.368  1.00  0.00     0.040 A 
ATOM     89  C   UNL     1      -2.751  -8.621  16.618  1.00  0.00     0.040 A 
ATOM     90  F   UNL     1      -4.002  -6.800  15.830  1.00  0.00    -0.206 F 
ATOM     91  C   UNL     1      -1.695  -9.519  16.471  1.00  0.00     0.006 A 
ENDBRANCH  67  84
ENDBRANCH  41  42
ENDBRANCH  33  36
ENDBRANCH  31  32
ENDBRANCH  30  31
ENDBRANCH  29  30
ENDBRANCH  28  29
ENDBRANCH   1  28
TORSDOF 17
