REMARK SMILES Cc1ccc(NC(=O)C[C@H]2C(=O)NCCN2C(=O)CCC(=O)NCCCCCCNC(=O)c2ccc(-c3c4nc(c(-c5c(F)cccc5F)c5ccc([nH]5)c(-c5c(F)cccc5F)c5nc(c(-c6c(F)cccc6F)c6ccc3[nH]6)C=C5)C=C4)cc2)c(C)c1
REMARK SMILES IDX 24 1 23 2 21 3 22 4 20 6 19 7 17 8 18 9 16 10 10 11 11 12
REMARK SMILES IDX 12 13 13 14 15 15 14 16 9 18 7 19 6 20 8 22 5 23 1 24 2 25
REMARK SMILES IDX 3 26 89 27 4 28 87 29 88 30 25 31 26 32 27 33 28 34 29 35
REMARK SMILES IDX 30 36 31 37 32 39 33 40 34 41 86 42 35 43 85 44 36 45 37 46
REMARK SMILES IDX 38 47 79 48 39 49 84 50 78 51 80 52 40 53 83 54 77 55 76 56
REMARK SMILES IDX 41 58 67 59 50 60 66 61 51 62 54 63 65 64 81 65 52 66 53 67
REMARK SMILES IDX 64 69 82 70 55 71 42 72 43 73 48 74 44 75 45 76 47 77 49 78
REMARK SMILES IDX 46 79 68 80 69 81 74 82 70 83 71 84 73 85 75 86 72 87 56 88
REMARK SMILES IDX 57 89 62 90 58 91 59 92 61 93 63 94 60 95
REMARK H PARENT 23 5 13 17 6 21 30 38 80 57 54 68
REMARK Flexibility Score: inf
ROOT
ATOM      1  C   UNL     1      -3.415   3.204   0.706  1.00  0.00     0.116 C 
ENDROOT
BRANCH   1   2
ATOM      2  N   UNL     1      -2.734   2.168  -0.078  1.00  0.00    -0.356 N 
ATOM      3  C   UNL     1      -2.973   1.435  -1.203  1.00  0.00     0.220 C 
ATOM      4  O   UNL     1      -2.067   0.749  -1.685  1.00  0.00    -0.275 OA
ATOM      5  H   UNL     1      -1.862   1.939   0.317  1.00  0.00     0.163 HD
BRANCH   3   6
ATOM      6  C   UNL     1      -4.332   1.302  -1.772  1.00  0.00     0.110 C 
BRANCH   6   7
ATOM      7  C   UNL     1      -5.049   0.267  -0.932  1.00  0.00     0.110 C 
BRANCH   7   8
ATOM      8  C   UNL     1      -5.429   0.924   0.351  1.00  0.00     0.223 C 
ATOM      9  O   UNL     1      -6.411   1.683   0.305  1.00  0.00    -0.275 OA
BRANCH   8  10
ATOM     10  N   UNL     1      -4.671   0.780   1.528  1.00  0.00    -0.328 N 
ATOM     11  C   UNL     1      -3.387  -0.063   1.793  1.00  0.00     0.183 C 
ATOM     12  C   UNL     1      -3.485  -0.796   3.169  1.00  0.00     0.243 C 
ATOM     13  O   UNL     1      -2.751  -1.737   3.467  1.00  0.00    -0.273 OA
ATOM     14  N   UNL     1      -4.417  -0.411   4.090  1.00  0.00    -0.353 N 
ATOM     15  C   UNL     1      -5.471   1.307   2.653  1.00  0.00     0.141 C 
ATOM     16  C   UNL     1      -5.255   0.748   4.036  1.00  0.00     0.137 C 
ATOM     17  H   UNL     1      -4.523  -0.993   4.877  1.00  0.00     0.163 HD
BRANCH  11  18
ATOM     18  C   UNL     1      -1.738   0.170   1.328  1.00  0.00     0.135 C 
BRANCH  18  19
ATOM     19  C   UNL     1      -0.453   1.196   1.635  1.00  0.00     0.227 C 
ATOM     20  N   UNL     1       0.020   2.421   1.163  1.00  0.00    -0.326 N 
ATOM     21  H   UNL     1       0.852   2.620   1.652  1.00  0.00     0.169 HD
ATOM     22  O   UNL     1       0.310   0.790   2.544  1.00  0.00    -0.275 OA
BRANCH  20  23
ATOM     23  C   UNL     1      -0.211   3.515   0.252  1.00  0.00     0.044 A 
ATOM     24  C   UNL     1      -2.783   6.309  -1.718  1.00  0.00     0.044 C 
ATOM     25  C   UNL     1      -1.611   5.544  -1.156  1.00  0.00    -0.051 A 
ATOM     26  C   UNL     1      -1.147   5.782   0.137  1.00  0.00     0.005 A 
ATOM     27  C   UNL     1      -1.101   4.427  -1.824  1.00  0.00     0.009 A 
ATOM     28  C   UNL     1      -0.401   4.792   0.815  1.00  0.00     0.026 A 
ATOM     29  C   UNL     1      -0.363   3.428  -1.136  1.00  0.00    -0.027 A 
ATOM     30  C   UNL     1       0.302   2.356  -1.943  1.00  0.00     0.046 C 
ENDBRANCH  20  23
ENDBRANCH  18  19
ENDBRANCH  11  18
ENDBRANCH   8  10
ENDBRANCH   7   8
ENDBRANCH   6   7
ENDBRANCH   3   6
ENDBRANCH   1   2
BRANCH   1  31
ATOM     31  C   UNL     1      -2.993   3.571   2.198  1.00  0.00     0.021 C 
BRANCH  31  32
ATOM     32  C   UNL     1      -2.487   2.636   3.323  1.00  0.00     0.002 C 
BRANCH  32  33
ATOM     33  C   UNL     1      -1.268   3.079   4.164  1.00  0.00     0.002 C 
BRANCH  33  34
ATOM     34  C   UNL     1      -1.447   4.367   4.944  1.00  0.00     0.021 C 
BRANCH  34  35
ATOM     35  C   UNL     1      -2.688   4.390   5.815  1.00  0.00     0.116 C 
BRANCH  35  36
ATOM     36  N   UNL     1      -2.652   3.419   6.900  1.00  0.00    -0.352 N 
ATOM     37  C   UNL     1      -2.771   3.641   8.263  1.00  0.00     0.251 C 
ATOM     38  H   UNL     1      -2.528   2.481   6.630  1.00  0.00     0.163 HD
ATOM     39  O   UNL     1      -2.623   2.759   9.066  1.00  0.00    -0.269 OA
BRANCH  37  40
ATOM     40  C   UNL     1      -3.046   5.030   8.700  1.00  0.00     0.039 A 
ATOM     41  C   UNL     1      -2.172   5.638   9.601  1.00  0.00     0.014 A 
ATOM     42  C   UNL     1      -4.085   5.750   8.110  1.00  0.00     0.014 A 
ATOM     43  C   UNL     1      -2.288   7.008   9.839  1.00  0.00     0.010 A 
ATOM     44  C   UNL     1      -4.125   7.128   8.261  1.00  0.00     0.010 A 
ATOM     45  C   UNL     1      -3.230   7.771   9.130  1.00  0.00    -0.014 A 
BRANCH  45  46
ATOM     46  C   UNL     1      -3.314   9.243   9.287  1.00  0.00     0.031 A 
ATOM     47  C   UNL     1      -4.585   9.863   9.799  1.00  0.00     0.074 A 
ATOM     48  C   UNL     1      -2.288  10.023   8.894  1.00  0.00     0.049 A 
ATOM     49  N   UNL     1      -4.896  11.126   9.926  1.00  0.00    -0.248 NA
ATOM     50  C   UNL     1      -5.666   8.937  10.177  1.00  0.00     0.031 C 
ATOM     51  C   UNL     1      -1.030   9.547   8.313  1.00  0.00     0.029 A 
ATOM     52  N   UNL     1      -2.145  11.387   8.916  1.00  0.00    -0.354 N 
ATOM     53  C   UNL     1      -6.212  11.144  10.369  1.00  0.00     0.074 A 
ATOM     54  C   UNL     1      -6.662   9.772  10.428  1.00  0.00     0.031 C 
ATOM     55  C   UNL     1      -0.232  10.599   8.066  1.00  0.00     0.029 A 
ATOM     56  C   UNL     1      -0.932  11.823   8.441  1.00  0.00     0.049 A 
ATOM     57  H   UNL     1      -2.846  11.997   9.241  1.00  0.00     0.167 HD
ATOM     58  C   UNL     1      -6.970  12.207  10.728  1.00  0.00     0.037 A 
ATOM     59  C   UNL     1      -0.439  13.072   8.329  1.00  0.00     0.037 A 
ATOM     60  C   UNL     1      -6.502  13.566  10.720  1.00  0.00     0.049 A 
ATOM     61  C   UNL     1      -1.281  14.233   8.780  1.00  0.00     0.074 A 
ATOM     62  C   UNL     1      -7.162  14.708  11.136  1.00  0.00     0.029 A 
ATOM     63  N   UNL     1      -5.247  13.962  10.281  1.00  0.00    -0.354 N 
ATOM     64  N   UNL     1      -2.499  14.230   9.264  1.00  0.00    -0.248 NA
ATOM     65  C   UNL     1      -0.677  15.569   8.677  1.00  0.00     0.031 C 
ATOM     66  C   UNL     1      -6.315  15.801  10.923  1.00  0.00     0.029 A 
ATOM     67  C   UNL     1      -5.116  15.334  10.408  1.00  0.00     0.049 A 
ATOM     68  H   UNL     1      -4.553  13.357   9.932  1.00  0.00     0.167 HD
ATOM     69  C   UNL     1      -2.798  15.556   9.549  1.00  0.00     0.074 A 
ATOM     70  C   UNL     1      -1.628  16.333   9.195  1.00  0.00     0.031 C 
ATOM     71  C   UNL     1      -3.938  16.084  10.058  1.00  0.00     0.037 A 
BRANCH  58  72
ATOM     72  C   UNL     1      -8.373  11.930  11.176  1.00  0.00     0.057 A 
ATOM     73  C   UNL     1      -8.646  11.296  12.397  1.00  0.00     0.134 A 
ATOM     74  C   UNL     1      -9.466  12.307  10.386  1.00  0.00     0.134 A 
ATOM     75  F   UNL     1      -7.644  10.893  13.192  1.00  0.00    -0.206 F 
ATOM     76  C   UNL     1      -9.953  11.021  12.801  1.00  0.00     0.040 A 
ATOM     77  C   UNL     1     -10.778  12.062  10.792  1.00  0.00     0.040 A 
ATOM     78  F   UNL     1      -9.275  12.917   9.207  1.00  0.00    -0.206 F 
ATOM     79  C   UNL     1     -11.024  11.410  11.999  1.00  0.00     0.006 A 
ENDBRANCH  58  72
BRANCH  59  80
ATOM     80  C   UNL     1       0.935  13.286   7.813  1.00  0.00     0.057 A 
ATOM     81  C   UNL     1       1.971  13.679   8.669  1.00  0.00     0.134 A 
ATOM     82  C   UNL     1       1.249  13.108   6.461  1.00  0.00     0.134 A 
ATOM     83  F   UNL     1       1.727  13.881   9.973  1.00  0.00    -0.206 F 
ATOM     84  C   UNL     1       3.265  13.905   8.198  1.00  0.00     0.040 A 
ATOM     85  C   UNL     1       2.544  13.311   5.979  1.00  0.00     0.040 A 
ATOM     86  F   UNL     1       0.304  12.724   5.591  1.00  0.00    -0.206 F 
ATOM     87  C   UNL     1       3.555  13.717   6.849  1.00  0.00     0.006 A 
ENDBRANCH  59  80
BRANCH  71  88
ATOM     88  C   UNL     1      -3.960  17.564  10.292  1.00  0.00     0.057 A 
ATOM     89  C   UNL     1      -4.074  18.474   9.235  1.00  0.00     0.134 A 
ATOM     90  C   UNL     1      -3.910  18.079  11.593  1.00  0.00     0.134 A 
ATOM     91  F   UNL     1      -4.114  18.041   7.966  1.00  0.00    -0.206 F 
ATOM     92  C   UNL     1      -4.118  19.850   9.463  1.00  0.00     0.040 A 
ATOM     93  C   UNL     1      -3.976  19.451  11.835  1.00  0.00     0.040 A 
ATOM     94  F   UNL     1      -3.809  17.257  12.648  1.00  0.00    -0.206 F 
ATOM     95  C   UNL     1      -4.076  20.341  10.767  1.00  0.00     0.006 A 
ENDBRANCH  71  88
ENDBRANCH  45  46
ENDBRANCH  37  40
ENDBRANCH  35  36
ENDBRANCH  34  35
ENDBRANCH  33  34
ENDBRANCH  32  33
ENDBRANCH  31  32
ENDBRANCH   1  31
TORSDOF 19
