REMARK SMILES C=CC[C@@]1(C(=O)NCCCCCCNC(=O)c2ccc(-c3c4nc(c(-c5c(F)cccc5F)c5ccc([nH]5)c(-c5c(F)cccc5F)c5nc(c(-c6c(F)cccc6F)c6ccc3[nH]6)C=C5)C=C4)cc2)CCCN(C(=O)c2ccc3c(c2)OCO3)C1
REMARK SMILES IDX 10 1 9 2 8 3 7 4 5 5 6 6 4 8 71 9 86 10 72 11 74 12 73 13
REMARK SMILES IDX 3 14 2 15 1 16 75 17 76 18 77 19 78 20 82 21 79 22 81 23
REMARK SMILES IDX 80 24 83 25 85 26 84 27 11 28 12 29 13 30 14 31 15 32 16 34
REMARK SMILES IDX 17 35 18 36 70 37 19 38 69 39 20 40 21 41 22 42 63 43 23 44
REMARK SMILES IDX 68 45 62 46 64 47 24 48 67 49 61 50 60 51 25 53 51 54 34 55
REMARK SMILES IDX 50 56 35 57 38 58 49 59 65 60 36 61 37 62 48 64 66 65 39 66
REMARK SMILES IDX 26 67 27 68 32 69 28 70 29 71 31 72 33 73 30 74 52 75 53 76
REMARK SMILES IDX 58 77 54 78 55 79 57 80 59 81 56 82 40 83 41 84 46 85 42 86
REMARK SMILES IDX 43 87 45 88 47 89 44 90
REMARK H PARENT 7 7 14 33 64 52 38 63
REMARK Flexibility Score: inf
ROOT
ATOM      1  C   UNL     1       2.936   1.451   0.012  1.00  0.00     0.002 C 
ENDROOT
BRANCH   1   2
ATOM      2  C   UNL     1       2.291   0.981   1.321  1.00  0.00     0.021 C 
BRANCH   2   3
ATOM      3  C   UNL     1       1.065   1.796   1.739  1.00  0.00     0.116 C 
BRANCH   3   4
ATOM      4  N   UNL     1      -0.046   1.520   0.861  1.00  0.00    -0.356 N 
ATOM      5  C   UNL     1      -1.233   0.888   0.985  1.00  0.00     0.228 C 
ATOM      6  O   UNL     1      -1.837   0.779  -0.090  1.00  0.00    -0.274 OA
ATOM      7  H   UNL     1       0.095   1.878  -0.045  1.00  0.00     0.163 HD
BRANCH   5   8
ATOM      8  C   UNL     1      -1.897   0.455   2.318  1.00  0.00     0.070 C 
ATOM      9  C   UNL     1      -1.004  -0.117   3.447  1.00  0.00     0.021 C 
ATOM     10  C   UNL     1      -2.870  -0.709   1.938  1.00  0.00     0.137 C 
ATOM     11  C   UNL     1      -0.235  -1.357   3.018  1.00  0.00     0.023 C 
ATOM     12  N   UNL     1      -2.149  -1.938   1.573  1.00  0.00    -0.338 N 
ATOM     13  C   UNL     1      -1.191  -2.445   2.559  1.00  0.00     0.120 C 
BRANCH   8  14
ATOM     14  C   UNL     1      -2.732   1.634   2.922  1.00  0.00     0.045 C 
BRANCH  14  15
ATOM     15  C   UNL     1      -2.729   2.943   2.184  1.00  0.00    -0.034 C 
ATOM     16  C   UNL     1      -3.737   3.364   1.411  1.00  0.00     0.004 C 
ENDBRANCH  14  15
ENDBRANCH   8  14
BRANCH  12  17
ATOM     17  C   UNL     1      -2.456  -2.569   0.362  1.00  0.00     0.254 C 
ATOM     18  O   UNL     1      -3.264  -2.172  -0.464  1.00  0.00    -0.269 OA
BRANCH  17  19
ATOM     19  C   UNL     1      -1.758  -3.836   0.082  1.00  0.00     0.043 A 
ATOM     20  C   UNL     1      -0.657  -3.842  -0.797  1.00  0.00     0.018 A 
ATOM     21  C   UNL     1      -2.115  -4.963   0.830  1.00  0.00     0.064 A 
ATOM     22  C   UNL     1       0.150  -4.980  -0.884  1.00  0.00     0.051 A 
ATOM     23  C   UNL     1      -1.272  -6.044   0.753  1.00  0.00     0.166 A 
ATOM     24  C   UNL     1      -0.166  -6.049  -0.070  1.00  0.00     0.165 A 
ATOM     25  O   UNL     1      -1.367  -7.170   1.508  1.00  0.00    -0.454 OA
ATOM     26  O   UNL     1       0.567  -7.188   0.071  1.00  0.00    -0.454 OA
ATOM     27  C   UNL     1      -0.113  -7.804   1.187  1.00  0.00     0.468 C 
ENDBRANCH  17  19
ENDBRANCH  12  17
ENDBRANCH   5   8
ENDBRANCH   3   4
ENDBRANCH   2   3
ENDBRANCH   1   2
BRANCH   1  28
ATOM     28  C   UNL     1       3.418   2.904   0.017  1.00  0.00     0.002 C 
BRANCH  28  29
ATOM     29  C   UNL     1       4.332   3.275   1.187  1.00  0.00     0.021 C 
BRANCH  29  30
ATOM     30  C   UNL     1       5.573   2.399   1.328  1.00  0.00     0.116 C 
BRANCH  30  31
ATOM     31  N   UNL     1       6.425   2.470   0.154  1.00  0.00    -0.352 N 
ATOM     32  C   UNL     1       7.762   2.755   0.062  1.00  0.00     0.251 C 
ATOM     33  H   UNL     1       5.975   2.286  -0.702  1.00  0.00     0.163 HD
ATOM     34  O   UNL     1       8.269   2.971  -1.035  1.00  0.00    -0.269 OA
BRANCH  32  35
ATOM     35  C   UNL     1       8.594   2.818   1.282  1.00  0.00     0.039 A 
ATOM     36  C   UNL     1       9.534   3.845   1.394  1.00  0.00     0.014 A 
ATOM     37  C   UNL     1       8.477   1.859   2.293  1.00  0.00     0.014 A 
ATOM     38  C   UNL     1      10.326   3.935   2.539  1.00  0.00     0.010 A 
ATOM     39  C   UNL     1       9.216   1.992   3.467  1.00  0.00     0.010 A 
ATOM     40  C   UNL     1      10.156   3.025   3.596  1.00  0.00    -0.014 A 
BRANCH  40  41
ATOM     41  C   UNL     1      10.957   3.162   4.838  1.00  0.00     0.031 A 
ATOM     42  C   UNL     1      11.954   2.107   5.231  1.00  0.00     0.074 A 
ATOM     43  C   UNL     1      10.764   4.235   5.629  1.00  0.00     0.049 A 
ATOM     44  N   UNL     1      12.769   2.084   6.256  1.00  0.00    -0.248 NA
ATOM     45  C   UNL     1      12.028   0.911   4.380  1.00  0.00     0.031 C 
ATOM     46  C   UNL     1       9.778   5.292   5.392  1.00  0.00     0.029 A 
ATOM     47  N   UNL     1      11.390   4.619   6.788  1.00  0.00    -0.354 N 
ATOM     48  C   UNL     1      13.445   0.874   6.175  1.00  0.00     0.074 A 
ATOM     49  C   UNL     1      12.904   0.165   5.036  1.00  0.00     0.031 C 
ATOM     50  C   UNL     1       9.891   6.222   6.352  1.00  0.00     0.029 A 
ATOM     51  C   UNL     1      10.937   5.816   7.286  1.00  0.00     0.049 A 
ATOM     52  H   UNL     1      12.095   4.087   7.221  1.00  0.00     0.167 HD
ATOM     53  C   UNL     1      14.444   0.407   6.962  1.00  0.00     0.037 A 
ATOM     54  C   UNL     1      11.330   6.516   8.367  1.00  0.00     0.037 A 
ATOM     55  C   UNL     1      14.992   1.125   8.084  1.00  0.00     0.049 A 
ATOM     56  C   UNL     1      12.460   5.992   9.207  1.00  0.00     0.074 A 
ATOM     57  C   UNL     1      16.046   0.768   8.906  1.00  0.00     0.029 A 
ATOM     58  N   UNL     1      14.524   2.347   8.544  1.00  0.00    -0.354 N 
ATOM     59  N   UNL     1      13.150   4.887   9.068  1.00  0.00    -0.248 NA
ATOM     60  C   UNL     1      12.876   6.823  10.345  1.00  0.00     0.031 C 
ATOM     61  C   UNL     1      16.186   1.752   9.892  1.00  0.00     0.029 A 
ATOM     62  C   UNL     1      15.255   2.748   9.651  1.00  0.00     0.049 A 
ATOM     63  H   UNL     1      13.781   2.855   8.143  1.00  0.00     0.167 HD
ATOM     64  C   UNL     1      14.101   4.902  10.080  1.00  0.00     0.074 A 
ATOM     65  C   UNL     1      13.906   6.135  10.816  1.00  0.00     0.031 C 
ATOM     66  C   UNL     1      15.050   3.979  10.373  1.00  0.00     0.037 A 
BRANCH  53  67
ATOM     67  C   UNL     1      15.009  -0.946   6.635  1.00  0.00     0.057 A 
ATOM     68  C   UNL     1      15.774  -1.170   5.482  1.00  0.00     0.134 A 
ATOM     69  C   UNL     1      14.812  -2.033   7.497  1.00  0.00     0.134 A 
ATOM     70  F   UNL     1      15.993  -0.176   4.607  1.00  0.00    -0.206 F 
ATOM     71  C   UNL     1      16.297  -2.430   5.183  1.00  0.00     0.040 A 
ATOM     72  C   UNL     1      15.354  -3.290   7.224  1.00  0.00     0.040 A 
ATOM     73  F   UNL     1      14.095  -1.889   8.622  1.00  0.00    -0.206 F 
ATOM     74  C   UNL     1      16.092  -3.493   6.060  1.00  0.00     0.006 A 
ENDBRANCH  53  67
BRANCH  54  75
ATOM     75  C   UNL     1      10.678   7.811   8.684  1.00  0.00     0.057 A 
ATOM     76  C   UNL     1      11.357   9.023   8.517  1.00  0.00     0.134 A 
ATOM     77  C   UNL     1       9.358   7.869   9.148  1.00  0.00     0.134 A 
ATOM     78  F   UNL     1      12.628   9.031   8.088  1.00  0.00    -0.206 F 
ATOM     79  C   UNL     1      10.756  10.246   8.818  1.00  0.00     0.040 A 
ATOM     80  C   UNL     1       8.736   9.086   9.429  1.00  0.00     0.040 A 
ATOM     81  F   UNL     1       8.650   6.743   9.318  1.00  0.00    -0.206 F 
ATOM     82  C   UNL     1       9.438  10.279   9.270  1.00  0.00     0.006 A 
ENDBRANCH  54  75
BRANCH  66  83
ATOM     83  C   UNL     1      15.972   4.287  11.516  1.00  0.00     0.057 A 
ATOM     84  C   UNL     1      15.538   4.266  12.848  1.00  0.00     0.134 A 
ATOM     85  C   UNL     1      17.319   4.592  11.281  1.00  0.00     0.134 A 
ATOM     86  F   UNL     1      14.257   3.993  13.141  1.00  0.00    -0.206 F 
ATOM     87  C   UNL     1      16.402   4.567  13.902  1.00  0.00     0.040 A 
ATOM     88  C   UNL     1      18.200   4.867  12.328  1.00  0.00     0.040 A 
ATOM     89  F   UNL     1      17.803   4.620  10.030  1.00  0.00    -0.206 F 
ATOM     90  C   UNL     1      17.739   4.864  13.643  1.00  0.00     0.006 A 
ENDBRANCH  66  83
ENDBRANCH  40  41
ENDBRANCH  32  35
ENDBRANCH  30  31
ENDBRANCH  29  30
ENDBRANCH  28  29
ENDBRANCH   1  28
TORSDOF 17
