REMARK SMILES CCn1ncc(NC(=O)[C@@H]2CCCC[C@@H]2C(=O)NCCCCCCNC(=O)c2ccc(-c3c4nc(c(-c5c(F)cccc5F)c5ccc([nH]5)c(-c5c(F)cccc5F)c5nc(c(-c6c(F)cccc6F)c6ccc3[nH]6)C=C5)C=C4)cc2)c1C(=O)Nc1cnn(C)c1C
REMARK SMILES IDX 20 1 19 2 18 3 16 4 17 5 15 7 10 8 11 9 12 10 14 11 13 12
REMARK SMILES IDX 8 13 7 14 9 16 6 17 3 18 4 19 82 20 5 21 2 22 1 23 83 24
REMARK SMILES IDX 84 25 85 26 86 28 87 29 91 30 88 31 89 32 92 33 90 34 21 35
REMARK SMILES IDX 22 36 23 37 24 38 25 39 26 40 27 42 28 43 29 44 81 45 30 46
REMARK SMILES IDX 80 47 31 48 32 49 33 50 74 51 34 52 79 53 73 54 75 55 35 56
REMARK SMILES IDX 78 57 72 58 71 59 36 61 62 62 45 63 61 64 46 65 49 66 60 67
REMARK SMILES IDX 76 68 47 69 48 70 59 72 77 73 50 74 37 75 38 76 43 77 39 78
REMARK SMILES IDX 40 79 42 80 44 81 41 82 63 83 64 84 69 85 65 86 66 87 68 88
REMARK SMILES IDX 70 89 67 90 51 91 52 92 57 93 53 94 54 95 56 96 58 97 55 98
REMARK H PARENT 18 6 7 15 85 27 25 41 75 60 49 71
REMARK Flexibility Score: inf
ROOT
ATOM      1  C   UNL     1       2.845  -8.858  -1.596  1.00  0.00     0.021 C 
ENDROOT
BRANCH   1   2
ATOM      2  C   UNL     1       2.418  -7.941  -0.461  1.00  0.00     0.116 C 
BRANCH   2   3
ATOM      3  N   UNL     1       2.974  -6.628  -0.671  1.00  0.00    -0.356 N 
ATOM      4  C   UNL     1       2.340  -5.586  -1.263  1.00  0.00     0.223 C 
ATOM      5  O   UNL     1       3.034  -4.784  -1.885  1.00  0.00    -0.275 OA
ATOM      6  H   UNL     1       3.895  -6.475  -0.357  1.00  0.00     0.163 HD
BRANCH   4   7
ATOM      7  C   UNL     1       0.823  -5.453  -1.055  1.00  0.00     0.091 C 
ATOM      8  C   UNL     1       0.306  -4.105  -1.643  1.00  0.00     0.091 C 
ATOM      9  C   UNL     1       1.011  -2.992  -0.879  1.00  0.00     0.014 C 
ATOM     10  C   UNL     1       0.704  -3.044   0.606  1.00  0.00     0.001 C 
ATOM     11  C   UNL     1       0.485  -5.510   0.459  1.00  0.00     0.014 C 
ATOM     12  C   UNL     1       1.112  -4.355   1.229  1.00  0.00     0.001 C 
BRANCH   8  13
ATOM     13  C   UNL     1       0.374  -4.117  -3.173  1.00  0.00     0.228 C 
ATOM     14  N   UNL     1       0.382  -3.027  -3.987  1.00  0.00    -0.322 N 
ATOM     15  H   UNL     1       0.275  -3.262  -4.937  1.00  0.00     0.170 HD
ATOM     16  O   UNL     1       0.383  -5.211  -3.764  1.00  0.00    -0.274 OA
BRANCH  14  17
ATOM     17  C   UNL     1       0.506  -1.662  -3.784  1.00  0.00     0.092 A 
ATOM     18  N   UNL     1       0.868   0.309  -2.972  1.00  0.00    -0.258 N 
ATOM     19  N   UNL     1       1.508   0.339  -4.163  1.00  0.00    -0.178 NA
ATOM     20  C   UNL     1      -0.041  -0.737  -2.876  1.00  0.00     0.150 A 
ATOM     21  C   UNL     1       1.331  -0.888  -4.630  1.00  0.00     0.162 A 
BRANCH  18  22
ATOM     22  C   UNL     1       1.382   1.233  -1.982  1.00  0.00     0.142 C 
ATOM     23  C   UNL     1       2.235   0.569  -0.912  1.00  0.00     0.029 C 
ENDBRANCH  18  22
BRANCH  20  24
ATOM     24  C   UNL     1      -1.225  -0.932  -2.023  1.00  0.00     0.276 C 
ATOM     25  O   UNL     1      -2.161  -1.643  -2.400  1.00  0.00    -0.267 OA
ATOM     26  N   UNL     1      -1.198  -0.633  -0.670  1.00  0.00    -0.318 N 
ATOM     27  H   UNL     1      -1.271  -1.409  -0.068  1.00  0.00     0.170 HD
BRANCH  26  28
ATOM     28  C   UNL     1      -1.085   0.587  -0.043  1.00  0.00     0.082 A 
ATOM     29  C   UNL     1      -1.536   1.854  -0.459  1.00  0.00     0.161 A 
ATOM     30  C   UNL     1      -0.533   0.801   1.211  1.00  0.00     0.059 A 
ATOM     31  N   UNL     1      -1.132   2.823   0.364  1.00  0.00    -0.179 NA
ATOM     32  N   UNL     1      -0.440   2.170   1.317  1.00  0.00    -0.271 N 
ATOM     33  C   UNL     1       0.046  -0.103   2.237  1.00  0.00     0.068 C 
ATOM     34  C   UNL     1       0.433   2.931   2.183  1.00  0.00     0.174 C 
ENDBRANCH  26  28
ENDBRANCH  20  24
ENDBRANCH  14  17
ENDBRANCH   8  13
ENDBRANCH   4   7
ENDBRANCH   2   3
ENDBRANCH   1   2
BRANCH   1  35
ATOM     35  C   UNL     1       4.364  -8.985  -1.743  1.00  0.00     0.002 C 
BRANCH  35  36
ATOM     36  C   UNL     1       5.144  -9.251  -0.445  1.00  0.00     0.002 C 
BRANCH  36  37
ATOM     37  C   UNL     1       4.625 -10.379   0.458  1.00  0.00     0.021 C 
BRANCH  37  38
ATOM     38  C   UNL     1       4.582 -11.731  -0.220  1.00  0.00     0.116 C 
BRANCH  38  39
ATOM     39  N   UNL     1       5.913 -12.227  -0.562  1.00  0.00    -0.352 N 
ATOM     40  C   UNL     1       6.236 -13.365  -1.280  1.00  0.00     0.251 C 
ATOM     41  H   UNL     1       6.672 -11.686  -0.243  1.00  0.00     0.163 HD
ATOM     42  O   UNL     1       7.334 -13.887  -1.192  1.00  0.00    -0.269 OA
BRANCH  40  43
ATOM     43  C   UNL     1       5.204 -13.922  -2.169  1.00  0.00     0.039 A 
ATOM     44  C   UNL     1       4.963 -15.292  -2.272  1.00  0.00     0.014 A 
ATOM     45  C   UNL     1       4.420 -13.007  -2.857  1.00  0.00     0.014 A 
ATOM     46  C   UNL     1       3.876 -15.714  -3.034  1.00  0.00     0.010 A 
ATOM     47  C   UNL     1       3.221 -13.404  -3.369  1.00  0.00     0.010 A 
ATOM     48  C   UNL     1       3.000 -14.755  -3.570  1.00  0.00    -0.014 A 
BRANCH  48  49
ATOM     49  C   UNL     1       1.819 -15.127  -4.333  1.00  0.00     0.031 A 
ATOM     50  C   UNL     1       0.935 -16.123  -3.676  1.00  0.00     0.074 A 
ATOM     51  C   UNL     1       1.461 -14.490  -5.472  1.00  0.00     0.049 A 
ATOM     52  N   UNL     1       0.742 -17.350  -4.025  1.00  0.00    -0.248 NA
ATOM     53  C   UNL     1       0.299 -15.759  -2.400  1.00  0.00     0.031 C 
ATOM     54  C   UNL     1       2.039 -13.293  -6.102  1.00  0.00     0.029 A 
ATOM     55  N   UNL     1       0.411 -14.764  -6.288  1.00  0.00    -0.354 N 
ATOM     56  C   UNL     1      -0.184 -17.871  -3.126  1.00  0.00     0.074 A 
ATOM     57  C   UNL     1      -0.299 -16.905  -2.064  1.00  0.00     0.031 C 
ATOM     58  C   UNL     1       1.198 -12.817  -7.046  1.00  0.00     0.029 A 
ATOM     59  C   UNL     1       0.133 -13.780  -7.229  1.00  0.00     0.049 A 
ATOM     60  H   UNL     1      -0.113 -15.595  -6.219  1.00  0.00     0.167 HD
ATOM     61  C   UNL     1      -0.928 -18.967  -3.440  1.00  0.00     0.037 A 
ATOM     62  C   UNL     1      -0.911 -13.768  -8.092  1.00  0.00     0.037 A 
ATOM     63  C   UNL     1      -0.383 -19.650  -4.587  1.00  0.00     0.049 A 
ATOM     64  C   UNL     1      -1.398 -15.167  -8.198  1.00  0.00     0.074 A 
ATOM     65  C   UNL     1       0.807 -20.297  -4.853  1.00  0.00     0.029 A 
ATOM     66  N   UNL     1      -0.946 -19.382  -5.811  1.00  0.00    -0.354 N 
ATOM     67  N   UNL     1      -0.703 -16.132  -8.736  1.00  0.00    -0.248 NA
ATOM     68  C   UNL     1      -2.435 -15.585  -7.267  1.00  0.00     0.031 C 
ATOM     69  C   UNL     1       1.126 -19.936  -6.195  1.00  0.00     0.029 A 
ATOM     70  C   UNL     1       0.081 -19.156  -6.692  1.00  0.00     0.049 A 
ATOM     71  H   UNL     1      -1.908 -19.357  -6.018  1.00  0.00     0.167 HD
ATOM     72  C   UNL     1      -0.920 -17.229  -7.913  1.00  0.00     0.074 A 
ATOM     73  C   UNL     1      -2.050 -16.849  -7.065  1.00  0.00     0.031 C 
ATOM     74  C   UNL     1       0.009 -18.222  -7.794  1.00  0.00     0.037 A 
BRANCH  61  75
ATOM     75  C   UNL     1      -2.326 -19.236  -2.950  1.00  0.00     0.057 A 
ATOM     76  C   UNL     1      -2.925 -20.479  -3.233  1.00  0.00     0.134 A 
ATOM     77  C   UNL     1      -3.205 -18.240  -2.482  1.00  0.00     0.134 A 
ATOM     78  F   UNL     1      -2.196 -21.509  -3.688  1.00  0.00    -0.206 F 
ATOM     79  C   UNL     1      -4.307 -20.685  -3.140  1.00  0.00     0.040 A 
ATOM     80  C   UNL     1      -4.579 -18.451  -2.338  1.00  0.00     0.040 A 
ATOM     81  F   UNL     1      -2.804 -16.988  -2.237  1.00  0.00    -0.206 F 
ATOM     82  C   UNL     1      -5.140 -19.665  -2.701  1.00  0.00     0.006 A 
ENDBRANCH  61  75
BRANCH  62  83
ATOM     83  C   UNL     1      -1.712 -12.607  -8.536  1.00  0.00     0.057 A 
ATOM     84  C   UNL     1      -2.543 -12.685  -9.661  1.00  0.00     0.134 A 
ATOM     85  C   UNL     1      -1.901 -11.490  -7.702  1.00  0.00     0.134 A 
ATOM     86  F   UNL     1      -2.464 -13.734 -10.492  1.00  0.00    -0.206 F 
ATOM     87  C   UNL     1      -3.527 -11.723  -9.928  1.00  0.00     0.040 A 
ATOM     88  C   UNL     1      -2.877 -10.521  -7.958  1.00  0.00     0.040 A 
ATOM     89  F   UNL     1      -1.208 -11.354  -6.562  1.00  0.00    -0.206 F 
ATOM     90  C   UNL     1      -3.705 -10.643  -9.067  1.00  0.00     0.006 A 
ENDBRANCH  62  83
BRANCH  74  91
ATOM     91  C   UNL     1       1.184 -18.213  -8.735  1.00  0.00     0.057 A 
ATOM     92  C   UNL     1       2.186 -17.230  -8.735  1.00  0.00     0.134 A 
ATOM     93  C   UNL     1       1.408 -19.338  -9.535  1.00  0.00     0.134 A 
ATOM     94  F   UNL     1       2.108 -16.160  -7.935  1.00  0.00    -0.206 F 
ATOM     95  C   UNL     1       3.344 -17.352  -9.511  1.00  0.00     0.040 A 
ATOM     96  C   UNL     1       2.573 -19.487 -10.292  1.00  0.00     0.040 A 
ATOM     97  F   UNL     1       0.520 -20.345  -9.545  1.00  0.00    -0.206 F 
ATOM     98  C   UNL     1       3.544 -18.490 -10.285  1.00  0.00     0.006 A 
ENDBRANCH  74  91
ENDBRANCH  48  49
ENDBRANCH  40  43
ENDBRANCH  38  39
ENDBRANCH  37  38
ENDBRANCH  36  37
ENDBRANCH  35  36
ENDBRANCH   1  35
TORSDOF 18
