REMARK SMILES CCC[C@H](C)C[N@H+]1[C@@H]2CC[C@H]1C[C@H](CC(=O)NCCCCCCNC(=O)c1ccc(-c3c4nc(c(-c5c(F)cccc5F)c5ccc([nH]5)c(-c5c(F)cccc5F)c5nc(c(-c6c(F)cccc6F)c6ccc3[nH]6)C=C5)C=C4)cc1)C2
REMARK SMILES IDX 19 1 18 2 17 3 15 4 16 5 14 7 13 8 7 9 8 10 11 11 9 13 81 14
REMARK SMILES IDX 10 15 12 16 6 17 4 18 5 19 3 20 2 21 1 22 20 23 21 24 22 25
REMARK SMILES IDX 23 26 24 27 25 28 26 30 27 31 28 32 80 33 29 34 79 35 30 36
REMARK SMILES IDX 31 37 32 38 73 39 33 40 78 41 72 42 74 43 34 44 77 45 71 46
REMARK SMILES IDX 70 47 35 49 61 50 44 51 60 52 45 53 48 54 59 55 75 56 46 57
REMARK SMILES IDX 47 58 58 60 76 61 49 62 36 63 37 64 42 65 38 66 39 67 41 68
REMARK SMILES IDX 43 69 40 70 62 71 63 72 68 73 64 74 65 75 67 76 69 77 66 78
REMARK SMILES IDX 50 79 51 80 56 81 52 82 53 83 55 84 57 85 54 86
REMARK H PARENT 17 6 7 12 24 29 74 48 48 59
REMARK Flexibility Score: inf
ROOT
ATOM      1  C   UNL     1       1.845   6.638  -0.846  1.00  0.00     0.021 C 
ENDROOT
BRANCH   1   2
ATOM      2  C   UNL     1       0.881   5.633  -1.486  1.00  0.00     0.116 C 
BRANCH   2   3
ATOM      3  N   UNL     1       1.572   4.838  -2.487  1.00  0.00    -0.356 N 
ATOM      4  C   UNL     1       2.102   3.585  -2.426  1.00  0.00     0.220 C 
ATOM      5  O   UNL     1       2.772   3.194  -3.385  1.00  0.00    -0.275 OA
ATOM      6  H   UNL     1       1.674   5.282  -3.360  1.00  0.00     0.163 HD
BRANCH   4   7
ATOM      7  C   UNL     1       1.854   2.673  -1.238  1.00  0.00     0.104 C 
BRANCH   7   8
ATOM      8  C   UNL     1       2.949   2.703  -0.147  1.00  0.00     0.010 C 
ATOM      9  N   UNL     1       2.578   2.624   2.795  1.00  0.00    -0.330 N 
ATOM     10  C   UNL     1       3.269   1.512   2.148  1.00  0.00     0.184 C 
ATOM     11  C   UNL     1       3.218   3.800   2.204  1.00  0.00     0.184 C 
ATOM     12  H   UNL     1       2.688   2.481   3.799  1.00  0.00     0.348 HD
ATOM     13  C   UNL     1       4.734   1.942   2.349  1.00  0.00     0.071 C 
ATOM     14  C   UNL     1       2.966   1.372   0.646  1.00  0.00     0.069 C 
ATOM     15  C   UNL     1       4.703   3.465   2.310  1.00  0.00     0.071 C 
ATOM     16  C   UNL     1       2.791   3.948   0.745  1.00  0.00     0.069 C 
BRANCH   9  17
ATOM     17  C   UNL     1       1.120   2.716   2.947  1.00  0.00     0.265 C 
BRANCH  17  18
ATOM     18  C   UNL     1       0.138   1.722   2.275  1.00  0.00     0.041 C 
ATOM     19  C   UNL     1       0.170   0.344   2.937  1.00  0.00     0.013 C 
BRANCH  18  20
ATOM     20  C   UNL     1      -1.322   2.253   2.311  1.00  0.00     0.009 C 
BRANCH  20  21
ATOM     21  C   UNL     1      -1.685   3.134   1.107  1.00  0.00    -0.003 C 
ATOM     22  C   UNL     1      -1.908   2.333  -0.172  1.00  0.00     0.004 C 
ENDBRANCH  20  21
ENDBRANCH  18  20
ENDBRANCH  17  18
ENDBRANCH   9  17
ENDBRANCH   7   8
ENDBRANCH   4   7
ENDBRANCH   2   3
ENDBRANCH   1   2
BRANCH   1  23
ATOM     23  C   UNL     1       1.834   8.023  -1.490  1.00  0.00     0.002 C 
BRANCH  23  24
ATOM     24  C   UNL     1       0.608   8.874  -1.151  1.00  0.00     0.002 C 
BRANCH  24  25
ATOM     25  C   UNL     1       0.381   9.147   0.340  1.00  0.00     0.021 C 
BRANCH  25  26
ATOM     26  C   UNL     1       1.580   9.717   1.095  1.00  0.00     0.116 C 
BRANCH  26  27
ATOM     27  N   UNL     1       2.047  10.971   0.518  1.00  0.00    -0.352 N 
ATOM     28  C   UNL     1       2.085  12.225   1.062  1.00  0.00     0.251 C 
ATOM     29  H   UNL     1       2.389  10.905  -0.403  1.00  0.00     0.163 HD
ATOM     30  O   UNL     1       2.311  13.201   0.344  1.00  0.00    -0.269 OA
BRANCH  28  31
ATOM     31  C   UNL     1       1.846  12.423   2.505  1.00  0.00     0.039 A 
ATOM     32  C   UNL     1       1.013  13.468   2.917  1.00  0.00     0.014 A 
ATOM     33  C   UNL     1       2.468  11.605   3.453  1.00  0.00     0.014 A 
ATOM     34  C   UNL     1       0.762  13.657   4.277  1.00  0.00     0.010 A 
ATOM     35  C   UNL     1       2.164  11.754   4.804  1.00  0.00     0.010 A 
ATOM     36  C   UNL     1       1.313  12.785   5.230  1.00  0.00    -0.014 A 
BRANCH  36  37
ATOM     37  C   UNL     1       1.014  12.943   6.676  1.00  0.00     0.031 A 
ATOM     38  C   UNL     1       2.109  13.301   7.642  1.00  0.00     0.074 A 
ATOM     39  C   UNL     1      -0.233  12.708   7.126  1.00  0.00     0.049 A 
ATOM     40  N   UNL     1       2.054  13.432   8.943  1.00  0.00    -0.248 NA
ATOM     41  C   UNL     1       3.450  13.515   7.074  1.00  0.00     0.031 C 
ATOM     42  C   UNL     1      -1.371  12.307   6.295  1.00  0.00     0.029 A 
ATOM     43  N   UNL     1      -0.752  12.764   8.395  1.00  0.00    -0.354 N 
ATOM     44  C   UNL     1       3.349  13.729   9.349  1.00  0.00     0.074 A 
ATOM     45  C   UNL     1       4.178  13.708   8.164  1.00  0.00     0.031 C 
ATOM     46  C   UNL     1      -2.457  12.175   7.073  1.00  0.00     0.029 A 
ATOM     47  C   UNL     1      -2.087  12.448   8.458  1.00  0.00     0.049 A 
ATOM     48  H   UNL     1      -0.217  13.007   9.185  1.00  0.00     0.167 HD
ATOM     49  C   UNL     1       3.802  14.017  10.593  1.00  0.00     0.037 A 
ATOM     50  C   UNL     1      -2.918  12.383   9.515  1.00  0.00     0.037 A 
ATOM     51  C   UNL     1       2.970  14.060  11.767  1.00  0.00     0.049 A 
ATOM     52  C   UNL     1      -2.392  12.709  10.885  1.00  0.00     0.074 A 
ATOM     53  C   UNL     1       3.322  14.398  13.062  1.00  0.00     0.029 A 
ATOM     54  N   UNL     1       1.617  13.754  11.787  1.00  0.00    -0.354 N 
ATOM     55  N   UNL     1      -1.179  13.055  11.244  1.00  0.00    -0.248 NA
ATOM     56  C   UNL     1      -3.352  12.644  11.995  1.00  0.00     0.031 C 
ATOM     57  C   UNL     1       2.192  14.256  13.874  1.00  0.00     0.029 A 
ATOM     58  C   UNL     1       1.125  13.876  13.076  1.00  0.00     0.049 A 
ATOM     59  H   UNL     1       1.086  13.489  11.002  1.00  0.00     0.167 HD
ATOM     60  C   UNL     1      -1.237  13.276  12.614  1.00  0.00     0.074 A 
ATOM     61  C   UNL     1      -2.607  13.040  13.018  1.00  0.00     0.031 C 
ATOM     62  C   UNL     1      -0.244  13.643  13.461  1.00  0.00     0.037 A 
BRANCH  49  63
ATOM     63  C   UNL     1       5.266  14.311  10.745  1.00  0.00     0.057 A 
ATOM     64  C   UNL     1       5.838  15.489  10.246  1.00  0.00     0.134 A 
ATOM     65  C   UNL     1       6.109  13.422  11.423  1.00  0.00     0.134 A 
ATOM     66  F   UNL     1       5.089  16.378   9.576  1.00  0.00    -0.206 F 
ATOM     67  C   UNL     1       7.200  15.760  10.393  1.00  0.00     0.040 A 
ATOM     68  C   UNL     1       7.467  13.694  11.600  1.00  0.00     0.040 A 
ATOM     69  F   UNL     1       5.627  12.278  11.932  1.00  0.00    -0.206 F 
ATOM     70  C   UNL     1       8.017  14.863  11.078  1.00  0.00     0.006 A 
ENDBRANCH  49  63
BRANCH  50  71
ATOM     71  C   UNL     1      -4.344  12.020   9.317  1.00  0.00     0.057 A 
ATOM     72  C   UNL     1      -5.359  12.971   9.478  1.00  0.00     0.134 A 
ATOM     73  C   UNL     1      -4.728  10.720   8.970  1.00  0.00     0.134 A 
ATOM     74  F   UNL     1      -5.054  14.229   9.828  1.00  0.00    -0.206 F 
ATOM     75  C   UNL     1      -6.705  12.638   9.321  1.00  0.00     0.040 A 
ATOM     76  C   UNL     1      -6.069  10.378   8.785  1.00  0.00     0.040 A 
ATOM     77  F   UNL     1      -3.803   9.765   8.792  1.00  0.00    -0.206 F 
ATOM     78  C   UNL     1      -7.062  11.338   8.969  1.00  0.00     0.006 A 
ENDBRANCH  50  71
BRANCH  62  79
ATOM     79  C   UNL     1      -0.614  13.844  14.902  1.00  0.00     0.057 A 
ATOM     80  C   UNL     1      -0.913  12.768  15.746  1.00  0.00     0.134 A 
ATOM     81  C   UNL     1      -0.640  15.130  15.456  1.00  0.00     0.134 A 
ATOM     82  F   UNL     1      -0.918  11.512  15.273  1.00  0.00    -0.206 F 
ATOM     83  C   UNL     1      -1.252  12.966  17.086  1.00  0.00     0.040 A 
ATOM     84  C   UNL     1      -0.951  15.338  16.800  1.00  0.00     0.040 A 
ATOM     85  F   UNL     1      -0.355  16.203  14.704  1.00  0.00    -0.206 F 
ATOM     86  C   UNL     1      -1.265  14.254  17.618  1.00  0.00     0.006 A 
ENDBRANCH  62  79
ENDBRANCH  36  37
ENDBRANCH  28  31
ENDBRANCH  26  27
ENDBRANCH  25  26
ENDBRANCH  24  25
ENDBRANCH  23  24
ENDBRANCH   1  23
TORSDOF 18
