REMARK SMILES COc1cc(OC)c([C@H]2CC(=O)Nc3c(C(=O)NCCCCCCNC(=O)c4ccc(-c5c6nc(c(-c7c(F)cccc7F)c7ccc([nH]7)c(-c7c(F)cccc7F)c7nc(c(-c8c(F)cccc8F)c8ccc5[nH]8)C=C7)C=C6)cc4)cn(-c4ccccc4)c32)cc1OC
REMARK SMILES IDX 21 1 20 2 19 3 18 4 16 5 17 6 15 8 9 9 10 10 90 11 11 12
REMARK SMILES IDX 14 13 83 14 12 15 13 16 82 17 8 19 3 20 4 21 92 22 5 23
REMARK SMILES IDX 91 24 2 25 1 26 93 27 94 28 6 29 7 30 84 31 85 32 89 33
REMARK SMILES IDX 86 34 88 35 87 36 22 37 23 38 24 39 25 40 26 41 27 43 28 44
REMARK SMILES IDX 29 45 81 46 30 47 80 48 31 49 32 50 33 51 74 52 34 53 79 54
REMARK SMILES IDX 73 55 75 56 35 57 78 58 72 59 71 60 36 62 62 63 45 64 61 65
REMARK SMILES IDX 46 66 49 67 60 68 76 69 47 70 48 71 59 73 77 74 50 75 37 76
REMARK SMILES IDX 38 77 43 78 39 79 40 80 42 81 44 82 41 83 63 84 64 85 69 86
REMARK SMILES IDX 65 87 66 88 68 89 70 90 67 91 51 92 52 93 57 94 53 95 54 96
REMARK SMILES IDX 56 97 58 98 55 99
REMARK H PARENT 18 7 13 18 25 42 75 61 49 72
REMARK Flexibility Score: inf
ROOT
ATOM      1  C   UNL     1       9.034   3.889   7.352  1.00  0.00     0.002 C 
ENDROOT
BRANCH   1   2
ATOM      2  C   UNL     1       7.575   3.830   6.894  1.00  0.00     0.021 C 
BRANCH   2   3
ATOM      3  C   UNL     1       7.090   2.401   6.621  1.00  0.00     0.116 C 
BRANCH   3   4
ATOM      4  N   UNL     1       6.301   1.910   7.716  1.00  0.00    -0.352 N 
ATOM      5  C   UNL     1       4.964   1.895   7.976  1.00  0.00     0.254 C 
ATOM      6  O   UNL     1       4.653   1.285   9.005  1.00  0.00    -0.269 OA
ATOM      7  H   UNL     1       6.841   1.496   8.428  1.00  0.00     0.163 HD
BRANCH   5   8
ATOM      8  C   UNL     1       3.925   2.526   7.149  1.00  0.00     0.081 A 
ATOM      9  C   UNL     1       2.011   4.847   4.898  1.00  0.00     0.082 C 
ATOM     10  C   UNL     1       3.134   5.882   4.751  1.00  0.00     0.115 C 
ATOM     11  C   UNL     1       2.484   3.758   5.852  1.00  0.00     0.055 A 
ATOM     12  C   UNL     1       4.463   5.218   4.525  1.00  0.00     0.225 C 
ATOM     13  C   UNL     1       3.824   3.493   6.103  1.00  0.00     0.076 A 
ATOM     14  N   UNL     1       1.736   2.841   6.566  1.00  0.00    -0.317 N 
ATOM     15  O   UNL     1       5.302   5.653   3.739  1.00  0.00    -0.275 OA
ATOM     16  N   UNL     1       4.757   4.162   5.344  1.00  0.00    -0.324 N 
ATOM     17  C   UNL     1       2.596   2.208   7.428  1.00  0.00     0.107 A 
ATOM     18  H   UNL     1       5.693   3.863   5.394  1.00  0.00     0.170 HD
BRANCH   9  19
ATOM     19  C   UNL     1       0.733   5.610   5.221  1.00  0.00     0.008 A 
ATOM     20  C   UNL     1      -1.702   6.918   5.922  1.00  0.00     0.164 A 
ATOM     21  C   UNL     1      -1.236   6.893   4.603  1.00  0.00     0.097 A 
ATOM     22  C   UNL     1      -0.907   6.359   6.919  1.00  0.00     0.161 A 
ATOM     23  C   UNL     1      -0.026   6.278   4.245  1.00  0.00     0.126 A 
ATOM     24  C   UNL     1       0.309   5.753   6.564  1.00  0.00     0.058 A 
BRANCH  20  25
ATOM     25  O   UNL     1      -2.936   7.486   6.059  1.00  0.00    -0.493 OA
ATOM     26  C   UNL     1      -3.121   8.384   7.144  1.00  0.00     0.278 C 
ENDBRANCH  20  25
BRANCH  22  27
ATOM     27  O   UNL     1      -1.146   6.431   8.264  1.00  0.00    -0.493 OA
ATOM     28  C   UNL     1      -2.340   5.785   8.695  1.00  0.00     0.278 C 
ENDBRANCH  22  27
BRANCH  23  29
ATOM     29  O   UNL     1       0.372   6.608   2.975  1.00  0.00    -0.496 OA
ATOM     30  C   UNL     1       0.846   5.596   2.104  1.00  0.00     0.278 C 
ENDBRANCH  23  29
ENDBRANCH   9  19
BRANCH  14  31
ATOM     31  C   UNL     1       0.342   2.600   6.521  1.00  0.00     0.045 A 
ATOM     32  C   UNL     1      -0.330   2.547   5.296  1.00  0.00     0.026 A 
ATOM     33  C   UNL     1      -0.367   2.486   7.724  1.00  0.00     0.026 A 
ATOM     34  C   UNL     1      -1.721   2.442   5.281  1.00  0.00     0.002 A 
ATOM     35  C   UNL     1      -1.758   2.405   7.699  1.00  0.00     0.002 A 
ATOM     36  C   UNL     1      -2.434   2.396   6.480  1.00  0.00     0.000 A 
ENDBRANCH  14  31
ENDBRANCH   5   8
ENDBRANCH   3   4
ENDBRANCH   2   3
ENDBRANCH   1   2
BRANCH   1  37
ATOM     37  C   UNL     1      10.043   3.365   6.318  1.00  0.00     0.002 C 
BRANCH  37  38
ATOM     38  C   UNL     1      10.027   4.072   4.953  1.00  0.00     0.021 C 
BRANCH  38  39
ATOM     39  C   UNL     1      10.600   5.480   5.010  1.00  0.00     0.116 C 
BRANCH  39  40
ATOM     40  N   UNL     1      12.017   5.452   5.359  1.00  0.00    -0.352 N 
ATOM     41  C   UNL     1      12.891   6.495   5.556  1.00  0.00     0.251 C 
ATOM     42  H   UNL     1      12.404   4.553   5.471  1.00  0.00     0.163 HD
ATOM     43  O   UNL     1      14.096   6.310   5.529  1.00  0.00    -0.269 OA
BRANCH  41  44
ATOM     44  C   UNL     1      12.353   7.845   5.790  1.00  0.00     0.039 A 
ATOM     45  C   UNL     1      12.960   8.946   5.182  1.00  0.00     0.014 A 
ATOM     46  C   UNL     1      11.244   8.005   6.619  1.00  0.00     0.014 A 
ATOM     47  C   UNL     1      12.394  10.204   5.354  1.00  0.00     0.010 A 
ATOM     48  C   UNL     1      10.620   9.228   6.698  1.00  0.00     0.010 A 
ATOM     49  C   UNL     1      11.209  10.336   6.095  1.00  0.00    -0.014 A 
BRANCH  49  50
ATOM     50  C   UNL     1      10.506  11.615   6.108  1.00  0.00     0.031 A 
ATOM     51  C   UNL     1      10.171  12.139   4.753  1.00  0.00     0.074 A 
ATOM     52  C   UNL     1      10.004  12.179   7.227  1.00  0.00     0.049 A 
ATOM     53  N   UNL     1      10.609  13.216   4.189  1.00  0.00    -0.248 NA
ATOM     54  C   UNL     1       9.353  11.295   3.865  1.00  0.00     0.031 C 
ATOM     55  C   UNL     1       9.965  11.620   8.583  1.00  0.00     0.029 A 
ATOM     56  N   UNL     1       9.314  13.345   7.366  1.00  0.00    -0.354 N 
ATOM     57  C   UNL     1       9.965  13.294   2.956  1.00  0.00     0.074 A 
ATOM     58  C   UNL     1       9.353  12.011   2.739  1.00  0.00     0.031 C 
ATOM     59  C   UNL     1       9.095  12.326   9.338  1.00  0.00     0.029 A 
ATOM     60  C   UNL     1       8.645  13.478   8.578  1.00  0.00     0.049 A 
ATOM     61  H   UNL     1       9.292  14.037   6.666  1.00  0.00     0.167 HD
ATOM     62  C   UNL     1       9.784  14.494   2.336  1.00  0.00     0.037 A 
ATOM     63  C   UNL     1       7.761  14.448   8.919  1.00  0.00     0.037 A 
ATOM     64  C   UNL     1      10.666  15.494   2.886  1.00  0.00     0.049 A 
ATOM     65  C   UNL     1       7.961  15.579   7.983  1.00  0.00     0.074 A 
ATOM     66  C   UNL     1      12.035  15.634   3.006  1.00  0.00     0.029 A 
ATOM     67  N   UNL     1      10.121  16.400   3.761  1.00  0.00    -0.354 N 
ATOM     68  N   UNL     1       9.018  16.339   7.971  1.00  0.00    -0.248 NA
ATOM     69  C   UNL     1       7.163  15.600   6.767  1.00  0.00     0.031 C 
ATOM     70  C   UNL     1      12.232  16.257   4.274  1.00  0.00     0.029 A 
ATOM     71  C   UNL     1      10.976  16.523   4.822  1.00  0.00     0.049 A 
ATOM     72  H   UNL     1       9.267  16.877   3.646  1.00  0.00     0.167 HD
ATOM     73  C   UNL     1       9.267  16.569   6.627  1.00  0.00     0.074 A 
ATOM     74  C   UNL     1       8.034  16.186   5.942  1.00  0.00     0.031 C 
ATOM     75  C   UNL     1      10.540  16.770   6.176  1.00  0.00     0.037 A 
BRANCH  62  76
ATOM     76  C   UNL     1       8.547  14.876   1.548  1.00  0.00     0.057 A 
ATOM     77  C   UNL     1       8.499  16.143   0.933  1.00  0.00     0.134 A 
ATOM     78  C   UNL     1       7.307  14.212   1.632  1.00  0.00     0.134 A 
ATOM     79  F   UNL     1       9.610  16.881   0.784  1.00  0.00    -0.206 F 
ATOM     80  C   UNL     1       7.297  16.746   0.541  1.00  0.00     0.040 A 
ATOM     81  C   UNL     1       6.108  14.785   1.196  1.00  0.00     0.040 A 
ATOM     82  F   UNL     1       7.160  13.024   2.228  1.00  0.00    -0.206 F 
ATOM     83  C   UNL     1       6.093  16.071   0.685  1.00  0.00     0.006 A 
ENDBRANCH  62  76
BRANCH  63  84
ATOM     84  C   UNL     1       6.588  14.382   9.819  1.00  0.00     0.057 A 
ATOM     85  C   UNL     1       5.978  15.550  10.299  1.00  0.00     0.134 A 
ATOM     86  C   UNL     1       5.864  13.190   9.995  1.00  0.00     0.134 A 
ATOM     87  F   UNL     1       6.575  16.741  10.147  1.00  0.00    -0.206 F 
ATOM     88  C   UNL     1       4.706  15.541  10.886  1.00  0.00     0.040 A 
ATOM     89  C   UNL     1       4.596  13.166  10.585  1.00  0.00     0.040 A 
ATOM     90  F   UNL     1       6.322  12.024   9.517  1.00  0.00    -0.206 F 
ATOM     91  C   UNL     1       4.004  14.347  11.017  1.00  0.00     0.006 A 
ENDBRANCH  63  84
BRANCH  75  92
ATOM     92  C   UNL     1      11.613  17.041   7.194  1.00  0.00     0.057 A 
ATOM     93  C   UNL     1      12.011  16.139   8.193  1.00  0.00     0.134 A 
ATOM     94  C   UNL     1      12.367  18.213   7.065  1.00  0.00     0.134 A 
ATOM     95  F   UNL     1      11.415  14.949   8.334  1.00  0.00    -0.206 F 
ATOM     96  C   UNL     1      13.082  16.414   9.049  1.00  0.00     0.040 A 
ATOM     97  C   UNL     1      13.461  18.483   7.890  1.00  0.00     0.040 A 
ATOM     98  F   UNL     1      12.079  19.099   6.098  1.00  0.00    -0.206 F 
ATOM     99  C   UNL     1      13.815  17.587   8.894  1.00  0.00     0.006 A 
ENDBRANCH  75  92
ENDBRANCH  49  50
ENDBRANCH  41  44
ENDBRANCH  39  40
ENDBRANCH  38  39
ENDBRANCH  37  38
ENDBRANCH   1  37
TORSDOF 18
