REMARK SMILES Cn1nc(C(=O)NCCCCCCNC(=O)c2ccc(-c3c4nc(c(-c5c(F)cccc5F)c5ccc([nH]5)c(-c5c(F)cccc5F)c5nc(c(-c6c(F)cccc6F)c6ccc3[nH]6)C=C5)C=C4)cc2)cc1C1CC1
REMARK SMILES IDX 11 1 10 2 9 3 8 4 7 5 5 6 6 7 4 9 1 10 2 11 3 12 72 13 71 14
REMARK SMILES IDX 73 15 74 16 75 17 12 18 13 19 14 20 15 21 16 23 17 24 18 25
REMARK SMILES IDX 70 26 19 27 69 28 20 29 21 30 22 31 63 32 23 33 68 34 62 35
REMARK SMILES IDX 64 36 24 37 67 38 61 39 60 40 25 42 51 43 34 44 50 45 35 46
REMARK SMILES IDX 38 47 49 48 65 49 36 50 37 51 48 53 66 54 39 55 26 56 27 57
REMARK SMILES IDX 32 58 28 59 29 60 31 61 33 62 30 63 52 64 53 65 58 66 54 67
REMARK SMILES IDX 55 68 57 69 59 70 56 71 40 72 41 73 46 74 42 75 43 76 45 77
REMARK SMILES IDX 47 78 44 79
REMARK H PARENT 7 8 14 22 64 41 38 52
REMARK Flexibility Score: inf
ROOT
ATOM      1  C   UNL     1       7.323  -0.079  -0.307  1.00  0.00     0.002 C 
ENDROOT
BRANCH   1   2
ATOM      2  C   UNL     1       6.283   0.289  -1.375  1.00  0.00     0.002 C 
BRANCH   2   3
ATOM      3  C   UNL     1       4.913  -0.378  -1.194  1.00  0.00     0.021 C 
BRANCH   3   4
ATOM      4  C   UNL     1       4.242   0.002   0.127  1.00  0.00     0.116 C 
BRANCH   4   5
ATOM      5  N   UNL     1       3.519   1.245  -0.010  1.00  0.00    -0.351 N 
ATOM      6  C   UNL     1       2.184   1.539  -0.168  1.00  0.00     0.271 C 
ATOM      7  O   UNL     1       1.921   2.743  -0.258  1.00  0.00    -0.267 OA
ATOM      8  H   UNL     1       4.097   2.042   0.015  1.00  0.00     0.163 HD
BRANCH   6   9
ATOM      9  C   UNL     1       1.136   0.493  -0.191  1.00  0.00     0.150 A 
ATOM     10  C   UNL     1      -2.296  -0.180  -0.063  1.00  0.00     0.174 C 
ATOM     11  N   UNL     1      -0.861  -0.300  -0.081  1.00  0.00    -0.272 N 
ATOM     12  N   UNL     1      -0.161   0.851  -0.096  1.00  0.00    -0.168 NA
ATOM     13  C   UNL     1      -0.058  -1.403  -0.078  1.00  0.00     0.042 A 
ATOM     14  C   UNL     1       1.214  -0.918  -0.293  1.00  0.00     0.059 A 
BRANCH  13  15
ATOM     15  C   UNL     1      -0.312  -2.886   0.132  1.00  0.00     0.038 C 
ATOM     16  C   UNL     1      -1.449  -3.330   1.022  1.00  0.00     0.010 C 
ATOM     17  C   UNL     1      -1.511  -3.583  -0.448  1.00  0.00     0.010 C 
ENDBRANCH  13  15
ENDBRANCH   6   9
ENDBRANCH   4   5
ENDBRANCH   3   4
ENDBRANCH   2   3
ENDBRANCH   1   2
BRANCH   1  18
ATOM     18  C   UNL     1       7.553  -1.581  -0.127  1.00  0.00     0.021 C 
BRANCH  18  19
ATOM     19  C   UNL     1       8.082  -2.279  -1.374  1.00  0.00     0.116 C 
BRANCH  19  20
ATOM     20  N   UNL     1       9.397  -1.783  -1.749  1.00  0.00    -0.352 N 
ATOM     21  C   UNL     1      10.588  -2.458  -1.841  1.00  0.00     0.251 C 
ATOM     22  H   UNL     1       9.439  -0.824  -1.968  1.00  0.00     0.163 HD
ATOM     23  O   UNL     1      11.645  -1.845  -1.933  1.00  0.00    -0.269 OA
BRANCH  21  24
ATOM     24  C   UNL     1      10.590  -3.934  -1.815  1.00  0.00     0.039 A 
ATOM     25  C   UNL     1      11.526  -4.599  -1.020  1.00  0.00     0.014 A 
ATOM     26  C   UNL     1       9.666  -4.658  -2.575  1.00  0.00     0.014 A 
ATOM     27  C   UNL     1      11.495  -5.992  -0.940  1.00  0.00     0.010 A 
ATOM     28  C   UNL     1       9.585  -6.039  -2.432  1.00  0.00     0.010 A 
ATOM     29  C   UNL     1      10.501  -6.720  -1.616  1.00  0.00    -0.014 A 
BRANCH  29  30
ATOM     30  C   UNL     1      10.404  -8.195  -1.480  1.00  0.00     0.031 A 
ATOM     31  C   UNL     1      10.600  -9.080  -2.679  1.00  0.00     0.074 A 
ATOM     32  C   UNL     1      10.081  -8.732  -0.287  1.00  0.00     0.049 A 
ATOM     33  N   UNL     1      10.501 -10.382  -2.769  1.00  0.00    -0.248 NA
ATOM     34  C   UNL     1      10.925  -8.414  -3.950  1.00  0.00     0.031 C 
ATOM     35  C   UNL     1       9.819  -7.976   0.940  1.00  0.00     0.029 A 
ATOM     36  N   UNL     1       9.909 -10.041   0.088  1.00  0.00    -0.354 N 
ATOM     37  C   UNL     1      10.741 -10.687  -4.103  1.00  0.00     0.074 A 
ATOM     38  C   UNL     1      10.931  -9.433  -4.797  1.00  0.00     0.031 C 
ATOM     39  C   UNL     1       9.547  -8.834   1.935  1.00  0.00     0.029 A 
ATOM     40  C   UNL     1       9.573 -10.195   1.411  1.00  0.00     0.049 A 
ATOM     41  H   UNL     1      10.016 -10.798  -0.532  1.00  0.00     0.167 HD
ATOM     42  C   UNL     1      10.822 -11.904  -4.691  1.00  0.00     0.037 A 
ATOM     43  C   UNL     1       9.307 -11.309   2.120  1.00  0.00     0.037 A 
ATOM     44  C   UNL     1      10.650 -13.151  -3.993  1.00  0.00     0.049 A 
ATOM     45  C   UNL     1       9.383 -12.648   1.438  1.00  0.00     0.074 A 
ATOM     46  C   UNL     1      10.766 -14.438  -4.488  1.00  0.00     0.029 A 
ATOM     47  N   UNL     1      10.320 -13.267  -2.651  1.00  0.00    -0.354 N 
ATOM     48  N   UNL     1       9.683 -12.925   0.192  1.00  0.00    -0.248 NA
ATOM     49  C   UNL     1       9.089 -13.829   2.261  1.00  0.00     0.031 C 
ATOM     50  C   UNL     1      10.454 -15.332  -3.459  1.00  0.00     0.029 A 
ATOM     51  C   UNL     1      10.203 -14.603  -2.308  1.00  0.00     0.049 A 
ATOM     52  H   UNL     1      10.189 -12.511  -2.034  1.00  0.00     0.167 HD
ATOM     53  C   UNL     1       9.648 -14.310   0.091  1.00  0.00     0.074 A 
ATOM     54  C   UNL     1       9.310 -14.816   1.405  1.00  0.00     0.031 C 
ATOM     55  C   UNL     1       9.877 -15.092  -0.992  1.00  0.00     0.037 A 
BRANCH  42  56
ATOM     56  C   UNL     1      11.113 -11.946  -6.164  1.00  0.00     0.057 A 
ATOM     57  C   UNL     1      12.363 -11.581  -6.681  1.00  0.00     0.134 A 
ATOM     58  C   UNL     1      10.146 -12.396  -7.072  1.00  0.00     0.134 A 
ATOM     59  F   UNL     1      13.331 -11.131  -5.868  1.00  0.00    -0.206 F 
ATOM     60  C   UNL     1      12.633 -11.636  -8.050  1.00  0.00     0.040 A 
ATOM     61  C   UNL     1      10.414 -12.484  -8.440  1.00  0.00     0.040 A 
ATOM     62  F   UNL     1       8.930 -12.768  -6.645  1.00  0.00    -0.206 F 
ATOM     63  C   UNL     1      11.658 -12.097  -8.933  1.00  0.00     0.006 A 
ENDBRANCH  42  56
BRANCH  43  64
ATOM     64  C   UNL     1       8.960 -11.213   3.562  1.00  0.00     0.057 A 
ATOM     65  C   UNL     1       9.828 -11.698   4.548  1.00  0.00     0.134 A 
ATOM     66  C   UNL     1       7.750 -10.653   3.988  1.00  0.00     0.134 A 
ATOM     67  F   UNL     1      10.995 -12.261   4.202  1.00  0.00    -0.206 F 
ATOM     68  C   UNL     1       9.493 -11.654   5.902  1.00  0.00     0.040 A 
ATOM     69  C   UNL     1       7.415 -10.577   5.341  1.00  0.00     0.040 A 
ATOM     70  F   UNL     1       6.879 -10.161   3.095  1.00  0.00    -0.206 F 
ATOM     71  C   UNL     1       8.284 -11.088   6.302  1.00  0.00     0.006 A 
ENDBRANCH  43  64
BRANCH  55  72
ATOM     72  C   UNL     1       9.814 -16.579  -0.796  1.00  0.00     0.057 A 
ATOM     73  C   UNL     1       8.603 -17.250  -0.583  1.00  0.00     0.134 A 
ATOM     74  C   UNL     1      10.978 -17.355  -0.871  1.00  0.00     0.134 A 
ATOM     75  F   UNL     1       7.453 -16.565  -0.489  1.00  0.00    -0.206 F 
ATOM     76  C   UNL     1       8.555 -18.637  -0.431  1.00  0.00     0.040 A 
ATOM     77  C   UNL     1      10.939 -18.745  -0.750  1.00  0.00     0.040 A 
ATOM     78  F   UNL     1      12.170 -16.777  -1.082  1.00  0.00    -0.206 F 
ATOM     79  C   UNL     1       9.725 -19.389  -0.523  1.00  0.00     0.006 A 
ENDBRANCH  55  72
ENDBRANCH  29  30
ENDBRANCH  21  24
ENDBRANCH  19  20
ENDBRANCH  18  19
ENDBRANCH   1  18
TORSDOF 14
