REMARK SMILES C=CC[N@@H+](CC(=O)NCCCCCCNC(=O)c1ccc(-c2c3nc(c(-c4c(F)cccc4F)c4ccc([nH]4)c(-c4c(F)cccc4F)c4nc(c(-c5c(F)cccc5F)c5ccc2[nH]5)C=C4)C=C3)cc1)C[C@H]1CCC[C@H](C)C1
REMARK SMILES IDX 11 1 10 2 9 3 8 4 6 5 7 6 5 8 4 9 3 11 2 12 1 13 72 14 73 15
REMARK SMILES IDX 74 16 79 17 75 18 77 19 76 20 78 21 12 22 13 23 14 24 15 25
REMARK SMILES IDX 16 26 17 28 18 29 19 30 71 31 20 32 70 33 21 34 22 35 23 36
REMARK SMILES IDX 64 37 24 38 69 39 63 40 65 41 25 42 68 43 62 44 61 45 26 47
REMARK SMILES IDX 52 48 35 49 51 50 36 51 39 52 50 53 66 54 37 55 38 56 49 58
REMARK SMILES IDX 67 59 40 60 27 61 28 62 33 63 29 64 30 65 32 66 34 67 31 68
REMARK SMILES IDX 53 69 54 70 59 71 55 72 56 73 58 74 60 75 57 76 41 77 42 78
REMARK SMILES IDX 47 79 43 80 44 81 46 82 48 83 45 84
REMARK H PARENT 8 7 4 10 15 27 65 46 39 57
REMARK Flexibility Score: inf
ROOT
ATOM      1  C   UNL     1      -2.589   0.483   3.195  1.00  0.00     0.002 C 
ENDROOT
BRANCH   1   2
ATOM      2  C   UNL     1      -2.277  -0.063   1.803  1.00  0.00     0.021 C 
BRANCH   2   3
ATOM      3  C   UNL     1      -3.498  -0.495   0.977  1.00  0.00     0.116 C 
BRANCH   3   4
ATOM      4  N   UNL     1      -3.887   0.553   0.051  1.00  0.00    -0.351 N 
ATOM      5  C   UNL     1      -3.683   0.723  -1.285  1.00  0.00     0.275 C 
ATOM      6  O   UNL     1      -4.090   1.791  -1.762  1.00  0.00    -0.269 OA
ATOM      7  H   UNL     1      -4.397   1.283   0.470  1.00  0.00     0.163 HD
BRANCH   5   8
ATOM      8  C   UNL     1      -3.045  -0.342  -2.205  1.00  0.00     0.363 C 
BRANCH   8   9
ATOM      9  N   UNL     1      -1.549  -0.430  -2.204  1.00  0.00    -0.324 N 
ATOM     10  H   UNL     1      -1.191  -0.936  -3.014  1.00  0.00     0.348 HD
BRANCH   9  11
ATOM     11  C   UNL     1      -1.099  -1.266  -1.106  1.00  0.00     0.290 C 
BRANCH  11  12
ATOM     12  C   UNL     1       0.225  -1.950  -1.208  1.00  0.00     0.025 C 
ATOM     13  C   UNL     1       1.091  -2.004  -0.183  1.00  0.00     0.010 C 
ENDBRANCH  11  12
ENDBRANCH   9  11
BRANCH   9  14
ATOM     14  C   UNL     1      -0.923   0.895  -2.432  1.00  0.00     0.266 C 
BRANCH  14  15
ATOM     15  C   UNL     1       0.335   1.311  -1.636  1.00  0.00     0.044 C 
ATOM     16  C   UNL     1       1.645   0.776  -2.229  1.00  0.00     0.009 C 
ATOM     17  C   UNL     1       0.471   2.849  -1.554  1.00  0.00     0.012 C 
ATOM     18  C   UNL     1       2.790   1.061  -1.261  1.00  0.00     0.001 C 
ATOM     19  C   UNL     1       1.649   3.284  -0.659  1.00  0.00    -0.014 C 
ATOM     20  C   UNL     1       2.955   2.562  -1.032  1.00  0.00     0.003 C 
ATOM     21  C   UNL     1       1.310   3.109   0.826  1.00  0.00     0.007 C 
ENDBRANCH  14  15
ENDBRANCH   9  14
ENDBRANCH   8   9
ENDBRANCH   5   8
ENDBRANCH   3   4
ENDBRANCH   2   3
ENDBRANCH   1   2
BRANCH   1  22
ATOM     22  C   UNL     1      -3.017  -0.573   4.218  1.00  0.00     0.002 C 
BRANCH  22  23
ATOM     23  C   UNL     1      -2.056  -1.754   4.410  1.00  0.00     0.021 C 
BRANCH  23  24
ATOM     24  C   UNL     1      -0.609  -1.381   4.732  1.00  0.00     0.116 C 
BRANCH  24  25
ATOM     25  N   UNL     1      -0.496  -0.652   5.986  1.00  0.00    -0.352 N 
ATOM     26  C   UNL     1       0.079  -1.026   7.171  1.00  0.00     0.251 C 
ATOM     27  H   UNL     1      -0.895   0.248   5.981  1.00  0.00     0.163 HD
ATOM     28  O   UNL     1      -0.126  -0.360   8.189  1.00  0.00    -0.269 OA
BRANCH  26  29
ATOM     29  C   UNL     1       0.938  -2.225   7.251  1.00  0.00     0.039 A 
ATOM     30  C   UNL     1       0.780  -3.101   8.329  1.00  0.00     0.014 A 
ATOM     31  C   UNL     1       1.932  -2.465   6.297  1.00  0.00     0.014 A 
ATOM     32  C   UNL     1       1.578  -4.245   8.421  1.00  0.00     0.010 A 
ATOM     33  C   UNL     1       2.686  -3.636   6.356  1.00  0.00     0.010 A 
ATOM     34  C   UNL     1       2.519  -4.536   7.421  1.00  0.00    -0.014 A 
BRANCH  34  35
ATOM     35  C   UNL     1       3.337  -5.775   7.472  1.00  0.00     0.031 A 
ATOM     36  C   UNL     1       4.829  -5.694   7.642  1.00  0.00     0.074 A 
ATOM     37  C   UNL     1       2.744  -6.972   7.300  1.00  0.00     0.049 A 
ATOM     38  N   UNL     1       5.716  -6.657   7.635  1.00  0.00    -0.248 NA
ATOM     39  C   UNL     1       5.403  -4.351   7.820  1.00  0.00     0.031 C 
ATOM     40  C   UNL     1       1.312  -7.184   7.084  1.00  0.00     0.029 A 
ATOM     41  N   UNL     1       3.276  -8.238   7.267  1.00  0.00    -0.354 N 
ATOM     42  C   UNL     1       6.950  -6.037   7.790  1.00  0.00     0.074 A 
ATOM     43  C   UNL     1       6.702  -4.612   7.843  1.00  0.00     0.031 C 
ATOM     44  C   UNL     1       1.077  -8.500   6.957  1.00  0.00     0.029 A 
ATOM     45  C   UNL     1       2.342  -9.221   7.047  1.00  0.00     0.049 A 
ATOM     46  H   UNL     1       4.235  -8.423   7.389  1.00  0.00     0.167 HD
ATOM     47  C   UNL     1       8.176  -6.604   7.898  1.00  0.00     0.037 A 
ATOM     48  C   UNL     1       2.490 -10.554   6.924  1.00  0.00     0.037 A 
ATOM     49  C   UNL     1       8.419  -8.022   7.872  1.00  0.00     0.049 A 
ATOM     50  C   UNL     1       3.861 -11.159   7.047  1.00  0.00     0.074 A 
ATOM     51  C   UNL     1       9.618  -8.695   8.034  1.00  0.00     0.029 A 
ATOM     52  N   UNL     1       7.444  -8.987   7.669  1.00  0.00    -0.354 N 
ATOM     53  N   UNL     1       5.010 -10.564   7.256  1.00  0.00    -0.248 NA
ATOM     54  C   UNL     1       3.954 -12.620   6.923  1.00  0.00     0.031 C 
ATOM     55  C   UNL     1       9.375 -10.065   7.891  1.00  0.00     0.029 A 
ATOM     56  C   UNL     1       8.017 -10.248   7.683  1.00  0.00     0.049 A 
ATOM     57  H   UNL     1       6.486  -8.803   7.535  1.00  0.00     0.167 HD
ATOM     58  C   UNL     1       5.957 -11.578   7.317  1.00  0.00     0.074 A 
ATOM     59  C   UNL     1       5.247 -12.826   7.135  1.00  0.00     0.031 C 
ATOM     60  C   UNL     1       7.296 -11.483   7.509  1.00  0.00     0.037 A 
BRANCH  47  61
ATOM     61  C   UNL     1       9.351  -5.684   8.059  1.00  0.00     0.057 A 
ATOM     62  C   UNL     1       9.574  -4.971   9.244  1.00  0.00     0.134 A 
ATOM     63  C   UNL     1      10.291  -5.538   7.031  1.00  0.00     0.134 A 
ATOM     64  F   UNL     1       8.706  -5.059  10.263  1.00  0.00    -0.206 F 
ATOM     65  C   UNL     1      10.675  -4.125   9.391  1.00  0.00     0.040 A 
ATOM     66  C   UNL     1      11.410  -4.715   7.176  1.00  0.00     0.040 A 
ATOM     67  F   UNL     1      10.143  -6.198   5.872  1.00  0.00    -0.206 F 
ATOM     68  C   UNL     1      11.600  -4.000   8.357  1.00  0.00     0.006 A 
ENDBRANCH  47  61
BRANCH  48  69
ATOM     69  C   UNL     1       1.302 -11.413   6.692  1.00  0.00     0.057 A 
ATOM     70  C   UNL     1       0.822 -12.264   7.695  1.00  0.00     0.134 A 
ATOM     71  C   UNL     1       0.623 -11.410   5.468  1.00  0.00     0.134 A 
ATOM     72  F   UNL     1       1.443 -12.325   8.882  1.00  0.00    -0.206 F 
ATOM     73  C   UNL     1      -0.280 -13.094   7.484  1.00  0.00     0.040 A 
ATOM     74  C   UNL     1      -0.494 -12.217   5.251  1.00  0.00     0.040 A 
ATOM     75  F   UNL     1       1.030 -10.611   4.471  1.00  0.00    -0.206 F 
ATOM     76  C   UNL     1      -0.945 -13.067   6.259  1.00  0.00     0.006 A 
ENDBRANCH  48  69
BRANCH  60  77
ATOM     77  C   UNL     1       8.074 -12.764   7.566  1.00  0.00     0.057 A 
ATOM     78  C   UNL     1       8.331 -13.525   6.419  1.00  0.00     0.134 A 
ATOM     79  C   UNL     1       8.604 -13.220   8.780  1.00  0.00     0.134 A 
ATOM     80  F   UNL     1       7.838 -13.149   5.229  1.00  0.00    -0.206 F 
ATOM     81  C   UNL     1       9.071 -14.707   6.481  1.00  0.00     0.040 A 
ATOM     82  C   UNL     1       9.367 -14.387   8.849  1.00  0.00     0.040 A 
ATOM     83  F   UNL     1       8.401 -12.533   9.914  1.00  0.00    -0.206 F 
ATOM     84  C   UNL     1       9.598 -15.136   7.698  1.00  0.00     0.006 A 
ENDBRANCH  60  77
ENDBRANCH  34  35
ENDBRANCH  26  29
ENDBRANCH  24  25
ENDBRANCH  23  24
ENDBRANCH  22  23
ENDBRANCH   1  22
TORSDOF 18
