REMARK SMILES C=C(C)CN(CC)c1ccc(F)cc1C(=O)NCCCCCCNC(=O)c1ccc(-c2c3nc(c(-c4c(F)cccc4F)c4ccc([nH]4)c(-c4c(F)cccc4F)c4nc(c(-c5c(F)cccc5F)c5ccc2[nH]5)C=C4)C=C3)cc1
REMARK SMILES IDX 20 1 19 2 18 3 17 4 15 5 16 6 14 8 8 9 9 10 10 11 13 12
REMARK SMILES IDX 11 13 12 14 5 15 4 16 2 17 1 18 3 19 6 20 7 21 21 22 22 23
REMARK SMILES IDX 23 24 24 25 25 26 26 28 27 29 28 30 80 31 29 32 79 33 30 34
REMARK SMILES IDX 31 35 32 36 73 37 33 38 78 39 72 40 74 41 34 42 77 43 71 44
REMARK SMILES IDX 70 45 35 47 61 48 44 49 60 50 45 51 48 52 59 53 75 54 46 55
REMARK SMILES IDX 47 56 58 58 76 59 49 60 36 61 37 62 42 63 38 64 39 65 41 66
REMARK SMILES IDX 43 67 40 68 62 69 63 70 68 71 64 72 65 73 67 74 69 75 66 76
REMARK SMILES IDX 50 77 51 78 56 79 52 80 53 81 55 82 57 83 54 84
REMARK H PARENT 17 7 24 27 74 46 48 57
REMARK Flexibility Score: inf
ROOT
ATOM      1  C   UNL     1       3.412   4.885   4.329  1.00  0.00     0.002 C 
ENDROOT
BRANCH   1   2
ATOM      2  C   UNL     1       1.995   4.297   4.320  1.00  0.00     0.021 C 
BRANCH   2   3
ATOM      3  C   UNL     1       1.908   2.780   4.271  1.00  0.00     0.116 C 
BRANCH   3   4
ATOM      4  N   UNL     1       2.500   2.071   5.368  1.00  0.00    -0.352 N 
ATOM      5  C   UNL     1       2.476   0.718   5.619  1.00  0.00     0.253 C 
ATOM      6  O   UNL     1       3.154   0.313   6.567  1.00  0.00    -0.269 OA
ATOM      7  H   UNL     1       2.986   2.621   6.025  1.00  0.00     0.163 HD
BRANCH   5   8
ATOM      8  C   UNL     1       1.615  -0.270   4.885  1.00  0.00     0.066 A 
ATOM      9  C   UNL     1       1.420  -0.418   3.485  1.00  0.00     0.050 A 
ATOM     10  C   UNL     1       0.578  -1.475   3.061  1.00  0.00     0.030 A 
ATOM     11  C   UNL     1      -0.049  -2.349   3.948  1.00  0.00     0.041 A 
ATOM     12  C   UNL     1       1.004  -1.193   5.769  1.00  0.00     0.055 A 
ATOM     13  C   UNL     1       0.183  -2.206   5.299  1.00  0.00     0.124 A 
ATOM     14  F   UNL     1      -0.380  -3.063   6.161  1.00  0.00    -0.207 F 
BRANCH   9  15
ATOM     15  N   UNL     1       2.036   0.348   2.494  1.00  0.00    -0.367 N 
BRANCH  15  16
ATOM     16  C   UNL     1       1.212   1.186   1.600  1.00  0.00     0.146 C 
BRANCH  16  17
ATOM     17  C   UNL     1       0.437   0.458   0.532  1.00  0.00    -0.061 C 
ATOM     18  C   UNL     1       1.006  -0.271  -0.443  1.00  0.00     0.009 C 
ATOM     19  C   UNL     1      -1.055   0.664   0.585  1.00  0.00     0.041 C 
ENDBRANCH  16  17
ENDBRANCH  15  16
BRANCH  15  20
ATOM     20  C   UNL     1       3.403   0.010   2.071  1.00  0.00     0.113 C 
ATOM     21  C   UNL     1       4.454   0.149   3.163  1.00  0.00     0.027 C 
ENDBRANCH  15  20
ENDBRANCH   9  15
ENDBRANCH   5   8
ENDBRANCH   3   4
ENDBRANCH   2   3
ENDBRANCH   1   2
BRANCH   1  22
ATOM     22  C   UNL     1       4.396   4.408   3.254  1.00  0.00     0.002 C 
BRANCH  22  23
ATOM     23  C   UNL     1       3.967   4.530   1.792  1.00  0.00     0.021 C 
BRANCH  23  24
ATOM     24  C   UNL     1       3.428   5.885   1.353  1.00  0.00     0.116 C 
BRANCH  24  25
ATOM     25  N   UNL     1       4.344   6.984   1.603  1.00  0.00    -0.352 N 
ATOM     26  C   UNL     1       4.676   8.050   0.805  1.00  0.00     0.251 C 
ATOM     27  H   UNL     1       4.794   6.961   2.478  1.00  0.00     0.163 HD
ATOM     28  O   UNL     1       5.546   8.838   1.171  1.00  0.00    -0.269 OA
BRANCH  26  29
ATOM     29  C   UNL     1       4.026   8.239  -0.511  1.00  0.00     0.039 A 
ATOM     30  C   UNL     1       4.821   8.608  -1.601  1.00  0.00     0.014 A 
ATOM     31  C   UNL     1       2.651   8.063  -0.682  1.00  0.00     0.014 A 
ATOM     32  C   UNL     1       4.250   8.730  -2.870  1.00  0.00     0.010 A 
ATOM     33  C   UNL     1       2.097   8.107  -1.960  1.00  0.00     0.010 A 
ATOM     34  C   UNL     1       2.890   8.440  -3.068  1.00  0.00    -0.014 A 
BRANCH  34  35
ATOM     35  C   UNL     1       2.285   8.471  -4.425  1.00  0.00     0.031 A 
ATOM     36  C   UNL     1       1.192   9.451  -4.748  1.00  0.00     0.074 A 
ATOM     37  C   UNL     1       2.687   7.581  -5.354  1.00  0.00     0.049 A 
ATOM     38  N   UNL     1       0.503   9.585  -5.854  1.00  0.00    -0.248 NA
ATOM     39  C   UNL     1       0.806  10.390  -3.683  1.00  0.00     0.031 C 
ATOM     40  C   UNL     1       3.717   6.561  -5.156  1.00  0.00     0.029 A 
ATOM     41  N   UNL     1       2.276   7.390  -6.650  1.00  0.00    -0.354 N 
ATOM     42  C   UNL     1      -0.394  10.618  -5.617  1.00  0.00     0.074 A 
ATOM     43  C   UNL     1      -0.209  11.033  -4.243  1.00  0.00     0.031 C 
ATOM     44  C   UNL     1       3.885   5.878  -6.299  1.00  0.00     0.029 A 
ATOM     45  C   UNL     1       2.944   6.377  -7.297  1.00  0.00     0.049 A 
ATOM     46  H   UNL     1       1.570   7.927  -7.077  1.00  0.00     0.167 HD
ATOM     47  C   UNL     1      -1.272  11.189  -6.474  1.00  0.00     0.037 A 
ATOM     48  C   UNL     1       2.812   5.901  -8.550  1.00  0.00     0.037 A 
ATOM     49  C   UNL     1      -1.444  10.784  -7.845  1.00  0.00     0.049 A 
ATOM     50  C   UNL     1       1.798   6.522  -9.470  1.00  0.00     0.074 A 
ATOM     51  C   UNL     1      -2.285  11.325  -8.802  1.00  0.00     0.029 A 
ATOM     52  N   UNL     1      -0.762   9.741  -8.454  1.00  0.00    -0.354 N 
ATOM     53  N   UNL     1       0.984   7.524  -9.245  1.00  0.00    -0.248 NA
ATOM     54  C   UNL     1       1.684   5.947 -10.819  1.00  0.00     0.031 C 
ATOM     55  C   UNL     1      -2.151  10.577  -9.974  1.00  0.00     0.029 A 
ATOM     56  C   UNL     1      -1.183   9.607  -9.768  1.00  0.00     0.049 A 
ATOM     57  H   UNL     1      -0.082   9.180  -8.019  1.00  0.00     0.167 HD
ATOM     58  C   UNL     1       0.281   7.718 -10.427  1.00  0.00     0.074 A 
ATOM     59  C   UNL     1       0.773   6.737 -11.372  1.00  0.00     0.031 C 
ATOM     60  C   UNL     1      -0.682   8.631 -10.702  1.00  0.00     0.037 A 
BRANCH  47  61
ATOM     61  C   UNL     1      -2.108  12.328  -5.963  1.00  0.00     0.057 A 
ATOM     62  C   UNL     1      -3.496  12.196  -5.824  1.00  0.00     0.134 A 
ATOM     63  C   UNL     1      -1.546  13.578  -5.668  1.00  0.00     0.134 A 
ATOM     64  F   UNL     1      -4.101  11.030  -6.096  1.00  0.00    -0.206 F 
ATOM     65  C   UNL     1      -4.294  13.268  -5.421  1.00  0.00     0.040 A 
ATOM     66  C   UNL     1      -2.330  14.648  -5.235  1.00  0.00     0.040 A 
ATOM     67  F   UNL     1      -0.222  13.769  -5.770  1.00  0.00    -0.206 F 
ATOM     68  C   UNL     1      -3.711  14.497  -5.121  1.00  0.00     0.006 A 
ENDBRANCH  47  61
BRANCH  48  69
ATOM     69  C   UNL     1       3.696   4.802  -9.015  1.00  0.00     0.057 A 
ATOM     70  C   UNL     1       3.585   3.502  -8.506  1.00  0.00     0.134 A 
ATOM     71  C   UNL     1       4.700   5.040  -9.960  1.00  0.00     0.134 A 
ATOM     72  F   UNL     1       2.648   3.209  -7.592  1.00  0.00    -0.206 F 
ATOM     73  C   UNL     1       4.453   2.484  -8.905  1.00  0.00     0.040 A 
ATOM     74  C   UNL     1       5.559   4.026 -10.387  1.00  0.00     0.040 A 
ATOM     75  F   UNL     1       4.845   6.260 -10.498  1.00  0.00    -0.206 F 
ATOM     76  C   UNL     1       5.443   2.745  -9.851  1.00  0.00     0.006 A 
ENDBRANCH  48  69
BRANCH  60  77
ATOM     77  C   UNL     1      -1.262   8.640 -12.087  1.00  0.00     0.057 A 
ATOM     78  C   UNL     1      -1.015   9.712 -12.955  1.00  0.00     0.134 A 
ATOM     79  C   UNL     1      -2.135   7.638 -12.529  1.00  0.00     0.134 A 
ATOM     80  F   UNL     1      -0.198  10.711 -12.589  1.00  0.00    -0.206 F 
ATOM     81  C   UNL     1      -1.631   9.798 -14.204  1.00  0.00     0.040 A 
ATOM     82  C   UNL     1      -2.735   7.698 -13.788  1.00  0.00     0.040 A 
ATOM     83  F   UNL     1      -2.405   6.580 -11.751  1.00  0.00    -0.206 F 
ATOM     84  C   UNL     1      -2.493   8.787 -14.624  1.00  0.00     0.006 A 
ENDBRANCH  60  77
ENDBRANCH  34  35
ENDBRANCH  26  29
ENDBRANCH  24  25
ENDBRANCH  23  24
ENDBRANCH  22  23
ENDBRANCH   1  22
TORSDOF 17
