REMARK SMILES C[C@@H]([NH2+]CC(C)(C)C(=O)NCCCCCCNC(=O)c1ccc(-c2c3nc(c(-c4c(F)cccc4F)c4ccc([nH]4)c(-c4c(F)cccc4F)c4nc(c(-c5c(F)cccc5F)c5ccc2[nH]5)C=C4)C=C3)cc1)C1CC1
REMARK SMILES IDX 12 1 11 2 10 3 8 4 9 5 5 7 6 8 7 9 4 10 3 11 2 14 1 15 74 16
REMARK SMILES IDX 75 17 76 18 13 19 14 20 15 21 16 22 17 23 18 24 19 26 20 27
REMARK SMILES IDX 21 28 73 29 22 30 72 31 23 32 24 33 25 34 66 35 26 36 71 37
REMARK SMILES IDX 65 38 67 39 27 40 70 41 64 42 63 43 28 45 54 46 37 47 53 48
REMARK SMILES IDX 38 49 41 50 52 51 68 52 39 53 40 54 51 56 69 57 42 58 29 59
REMARK SMILES IDX 30 60 35 61 31 62 32 63 34 64 36 65 33 66 55 67 56 68 61 69
REMARK SMILES IDX 57 70 58 71 60 72 62 73 59 74 43 75 44 76 49 77 45 78 46 79
REMARK SMILES IDX 48 80 50 81 47 82
REMARK H PARENT 10 6 3 12 3 13 17 25 67 44 41 55
REMARK Flexibility Score: inf
ROOT
ATOM      1  C   UNL     1       0.838  -5.767   4.528  1.00  0.00     0.021 C 
ENDROOT
BRANCH   1   2
ATOM      2  C   UNL     1       1.758  -4.649   4.030  1.00  0.00     0.116 C 
BRANCH   2   3
ATOM      3  N   UNL     1       1.059  -3.830   3.064  1.00  0.00    -0.355 N 
ATOM      4  C   UNL     1       0.355  -2.695   3.325  1.00  0.00     0.231 C 
ATOM      5  O   UNL     1      -0.792  -2.653   2.877  1.00  0.00    -0.274 OA
ATOM      6  H   UNL     1       1.096  -4.123   2.125  1.00  0.00     0.163 HD
BRANCH   4   7
ATOM      7  C   UNL     1       0.960  -1.555   4.160  1.00  0.00     0.092 C 
ATOM      8  C   UNL     1       2.491  -1.446   4.055  1.00  0.00     0.027 C 
ATOM      9  C   UNL     1       0.540  -1.785   5.625  1.00  0.00     0.027 C 
BRANCH   7  10
ATOM     10  C   UNL     1       0.323  -0.200   3.701  1.00  0.00     0.277 C 
BRANCH  10  11
ATOM     11  N   UNL     1       0.737   0.407   2.421  1.00  0.00    -0.343 N 
ATOM     12  H   UNL     1       0.373   1.360   2.398  1.00  0.00     0.346 HD
ATOM     13  H   UNL     1       1.755   0.342   2.409  1.00  0.00     0.346 HD
BRANCH  11  14
ATOM     14  C   UNL     1       0.289  -0.272   1.196  1.00  0.00     0.182 C 
ATOM     15  C   UNL     1       1.042   0.347   0.013  1.00  0.00     0.075 C 
BRANCH  14  16
ATOM     16  C   UNL     1      -1.215  -0.180   1.040  1.00  0.00     0.047 C 
ATOM     17  C   UNL     1      -1.948   0.156  -0.243  1.00  0.00     0.010 C 
ATOM     18  C   UNL     1      -1.917  -1.260   0.244  1.00  0.00     0.010 C 
ENDBRANCH  14  16
ENDBRANCH  11  14
ENDBRANCH  10  11
ENDBRANCH   7  10
ENDBRANCH   4   7
ENDBRANCH   2   3
ENDBRANCH   1   2
BRANCH   1  19
ATOM     19  C   UNL     1       0.454  -6.789   3.449  1.00  0.00     0.002 C 
BRANCH  19  20
ATOM     20  C   UNL     1       1.637  -7.441   2.727  1.00  0.00     0.002 C 
BRANCH  20  21
ATOM     21  C   UNL     1       2.691  -8.057   3.649  1.00  0.00     0.021 C 
BRANCH  21  22
ATOM     22  C   UNL     1       2.147  -9.092   4.625  1.00  0.00     0.116 C 
BRANCH  22  23
ATOM     23  N   UNL     1       1.601 -10.252   3.942  1.00  0.00    -0.352 N 
ATOM     24  C   UNL     1       1.877 -11.579   4.144  1.00  0.00     0.251 C 
ATOM     25  H   UNL     1       0.941 -10.059   3.237  1.00  0.00     0.163 HD
ATOM     26  O   UNL     1       1.473 -12.424   3.346  1.00  0.00    -0.269 OA
BRANCH  24  27
ATOM     27  C   UNL     1       2.682 -11.993   5.310  1.00  0.00     0.039 A 
ATOM     28  C   UNL     1       3.697 -12.935   5.129  1.00  0.00     0.014 A 
ATOM     29  C   UNL     1       2.437 -11.457   6.579  1.00  0.00     0.014 A 
ATOM     30  C   UNL     1       4.497 -13.304   6.210  1.00  0.00     0.010 A 
ATOM     31  C   UNL     1       3.284 -11.768   7.638  1.00  0.00     0.010 A 
ATOM     32  C   UNL     1       4.317 -12.702   7.467  1.00  0.00    -0.014 A 
BRANCH  32  33
ATOM     33  C   UNL     1       5.200 -13.045   8.609  1.00  0.00     0.031 A 
ATOM     34  C   UNL     1       4.637 -13.715   9.831  1.00  0.00     0.074 A 
ATOM     35  C   UNL     1       6.503 -12.706   8.564  1.00  0.00     0.049 A 
ATOM     36  N   UNL     1       5.246 -14.066  10.936  1.00  0.00    -0.248 NA
ATOM     37  C   UNL     1       3.195 -14.004   9.823  1.00  0.00     0.031 C 
ATOM     38  C   UNL     1       7.157 -12.003   7.459  1.00  0.00     0.029 A 
ATOM     39  N   UNL     1       7.510 -12.903   9.475  1.00  0.00    -0.354 N 
ATOM     40  C   UNL     1       4.261 -14.604  11.755  1.00  0.00     0.074 A 
ATOM     41  C   UNL     1       3.007 -14.481  11.045  1.00  0.00     0.031 C 
ATOM     42  C   UNL     1       8.460 -11.852   7.745  1.00  0.00     0.029 A 
ATOM     43  C   UNL     1       8.726 -12.414   9.065  1.00  0.00     0.049 A 
ATOM     44  H   UNL     1       7.374 -13.352  10.341  1.00  0.00     0.167 HD
ATOM     45  C   UNL     1       4.394 -15.170  12.978  1.00  0.00     0.037 A 
ATOM     46  C   UNL     1       9.922 -12.417   9.684  1.00  0.00     0.037 A 
ATOM     47  C   UNL     1       5.647 -15.310  13.672  1.00  0.00     0.049 A 
ATOM     48  C   UNL     1      10.045 -13.056  11.039  1.00  0.00     0.074 A 
ATOM     49  C   UNL     1       5.897 -15.929  14.885  1.00  0.00     0.029 A 
ATOM     50  N   UNL     1       6.862 -14.817  13.218  1.00  0.00    -0.354 N 
ATOM     51  N   UNL     1       9.120 -13.633  11.768  1.00  0.00    -0.248 NA
ATOM     52  C   UNL     1      11.380 -13.055  11.652  1.00  0.00     0.031 C 
ATOM     53  C   UNL     1       7.254 -15.766  15.187  1.00  0.00     0.029 A 
ATOM     54  C   UNL     1       7.860 -15.094  14.138  1.00  0.00     0.049 A 
ATOM     55  H   UNL     1       6.995 -14.340  12.367  1.00  0.00     0.167 HD
ATOM     56  C   UNL     1       9.765 -14.084  12.913  1.00  0.00     0.074 A 
ATOM     57  C   UNL     1      11.162 -13.730  12.771  1.00  0.00     0.031 C 
ATOM     58  C   UNL     1       9.247 -14.733  13.984  1.00  0.00     0.037 A 
BRANCH  45  59
ATOM     59  C   UNL     1       3.147 -15.681  13.643  1.00  0.00     0.057 A 
ATOM     60  C   UNL     1       2.457 -16.802  13.163  1.00  0.00     0.134 A 
ATOM     61  C   UNL     1       2.645 -15.059  14.793  1.00  0.00     0.134 A 
ATOM     62  F   UNL     1       2.877 -17.438  12.058  1.00  0.00    -0.206 F 
ATOM     63  C   UNL     1       1.296 -17.267  13.783  1.00  0.00     0.040 A 
ATOM     64  C   UNL     1       1.502 -15.533  15.440  1.00  0.00     0.040 A 
ATOM     65  F   UNL     1       3.259 -13.985  15.311  1.00  0.00    -0.206 F 
ATOM     66  C   UNL     1       0.819 -16.635  14.930  1.00  0.00     0.006 A 
ENDBRANCH  45  59
BRANCH  46  67
ATOM     67  C   UNL     1      11.103 -11.816   9.015  1.00  0.00     0.057 A 
ATOM     68  C   UNL     1      12.149 -12.615   8.540  1.00  0.00     0.134 A 
ATOM     69  C   UNL     1      11.215 -10.432   8.834  1.00  0.00     0.134 A 
ATOM     70  F   UNL     1      12.107 -13.946   8.699  1.00  0.00    -0.206 F 
ATOM     71  C   UNL     1      13.272 -12.060   7.924  1.00  0.00     0.040 A 
ATOM     72  C   UNL     1      12.320  -9.865   8.197  1.00  0.00     0.040 A 
ATOM     73  F   UNL     1      10.242  -9.613   9.259  1.00  0.00    -0.206 F 
ATOM     74  C   UNL     1      13.356 -10.680   7.747  1.00  0.00     0.006 A 
ENDBRANCH  46  67
BRANCH  58  75
ATOM     75  C   UNL     1      10.202 -15.127  15.074  1.00  0.00     0.057 A 
ATOM     76  C   UNL     1      10.784 -14.180  15.927  1.00  0.00     0.134 A 
ATOM     77  C   UNL     1      10.523 -16.473  15.289  1.00  0.00     0.134 A 
ATOM     78  F   UNL     1      10.529 -12.872  15.766  1.00  0.00    -0.206 F 
ATOM     79  C   UNL     1      11.674 -14.556  16.934  1.00  0.00     0.040 A 
ATOM     80  C   UNL     1      11.387 -16.864  16.312  1.00  0.00     0.040 A 
ATOM     81  F   UNL     1       9.992 -17.432  14.514  1.00  0.00    -0.206 F 
ATOM     82  C   UNL     1      11.972 -15.903  17.133  1.00  0.00     0.006 A 
ENDBRANCH  58  75
ENDBRANCH  32  33
ENDBRANCH  24  27
ENDBRANCH  22  23
ENDBRANCH  21  22
ENDBRANCH  20  21
ENDBRANCH  19  20
ENDBRANCH   1  19
TORSDOF 17
