REMARK SMILES COc1c(C)cccc1C(=O)NCc1ccc(C(=O)NCCCCCCNC(=O)c2ccc(-c3c4nc(c(-c5c(F)cccc5F)c5ccc([nH]5)c(-c5c(F)cccc5F)c5nc(c(-c6c(F)cccc6F)c6ccc3[nH]6)C=C5)C=C4)cc2)cc1
REMARK SMILES IDX 22 1 21 2 20 3 18 4 19 5 17 7 14 8 15 9 85 10 16 11 84 12
REMARK SMILES IDX 13 13 12 14 10 15 11 16 9 18 3 19 4 20 5 21 6 22 8 23 7 24
REMARK SMILES IDX 2 25 1 26 23 27 24 28 25 29 26 30 27 31 28 32 29 34 30 35
REMARK SMILES IDX 31 36 83 37 32 38 82 39 33 40 34 41 35 42 76 43 36 44 81 45
REMARK SMILES IDX 75 46 77 47 37 48 80 49 74 50 73 51 38 53 64 54 47 55 63 56
REMARK SMILES IDX 48 57 51 58 62 59 78 60 49 61 50 62 61 64 79 65 52 66 39 67
REMARK SMILES IDX 40 68 45 69 41 70 42 71 44 72 46 73 43 74 65 75 66 76 71 77
REMARK SMILES IDX 67 78 68 79 70 80 72 81 69 82 53 83 54 84 59 85 55 86 56 87
REMARK SMILES IDX 58 88 60 89 57 90
REMARK H PARENT 20 6 12 17 27 33 77 52 51 63
REMARK Flexibility Score: inf
ROOT
ATOM      1  C   UNL     1       2.012  -6.609  -1.082  1.00  0.00     0.021 C 
ENDROOT
BRANCH   1   2
ATOM      2  C   UNL     1       2.626  -5.475  -0.263  1.00  0.00     0.116 C 
BRANCH   2   3
ATOM      3  N   UNL     1       3.386  -4.581  -1.109  1.00  0.00    -0.352 N 
ATOM      4  C   UNL     1       3.074  -3.367  -1.666  1.00  0.00     0.251 C 
ATOM      5  O   UNL     1       3.939  -2.808  -2.340  1.00  0.00    -0.269 OA
ATOM      6  H   UNL     1       4.291  -4.903  -1.325  1.00  0.00     0.163 HD
BRANCH   4   7
ATOM      7  C   UNL     1       1.788  -2.664  -1.403  1.00  0.00     0.039 A 
ATOM      8  C   UNL     1      -0.416  -1.169  -0.493  1.00  0.00    -0.029 A 
ATOM      9  C   UNL     1       0.729  -0.528  -0.984  1.00  0.00     0.006 A 
ATOM     10  C   UNL     1      -0.525  -2.550  -0.667  1.00  0.00     0.006 A 
ATOM     11  C   UNL     1       1.835  -1.267  -1.397  1.00  0.00     0.014 A 
ATOM     12  C   UNL     1       0.564  -3.288  -1.144  1.00  0.00     0.014 A 
BRANCH   8  13
ATOM     13  C   UNL     1      -1.478  -0.364   0.203  1.00  0.00     0.152 C 
BRANCH  13  14
ATOM     14  N   UNL     1      -1.986  -0.888   1.464  1.00  0.00    -0.348 N 
ATOM     15  C   UNL     1      -1.367  -1.331   2.608  1.00  0.00     0.255 C 
ATOM     16  O   UNL     1      -2.048  -1.523   3.615  1.00  0.00    -0.269 OA
ATOM     17  H   UNL     1      -2.969  -0.934   1.504  1.00  0.00     0.164 HD
BRANCH  15  18
ATOM     18  C   UNL     1       0.037  -1.790   2.600  1.00  0.00     0.082 A 
ATOM     19  C   UNL     1       1.155  -0.936   2.504  1.00  0.00     0.134 A 
ATOM     20  C   UNL     1       2.432  -1.523   2.377  1.00  0.00    -0.008 A 
ATOM     21  C   UNL     1       3.737  -0.822   2.135  1.00  0.00     0.048 C 
ATOM     22  C   UNL     1       2.553  -2.929   2.504  1.00  0.00     0.007 A 
ATOM     23  C   UNL     1       0.191  -3.179   2.755  1.00  0.00     0.018 A 
ATOM     24  C   UNL     1       1.453  -3.745   2.741  1.00  0.00     0.001 A 
BRANCH  19  25
ATOM     25  O   UNL     1       0.928   0.370   2.855  1.00  0.00    -0.496 OA
ATOM     26  C   UNL     1       1.324   1.419   1.993  1.00  0.00     0.278 C 
ENDBRANCH  19  25
ENDBRANCH  15  18
ENDBRANCH  13  14
ENDBRANCH   8  13
ENDBRANCH   4   7
ENDBRANCH   2   3
ENDBRANCH   1   2
BRANCH   1  27
ATOM     27  C   UNL     1       3.012  -7.691  -1.505  1.00  0.00     0.002 C 
BRANCH  27  28
ATOM     28  C   UNL     1       3.778  -8.385  -0.367  1.00  0.00     0.002 C 
BRANCH  28  29
ATOM     29  C   UNL     1       2.943  -8.810   0.844  1.00  0.00     0.021 C 
BRANCH  29  30
ATOM     30  C   UNL     1       1.910  -9.885   0.539  1.00  0.00     0.116 C 
BRANCH  30  31
ATOM     31  N   UNL     1       2.388 -11.244   0.749  1.00  0.00    -0.352 N 
ATOM     32  C   UNL     1       1.782 -12.453   0.446  1.00  0.00     0.251 C 
ATOM     33  H   UNL     1       3.276 -11.314   1.169  1.00  0.00     0.163 HD
ATOM     34  O   UNL     1       2.326 -13.499   0.750  1.00  0.00    -0.269 OA
BRANCH  32  35
ATOM     35  C   UNL     1       0.550 -12.466  -0.387  1.00  0.00     0.039 A 
ATOM     36  C   UNL     1       0.508 -13.376  -1.450  1.00  0.00     0.014 A 
ATOM     37  C   UNL     1      -0.415 -11.469  -0.284  1.00  0.00     0.014 A 
ATOM     38  C   UNL     1      -0.310 -13.109  -2.544  1.00  0.00     0.010 A 
ATOM     39  C   UNL     1      -1.157 -11.146  -1.403  1.00  0.00     0.010 A 
ATOM     40  C   UNL     1      -1.041 -11.922  -2.559  1.00  0.00    -0.014 A 
BRANCH  40  41
ATOM     41  C   UNL     1      -1.601 -11.353  -3.777  1.00  0.00     0.031 A 
ATOM     42  C   UNL     1      -3.046 -11.431  -4.050  1.00  0.00     0.074 A 
ATOM     43  C   UNL     1      -0.793 -10.698  -4.641  1.00  0.00     0.049 A 
ATOM     44  N   UNL     1      -3.550 -11.402  -5.237  1.00  0.00    -0.248 NA
ATOM     45  C   UNL     1      -4.044 -11.574  -2.994  1.00  0.00     0.031 C 
ATOM     46  C   UNL     1      -1.192  -9.882  -5.785  1.00  0.00     0.029 A 
ATOM     47  N   UNL     1       0.595 -10.828  -4.773  1.00  0.00    -0.354 N 
ATOM     48  C   UNL     1      -4.908 -11.264  -5.103  1.00  0.00     0.074 A 
ATOM     49  C   UNL     1      -5.176 -11.431  -3.691  1.00  0.00     0.031 C 
ATOM     50  C   UNL     1      -0.170  -9.832  -6.653  1.00  0.00     0.029 A 
ATOM     51  C   UNL     1       0.867 -10.718  -6.156  1.00  0.00     0.049 A 
ATOM     52  H   UNL     1       1.249 -10.967  -4.050  1.00  0.00     0.167 HD
ATOM     53  C   UNL     1      -5.664 -10.904  -6.175  1.00  0.00     0.037 A 
ATOM     54  C   UNL     1       1.404 -11.769  -6.842  1.00  0.00     0.037 A 
ATOM     55  C   UNL     1      -4.874 -10.752  -7.389  1.00  0.00     0.049 A 
ATOM     56  C   UNL     1       0.511 -12.337  -7.927  1.00  0.00     0.074 A 
ATOM     57  C   UNL     1      -4.305  -9.673  -8.045  1.00  0.00     0.029 A 
ATOM     58  N   UNL     1      -4.293 -11.879  -7.940  1.00  0.00    -0.354 N 
ATOM     59  N   UNL     1      -0.696 -11.916  -8.185  1.00  0.00    -0.248 NA
ATOM     60  C   UNL     1       0.881 -13.493  -8.747  1.00  0.00     0.031 C 
ATOM     61  C   UNL     1      -3.349 -10.170  -8.976  1.00  0.00     0.029 A 
ATOM     62  C   UNL     1      -3.348 -11.550  -8.892  1.00  0.00     0.049 A 
ATOM     63  H   UNL     1      -4.523 -12.801  -7.685  1.00  0.00     0.167 HD
ATOM     64  C   UNL     1      -1.276 -12.742  -9.110  1.00  0.00     0.074 A 
ATOM     65  C   UNL     1      -0.248 -13.707  -9.445  1.00  0.00     0.031 C 
ATOM     66  C   UNL     1      -2.574 -12.612  -9.507  1.00  0.00     0.037 A 
BRANCH  53  67
ATOM     67  C   UNL     1      -7.090 -10.473  -6.016  1.00  0.00     0.057 A 
ATOM     68  C   UNL     1      -7.590  -9.348  -6.692  1.00  0.00     0.134 A 
ATOM     69  C   UNL     1      -8.000 -11.115  -5.160  1.00  0.00     0.134 A 
ATOM     70  F   UNL     1      -6.846  -8.674  -7.580  1.00  0.00    -0.206 F 
ATOM     71  C   UNL     1      -8.874  -8.842  -6.462  1.00  0.00     0.040 A 
ATOM     72  C   UNL     1      -9.269 -10.592  -4.882  1.00  0.00     0.040 A 
ATOM     73  F   UNL     1      -7.687 -12.275  -4.564  1.00  0.00    -0.206 F 
ATOM     74  C   UNL     1      -9.706  -9.443  -5.528  1.00  0.00     0.006 A 
ENDBRANCH  53  67
BRANCH  54  75
ATOM     75  C   UNL     1       2.363 -12.554  -6.021  1.00  0.00     0.057 A 
ATOM     76  C   UNL     1       3.535 -11.920  -5.569  1.00  0.00     0.134 A 
ATOM     77  C   UNL     1       1.986 -13.733  -5.374  1.00  0.00     0.134 A 
ATOM     78  F   UNL     1       3.954 -10.783  -6.149  1.00  0.00    -0.206 F 
ATOM     79  C   UNL     1       4.229 -12.369  -4.443  1.00  0.00     0.040 A 
ATOM     80  C   UNL     1       2.684 -14.201  -4.255  1.00  0.00     0.040 A 
ATOM     81  F   UNL     1       0.871 -14.384  -5.736  1.00  0.00    -0.206 F 
ATOM     82  C   UNL     1       3.781 -13.495  -3.762  1.00  0.00     0.006 A 
ENDBRANCH  54  75
BRANCH  66  83
ATOM     83  C   UNL     1      -3.213 -13.495 -10.533  1.00  0.00     0.057 A 
ATOM     84  C   UNL     1      -2.627 -13.728 -11.783  1.00  0.00     0.134 A 
ATOM     85  C   UNL     1      -4.508 -14.015 -10.349  1.00  0.00     0.134 A 
ATOM     86  F   UNL     1      -1.410 -13.243 -12.073  1.00  0.00    -0.206 F 
ATOM     87  C   UNL     1      -3.284 -14.449 -12.786  1.00  0.00     0.040 A 
ATOM     88  C   UNL     1      -5.192 -14.696 -11.358  1.00  0.00     0.040 A 
ATOM     89  F   UNL     1      -5.151 -13.896  -9.178  1.00  0.00    -0.206 F 
ATOM     90  C   UNL     1      -4.577 -14.920 -12.582  1.00  0.00     0.006 A 
ENDBRANCH  66  83
ENDBRANCH  40  41
ENDBRANCH  32  35
ENDBRANCH  30  31
ENDBRANCH  29  30
ENDBRANCH  28  29
ENDBRANCH  27  28
ENDBRANCH   1  27
TORSDOF 17
