REMARK SMILES CCCCN(c1ccccc1C(=O)NCCCCCCNC(=O)c1ccc(-c2c3nc(c(-c4c(F)cccc4F)c4ccc([nH]4)c(-c4c(F)cccc4F)c4nc(c(-c5c(F)cccc5F)c5ccc2[nH]5)C=C4)C=C3)cc1)S(=O)(=O)c1ccc2c(c1)oc(=O)n2C
REMARK SMILES IDX 16 1 15 2 14 3 12 4 13 5 11 7 6 8 7 9 8 10 10 11 9 12 5 13
REMARK SMILES IDX 4 14 3 15 2 16 1 17 78 18 79 19 80 20 81 21 82 22 86 23
REMARK SMILES IDX 83 24 85 25 84 26 87 27 90 28 88 29 91 30 89 31 17 32 18 33
REMARK SMILES IDX 19 34 20 35 21 36 22 37 23 39 24 40 25 41 77 42 26 43 76 44
REMARK SMILES IDX 27 45 28 46 29 47 70 48 30 49 75 50 69 51 71 52 31 53 74 54
REMARK SMILES IDX 68 55 67 56 32 58 58 59 41 60 57 61 42 62 45 63 56 64 72 65
REMARK SMILES IDX 43 66 44 67 55 69 73 70 46 71 33 72 34 73 39 74 35 75 36 76
REMARK SMILES IDX 38 77 40 78 37 79 59 80 60 81 65 82 61 83 62 84 64 85 66 86
REMARK SMILES IDX 63 87 47 88 48 89 53 90 49 91 50 92 52 93 54 94 51 95
REMARK H PARENT 14 6 21 38 71 57 45 68
REMARK Flexibility Score: inf
ROOT
ATOM      1  C   UNL     1       0.757  -2.894  -1.174  1.00  0.00     0.021 C 
ENDROOT
BRANCH   1   2
ATOM      2  C   UNL     1       0.136  -1.938  -2.193  1.00  0.00     0.116 C 
BRANCH   2   3
ATOM      3  N   UNL     1       0.564  -2.075  -3.561  1.00  0.00    -0.352 N 
ATOM      4  C   UNL     1       0.028  -1.585  -4.728  1.00  0.00     0.253 C 
ATOM      5  O   UNL     1       0.665  -1.834  -5.758  1.00  0.00    -0.269 OA
ATOM      6  H   UNL     1       1.381  -2.611  -3.681  1.00  0.00     0.163 HD
BRANCH   4   7
ATOM      7  C   UNL     1      -1.262  -0.830  -4.888  1.00  0.00     0.064 A 
ATOM      8  C   UNL     1      -1.759   0.266  -4.150  1.00  0.00     0.065 A 
ATOM      9  C   UNL     1      -2.840   1.013  -4.673  1.00  0.00     0.028 A 
ATOM     10  C   UNL     1      -3.510   0.634  -5.833  1.00  0.00     0.002 A 
ATOM     11  C   UNL     1      -1.957  -1.184  -6.074  1.00  0.00     0.016 A 
ATOM     12  C   UNL     1      -3.075  -0.479  -6.530  1.00  0.00     0.001 A 
BRANCH   8  13
ATOM     13  N   UNL     1      -1.189   0.798  -2.937  1.00  0.00    -0.266 N 
BRANCH  13  14
ATOM     14  C   UNL     1       0.178   1.382  -3.057  1.00  0.00     0.136 C 
BRANCH  14  15
ATOM     15  C   UNL     1       0.691   2.534  -2.189  1.00  0.00     0.022 C 
BRANCH  15  16
ATOM     16  C   UNL     1       0.589   2.646  -0.668  1.00  0.00    -0.002 C 
ATOM     17  C   UNL     1       0.844   1.410   0.163  1.00  0.00     0.004 C 
ENDBRANCH  15  16
ENDBRANCH  14  15
ENDBRANCH  13  14
BRANCH  13  18
ATOM     18  S   UNL     1      -2.126   0.806  -1.521  1.00  0.00     0.264 S 
ATOM     19  O   UNL     1      -1.533  -0.116  -0.574  1.00  0.00    -0.201 OA
ATOM     20  O   UNL     1      -2.370   2.186  -1.160  1.00  0.00    -0.201 OA
BRANCH  18  21
ATOM     21  C   UNL     1      -3.746   0.109  -1.859  1.00  0.00     0.091 A 
ATOM     22  C   UNL     1      -4.848   0.986  -2.008  1.00  0.00     0.025 A 
ATOM     23  C   UNL     1      -3.939  -1.276  -1.779  1.00  0.00     0.071 A 
ATOM     24  C   UNL     1      -6.147   0.487  -2.145  1.00  0.00     0.032 A 
ATOM     25  C   UNL     1      -5.234  -1.736  -1.903  1.00  0.00     0.157 A 
ATOM     26  C   UNL     1      -6.303  -0.881  -2.092  1.00  0.00     0.090 A 
ATOM     27  O   UNL     1      -5.619  -3.067  -1.839  1.00  0.00    -0.408 OA
ATOM     28  N   UNL     1      -7.415  -1.682  -2.177  1.00  0.00    -0.277 N 
ATOM     29  C   UNL     1      -7.009  -2.995  -2.023  1.00  0.00     0.419 A 
ATOM     30  C   UNL     1      -8.762  -1.270  -2.444  1.00  0.00     0.157 C 
ATOM     31  O   UNL     1      -7.731  -3.977  -2.048  1.00  0.00    -0.223 OA
ENDBRANCH  18  21
ENDBRANCH  13  18
ENDBRANCH   8  13
ENDBRANCH   4   7
ENDBRANCH   2   3
ENDBRANCH   1   2
BRANCH   1  32
ATOM     32  C   UNL     1       2.291  -2.928  -1.020  1.00  0.00     0.002 C 
BRANCH  32  33
ATOM     33  C   UNL     1       3.067  -1.606  -0.978  1.00  0.00     0.002 C 
BRANCH  33  34
ATOM     34  C   UNL     1       3.375  -0.913   0.364  1.00  0.00     0.021 C 
BRANCH  34  35
ATOM     35  C   UNL     1       2.538  -1.249   1.600  1.00  0.00     0.116 C 
BRANCH  35  36
ATOM     36  N   UNL     1       3.309  -2.090   2.502  1.00  0.00    -0.352 N 
ATOM     37  C   UNL     1       3.879  -1.751   3.705  1.00  0.00     0.251 C 
ATOM     38  H   UNL     1       3.441  -3.022   2.212  1.00  0.00     0.163 HD
ATOM     39  O   UNL     1       4.882  -2.352   4.083  1.00  0.00    -0.269 OA
BRANCH  37  40
ATOM     40  C   UNL     1       3.285  -0.706   4.580  1.00  0.00     0.039 A 
ATOM     41  C   UNL     1       4.137   0.035   5.406  1.00  0.00     0.014 A 
ATOM     42  C   UNL     1       1.900  -0.543   4.700  1.00  0.00     0.014 A 
ATOM     43  C   UNL     1       3.607   0.917   6.353  1.00  0.00     0.010 A 
ATOM     44  C   UNL     1       1.373   0.385   5.609  1.00  0.00     0.010 A 
ATOM     45  C   UNL     1       2.219   1.104   6.467  1.00  0.00    -0.014 A 
BRANCH  45  46
ATOM     46  C   UNL     1       1.681   2.044   7.490  1.00  0.00     0.031 A 
ATOM     47  C   UNL     1       0.859   1.552   8.653  1.00  0.00     0.074 A 
ATOM     48  C   UNL     1       1.950   3.360   7.381  1.00  0.00     0.049 A 
ATOM     49  N   UNL     1       0.411   2.219   9.690  1.00  0.00    -0.248 NA
ATOM     50  C   UNL     1       0.471   0.135   8.643  1.00  0.00     0.031 C 
ATOM     51  C   UNL     1       2.675   3.978   6.271  1.00  0.00     0.029 A 
ATOM     52  N   UNL     1       1.657   4.410   8.216  1.00  0.00    -0.354 N 
ATOM     53  C   UNL     1      -0.312   1.305  10.449  1.00  0.00     0.074 A 
ATOM     54  C   UNL     1      -0.289   0.053   9.725  1.00  0.00     0.031 C 
ATOM     55  C   UNL     1       2.804   5.292   6.511  1.00  0.00     0.029 A 
ATOM     56  C   UNL     1       2.148   5.614   7.775  1.00  0.00     0.049 A 
ATOM     57  H   UNL     1       1.144   4.309   9.050  1.00  0.00     0.167 HD
ATOM     58  C   UNL     1      -0.924   1.487  11.647  1.00  0.00     0.037 A 
ATOM     59  C   UNL     1       2.086   6.841   8.325  1.00  0.00     0.037 A 
ATOM     60  C   UNL     1      -0.945   2.737  12.367  1.00  0.00     0.049 A 
ATOM     61  C   UNL     1       1.430   7.016   9.665  1.00  0.00     0.074 A 
ATOM     62  C   UNL     1      -1.474   3.004  13.618  1.00  0.00     0.029 A 
ATOM     63  N   UNL     1      -0.429   3.934  11.891  1.00  0.00    -0.354 N 
ATOM     64  N   UNL     1       0.839   6.122  10.420  1.00  0.00    -0.248 NA
ATOM     65  C   UNL     1       1.452   8.368  10.240  1.00  0.00     0.031 C 
ATOM     66  C   UNL     1      -1.338   4.375  13.870  1.00  0.00     0.029 A 
ATOM     67  C   UNL     1      -0.659   4.950  12.808  1.00  0.00     0.049 A 
ATOM     68  H   UNL     1       0.032   4.046  11.029  1.00  0.00     0.167 HD
ATOM     69  C   UNL     1       0.433   6.796  11.565  1.00  0.00     0.074 A 
ATOM     70  C   UNL     1       0.873   8.168  11.415  1.00  0.00     0.031 C 
ATOM     71  C   UNL     1      -0.240   6.321  12.643  1.00  0.00     0.037 A 
BRANCH  58  72
ATOM     72  C   UNL     1      -1.642   0.306  12.245  1.00  0.00     0.057 A 
ATOM     73  C   UNL     1      -0.961  -0.833  12.698  1.00  0.00     0.134 A 
ATOM     74  C   UNL     1      -3.037   0.314  12.386  1.00  0.00     0.134 A 
ATOM     75  F   UNL     1       0.374  -0.914  12.592  1.00  0.00    -0.206 F 
ATOM     76  C   UNL     1      -1.640  -1.932  13.229  1.00  0.00     0.040 A 
ATOM     77  C   UNL     1      -3.724  -0.765  12.946  1.00  0.00     0.040 A 
ATOM     78  F   UNL     1      -3.756   1.374  11.987  1.00  0.00    -0.206 F 
ATOM     79  C   UNL     1      -3.027  -1.898  13.358  1.00  0.00     0.006 A 
ENDBRANCH  58  72
BRANCH  59  80
ATOM     80  C   UNL     1       2.692   7.993   7.610  1.00  0.00     0.057 A 
ATOM     81  C   UNL     1       3.853   8.618   8.080  1.00  0.00     0.134 A 
ATOM     82  C   UNL     1       2.137   8.477   6.419  1.00  0.00     0.134 A 
ATOM     83  F   UNL     1       4.423   8.213   9.225  1.00  0.00    -0.206 F 
ATOM     84  C   UNL     1       4.433   9.690   7.399  1.00  0.00     0.040 A 
ATOM     85  C   UNL     1       2.723   9.527   5.712  1.00  0.00     0.040 A 
ATOM     86  F   UNL     1       1.031   7.914   5.911  1.00  0.00    -0.206 F 
ATOM     87  C   UNL     1       3.872  10.141   6.205  1.00  0.00     0.006 A 
ENDBRANCH  59  80
BRANCH  71  88
ATOM     88  C   UNL     1      -0.524   7.296  13.752  1.00  0.00     0.057 A 
ATOM     89  C   UNL     1      -1.416   8.367  13.595  1.00  0.00     0.134 A 
ATOM     90  C   UNL     1       0.109   7.167  14.995  1.00  0.00     0.134 A 
ATOM     91  F   UNL     1      -2.050   8.557  12.428  1.00  0.00    -0.206 F 
ATOM     92  C   UNL     1      -1.629   9.297  14.614  1.00  0.00     0.040 A 
ATOM     93  C   UNL     1      -0.123   8.071  16.034  1.00  0.00     0.040 A 
ATOM     94  F   UNL     1       0.965   6.159  15.224  1.00  0.00    -0.206 F 
ATOM     95  C   UNL     1      -0.983   9.149  15.839  1.00  0.00     0.006 A 
ENDBRANCH  71  88
ENDBRANCH  45  46
ENDBRANCH  37  40
ENDBRANCH  35  36
ENDBRANCH  34  35
ENDBRANCH  33  34
ENDBRANCH  32  33
ENDBRANCH   1  32
TORSDOF 19
