REMARK SMILES O=C(COc1ccc(/C=C/C(=O)c2ccc(F)cc2F)cc1[N+](=O)[O-])NCCCCCCNC(=O)c1ccc(-c2c3nc(c(-c4c(F)cccc4F)c4ccc([nH]4)c(-c4c(F)cccc4F)c4nc(c(-c5c(F)cccc5F)c5ccc2[nH]5)C=C4)C=C3)cc1
REMARK SMILES IDX 28 1 27 2 26 3 1 4 2 5 3 7 4 8 5 9 6 10 22 11 7 12 21 13
REMARK SMILES IDX 8 14 23 15 24 16 25 17 9 18 10 19 11 20 12 21 13 22 14 23
REMARK SMILES IDX 19 24 15 25 18 26 20 27 16 28 17 29 29 30 30 31 31 32 32 33
REMARK SMILES IDX 33 34 34 35 35 37 36 38 37 39 89 40 38 41 88 42 39 43 40 44
REMARK SMILES IDX 41 45 82 46 42 47 87 48 81 49 83 50 43 51 86 52 80 53 79 54
REMARK SMILES IDX 44 56 70 57 53 58 69 59 54 60 57 61 68 62 84 63 55 64 56 65
REMARK SMILES IDX 67 67 85 68 58 69 45 70 46 71 51 72 47 73 48 74 50 75 52 76
REMARK SMILES IDX 49 77 71 78 72 79 77 80 73 81 74 82 76 83 78 84 75 85 59 86
REMARK SMILES IDX 60 87 65 88 61 89 62 90 64 91 66 92 63 93
REMARK H PARENT 26 6 33 36 83 55 57 66
REMARK Flexibility Score: inf
ROOT
ATOM      1  C   UNL     1       2.992   2.907   2.293  1.00  0.00     0.021 C 
ENDROOT
BRANCH   1   2
ATOM      2  C   UNL     1       2.223   2.216   1.171  1.00  0.00     0.116 C 
BRANCH   2   3
ATOM      3  N   UNL     1       2.907   1.058   0.629  1.00  0.00    -0.353 N 
ATOM      4  O   UNL     1       1.215  -0.471   0.956  1.00  0.00    -0.271 OA
ATOM      5  C   UNL     1       2.302  -0.171   0.472  1.00  0.00     0.257 C 
ATOM      6  H   UNL     1       3.849   1.154   0.360  1.00  0.00     0.163 HD
BRANCH   5   7
ATOM      7  C   UNL     1       3.119  -1.160  -0.366  1.00  0.00     0.329 C 
BRANCH   7   8
ATOM      8  O   UNL     1       3.847  -0.515  -1.420  1.00  0.00    -0.477 OA
BRANCH   8   9
ATOM      9  C   UNL     1       3.210  -0.609  -2.628  1.00  0.00     0.197 A 
ATOM     10  C   UNL     1       3.514  -1.690  -3.459  1.00  0.00     0.054 A 
ATOM     11  C   UNL     1       2.348   0.376  -3.110  1.00  0.00     0.311 A 
ATOM     12  C   UNL     1       2.932  -1.792  -4.734  1.00  0.00     0.012 A 
ATOM     13  C   UNL     1       1.735   0.269  -4.361  1.00  0.00     0.098 A 
ATOM     14  C   UNL     1       2.037  -0.814  -5.188  1.00  0.00    -0.018 A 
BRANCH  11  15
ATOM     15  N   UNL     1       2.120   1.599  -2.380  1.00  0.00     0.066 N 
ATOM     16  O   UNL     1       0.945   1.888  -2.116  1.00  0.00    -0.258 OA
ATOM     17  O   UNL     1       3.110   2.297  -2.120  1.00  0.00    -0.258 OA
ENDBRANCH  11  15
BRANCH  14  18
ATOM     18  C   UNL     1       1.392  -0.836  -6.502  1.00  0.00     0.012 C 
ATOM     19  C   UNL     1       2.047  -1.033  -7.655  1.00  0.00     0.053 C 
BRANCH  19  20
ATOM     20  C   UNL     1       1.375  -0.872  -8.971  1.00  0.00     0.188 C 
ATOM     21  O   UNL     1       1.668  -1.609  -9.906  1.00  0.00    -0.289 OA
BRANCH  20  22
ATOM     22  C   UNL     1       0.346   0.179  -9.150  1.00  0.00     0.058 A 
ATOM     23  C   UNL     1      -0.811  -0.127  -9.878  1.00  0.00     0.018 A 
ATOM     24  C   UNL     1       0.515   1.469  -8.633  1.00  0.00     0.137 A 
ATOM     25  C   UNL     1      -1.803   0.844 -10.042  1.00  0.00     0.040 A 
ATOM     26  C   UNL     1      -0.470   2.437  -8.796  1.00  0.00     0.079 A 
ATOM     27  F   UNL     1       1.631   1.808  -7.973  1.00  0.00    -0.206 F 
ATOM     28  C   UNL     1      -1.625   2.112  -9.495  1.00  0.00     0.126 A 
ATOM     29  F   UNL     1      -2.581   3.036  -9.650  1.00  0.00    -0.207 F 
ENDBRANCH  20  22
ENDBRANCH  19  20
ENDBRANCH  14  18
ENDBRANCH   8   9
ENDBRANCH   7   8
ENDBRANCH   5   7
ENDBRANCH   2   3
ENDBRANCH   1   2
BRANCH   1  30
ATOM     30  C   UNL     1       4.451   3.269   1.991  1.00  0.00     0.002 C 
BRANCH  30  31
ATOM     31  C   UNL     1       4.713   4.103   0.734  1.00  0.00     0.002 C 
BRANCH  31  32
ATOM     32  C   UNL     1       3.977   5.439   0.634  1.00  0.00     0.021 C 
BRANCH  32  33
ATOM     33  C   UNL     1       4.143   6.386   1.819  1.00  0.00     0.116 C 
BRANCH  33  34
ATOM     34  N   UNL     1       5.525   6.755   2.080  1.00  0.00    -0.352 N 
ATOM     35  C   UNL     1       6.053   7.970   2.445  1.00  0.00     0.251 C 
ATOM     36  H   UNL     1       6.179   6.026   1.981  1.00  0.00     0.163 HD
ATOM     37  O   UNL     1       7.270   8.103   2.545  1.00  0.00    -0.269 OA
BRANCH  35  38
ATOM     38  C   UNL     1       5.170   9.136   2.680  1.00  0.00     0.039 A 
ATOM     39  C   UNL     1       5.541  10.373   2.143  1.00  0.00     0.014 A 
ATOM     40  C   UNL     1       3.995   9.027   3.429  1.00  0.00     0.014 A 
ATOM     41  C   UNL     1       4.701  11.480   2.291  1.00  0.00     0.010 A 
ATOM     42  C   UNL     1       3.129  10.117   3.527  1.00  0.00     0.010 A 
ATOM     43  C   UNL     1       3.470  11.351   2.954  1.00  0.00    -0.014 A 
BRANCH  43  44
ATOM     44  C   UNL     1       2.520  12.489   3.039  1.00  0.00     0.031 A 
ATOM     45  C   UNL     1       2.194  13.111   4.367  1.00  0.00     0.074 A 
ATOM     46  C   UNL     1       1.894  12.918   1.926  1.00  0.00     0.049 A 
ATOM     47  N   UNL     1       1.331  14.054   4.649  1.00  0.00    -0.248 NA
ATOM     48  C   UNL     1       2.918  12.589   5.537  1.00  0.00     0.031 C 
ATOM     49  C   UNL     1       2.086  12.370   0.582  1.00  0.00     0.029 A 
ATOM     50  N   UNL     1       0.956  13.904   1.752  1.00  0.00    -0.354 N 
ATOM     51  C   UNL     1       1.392  14.224   6.026  1.00  0.00     0.074 A 
ATOM     52  C   UNL     1       2.352  13.263   6.527  1.00  0.00     0.031 C 
ATOM     53  C   UNL     1       1.302  13.037  -0.280  1.00  0.00     0.029 A 
ATOM     54  C   UNL     1       0.530  14.036   0.453  1.00  0.00     0.049 A 
ATOM     55  H   UNL     1       0.619  14.464   2.488  1.00  0.00     0.167 HD
ATOM     56  C   UNL     1       0.723  15.112   6.800  1.00  0.00     0.037 A 
ATOM     57  C   UNL     1      -0.384  14.864  -0.087  1.00  0.00     0.037 A 
ATOM     58  C   UNL     1      -0.208  16.089   6.302  1.00  0.00     0.049 A 
ATOM     59  C   UNL     1      -1.104  15.847   0.791  1.00  0.00     0.074 A 
ATOM     60  C   UNL     1      -0.886  17.072   7.003  1.00  0.00     0.029 A 
ATOM     61  N   UNL     1      -0.591  16.209   4.975  1.00  0.00    -0.354 N 
ATOM     62  N   UNL     1      -0.993  16.035   2.083  1.00  0.00    -0.248 NA
ATOM     63  C   UNL     1      -2.074  16.736   0.135  1.00  0.00     0.031 C 
ATOM     64  C   UNL     1      -1.702  17.768   6.104  1.00  0.00     0.029 A 
ATOM     65  C   UNL     1      -1.507  17.239   4.839  1.00  0.00     0.049 A 
ATOM     66  H   UNL     1      -0.261  15.645   4.238  1.00  0.00     0.167 HD
ATOM     67  C   UNL     1      -1.857  17.076   2.391  1.00  0.00     0.074 A 
ATOM     68  C   UNL     1      -2.480  17.487   1.149  1.00  0.00     0.031 C 
ATOM     69  C   UNL     1      -2.112  17.641   3.596  1.00  0.00     0.037 A 
BRANCH  56  70
ATOM     70  C   UNL     1       0.981  15.067   8.277  1.00  0.00     0.057 A 
ATOM     71  C   UNL     1       2.180  15.533   8.829  1.00  0.00     0.134 A 
ATOM     72  C   UNL     1       0.007  14.583   9.159  1.00  0.00     0.134 A 
ATOM     73  F   UNL     1       3.158  15.999   8.036  1.00  0.00    -0.206 F 
ATOM     74  C   UNL     1       2.412  15.498  10.205  1.00  0.00     0.040 A 
ATOM     75  C   UNL     1       0.218  14.563  10.539  1.00  0.00     0.040 A 
ATOM     76  F   UNL     1      -1.167  14.127   8.695  1.00  0.00    -0.206 F 
ATOM     77  C   UNL     1       1.427  15.016  11.064  1.00  0.00     0.006 A 
ENDBRANCH  56  70
BRANCH  57  78
ATOM     78  C   UNL     1      -0.655  14.815  -1.544  1.00  0.00     0.057 A 
ATOM     79  C   UNL     1      -0.203  15.831  -2.393  1.00  0.00     0.134 A 
ATOM     80  C   UNL     1      -1.370  13.759  -2.121  1.00  0.00     0.134 A 
ATOM     81  F   UNL     1       0.470  16.878  -1.893  1.00  0.00    -0.206 F 
ATOM     82  C   UNL     1      -0.463  15.807  -3.764  1.00  0.00     0.040 A 
ATOM     83  C   UNL     1      -1.621  13.712  -3.493  1.00  0.00     0.040 A 
ATOM     84  F   UNL     1      -1.825  12.754  -1.359  1.00  0.00    -0.206 F 
ATOM     85  C   UNL     1      -1.171  14.742  -4.318  1.00  0.00     0.006 A 
ENDBRANCH  57  78
BRANCH  69  86
ATOM     86  C   UNL     1      -3.083  18.783   3.624  1.00  0.00     0.057 A 
ATOM     87  C   UNL     1      -4.463  18.579   3.508  1.00  0.00     0.134 A 
ATOM     88  C   UNL     1      -2.633  20.097   3.805  1.00  0.00     0.134 A 
ATOM     89  F   UNL     1      -4.954  17.345   3.318  1.00  0.00    -0.206 F 
ATOM     90  C   UNL     1      -5.362  19.645   3.554  1.00  0.00     0.040 A 
ATOM     91  C   UNL     1      -3.524  21.169   3.873  1.00  0.00     0.040 A 
ATOM     92  F   UNL     1      -1.323  20.357   3.928  1.00  0.00    -0.206 F 
ATOM     93  C   UNL     1      -4.893  20.944   3.743  1.00  0.00     0.006 A 
ENDBRANCH  69  86
ENDBRANCH  43  44
ENDBRANCH  35  38
ENDBRANCH  33  34
ENDBRANCH  32  33
ENDBRANCH  31  32
ENDBRANCH  30  31
ENDBRANCH   1  30
TORSDOF 19
