REMARK SMILES Cc1nccn1CCC[NH+]1CCC2(CC1)[C@@H](C(=O)NCCCCCCNC(=O)c1ccc(-c3c4nc(c(-c5c(F)cccc5F)c5ccc([nH]5)c(-c5c(F)cccc5F)c5nc(c(-c6c(F)cccc6F)c6ccc3[nH]6)C=C5)C=C4)cc1)CC(=O)N2C
REMARK SMILES IDX 21 1 20 2 19 3 17 4 18 5 16 7 10 8 11 9 15 10 12 12 14 13
REMARK SMILES IDX 13 14 86 15 83 16 84 17 87 18 85 19 9 20 8 21 7 22 6 23 1 24
REMARK SMILES IDX 2 25 3 26 4 27 5 28 22 29 23 30 24 31 25 32 26 33 27 34
REMARK SMILES IDX 28 36 29 37 30 38 82 39 31 40 81 41 32 42 33 43 34 44 75 45
REMARK SMILES IDX 35 46 80 47 74 48 76 49 36 50 79 51 73 52 72 53 37 55 63 56
REMARK SMILES IDX 46 57 62 58 47 59 50 60 61 61 77 62 48 63 49 64 60 66 78 67
REMARK SMILES IDX 51 68 38 69 39 70 44 71 40 72 41 73 43 74 45 75 42 76 64 77
REMARK SMILES IDX 65 78 70 79 66 80 67 81 69 82 71 83 68 84 52 85 53 86 58 87
REMARK SMILES IDX 54 88 55 89 57 90 59 91 56 92
REMARK H PARENT 19 6 10 11 26 35 76 54 50 65
REMARK Flexibility Score: inf
ROOT
ATOM      1  C   UNL     1      -7.852  -2.214   7.694  1.00  0.00     0.021 C 
ENDROOT
BRANCH   1   2
ATOM      2  C   UNL     1      -6.663  -1.790   8.549  1.00  0.00     0.116 C 
BRANCH   2   3
ATOM      3  N   UNL     1      -5.414  -2.354   8.071  1.00  0.00    -0.356 N 
ATOM      4  C   UNL     1      -4.196  -1.767   7.884  1.00  0.00     0.226 C 
ATOM      5  O   UNL     1      -3.259  -2.506   7.599  1.00  0.00    -0.275 OA
ATOM      6  H   UNL     1      -5.452  -3.312   7.846  1.00  0.00     0.163 HD
BRANCH   4   7
ATOM      7  C   UNL     1      -4.090  -0.257   8.080  1.00  0.00     0.114 C 
ATOM      8  N   UNL     1      -1.508   1.416   4.987  1.00  0.00    -0.335 N 
ATOM      9  C   UNL     1      -2.302   2.357   5.780  1.00  0.00     0.264 C 
ATOM     10  C   UNL     1      -0.864   0.434   5.865  1.00  0.00     0.264 C 
ATOM     11  H   UNL     1      -0.766   1.941   4.524  1.00  0.00     0.348 HD
ATOM     12  C   UNL     1      -3.356   1.681   6.659  1.00  0.00     0.091 C 
ATOM     13  C   UNL     1      -1.844  -0.344   6.741  1.00  0.00     0.091 C 
ATOM     14  C   UNL     1      -2.826   0.521   7.557  1.00  0.00     0.065 C 
ATOM     15  N   UNL     1      -2.249   1.065   8.804  1.00  0.00    -0.339 N 
ATOM     16  C   UNL     1      -4.201   0.026   9.580  1.00  0.00     0.116 C 
ATOM     17  C   UNL     1      -3.021   0.864   9.932  1.00  0.00     0.223 C 
ATOM     18  C   UNL     1      -0.954   1.696   8.952  1.00  0.00     0.147 C 
ATOM     19  O   UNL     1      -2.793   1.279  11.053  1.00  0.00    -0.275 OA
BRANCH   8  20
ATOM     20  C   UNL     1      -2.261   0.817   3.874  1.00  0.00     0.264 C 
BRANCH  20  21
ATOM     21  C   UNL     1      -1.688   1.267   2.525  1.00  0.00     0.083 C 
BRANCH  21  22
ATOM     22  C   UNL     1      -0.206   0.941   2.306  1.00  0.00     0.129 C 
BRANCH  22  23
ATOM     23  N   UNL     1       0.076  -0.425   1.897  1.00  0.00    -0.335 N 
ATOM     24  C   UNL     1       1.049   0.025  -0.419  1.00  0.00     0.087 C 
ATOM     25  C   UNL     1       0.665  -0.846   0.721  1.00  0.00     0.105 A 
ATOM     26  N   UNL     1       0.878  -2.149   0.748  1.00  0.00    -0.242 NA
ATOM     27  C   UNL     1       0.423  -2.584   1.956  1.00  0.00     0.131 A 
ATOM     28  C   UNL     1      -0.088  -1.538   2.678  1.00  0.00     0.107 A 
ENDBRANCH  22  23
ENDBRANCH  21  22
ENDBRANCH  20  21
ENDBRANCH   8  20
ENDBRANCH   4   7
ENDBRANCH   2   3
ENDBRANCH   1   2
BRANCH   1  29
ATOM     29  C   UNL     1      -8.024  -3.727   7.525  1.00  0.00     0.002 C 
BRANCH  29  30
ATOM     30  C   UNL     1      -7.965  -4.576   8.806  1.00  0.00     0.002 C 
BRANCH  30  31
ATOM     31  C   UNL     1      -8.906  -4.185   9.954  1.00  0.00     0.021 C 
BRANCH  31  32
ATOM     32  C   UNL     1     -10.378  -4.263   9.603  1.00  0.00     0.116 C 
BRANCH  32  33
ATOM     33  N   UNL     1     -10.851  -5.630   9.340  1.00  0.00    -0.352 N 
ATOM     34  C   UNL     1     -12.122  -6.040   8.949  1.00  0.00     0.251 C 
ATOM     35  H   UNL     1     -10.185  -6.346   9.456  1.00  0.00     0.163 HD
ATOM     36  O   UNL     1     -12.506  -7.188   9.100  1.00  0.00    -0.269 OA
BRANCH  34  37
ATOM     37  C   UNL     1     -12.988  -5.038   8.306  1.00  0.00     0.039 A 
ATOM     38  C   UNL     1     -14.362  -4.910   8.529  1.00  0.00     0.014 A 
ATOM     39  C   UNL     1     -12.319  -4.138   7.497  1.00  0.00     0.014 A 
ATOM     40  C   UNL     1     -15.022  -3.832   7.939  1.00  0.00     0.010 A 
ATOM     41  C   UNL     1     -12.872  -2.920   7.297  1.00  0.00     0.010 A 
ATOM     42  C   UNL     1     -14.249  -2.848   7.311  1.00  0.00    -0.014 A 
BRANCH  42  43
ATOM     43  C   UNL     1     -14.780  -1.694   6.612  1.00  0.00     0.031 A 
ATOM     44  C   UNL     1     -15.524  -0.738   7.457  1.00  0.00     0.074 A 
ATOM     45  C   UNL     1     -14.339  -1.383   5.369  1.00  0.00     0.049 A 
ATOM     46  N   UNL     1     -16.781  -0.458   7.408  1.00  0.00    -0.248 NA
ATOM     47  C   UNL     1     -14.813  -0.115   8.585  1.00  0.00     0.031 C 
ATOM     48  C   UNL     1     -13.328  -2.060   4.536  1.00  0.00     0.029 A 
ATOM     49  N   UNL     1     -14.644  -0.293   4.622  1.00  0.00    -0.354 N 
ATOM     50  C   UNL     1     -16.986   0.532   8.363  1.00  0.00     0.074 A 
ATOM     51  C   UNL     1     -15.801   0.555   9.180  1.00  0.00     0.031 C 
ATOM     52  C   UNL     1     -12.950  -1.250   3.523  1.00  0.00     0.029 A 
ATOM     53  C   UNL     1     -13.808  -0.085   3.530  1.00  0.00     0.049 A 
ATOM     54  H   UNL     1     -15.397   0.304   4.836  1.00  0.00     0.167 HD
ATOM     55  C   UNL     1     -18.013   1.418   8.251  1.00  0.00     0.037 A 
ATOM     56  C   UNL     1     -13.818   1.006   2.725  1.00  0.00     0.037 A 
ATOM     57  C   UNL     1     -18.974   0.981   7.267  1.00  0.00     0.049 A 
ATOM     58  C   UNL     1     -15.152   1.645   2.897  1.00  0.00     0.074 A 
ATOM     59  C   UNL     1     -19.774  -0.138   7.130  1.00  0.00     0.029 A 
ATOM     60  N   UNL     1     -18.907   1.540   6.012  1.00  0.00    -0.354 N 
ATOM     61  N   UNL     1     -16.271   1.071   2.539  1.00  0.00    -0.248 NA
ATOM     62  C   UNL     1     -15.278   2.660   3.935  1.00  0.00     0.031 C 
ATOM     63  C   UNL     1     -19.702  -0.470   5.744  1.00  0.00     0.029 A 
ATOM     64  C   UNL     1     -18.932   0.506   5.108  1.00  0.00     0.049 A 
ATOM     65  H   UNL     1     -18.852   2.501   5.801  1.00  0.00     0.167 HD
ATOM     66  C   UNL     1     -17.166   1.346   3.566  1.00  0.00     0.074 A 
ATOM     67  C   UNL     1     -16.509   2.375   4.373  1.00  0.00     0.031 C 
ATOM     68  C   UNL     1     -18.212   0.512   3.853  1.00  0.00     0.037 A 
BRANCH  55  69
ATOM     69  C   UNL     1     -17.977   2.834   8.757  1.00  0.00     0.057 A 
ATOM     70  C   UNL     1     -19.164   3.586   8.774  1.00  0.00     0.134 A 
ATOM     71  C   UNL     1     -16.794   3.573   8.964  1.00  0.00     0.134 A 
ATOM     72  F   UNL     1     -20.354   2.998   8.577  1.00  0.00    -0.206 F 
ATOM     73  C   UNL     1     -19.166   4.979   8.914  1.00  0.00     0.040 A 
ATOM     74  C   UNL     1     -16.790   4.956   9.160  1.00  0.00     0.040 A 
ATOM     75  F   UNL     1     -15.578   3.020   8.887  1.00  0.00    -0.206 F 
ATOM     76  C   UNL     1     -17.975   5.669   9.101  1.00  0.00     0.006 A 
ENDBRANCH  55  69
BRANCH  56  77
ATOM     77  C   UNL     1     -12.639   1.694   2.147  1.00  0.00     0.057 A 
ATOM     78  C   UNL     1     -12.761   2.616   1.099  1.00  0.00     0.134 A 
ATOM     79  C   UNL     1     -11.380   1.647   2.777  1.00  0.00     0.134 A 
ATOM     80  F   UNL     1     -13.933   2.772   0.467  1.00  0.00    -0.206 F 
ATOM     81  C   UNL     1     -11.698   3.445   0.707  1.00  0.00     0.040 A 
ATOM     82  C   UNL     1     -10.311   2.464   2.394  1.00  0.00     0.040 A 
ATOM     83  F   UNL     1     -11.168   0.863   3.846  1.00  0.00    -0.206 F 
ATOM     84  C   UNL     1     -10.471   3.376   1.360  1.00  0.00     0.006 A 
ENDBRANCH  56  77
BRANCH  68  85
ATOM     85  C   UNL     1     -18.479  -0.647   2.925  1.00  0.00     0.057 A 
ATOM     86  C   UNL     1     -17.606  -1.735   2.765  1.00  0.00     0.134 A 
ATOM     87  C   UNL     1     -19.739  -0.770   2.333  1.00  0.00     0.134 A 
ATOM     88  F   UNL     1     -16.419  -1.763   3.375  1.00  0.00    -0.206 F 
ATOM     89  C   UNL     1     -17.954  -2.874   2.030  1.00  0.00     0.040 A 
ATOM     90  C   UNL     1     -20.113  -1.914   1.620  1.00  0.00     0.040 A 
ATOM     91  F   UNL     1     -20.656   0.197   2.493  1.00  0.00    -0.206 F 
ATOM     92  C   UNL     1     -19.218  -2.969   1.461  1.00  0.00     0.006 A 
ENDBRANCH  68  85
ENDBRANCH  42  43
ENDBRANCH  34  37
ENDBRANCH  32  33
ENDBRANCH  31  32
ENDBRANCH  30  31
ENDBRANCH  29  30
ENDBRANCH   1  29
TORSDOF 17
