REMARK SMILES NC(=O)c1cc(NC(=O)/C=C\C(=O)NCCCCCCNC(=O)c2ccc(-c3c4nc(c(-c5c(F)cccc5F)c5ccc([nH]5)c(-c5c(F)cccc5F)c5nc(c(-c6c(F)cccc6F)c6ccc3[nH]6)C=C5)C=C4)cc2)ccc1N1CCOCC1
REMARK SMILES IDX 17 1 16 2 15 3 14 4 12 5 13 6 11 8 10 9 8 10 7 11 9 13 6 14
REMARK SMILES IDX 4 15 5 16 80 17 79 18 78 19 2 20 1 21 3 24 81 25 82 26 86 27
REMARK SMILES IDX 83 28 85 29 84 30 18 31 19 32 20 33 21 34 22 35 23 37 24 38
REMARK SMILES IDX 25 39 77 40 26 41 76 42 27 43 28 44 29 45 70 46 30 47 75 48
REMARK SMILES IDX 69 49 71 50 31 51 74 52 68 53 67 54 32 56 58 57 41 58 57 59
REMARK SMILES IDX 42 60 45 61 56 62 72 63 43 64 44 65 55 67 73 68 46 69 33 70
REMARK SMILES IDX 34 71 39 72 35 73 36 74 38 75 40 76 37 77 59 78 60 79 65 80
REMARK SMILES IDX 61 81 62 82 64 83 66 84 63 85 47 86 48 87 53 88 49 89 50 90
REMARK SMILES IDX 52 91 54 92 51 93
REMARK H PARENT 14 7 7 12 1 22 1 23 21 36 71 55 45 66
REMARK Flexibility Score: inf
ROOT
ATOM      1  C   UNL     1       2.479  -7.611   1.292  1.00  0.00     0.002 C 
ENDROOT
BRANCH   1   2
ATOM      2  C   UNL     1       1.080  -7.224   0.829  1.00  0.00     0.021 C 
BRANCH   2   3
ATOM      3  C   UNL     1       0.543  -5.881   1.405  1.00  0.00     0.116 C 
BRANCH   3   4
ATOM      4  N   UNL     1       1.281  -4.436   0.901  1.00  0.00    -0.353 N 
ATOM      5  C   UNL     1       1.383  -3.177  -0.615  1.00  0.00     0.244 C 
ATOM      6  O   UNL     1       2.172  -2.215  -0.835  1.00  0.00    -0.270 OA
ATOM      7  H   UNL     1       1.867  -4.112   1.622  1.00  0.00     0.163 HD
BRANCH   5   8
ATOM      8  C   UNL     1       0.286  -2.975  -1.952  1.00  0.00     0.077 C 
ATOM      9  C   UNL     1      -0.450  -3.734  -2.796  1.00  0.00     0.077 C 
BRANCH   9  10
ATOM     10  C   UNL     1      -0.442  -5.220  -2.882  1.00  0.00     0.248 C 
ATOM     11  N   UNL     1       0.428  -5.819  -2.033  1.00  0.00    -0.322 N 
ATOM     12  H   UNL     1       0.778  -6.720  -2.219  1.00  0.00     0.170 HD
ATOM     13  O   UNL     1      -1.061  -5.821  -3.749  1.00  0.00    -0.270 OA
BRANCH  11  14
ATOM     14  C   UNL     1       0.809  -5.128  -0.900  1.00  0.00     0.042 A 
ATOM     15  C   UNL     1       0.165  -2.736   1.082  1.00  0.00     0.064 A 
ATOM     16  C   UNL     1      -0.439  -4.061  -0.019  1.00  0.00     0.042 A 
ATOM     17  C   UNL     1       1.949  -2.512   1.396  1.00  0.00     0.050 A 
ATOM     18  C   UNL     1       3.149  -3.654   0.593  1.00  0.00     0.029 A 
ATOM     19  C   UNL     1       2.590  -4.925  -0.575  1.00  0.00     0.028 A 
BRANCH  15  20
ATOM     20  C   UNL     1      -0.724  -1.562   0.996  1.00  0.00     0.250 C 
ATOM     21  N   UNL     1      -0.154  -0.509   0.340  1.00  0.00    -0.366 N 
ATOM     22  H   UNL     1      -0.657   0.329   0.223  1.00  0.00     0.159 HD
ATOM     23  H   UNL     1       0.761  -0.587  -0.016  1.00  0.00     0.159 HD
ATOM     24  O   UNL     1      -1.898  -1.598   1.323  1.00  0.00    -0.269 OA
ENDBRANCH  15  20
BRANCH  17  25
ATOM     25  N   UNL     1       2.473  -1.371   2.023  1.00  0.00    -0.366 N 
ATOM     26  C   UNL     1       1.728  -0.381   2.832  1.00  0.00     0.145 C 
ATOM     27  C   UNL     1       3.860  -0.954   1.747  1.00  0.00     0.145 C 
ATOM     28  C   UNL     1       1.912   1.060   2.279  1.00  0.00     0.181 C 
ATOM     29  C   UNL     1       3.879   0.457   1.147  1.00  0.00     0.181 C 
ATOM     30  O   UNL     1       3.291   1.397   2.056  1.00  0.00    -0.378 OA
ENDBRANCH  17  25
ENDBRANCH  11  14
ENDBRANCH   9  10
ENDBRANCH   5   8
ENDBRANCH   3   4
ENDBRANCH   2   3
ENDBRANCH   1   2
BRANCH   1  31
ATOM     31  C   UNL     1       2.430  -8.503   2.526  1.00  0.00     0.002 C 
BRANCH  31  32
ATOM     32  C   UNL     1       1.740  -9.853   2.292  1.00  0.00     0.021 C 
BRANCH  32  33
ATOM     33  C   UNL     1       2.350 -10.662   1.155  1.00  0.00     0.116 C 
BRANCH  33  34
ATOM     34  N   UNL     1       3.734 -10.995   1.463  1.00  0.00    -0.352 N 
ATOM     35  C   UNL     1       4.217 -12.225   1.833  1.00  0.00     0.251 C 
ATOM     36  H   UNL     1       4.389 -10.264   1.399  1.00  0.00     0.163 HD
ATOM     37  O   UNL     1       5.257 -12.341   2.467  1.00  0.00    -0.269 OA
BRANCH  35  38
ATOM     38  C   UNL     1       3.438 -13.407   1.427  1.00  0.00     0.039 A 
ATOM     39  C   UNL     1       3.129 -14.392   2.363  1.00  0.00     0.014 A 
ATOM     40  C   UNL     1       2.966 -13.483   0.112  1.00  0.00     0.014 A 
ATOM     41  C   UNL     1       2.309 -15.450   1.979  1.00  0.00     0.010 A 
ATOM     42  C   UNL     1       2.072 -14.482  -0.236  1.00  0.00     0.010 A 
ATOM     43  C   UNL     1       1.756 -15.489   0.686  1.00  0.00    -0.014 A 
BRANCH  43  44
ATOM     44  C   UNL     1       0.867 -16.596   0.267  1.00  0.00     0.031 A 
ATOM     45  C   UNL     1       1.285 -17.500  -0.860  1.00  0.00     0.074 A 
ATOM     46  C   UNL     1      -0.326 -16.759   0.869  1.00  0.00     0.049 A 
ATOM     47  N   UNL     1       0.639 -18.503  -1.396  1.00  0.00    -0.248 NA
ATOM     48  C   UNL     1       2.589 -17.223  -1.486  1.00  0.00     0.031 C 
ATOM     49  C   UNL     1      -0.855 -15.915   1.942  1.00  0.00     0.029 A 
ATOM     50  N   UNL     1      -1.310 -17.690   0.662  1.00  0.00    -0.354 N 
ATOM     51  C   UNL     1       1.454 -18.969  -2.420  1.00  0.00     0.074 A 
ATOM     52  C   UNL     1       2.604 -18.096  -2.480  1.00  0.00     0.031 C 
ATOM     53  C   UNL     1      -2.050 -16.390   2.325  1.00  0.00     0.029 A 
ATOM     54  C   UNL     1      -2.393 -17.538   1.492  1.00  0.00     0.049 A 
ATOM     55  H   UNL     1      -1.246 -18.401  -0.016  1.00  0.00     0.167 HD
ATOM     56  C   UNL     1       1.273 -20.046  -3.219  1.00  0.00     0.037 A 
ATOM     57  C   UNL     1      -3.539 -18.241   1.564  1.00  0.00     0.037 A 
ATOM     58  C   UNL     1       0.126 -20.911  -3.147  1.00  0.00     0.049 A 
ATOM     59  C   UNL     1      -3.736 -19.408   0.635  1.00  0.00     0.074 A 
ATOM     60  C   UNL     1      -0.136 -22.055  -3.879  1.00  0.00     0.029 A 
ATOM     61  N   UNL     1      -0.958 -20.718  -2.303  1.00  0.00    -0.354 N 
ATOM     62  N   UNL     1      -2.925 -19.885  -0.280  1.00  0.00    -0.248 NA
ATOM     63  C   UNL     1      -5.005 -20.138   0.751  1.00  0.00     0.031 C 
ATOM     64  C   UNL     1      -1.410 -22.512  -3.530  1.00  0.00     0.029 A 
ATOM     65  C   UNL     1      -1.908 -21.702  -2.522  1.00  0.00     0.049 A 
ATOM     66  H   UNL     1      -1.039 -19.990  -1.645  1.00  0.00     0.167 HD
ATOM     67  C   UNL     1      -3.570 -20.989  -0.823  1.00  0.00     0.074 A 
ATOM     68  C   UNL     1      -4.831 -21.119  -0.122  1.00  0.00     0.031 C 
ATOM     69  C   UNL     1      -3.157 -21.820  -1.812  1.00  0.00     0.037 A 
BRANCH  56  70
ATOM     70  C   UNL     1       2.334 -20.337  -4.242  1.00  0.00     0.057 A 
ATOM     71  C   UNL     1       3.628 -20.738  -3.881  1.00  0.00     0.134 A 
ATOM     72  C   UNL     1       2.051 -20.237  -5.610  1.00  0.00     0.134 A 
ATOM     73  F   UNL     1       3.972 -20.843  -2.588  1.00  0.00    -0.206 F 
ATOM     74  C   UNL     1       4.609 -20.994  -4.840  1.00  0.00     0.040 A 
ATOM     75  C   UNL     1       3.013 -20.526  -6.579  1.00  0.00     0.040 A 
ATOM     76  F   UNL     1       0.833 -19.863  -6.030  1.00  0.00    -0.206 F 
ATOM     77  C   UNL     1       4.300 -20.896  -6.195  1.00  0.00     0.006 A 
ENDBRANCH  56  70
BRANCH  57  78
ATOM     78  C   UNL     1      -4.582 -17.870   2.555  1.00  0.00     0.057 A 
ATOM     79  C   UNL     1      -4.908 -18.720   3.618  1.00  0.00     0.134 A 
ATOM     80  C   UNL     1      -5.288 -16.665   2.456  1.00  0.00     0.134 A 
ATOM     81  F   UNL     1      -4.279 -19.896   3.761  1.00  0.00    -0.206 F 
ATOM     82  C   UNL     1      -5.917 -18.400   4.529  1.00  0.00     0.040 A 
ATOM     83  C   UNL     1      -6.276 -16.317   3.378  1.00  0.00     0.040 A 
ATOM     84  F   UNL     1      -5.016 -15.799   1.468  1.00  0.00    -0.206 F 
ATOM     85  C   UNL     1      -6.601 -17.192   4.412  1.00  0.00     0.006 A 
ENDBRANCH  57  78
BRANCH  69  86
ATOM     86  C   UNL     1      -4.055 -22.973  -2.164  1.00  0.00     0.057 A 
ATOM     87  C   UNL     1      -5.293 -22.790  -2.795  1.00  0.00     0.134 A 
ATOM     88  C   UNL     1      -3.653 -24.290  -1.904  1.00  0.00     0.134 A 
ATOM     89  F   UNL     1      -5.743 -21.555  -3.065  1.00  0.00    -0.206 F 
ATOM     90  C   UNL     1      -6.111 -23.872  -3.123  1.00  0.00     0.040 A 
ATOM     91  C   UNL     1      -4.445 -25.381  -2.262  1.00  0.00     0.040 A 
ATOM     92  F   UNL     1      -2.474 -24.539  -1.315  1.00  0.00    -0.206 F 
ATOM     93  C   UNL     1      -5.684 -25.172  -2.864  1.00  0.00     0.006 A 
ENDBRANCH  69  86
ENDBRANCH  43  44
ENDBRANCH  35  38
ENDBRANCH  33  34
ENDBRANCH  32  33
ENDBRANCH  31  32
ENDBRANCH   1  31
TORSDOF 17
