REMARK SMILES Cc1cc(Cl)cc2c1O[C@H](C(F)(F)F)C(C(=O)NCCCCCCNC(=O)c1ccc(-c3c4nc(c(-c5c(F)cccc5F)c5ccc([nH]5)c(-c5c(F)cccc5F)c5nc(c(-c6c(F)cccc6F)c6ccc3[nH]6)C=C5)C=C4)cc1)=C2
REMARK SMILES IDX 22 1 21 2 20 3 19 4 18 5 16 6 17 7 15 9 1 10 2 11 3 12 8 13
REMARK SMILES IDX 4 14 7 15 9 16 5 17 6 18 82 19 10 20 11 21 12 22 13 23 14 24
REMARK SMILES IDX 23 25 24 26 25 27 26 28 27 30 28 31 29 32 81 33 30 34 80 35
REMARK SMILES IDX 31 36 32 37 33 38 74 39 34 40 79 41 73 42 75 43 35 44 78 45
REMARK SMILES IDX 72 46 71 47 36 49 62 50 45 51 61 52 46 53 49 54 60 55 76 56
REMARK SMILES IDX 47 57 48 58 59 60 77 61 50 62 37 63 38 64 43 65 39 66 40 67
REMARK SMILES IDX 42 68 44 69 41 70 63 71 64 72 69 73 65 74 66 75 68 76 70 77
REMARK SMILES IDX 67 78 51 79 52 80 57 81 53 82 54 83 56 84 58 85 55 86
REMARK H PARENT 18 8 25 29 75 48 49 59
REMARK Flexibility Score: inf
ROOT
ATOM      1  C   UNL     1       3.833  -8.681   3.451  1.00  0.00     0.002 C 
ENDROOT
BRANCH   1   2
ATOM      2  C   UNL     1       2.352  -8.563   3.067  1.00  0.00     0.002 C 
BRANCH   2   3
ATOM      3  C   UNL     1       1.874  -7.152   2.711  1.00  0.00     0.021 C 
BRANCH   3   4
ATOM      4  C   UNL     1       2.666  -6.497   1.584  1.00  0.00     0.116 C 
BRANCH   4   5
ATOM      5  N   UNL     1       2.167  -6.885   0.278  1.00  0.00    -0.352 N 
ATOM      6  C   UNL     1       1.649  -6.269  -0.809  1.00  0.00     0.251 C 
ATOM      7  O   UNL     1       1.366  -7.020  -1.749  1.00  0.00    -0.270 OA
ATOM      8  H   UNL     1       2.220  -7.860   0.148  1.00  0.00     0.163 HD
BRANCH   6   9
ATOM      9  C   UNL     1       1.408  -4.801  -0.942  1.00  0.00     0.067 C 
ATOM     10  C   UNL     1       0.834   0.270  -0.346  1.00  0.00     0.048 C 
ATOM     11  C   UNL     1       0.491  -0.718  -1.425  1.00  0.00    -0.007 A 
ATOM     12  C   UNL     1      -0.078  -0.286  -2.629  1.00  0.00     0.027 A 
ATOM     13  C   UNL     1       0.760  -2.084  -1.256  1.00  0.00     0.131 A 
ATOM     14  C   UNL     1      -0.385  -1.210  -3.629  1.00  0.00     0.042 A 
ATOM     15  C   UNL     1       0.451  -3.011  -2.256  1.00  0.00     0.019 A 
ATOM     16  O   UNL     1       1.289  -2.462  -0.057  1.00  0.00    -0.475 OA
ATOM     17  Cl  UNL     1      -1.095  -0.666  -5.099  1.00  0.00    -0.084 Cl
ATOM     18  C   UNL     1      -0.126  -2.568  -3.449  1.00  0.00     0.032 A 
ATOM     19  C   UNL     1       0.705  -4.427  -2.027  1.00  0.00     0.025 C 
ATOM     20  C   UNL     1       1.927  -3.764   0.013  1.00  0.00     0.314 C 
BRANCH  20  21
ATOM     21  C   UNL     1       3.451  -3.572  -0.076  1.00  0.00     0.429 C 
ATOM     22  F   UNL     1       3.906  -2.896   1.010  1.00  0.00    -0.167 F 
ATOM     23  F   UNL     1       4.126  -4.745  -0.101  1.00  0.00    -0.167 F 
ATOM     24  F   UNL     1       3.825  -2.876  -1.173  1.00  0.00    -0.167 F 
ENDBRANCH  20  21
ENDBRANCH   6   9
ENDBRANCH   4   5
ENDBRANCH   3   4
ENDBRANCH   2   3
ENDBRANCH   1   2
BRANCH   1  25
ATOM     25  C   UNL     1       4.330  -7.663   4.481  1.00  0.00     0.021 C 
BRANCH  25  26
ATOM     26  C   UNL     1       3.558  -7.662   5.795  1.00  0.00     0.116 C 
BRANCH  26  27
ATOM     27  N   UNL     1       3.674  -8.930   6.495  1.00  0.00    -0.352 N 
ATOM     28  C   UNL     1       4.192  -9.188   7.738  1.00  0.00     0.251 C 
ATOM     29  H   UNL     1       3.331  -9.714   6.009  1.00  0.00     0.163 HD
ATOM     30  O   UNL     1       4.394 -10.342   8.101  1.00  0.00    -0.269 OA
BRANCH  28  31
ATOM     31  C   UNL     1       4.523  -8.064   8.636  1.00  0.00     0.039 A 
ATOM     32  C   UNL     1       5.757  -8.062   9.288  1.00  0.00     0.014 A 
ATOM     33  C   UNL     1       3.613  -7.020   8.838  1.00  0.00     0.014 A 
ATOM     34  C   UNL     1       6.098  -6.990  10.112  1.00  0.00     0.010 A 
ATOM     35  C   UNL     1       3.984  -5.918   9.601  1.00  0.00     0.010 A 
ATOM     36  C   UNL     1       5.222  -5.901  10.259  1.00  0.00    -0.014 A 
BRANCH  36  37
ATOM     37  C   UNL     1       5.579  -4.761  11.138  1.00  0.00     0.031 A 
ATOM     38  C   UNL     1       4.802  -4.519  12.401  1.00  0.00     0.074 A 
ATOM     39  C   UNL     1       6.594  -3.945  10.795  1.00  0.00     0.049 A 
ATOM     40  N   UNL     1       4.980  -3.598  13.313  1.00  0.00    -0.248 NA
ATOM     41  C   UNL     1       3.664  -5.414  12.667  1.00  0.00     0.031 C 
ATOM     42  C   UNL     1       7.392  -4.055   9.573  1.00  0.00     0.029 A 
ATOM     43  N   UNL     1       7.135  -2.867  11.450  1.00  0.00    -0.354 N 
ATOM     44  C   UNL     1       3.984  -3.808  14.258  1.00  0.00     0.074 A 
ATOM     45  C   UNL     1       3.161  -4.894  13.777  1.00  0.00     0.031 C 
ATOM     46  C   UNL     1       8.348  -3.113   9.587  1.00  0.00     0.029 A 
ATOM     47  C   UNL     1       8.216  -2.317  10.804  1.00  0.00     0.049 A 
ATOM     48  H   UNL     1       6.782  -2.521  12.301  1.00  0.00     0.167 HD
ATOM     49  C   UNL     1       3.796  -3.178  15.440  1.00  0.00     0.037 A 
ATOM     50  C   UNL     1       9.016  -1.294  11.162  1.00  0.00     0.037 A 
ATOM     51  C   UNL     1       4.636  -2.121  15.932  1.00  0.00     0.049 A 
ATOM     52  C   UNL     1       8.766  -0.589  12.466  1.00  0.00     0.074 A 
ATOM     53  C   UNL     1       4.567  -1.462  17.146  1.00  0.00     0.029 A 
ATOM     54  N   UNL     1       5.699  -1.571  15.233  1.00  0.00    -0.354 N 
ATOM     55  N   UNL     1       7.867  -0.848  13.384  1.00  0.00    -0.248 NA
ATOM     56  C   UNL     1       9.637   0.553  12.784  1.00  0.00     0.031 C 
ATOM     57  C   UNL     1       5.566  -0.485  17.167  1.00  0.00     0.029 A 
ATOM     58  C   UNL     1       6.277  -0.559  15.979  1.00  0.00     0.049 A 
ATOM     59  H   UNL     1       5.997  -1.856  14.339  1.00  0.00     0.167 HD
ATOM     60  C   UNL     1       8.073   0.085  14.393  1.00  0.00     0.074 A 
ATOM     61  C   UNL     1       9.191   0.907  13.982  1.00  0.00     0.031 C 
ATOM     62  C   UNL     1       7.392   0.246  15.552  1.00  0.00     0.037 A 
BRANCH  49  63
ATOM     63  C   UNL     1       2.659  -3.639  16.300  1.00  0.00     0.057 A 
ATOM     64  C   UNL     1       2.705  -4.866  16.975  1.00  0.00     0.134 A 
ATOM     65  C   UNL     1       1.533  -2.831  16.501  1.00  0.00     0.134 A 
ATOM     66  F   UNL     1       3.751  -5.691  16.815  1.00  0.00    -0.206 F 
ATOM     67  C   UNL     1       1.664  -5.282  17.806  1.00  0.00     0.040 A 
ATOM     68  C   UNL     1       0.496  -3.225  17.348  1.00  0.00     0.040 A 
ATOM     69  F   UNL     1       1.429  -1.643  15.888  1.00  0.00    -0.206 F 
ATOM     70  C   UNL     1       0.558  -4.456  18.000  1.00  0.00     0.006 A 
ENDBRANCH  49  63
BRANCH  50  71
ATOM     71  C   UNL     1      10.155  -0.906  10.294  1.00  0.00     0.057 A 
ATOM     72  C   UNL     1      11.474  -1.168  10.682  1.00  0.00     0.134 A 
ATOM     73  C   UNL     1       9.958  -0.276   9.059  1.00  0.00     0.134 A 
ATOM     74  F   UNL     1      11.727  -1.754  11.861  1.00  0.00    -0.206 F 
ATOM     75  C   UNL     1      12.558  -0.810   9.878  1.00  0.00     0.040 A 
ATOM     76  C   UNL     1      11.032   0.069   8.236  1.00  0.00     0.040 A 
ATOM     77  F   UNL     1       8.718  -0.003   8.629  1.00  0.00    -0.206 F 
ATOM     78  C   UNL     1      12.337  -0.194   8.648  1.00  0.00     0.006 A 
ENDBRANCH  50  71
BRANCH  62  79
ATOM     79  C   UNL     1       7.823   1.353  16.466  1.00  0.00     0.057 A 
ATOM     80  C   UNL     1       7.491   2.686  16.197  1.00  0.00     0.134 A 
ATOM     81  C   UNL     1       8.472   1.073  17.675  1.00  0.00     0.134 A 
ATOM     82  F   UNL     1       6.877   3.016  15.051  1.00  0.00    -0.206 F 
ATOM     83  C   UNL     1       7.787   3.704  17.103  1.00  0.00     0.040 A 
ATOM     84  C   UNL     1       8.754   2.080  18.598  1.00  0.00     0.040 A 
ATOM     85  F   UNL     1       8.805  -0.186  17.994  1.00  0.00    -0.206 F 
ATOM     86  C   UNL     1       8.409   3.400  18.313  1.00  0.00     0.006 A 
ENDBRANCH  62  79
ENDBRANCH  36  37
ENDBRANCH  28  31
ENDBRANCH  26  27
ENDBRANCH  25  26
ENDBRANCH   1  25
TORSDOF 14
