REMARK SMILES Cn1ccnc1NCCOCC(=O)NCCCCCCNC(=O)c1ccc(-c2c3nc(c(-c4c(F)cccc4F)c4ccc([nH]4)c(-c4c(F)cccc4F)c4nc(c(-c5c(F)cccc5F)c5ccc2[nH]5)C=C4)C=C3)cc1
REMARK SMILES IDX 16 1 15 2 14 3 12 4 13 5 11 7 10 8 9 9 8 10 7 11 6 13 1 14
REMARK SMILES IDX 2 15 3 16 4 17 5 18 17 19 18 20 19 21 20 22 21 23 22 24
REMARK SMILES IDX 23 26 24 27 25 28 77 29 26 30 76 31 27 32 28 33 29 34 70 35
REMARK SMILES IDX 30 36 75 37 69 38 71 39 31 40 74 41 68 42 67 43 32 45 58 46
REMARK SMILES IDX 41 47 57 48 42 49 45 50 56 51 72 52 43 53 44 54 55 56 73 57
REMARK SMILES IDX 46 58 33 59 34 60 39 61 35 62 36 63 38 64 40 65 37 66 59 67
REMARK SMILES IDX 60 68 65 69 61 70 62 71 64 72 66 73 63 74 47 75 48 76 53 77
REMARK SMILES IDX 49 78 50 79 52 80 54 81 51 82
REMARK H PARENT 14 6 7 12 21 25 71 44 45 55
REMARK Flexibility Score: inf
ROOT
ATOM      1  C   UNL     1       0.777   5.558   4.854  1.00  0.00     0.021 C 
ENDROOT
BRANCH   1   2
ATOM      2  C   UNL     1       1.999   5.168   4.028  1.00  0.00     0.116 C 
BRANCH   2   3
ATOM      3  N   UNL     1       2.033   3.750   3.732  1.00  0.00    -0.354 N 
ATOM      4  C   UNL     1       2.086   3.156   2.504  1.00  0.00     0.245 C 
ATOM      5  O   UNL     1       2.230   1.935   2.431  1.00  0.00    -0.272 OA
ATOM      6  H   UNL     1       2.015   3.144   4.508  1.00  0.00     0.163 HD
BRANCH   4   7
ATOM      7  C   UNL     1       2.006   4.043   1.255  1.00  0.00     0.260 C 
BRANCH   7   8
ATOM      8  O   UNL     1       0.835   4.822   1.065  1.00  0.00    -0.370 OA
BRANCH   8   9
ATOM      9  C   UNL     1      -0.394   4.080   1.054  1.00  0.00     0.182 C 
BRANCH   9  10
ATOM     10  C   UNL     1      -0.703   3.413  -0.297  1.00  0.00     0.144 C 
BRANCH  10  11
ATOM     11  N   UNL     1       0.137   2.251  -0.527  1.00  0.00    -0.353 N 
ATOM     12  H   UNL     1       1.034   2.370  -0.916  1.00  0.00     0.163 HD
BRANCH  11  13
ATOM     13  C   UNL     1      -0.289   1.013  -0.218  1.00  0.00     0.202 A 
ATOM     14  C   UNL     1       2.015  -0.039  -0.138  1.00  0.00     0.153 C 
ATOM     15  N   UNL     1       0.574  -0.054  -0.120  1.00  0.00    -0.321 N 
ATOM     16  C   UNL     1      -0.177  -1.183   0.082  1.00  0.00     0.109 A 
ATOM     17  C   UNL     1      -1.472  -0.735   0.161  1.00  0.00     0.133 A 
ATOM     18  N   UNL     1      -1.525   0.626   0.008  1.00  0.00    -0.222 NA
ENDBRANCH  11  13
ENDBRANCH  10  11
ENDBRANCH   9  10
ENDBRANCH   8   9
ENDBRANCH   7   8
ENDBRANCH   4   7
ENDBRANCH   2   3
ENDBRANCH   1   2
BRANCH   1  19
ATOM     19  C   UNL     1       0.686   4.884   6.228  1.00  0.00     0.002 C 
BRANCH  19  20
ATOM     20  C   UNL     1       1.932   5.010   7.110  1.00  0.00     0.002 C 
BRANCH  20  21
ATOM     21  C   UNL     1       2.433   6.437   7.340  1.00  0.00     0.021 C 
BRANCH  21  22
ATOM     22  C   UNL     1       1.411   7.383   7.959  1.00  0.00     0.116 C 
BRANCH  22  23
ATOM     23  N   UNL     1       1.018   6.974   9.297  1.00  0.00    -0.352 N 
ATOM     24  C   UNL     1       1.022   7.695  10.465  1.00  0.00     0.251 C 
ATOM     25  H   UNL     1       0.702   6.044   9.377  1.00  0.00     0.163 HD
ATOM     26  O   UNL     1       0.824   7.134  11.538  1.00  0.00    -0.269 OA
BRANCH  24  27
ATOM     27  C   UNL     1       1.288   9.149  10.434  1.00  0.00     0.039 A 
ATOM     28  C   UNL     1       2.161   9.695  11.378  1.00  0.00     0.014 A 
ATOM     29  C   UNL     1       0.676   9.973   9.485  1.00  0.00     0.014 A 
ATOM     30  C   UNL     1       2.464  11.058  11.335  1.00  0.00     0.010 A 
ATOM     31  C   UNL     1       1.036  11.315   9.396  1.00  0.00     0.010 A 
ATOM     32  C   UNL     1       1.930  11.872  10.323  1.00  0.00    -0.014 A 
BRANCH  32  33
ATOM     33  C   UNL     1       2.290  13.309  10.222  1.00  0.00     0.031 A 
ATOM     34  C   UNL     1       1.237  14.367  10.403  1.00  0.00     0.074 A 
ATOM     35  C   UNL     1       3.552  13.660   9.906  1.00  0.00     0.049 A 
ATOM     36  N   UNL     1       1.342  15.667  10.286  1.00  0.00    -0.248 NA
ATOM     37  C   UNL     1      -0.118  13.902  10.736  1.00  0.00     0.031 C 
ATOM     38  C   UNL     1       4.654  12.728   9.662  1.00  0.00     0.029 A 
ATOM     39  N   UNL     1       4.117  14.898   9.725  1.00  0.00    -0.354 N 
ATOM     40  C   UNL     1       0.068  16.171  10.516  1.00  0.00     0.074 A 
ATOM     41  C   UNL     1      -0.804  15.035  10.726  1.00  0.00     0.031 C 
ATOM     42  C   UNL     1       5.767  13.427   9.385  1.00  0.00     0.029 A 
ATOM     43  C   UNL     1       5.450  14.851   9.393  1.00  0.00     0.049 A 
ATOM     44  H   UNL     1       3.616  15.739   9.823  1.00  0.00     0.167 HD
ATOM     45  C   UNL     1      -0.335  17.462  10.571  1.00  0.00     0.037 A 
ATOM     46  C   UNL     1       6.316  15.845   9.116  1.00  0.00     0.037 A 
ATOM     47  C   UNL     1       0.538  18.591  10.383  1.00  0.00     0.049 A 
ATOM     48  C   UNL     1       5.840  17.270   9.169  1.00  0.00     0.074 A 
ATOM     49  C   UNL     1       0.237  19.939  10.477  1.00  0.00     0.029 A 
ATOM     50  N   UNL     1       1.883  18.503  10.058  1.00  0.00    -0.354 N 
ATOM     51  N   UNL     1       4.647  17.734   9.454  1.00  0.00    -0.248 NA
ATOM     52  C   UNL     1       6.832  18.311   8.865  1.00  0.00     0.031 C 
ATOM     53  C   UNL     1       1.390  20.667  10.162  1.00  0.00     0.029 A 
ATOM     54  C   UNL     1       2.421  19.773   9.923  1.00  0.00     0.049 A 
ATOM     55  H   UNL     1       2.383  17.663   9.941  1.00  0.00     0.167 HD
ATOM     56  C   UNL     1       4.752  19.118   9.392  1.00  0.00     0.074 A 
ATOM     57  C   UNL     1       6.129  19.418   9.056  1.00  0.00     0.031 C 
ATOM     58  C   UNL     1       3.795  20.056   9.593  1.00  0.00     0.037 A 
BRANCH  45  59
ATOM     59  C   UNL     1      -1.788  17.723  10.848  1.00  0.00     0.057 A 
ATOM     60  C   UNL     1      -2.359  17.468  12.102  1.00  0.00     0.134 A 
ATOM     61  C   UNL     1      -2.619  18.266   9.860  1.00  0.00     0.134 A 
ATOM     62  F   UNL     1      -1.621  16.937  13.090  1.00  0.00    -0.206 F 
ATOM     63  C   UNL     1      -3.709  17.715  12.355  1.00  0.00     0.040 A 
ATOM     64  C   UNL     1      -3.964  18.545  10.110  1.00  0.00     0.040 A 
ATOM     65  F   UNL     1      -2.137  18.542   8.639  1.00  0.00    -0.206 F 
ATOM     66  C   UNL     1      -4.514  18.262  11.358  1.00  0.00     0.006 A 
ENDBRANCH  45  59
BRANCH  46  67
ATOM     67  C   UNL     1       7.728  15.530   8.782  1.00  0.00     0.057 A 
ATOM     68  C   UNL     1       8.767  15.852   9.663  1.00  0.00     0.134 A 
ATOM     69  C   UNL     1       8.075  14.912   7.575  1.00  0.00     0.134 A 
ATOM     70  F   UNL     1       8.499  16.463  10.826  1.00  0.00    -0.206 F 
ATOM     71  C   UNL     1      10.101  15.591   9.347  1.00  0.00     0.040 A 
ATOM     72  C   UNL     1       9.402  14.621   7.257  1.00  0.00     0.040 A 
ATOM     73  F   UNL     1       7.125  14.570   6.691  1.00  0.00    -0.206 F 
ATOM     74  C   UNL     1      10.421  14.969   8.142  1.00  0.00     0.006 A 
ENDBRANCH  46  67
BRANCH  58  75
ATOM     75  C   UNL     1       4.210  21.495   9.490  1.00  0.00     0.057 A 
ATOM     76  C   UNL     1       4.515  22.090   8.259  1.00  0.00     0.134 A 
ATOM     77  C   UNL     1       4.269  22.303  10.632  1.00  0.00     0.134 A 
ATOM     78  F   UNL     1       4.490  21.368   7.129  1.00  0.00    -0.206 F 
ATOM     79  C   UNL     1       4.887  23.433   8.172  1.00  0.00     0.040 A 
ATOM     80  C   UNL     1       4.612  23.654  10.554  1.00  0.00     0.040 A 
ATOM     81  F   UNL     1       3.981  21.797  11.841  1.00  0.00    -0.206 F 
ATOM     82  C   UNL     1       4.928  24.220   9.321  1.00  0.00     0.006 A 
ENDBRANCH  58  75
ENDBRANCH  32  33
ENDBRANCH  24  27
ENDBRANCH  22  23
ENDBRANCH  21  22
ENDBRANCH  20  21
ENDBRANCH  19  20
ENDBRANCH   1  19
TORSDOF 18
