REMARK SMILES CCC1(C(=O)N[C@H](C)CC(=O)NCCCCCCNC(=O)c2ccc(-c3c4nc(c(-c5c(F)cccc5F)c5ccc([nH]5)c(-c5c(F)cccc5F)c5nc(c(-c6c(F)cccc6F)c6ccc3[nH]6)C=C5)C=C4)cc2)CCCC1
REMARK SMILES IDX 14 1 13 2 12 3 10 4 11 5 9 7 7 8 8 9 6 10 4 11 5 12 3 14
REMARK SMILES IDX 76 15 79 16 77 17 78 18 2 19 1 20 15 21 16 22 17 23 18 24
REMARK SMILES IDX 19 25 20 26 21 28 22 29 23 30 75 31 24 32 74 33 25 34 26 35
REMARK SMILES IDX 27 36 68 37 28 38 73 39 67 40 69 41 29 42 72 43 66 44 65 45
REMARK SMILES IDX 30 47 56 48 39 49 55 50 40 51 43 52 54 53 70 54 41 55 42 56
REMARK SMILES IDX 53 58 71 59 44 60 31 61 32 62 37 63 33 64 34 65 36 66 38 67
REMARK SMILES IDX 35 68 57 69 58 70 63 71 59 72 60 73 62 74 64 75 61 76 45 77
REMARK SMILES IDX 46 78 51 79 47 80 48 81 50 82 52 83 49 84
REMARK H PARENT 12 6 6 13 19 27 69 46 43 57
REMARK Flexibility Score: inf
ROOT
ATOM      1  C   UNL     1       2.077  -0.651  -2.085  1.00  0.00     0.021 C 
ENDROOT
BRANCH   1   2
ATOM      2  C   UNL     1       1.593  -0.585  -3.546  1.00  0.00     0.116 C 
BRANCH   2   3
ATOM      3  N   UNL     1       0.537   0.414  -3.713  1.00  0.00    -0.356 N 
ATOM      4  C   UNL     1       0.496   1.732  -4.045  1.00  0.00     0.222 C 
ATOM      5  O   UNL     1      -0.602   2.292  -3.961  1.00  0.00    -0.275 OA
ATOM      6  H   UNL     1      -0.359   0.042  -3.545  1.00  0.00     0.163 HD
BRANCH   4   7
ATOM      7  C   UNL     1       1.704   2.514  -4.529  1.00  0.00     0.124 C 
BRANCH   7   8
ATOM      8  C   UNL     1       2.302   3.478  -3.495  1.00  0.00     0.088 C 
ATOM      9  C   UNL     1       2.498   2.962  -2.072  1.00  0.00     0.031 C 
BRANCH   8  10
ATOM     10  N   UNL     1       3.451   4.301  -3.954  1.00  0.00    -0.353 N 
ATOM     11  C   UNL     1       4.751   4.239  -4.327  1.00  0.00     0.226 C 
ATOM     12  O   UNL     1       5.270   5.363  -4.410  1.00  0.00    -0.274 OA
ATOM     13  H   UNL     1       3.159   5.240  -4.006  1.00  0.00     0.163 HD
BRANCH  11  14
ATOM     14  C   UNL     1       5.590   2.987  -4.700  1.00  0.00     0.049 C 
ATOM     15  C   UNL     1       5.039   2.301  -5.967  1.00  0.00     0.017 C 
ATOM     16  C   UNL     1       5.594   1.912  -3.597  1.00  0.00     0.017 C 
ATOM     17  C   UNL     1       4.733   0.857  -5.599  1.00  0.00     0.001 C 
ATOM     18  C   UNL     1       4.681   0.819  -4.087  1.00  0.00     0.001 C 
BRANCH  14  19
ATOM     19  C   UNL     1       7.100   3.371  -4.890  1.00  0.00     0.013 C 
ATOM     20  C   UNL     1       7.479   4.271  -6.062  1.00  0.00     0.005 C 
ENDBRANCH  14  19
ENDBRANCH  11  14
ENDBRANCH   8  10
ENDBRANCH   7   8
ENDBRANCH   4   7
ENDBRANCH   2   3
ENDBRANCH   1   2
BRANCH   1  21
ATOM     21  C   UNL     1       2.196  -2.073  -1.520  1.00  0.00     0.002 C 
BRANCH  21  22
ATOM     22  C   UNL     1       3.488  -2.816  -1.873  1.00  0.00     0.002 C 
BRANCH  22  23
ATOM     23  C   UNL     1       4.753  -2.367  -1.127  1.00  0.00     0.021 C 
BRANCH  23  24
ATOM     24  C   UNL     1       4.666  -2.308   0.400  1.00  0.00     0.116 C 
BRANCH  24  25
ATOM     25  N   UNL     1       4.174  -3.540   0.995  1.00  0.00    -0.352 N 
ATOM     26  C   UNL     1       4.654  -4.270   2.054  1.00  0.00     0.251 C 
ATOM     27  H   UNL     1       3.366  -3.910   0.571  1.00  0.00     0.163 HD
ATOM     28  O   UNL     1       4.152  -5.355   2.324  1.00  0.00    -0.269 OA
BRANCH  26  29
ATOM     29  C   UNL     1       5.785  -3.768   2.866  1.00  0.00     0.039 A 
ATOM     30  C   UNL     1       6.795  -4.664   3.232  1.00  0.00     0.014 A 
ATOM     31  C   UNL     1       5.830  -2.445   3.311  1.00  0.00     0.014 A 
ATOM     32  C   UNL     1       7.874  -4.222   4.000  1.00  0.00     0.010 A 
ATOM     33  C   UNL     1       6.935  -1.990   4.028  1.00  0.00     0.010 A 
ATOM     34  C   UNL     1       7.963  -2.876   4.387  1.00  0.00    -0.014 A 
BRANCH  34  35
ATOM     35  C   UNL     1       9.111  -2.383   5.188  1.00  0.00     0.031 A 
ATOM     36  C   UNL     1       8.896  -1.906   6.598  1.00  0.00     0.074 A 
ATOM     37  C   UNL     1      10.334  -2.312   4.629  1.00  0.00     0.049 A 
ATOM     38  N   UNL     1       9.755  -1.380   7.434  1.00  0.00    -0.248 NA
ATOM     39  C   UNL     1       7.527  -2.009   7.127  1.00  0.00     0.031 C 
ATOM     40  C   UNL     1      10.661  -2.703   3.257  1.00  0.00     0.029 A 
ATOM     41  N   UNL     1      11.528  -1.874   5.144  1.00  0.00    -0.354 N 
ATOM     42  C   UNL     1       9.028  -1.071   8.577  1.00  0.00     0.074 A 
ATOM     43  C   UNL     1       7.651  -1.425   8.310  1.00  0.00     0.031 C 
ATOM     44  C   UNL     1      11.973  -2.506   3.045  1.00  0.00     0.029 A 
ATOM     45  C   UNL     1      12.571  -1.948   4.254  1.00  0.00     0.049 A 
ATOM     46  H   UNL     1      11.627  -1.539   6.065  1.00  0.00     0.167 HD
ATOM     47  C   UNL     1       9.471  -0.559   9.750  1.00  0.00     0.037 A 
ATOM     48  C   UNL     1      13.865  -1.604   4.398  1.00  0.00     0.037 A 
ATOM     49  C   UNL     1      10.847  -0.238  10.023  1.00  0.00     0.049 A 
ATOM     50  C   UNL     1      14.337  -1.056   5.716  1.00  0.00     0.074 A 
ATOM     51  C   UNL     1      11.408   0.232  11.198  1.00  0.00     0.029 A 
ATOM     52  N   UNL     1      11.880  -0.358   9.106  1.00  0.00    -0.354 N 
ATOM     53  N   UNL     1      13.650  -0.825   6.808  1.00  0.00    -0.248 NA
ATOM     54  C   UNL     1      15.766  -0.732   5.824  1.00  0.00     0.031 C 
ATOM     55  C   UNL     1      12.777   0.426  10.982  1.00  0.00     0.029 A 
ATOM     56  C   UNL     1      13.074   0.040   9.685  1.00  0.00     0.049 A 
ATOM     57  H   UNL     1      11.780  -0.678   8.181  1.00  0.00     0.167 HD
ATOM     58  C   UNL     1      14.565  -0.355   7.741  1.00  0.00     0.074 A 
ATOM     59  C   UNL     1      15.858  -0.345   7.089  1.00  0.00     0.031 C 
ATOM     60  C   UNL     1      14.353   0.032   9.023  1.00  0.00     0.037 A 
BRANCH  47  61
ATOM     61  C   UNL     1       8.453  -0.321  10.827  1.00  0.00     0.057 A 
ATOM     62  C   UNL     1       7.840  -1.380  11.510  1.00  0.00     0.134 A 
ATOM     63  C   UNL     1       8.093   0.980  11.199  1.00  0.00     0.134 A 
ATOM     64  F   UNL     1       8.130  -2.651  11.193  1.00  0.00    -0.206 F 
ATOM     65  C   UNL     1       6.885  -1.154  12.503  1.00  0.00     0.040 A 
ATOM     66  C   UNL     1       7.159   1.219  12.209  1.00  0.00     0.040 A 
ATOM     67  F   UNL     1       8.645   2.040  10.589  1.00  0.00    -0.206 F 
ATOM     68  C   UNL     1       6.547   0.150  12.858  1.00  0.00     0.006 A 
ENDBRANCH  47  61
BRANCH  48  69
ATOM     69  C   UNL     1      14.814  -1.803   3.275  1.00  0.00     0.057 A 
ATOM     70  C   UNL     1      15.781  -2.813   3.321  1.00  0.00     0.134 A 
ATOM     71  C   UNL     1      14.777  -0.995   2.132  1.00  0.00     0.134 A 
ATOM     72  F   UNL     1      15.876  -3.607   4.398  1.00  0.00    -0.206 F 
ATOM     73  C   UNL     1      16.690  -3.004   2.279  1.00  0.00     0.040 A 
ATOM     74  C   UNL     1      15.665  -1.189   1.073  1.00  0.00     0.040 A 
ATOM     75  F   UNL     1      13.868  -0.016   2.024  1.00  0.00    -0.206 F 
ATOM     76  C   UNL     1      16.630  -2.192   1.148  1.00  0.00     0.006 A 
ENDBRANCH  48  69
BRANCH  60  77
ATOM     77  C   UNL     1      15.553   0.463   9.813  1.00  0.00     0.057 A 
ATOM     78  C   UNL     1      16.180   1.695   9.591  1.00  0.00     0.134 A 
ATOM     79  C   UNL     1      16.063  -0.352  10.831  1.00  0.00     0.134 A 
ATOM     80  F   UNL     1      15.746   2.514   8.621  1.00  0.00    -0.206 F 
ATOM     81  C   UNL     1      17.287   2.093  10.342  1.00  0.00     0.040 A 
ATOM     82  C   UNL     1      17.155   0.045  11.604  1.00  0.00     0.040 A 
ATOM     83  F   UNL     1      15.502  -1.541  11.098  1.00  0.00    -0.206 F 
ATOM     84  C   UNL     1      17.773   1.269  11.356  1.00  0.00     0.006 A 
ENDBRANCH  60  77
ENDBRANCH  34  35
ENDBRANCH  26  29
ENDBRANCH  24  25
ENDBRANCH  23  24
ENDBRANCH  22  23
ENDBRANCH  21  22
ENDBRANCH   1  21
TORSDOF 17
