REMARK SMILES NS(=O)(=O)c1ccc(-n2nc(NC(=O)NCCCCCCCCCCC(=O)NCCCCCCNC(=O)c3ccc(-c4c5nc(c(-c6c(F)cccc6F)c6ccc([nH]6)c(-c6c(F)cccc6F)c6nc(c(-c7c(F)cccc7F)c7ccc4[nH]7)C=C6)C=C5)cc3)cc2-c2ccccc2)cc1
REMARK SMILES IDX 23 1 22 2 21 3 20 4 19 5 18 6 17 7 16 8 15 9 12 10 13 11
REMARK SMILES IDX 14 13 11 15 9 16 10 17 93 18 92 19 8 20 5 21 6 22 101 23
REMARK SMILES IDX 7 24 100 25 2 26 3 27 4 28 1 29 94 32 95 33 99 34 96 35
REMARK SMILES IDX 98 36 97 37 24 38 25 39 26 40 27 41 28 42 29 44 30 45 31 46
REMARK SMILES IDX 32 47 33 48 34 49 35 50 36 51 37 53 38 54 39 55 91 56 40 57
REMARK SMILES IDX 90 58 41 59 42 60 43 61 84 62 44 63 89 64 83 65 85 66 45 67
REMARK SMILES IDX 88 68 82 69 81 70 46 72 72 73 55 74 71 75 56 76 59 77 70 78
REMARK SMILES IDX 86 79 57 80 58 81 69 83 87 84 60 85 47 86 48 87 53 88 49 89
REMARK SMILES IDX 50 90 52 91 54 92 51 93 73 94 74 95 79 96 75 97 76 98 78 99
REMARK SMILES IDX 80 100 77 101 61 102 62 103 67 104 63 105 64 106 66 107
REMARK SMILES IDX 68 108 65 109
REMARK H PARENT 12 12 15 14 1 30 1 31 28 43 35 52 85 71 59 82
REMARK Flexibility Score: inf
ROOT
ATOM      1  C   UNL     1      -3.711   3.469  -1.790  1.00  0.00     0.001 C 
ENDROOT
BRANCH   1   2
ATOM      2  C   UNL     1      -3.697   3.644  -0.266  1.00  0.00     0.000 C 
BRANCH   2   3
ATOM      3  C   UNL     1      -2.378   4.145   0.285  1.00  0.00     0.000 C 
BRANCH   3   4
ATOM      4  C   UNL     1      -2.017   5.557  -0.156  1.00  0.00     0.000 C 
BRANCH   4   5
ATOM      5  C   UNL     1      -3.011   6.664   0.204  1.00  0.00     0.000 C 
BRANCH   5   6
ATOM      6  C   UNL     1      -3.357   6.812   1.690  1.00  0.00     0.002 C 
BRANCH   6   7
ATOM      7  C   UNL     1      -2.186   6.803   2.672  1.00  0.00     0.021 C 
BRANCH   7   8
ATOM      8  C   UNL     1      -0.975   7.640   2.291  1.00  0.00     0.117 C 
BRANCH   8   9
ATOM      9  N   UNL     1      -1.101   9.066   2.438  1.00  0.00    -0.338 N 
ATOM     10  N   UNL     1       1.184   9.658   2.779  1.00  0.00    -0.291 N 
ATOM     11  C   UNL     1      -0.127   9.978   2.662  1.00  0.00     0.320 C 
ATOM     12  H   UNL     1       1.710  10.319   3.284  1.00  0.00     0.173 HD
ATOM     13  O   UNL     1      -0.471  11.142   2.888  1.00  0.00    -0.248 OA
ATOM     14  H   UNL     1      -2.015   9.425   2.366  1.00  0.00     0.165 HD
BRANCH  10  15
ATOM     15  C   UNL     1       1.924   8.584   2.329  1.00  0.00     0.157 A 
ATOM     16  N   UNL     1       2.402   6.711   1.456  1.00  0.00    -0.231 N 
ATOM     17  N   UNL     1       1.617   7.798   1.293  1.00  0.00    -0.149 NA
ATOM     18  C   UNL     1       3.490   6.997   2.269  1.00  0.00     0.076 A 
ATOM     19  C   UNL     1       3.165   8.192   2.885  1.00  0.00     0.078 A 
BRANCH  16  20
ATOM     20  C   UNL     1       2.019   5.452   0.914  1.00  0.00     0.065 A 
ATOM     21  C   UNL     1       1.273   2.974  -0.135  1.00  0.00     0.082 A 
ATOM     22  C   UNL     1       1.796   3.044   1.156  1.00  0.00     0.024 A 
ATOM     23  C   UNL     1       1.113   4.136  -0.902  1.00  0.00     0.024 A 
ATOM     24  C   UNL     1       2.181   4.282   1.675  1.00  0.00     0.030 A 
ATOM     25  C   UNL     1       1.461   5.382  -0.366  1.00  0.00     0.030 A 
BRANCH  21  26
ATOM     26  S   UNL     1       0.807   1.418  -0.841  1.00  0.00     0.238 S 
ATOM     27  O   UNL     1       1.379   1.339  -2.176  1.00  0.00    -0.207 OA
ATOM     28  O   UNL     1      -0.579   1.180  -0.571  1.00  0.00    -0.207 OA
BRANCH  26  29
ATOM     29  N   UNL     1       1.644   0.270   0.058  1.00  0.00    -0.225 NA
ATOM     30  H   UNL     1       1.424  -0.663  -0.293  1.00  0.00     0.137 HD
ATOM     31  H   UNL     1       1.368   0.338   1.037  1.00  0.00     0.137 HD
ENDBRANCH  26  29
ENDBRANCH  21  26
ENDBRANCH  16  20
BRANCH  18  32
ATOM     32  C   UNL     1       4.674   6.147   2.352  1.00  0.00     0.000 A 
ATOM     33  C   UNL     1       5.277   5.695   1.166  1.00  0.00     0.010 A 
ATOM     34  C   UNL     1       5.179   5.717   3.581  1.00  0.00     0.010 A 
ATOM     35  C   UNL     1       6.335   4.790   1.205  1.00  0.00     0.001 A 
ATOM     36  C   UNL     1       6.245   4.814   3.618  1.00  0.00     0.001 A 
ATOM     37  C   UNL     1       6.814   4.346   2.433  1.00  0.00     0.000 A 
ENDBRANCH  18  32
ENDBRANCH  10  15
ENDBRANCH   8   9
ENDBRANCH   7   8
ENDBRANCH   6   7
ENDBRANCH   5   6
ENDBRANCH   4   5
ENDBRANCH   3   4
ENDBRANCH   2   3
ENDBRANCH   1   2
BRANCH   1  38
ATOM     38  C   UNL     1      -3.627   2.026  -2.290  1.00  0.00     0.010 C 
BRANCH  38  39
ATOM     39  C   UNL     1      -4.628   1.025  -1.710  1.00  0.00     0.100 C 
BRANCH  39  40
ATOM     40  C   UNL     1      -5.978   1.008  -2.401  1.00  0.00     0.219 C 
ATOM     41  O   UNL     1      -6.215   0.197  -3.299  1.00  0.00    -0.275 OA
ATOM     42  N   UNL     1      -6.970   1.866  -2.036  1.00  0.00    -0.356 N 
ATOM     43  H   UNL     1      -7.813   1.758  -2.533  1.00  0.00     0.163 HD
BRANCH  42  44
ATOM     44  C   UNL     1      -6.985   2.912  -1.035  1.00  0.00     0.116 C 
BRANCH  44  45
ATOM     45  C   UNL     1      -7.129   4.299  -1.672  1.00  0.00     0.021 C 
BRANCH  45  46
ATOM     46  C   UNL     1      -8.575   4.763  -1.848  1.00  0.00     0.002 C 
BRANCH  46  47
ATOM     47  C   UNL     1      -9.389   4.900  -0.553  1.00  0.00     0.002 C 
BRANCH  47  48
ATOM     48  C   UNL     1      -8.810   5.815   0.537  1.00  0.00     0.021 C 
BRANCH  48  49
ATOM     49  C   UNL     1      -8.755   7.284   0.147  1.00  0.00     0.116 C 
BRANCH  49  50
ATOM     50  N   UNL     1     -10.081   7.838  -0.153  1.00  0.00    -0.352 N 
ATOM     51  C   UNL     1     -10.423   9.079  -0.658  1.00  0.00     0.251 C 
ATOM     52  H   UNL     1     -10.839   7.237   0.032  1.00  0.00     0.163 HD
ATOM     53  O   UNL     1     -11.560   9.519  -0.541  1.00  0.00    -0.269 OA
BRANCH  51  54
ATOM     54  C   UNL     1      -9.394   9.864  -1.357  1.00  0.00     0.039 A 
ATOM     55  C   UNL     1      -9.310  11.256  -1.267  1.00  0.00     0.014 A 
ATOM     56  C   UNL     1      -8.473   9.146  -2.106  1.00  0.00     0.014 A 
ATOM     57  C   UNL     1      -8.249  11.898  -1.902  1.00  0.00     0.010 A 
ATOM     58  C   UNL     1      -7.306   9.737  -2.479  1.00  0.00     0.010 A 
ATOM     59  C   UNL     1      -7.251  11.118  -2.503  1.00  0.00    -0.014 A 
BRANCH  59  60
ATOM     60  C   UNL     1      -6.083  11.694  -3.144  1.00  0.00     0.031 A 
ATOM     61  C   UNL     1      -5.246  12.525  -2.249  1.00  0.00     0.074 A 
ATOM     62  C   UNL     1      -5.662  11.278  -4.359  1.00  0.00     0.049 A 
ATOM     63  N   UNL     1      -5.090  13.805  -2.285  1.00  0.00    -0.248 NA
ATOM     64  C   UNL     1      -4.634  11.878  -1.078  1.00  0.00     0.031 C 
ATOM     65  C   UNL     1      -6.194  10.199  -5.205  1.00  0.00     0.029 A 
ATOM     66  N   UNL     1      -4.569  11.680  -5.056  1.00  0.00    -0.354 N 
ATOM     67  C   UNL     1      -4.171  14.096  -1.282  1.00  0.00     0.074 A 
ATOM     68  C   UNL     1      -4.102  12.927  -0.447  1.00  0.00     0.031 C 
ATOM     69  C   UNL     1      -5.297   9.885  -6.165  1.00  0.00     0.029 A 
ATOM     70  C   UNL     1      -4.219  10.852  -6.117  1.00  0.00     0.049 A 
ATOM     71  H   UNL     1      -4.065  12.494  -4.829  1.00  0.00     0.167 HD
ATOM     72  C   UNL     1      -3.340  15.170  -1.388  1.00  0.00     0.037 A 
ATOM     73  C   UNL     1      -3.096  10.952  -6.869  1.00  0.00     0.037 A 
ATOM     74  C   UNL     1      -3.799  16.082  -2.409  1.00  0.00     0.049 A 
ATOM     75  C   UNL     1      -2.573  12.332  -6.683  1.00  0.00     0.074 A 
ATOM     76  C   UNL     1      -4.970  16.785  -2.626  1.00  0.00     0.029 A 
ATOM     77  N   UNL     1      -3.153  16.061  -3.623  1.00  0.00    -0.354 N 
ATOM     78  N   UNL     1      -3.194  13.402  -7.099  1.00  0.00    -0.248 NA
ATOM     79  C   UNL     1      -1.618  12.543  -5.605  1.00  0.00     0.031 C 
ATOM     80  C   UNL     1      -5.197  16.692  -4.032  1.00  0.00     0.029 A 
ATOM     81  C   UNL     1      -4.118  16.011  -4.597  1.00  0.00     0.049 A 
ATOM     82  H   UNL     1      -2.179  16.077  -3.766  1.00  0.00     0.167 HD
ATOM     83  C   UNL     1      -3.036  14.326  -6.075  1.00  0.00     0.074 A 
ATOM     84  C   UNL     1      -1.997  13.763  -5.213  1.00  0.00     0.031 C 
ATOM     85  C   UNL     1      -3.962  15.306  -5.851  1.00  0.00     0.037 A 
BRANCH  72  86
ATOM     86  C   UNL     1      -1.927  15.203  -0.861  1.00  0.00     0.057 A 
ATOM     87  C   UNL     1      -1.214  16.414  -0.901  1.00  0.00     0.134 A 
ATOM     88  C   UNL     1      -1.147  14.060  -0.586  1.00  0.00     0.134 A 
ATOM     89  F   UNL     1      -1.838  17.572  -1.167  1.00  0.00    -0.206 F 
ATOM     90  C   UNL     1       0.178  16.471  -0.759  1.00  0.00     0.040 A 
ATOM     91  C   UNL     1       0.234  14.114  -0.382  1.00  0.00     0.040 A 
ATOM     92  F   UNL     1      -1.649  12.820  -0.611  1.00  0.00    -0.206 F 
ATOM     93  C   UNL     1       0.907  15.317  -0.505  1.00  0.00     0.006 A 
ENDBRANCH  72  86
BRANCH  73  94
ATOM     94  C   UNL     1      -2.281   9.856  -7.443  1.00  0.00     0.057 A 
ATOM     95  C   UNL     1      -1.315  10.107  -8.426  1.00  0.00     0.134 A 
ATOM     96  C   UNL     1      -2.236   8.582  -6.847  1.00  0.00     0.134 A 
ATOM     97  F   UNL     1      -1.250  11.306  -9.023  1.00  0.00    -0.206 F 
ATOM     98  C   UNL     1      -0.345   9.158  -8.780  1.00  0.00     0.040 A 
ATOM     99  C   UNL     1      -1.277   7.623  -7.195  1.00  0.00     0.040 A 
ATOM    100  F   UNL     1      -3.063   8.255  -5.844  1.00  0.00    -0.206 F 
ATOM    101  C   UNL     1      -0.317   7.915  -8.155  1.00  0.00     0.006 A 
ENDBRANCH  73  94
BRANCH  85 102
ATOM    102  C   UNL     1      -5.051  15.506  -6.874  1.00  0.00     0.057 A 
ATOM    103  C   UNL     1      -6.035  14.551  -7.176  1.00  0.00     0.134 A 
ATOM    104  C   UNL     1      -5.215  16.773  -7.443  1.00  0.00     0.134 A 
ATOM    105  F   UNL     1      -6.024  13.340  -6.608  1.00  0.00    -0.206 F 
ATOM    106  C   UNL     1      -7.109  14.833  -8.027  1.00  0.00     0.040 A 
ATOM    107  C   UNL     1      -6.299  17.079  -8.270  1.00  0.00     0.040 A 
ATOM    108  F   UNL     1      -4.347  17.757  -7.158  1.00  0.00    -0.206 F 
ATOM    109  C   UNL     1      -7.247  16.105  -8.571  1.00  0.00     0.006 A 
ENDBRANCH  85 102
ENDBRANCH  59  60
ENDBRANCH  51  54
ENDBRANCH  49  50
ENDBRANCH  48  49
ENDBRANCH  47  48
ENDBRANCH  46  47
ENDBRANCH  45  46
ENDBRANCH  44  45
ENDBRANCH  42  44
ENDBRANCH  39  40
ENDBRANCH  38  39
ENDBRANCH   1  38
TORSDOF 28
