REMARK SMILES COc1ccc(-c2cc(Cl)cc3c2O[C@@H](C(F)(F)F)C(C(=O)NCCCCCCNC(=O)c2ccc(-c4c5nc(c(-c6c(F)cccc6F)c6ccc([nH]6)c(-c6c(F)cccc6F)c6nc(c(-c7c(F)cccc7F)c7ccc4[nH]7)C=C6)C=C5)cc2)=C3)cc1C
REMARK SMILES IDX 26 1 25 2 24 3 23 4 21 5 22 6 20 8 7 9 8 10 13 11 9 12 12 13
REMARK SMILES IDX 14 14 10 15 11 16 87 17 15 18 6 19 3 20 4 21 89 22 5 23
REMARK SMILES IDX 88 24 90 25 2 26 1 27 16 28 17 29 18 30 19 31 27 32 28 33
REMARK SMILES IDX 29 34 30 35 31 36 32 38 33 39 34 40 86 41 35 42 85 43 36 44
REMARK SMILES IDX 37 45 38 46 79 47 39 48 84 49 78 50 80 51 40 52 83 53 77 54
REMARK SMILES IDX 76 55 41 57 67 58 50 59 66 60 51 61 54 62 65 63 81 64 52 65
REMARK SMILES IDX 53 66 64 68 82 69 55 70 42 71 43 72 48 73 44 74 45 75 47 76
REMARK SMILES IDX 49 77 46 78 68 79 69 80 74 81 70 82 71 83 73 84 75 85 72 86
REMARK SMILES IDX 56 87 57 88 62 89 58 90 59 91 61 92 63 93 60 94
REMARK H PARENT 23 7 30 37 80 56 54 67
REMARK Flexibility Score: inf
ROOT
ATOM      1  C   UNL     1      -3.553   6.979   1.374  1.00  0.00     0.002 C 
ENDROOT
BRANCH   1   2
ATOM      2  C   UNL     1      -3.052   7.886   0.253  1.00  0.00     0.021 C 
BRANCH   2   3
ATOM      3  C   UNL     1      -1.656   8.507   0.294  1.00  0.00     0.116 C 
BRANCH   3   4
ATOM      4  N   UNL     1      -0.491   7.658   0.373  1.00  0.00    -0.352 N 
ATOM      5  C   UNL     1       0.834   7.910   0.109  1.00  0.00     0.251 C 
ATOM      6  O   UNL     1       1.647   7.148   0.646  1.00  0.00    -0.270 OA
ATOM      7  H   UNL     1      -0.678   6.737   0.667  1.00  0.00     0.163 HD
BRANCH   5   8
ATOM      8  C   UNL     1       1.356   9.006  -0.840  1.00  0.00     0.067 C 
ATOM      9  C   UNL     1       0.942   6.202  -3.649  1.00  0.00     0.026 A 
ATOM     10  C   UNL     1       1.881   6.073  -4.693  1.00  0.00     0.033 A 
ATOM     11  C   UNL     1       1.081   7.356  -2.882  1.00  0.00     0.135 A 
ATOM     12  C   UNL     1       3.073   6.807  -4.661  1.00  0.00     0.042 A 
ATOM     13  C   UNL     1       2.381   7.857  -2.620  1.00  0.00     0.019 A 
ATOM     14  O   UNL     1      -0.046   8.139  -2.532  1.00  0.00    -0.475 OA
ATOM     15  Cl  UNL     1       4.244   6.569  -5.898  1.00  0.00    -0.084 Cl
ATOM     16  C   UNL     1       3.373   7.622  -3.566  1.00  0.00     0.032 A 
ATOM     17  C   UNL     1       2.567   8.687  -1.375  1.00  0.00     0.025 C 
ATOM     18  C   UNL     1       0.447   9.407  -1.986  1.00  0.00     0.314 C 
BRANCH   9  19
ATOM     19  C   UNL     1       0.661   4.906  -2.952  1.00  0.00    -0.014 A 
ATOM     20  C   UNL     1       0.467   2.269  -1.907  1.00  0.00     0.121 A 
ATOM     21  C   UNL     1      -0.629   2.906  -2.517  1.00  0.00     0.047 A 
ATOM     22  C   UNL     1       1.682   2.947  -1.797  1.00  0.00    -0.008 A 
ATOM     23  C   UNL     1      -0.539   4.210  -3.037  1.00  0.00     0.013 A 
ATOM     24  C   UNL     1       1.739   4.267  -2.281  1.00  0.00     0.016 A 
ATOM     25  C   UNL     1       2.949   2.338  -1.267  1.00  0.00     0.048 C 
BRANCH  20  26
ATOM     26  O   UNL     1       0.256   0.953  -1.588  1.00  0.00    -0.496 OA
ATOM     27  C   UNL     1       0.710   0.539  -0.304  1.00  0.00     0.278 C 
ENDBRANCH  20  26
ENDBRANCH   9  19
BRANCH  18  28
ATOM     28  C   UNL     1      -0.436  10.643  -1.725  1.00  0.00     0.429 C 
ATOM     29  F   UNL     1       0.164  11.758  -2.227  1.00  0.00    -0.167 F 
ATOM     30  F   UNL     1      -1.647  10.556  -2.314  1.00  0.00    -0.167 F 
ATOM     31  F   UNL     1      -0.626  10.903  -0.410  1.00  0.00    -0.167 F 
ENDBRANCH  18  28
ENDBRANCH   5   8
ENDBRANCH   3   4
ENDBRANCH   2   3
ENDBRANCH   1   2
BRANCH   1  32
ATOM     32  C   UNL     1      -3.123   7.274   2.811  1.00  0.00     0.002 C 
BRANCH  32  33
ATOM     33  C   UNL     1      -3.349   8.692   3.328  1.00  0.00     0.021 C 
BRANCH  33  34
ATOM     34  C   UNL     1      -4.798   9.079   3.593  1.00  0.00     0.116 C 
BRANCH  34  35
ATOM     35  N   UNL     1      -5.259   8.773   4.943  1.00  0.00    -0.352 N 
ATOM     36  C   UNL     1      -6.490   9.040   5.526  1.00  0.00     0.251 C 
ATOM     37  H   UNL     1      -4.607   8.313   5.521  1.00  0.00     0.163 HD
ATOM     38  O   UNL     1      -6.742   8.661   6.654  1.00  0.00    -0.269 OA
BRANCH  36  39
ATOM     39  C   UNL     1      -7.545   9.678   4.699  1.00  0.00     0.039 A 
ATOM     40  C   UNL     1      -8.779   9.030   4.604  1.00  0.00     0.014 A 
ATOM     41  C   UNL     1      -7.247  10.751   3.864  1.00  0.00     0.014 A 
ATOM     42  C   UNL     1      -9.589   9.275   3.498  1.00  0.00     0.010 A 
ATOM     43  C   UNL     1      -8.002  10.932   2.719  1.00  0.00     0.010 A 
ATOM     44  C   UNL     1      -9.128  10.133   2.497  1.00  0.00    -0.014 A 
BRANCH  44  45
ATOM     45  C   UNL     1      -9.649  10.092   1.133  1.00  0.00     0.031 A 
ATOM     46  C   UNL     1     -10.496  11.169   0.589  1.00  0.00     0.074 A 
ATOM     47  C   UNL     1      -9.324   9.053   0.329  1.00  0.00     0.049 A 
ATOM     48  N   UNL     1     -11.367  10.982  -0.348  1.00  0.00    -0.248 NA
ATOM     49  C   UNL     1     -10.446  12.543   1.071  1.00  0.00     0.031 C 
ATOM     50  C   UNL     1      -9.560   8.936  -1.107  1.00  0.00     0.029 A 
ATOM     51  N   UNL     1      -8.905   7.774   0.718  1.00  0.00    -0.354 N 
ATOM     52  C   UNL     1     -11.796  12.215  -0.767  1.00  0.00     0.074 A 
ATOM     53  C   UNL     1     -11.238  13.154   0.183  1.00  0.00     0.031 C 
ATOM     54  C   UNL     1      -9.586   7.635  -1.434  1.00  0.00     0.029 A 
ATOM     55  C   UNL     1      -9.489   6.874  -0.202  1.00  0.00     0.049 A 
ATOM     56  H   UNL     1      -8.322   7.547   1.478  1.00  0.00     0.167 HD
ATOM     57  C   UNL     1     -12.482  12.339  -1.939  1.00  0.00     0.037 A 
ATOM     58  C   UNL     1     -10.371   5.921   0.212  1.00  0.00     0.037 A 
ATOM     59  C   UNL     1     -12.688  11.059  -2.609  1.00  0.00     0.049 A 
ATOM     60  C   UNL     1     -11.760   6.033  -0.383  1.00  0.00     0.074 A 
ATOM     61  C   UNL     1     -12.079  10.409  -3.670  1.00  0.00     0.029 A 
ATOM     62  N   UNL     1     -13.489  10.111  -1.999  1.00  0.00    -0.354 N 
ATOM     63  N   UNL     1     -12.141   6.962  -1.216  1.00  0.00    -0.248 NA
ATOM     64  C   UNL     1     -12.863   5.155   0.011  1.00  0.00     0.031 C 
ATOM     65  C   UNL     1     -12.550   9.065  -3.705  1.00  0.00     0.029 A 
ATOM     66  C   UNL     1     -13.440   8.900  -2.662  1.00  0.00     0.049 A 
ATOM     67  H   UNL     1     -14.028  10.278  -1.192  1.00  0.00     0.167 HD
ATOM     68  C   UNL     1     -13.498   6.874  -1.402  1.00  0.00     0.074 A 
ATOM     69  C   UNL     1     -13.903   5.721  -0.621  1.00  0.00     0.031 C 
ATOM     70  C   UNL     1     -14.204   7.784  -2.134  1.00  0.00     0.037 A 
BRANCH  57  71
ATOM     71  C   UNL     1     -12.754  13.678  -2.567  1.00  0.00     0.057 A 
ATOM     72  C   UNL     1     -12.665  13.869  -3.957  1.00  0.00     0.134 A 
ATOM     73  C   UNL     1     -13.075  14.831  -1.830  1.00  0.00     0.134 A 
ATOM     74  F   UNL     1     -12.456  12.849  -4.798  1.00  0.00    -0.206 F 
ATOM     75  C   UNL     1     -12.768  15.131  -4.554  1.00  0.00     0.040 A 
ATOM     76  C   UNL     1     -13.127  16.107  -2.407  1.00  0.00     0.040 A 
ATOM     77  F   UNL     1     -13.367  14.758  -0.523  1.00  0.00    -0.206 F 
ATOM     78  C   UNL     1     -12.957  16.262  -3.775  1.00  0.00     0.006 A 
ENDBRANCH  57  71
BRANCH  58  79
ATOM     79  C   UNL     1     -10.072   5.402   1.571  1.00  0.00     0.057 A 
ATOM     80  C   UNL     1      -8.868   4.707   1.783  1.00  0.00     0.134 A 
ATOM     81  C   UNL     1     -10.753   5.857   2.703  1.00  0.00     0.134 A 
ATOM     82  F   UNL     1      -8.162   4.246   0.738  1.00  0.00    -0.206 F 
ATOM     83  C   UNL     1      -8.314   4.563   3.056  1.00  0.00     0.040 A 
ATOM     84  C   UNL     1     -10.215   5.706   3.984  1.00  0.00     0.040 A 
ATOM     85  F   UNL     1     -11.893   6.552   2.580  1.00  0.00    -0.206 F 
ATOM     86  C   UNL     1      -8.976   5.091   4.160  1.00  0.00     0.006 A 
ENDBRANCH  58  79
BRANCH  70  87
ATOM     87  C   UNL     1     -15.687   7.708  -2.380  1.00  0.00     0.057 A 
ATOM     88  C   UNL     1     -16.350   6.509  -2.677  1.00  0.00     0.134 A 
ATOM     89  C   UNL     1     -16.486   8.869  -2.441  1.00  0.00     0.134 A 
ATOM     90  F   UNL     1     -15.682   5.347  -2.744  1.00  0.00    -0.206 F 
ATOM     91  C   UNL     1     -17.724   6.459  -2.948  1.00  0.00     0.040 A 
ATOM     92  C   UNL     1     -17.847   8.838  -2.758  1.00  0.00     0.040 A 
ATOM     93  F   UNL     1     -15.988  10.085  -2.179  1.00  0.00    -0.206 F 
ATOM     94  C   UNL     1     -18.476   7.627  -2.996  1.00  0.00     0.006 A 
ENDBRANCH  70  87
ENDBRANCH  44  45
ENDBRANCH  36  39
ENDBRANCH  34  35
ENDBRANCH  33  34
ENDBRANCH  32  33
ENDBRANCH   1  32
TORSDOF 16
