REMARK SMILES O=C(NCCCCCCNC(=O)[C@H]1CS[C@H](c2cc(F)ccc2F)[NH2+]1)c1ccc(-c2c3nc(c(-c4c(F)cccc4F)c4ccc([nH]4)c(-c4c(F)cccc4F)c4nc(c(-c5c(F)cccc5F)c5ccc2[nH]5)C=C4)C=C3)cc1
REMARK SMILES IDX 6 1 5 2 4 3 3 4 1 5 2 6 26 8 27 9 79 10 28 11 78 12 29 13
REMARK SMILES IDX 30 14 31 15 72 16 32 17 77 18 71 19 73 20 33 21 76 22 70 23
REMARK SMILES IDX 69 24 34 26 60 27 43 28 59 29 44 30 47 31 58 32 74 33 45 34
REMARK SMILES IDX 46 35 57 37 75 38 48 39 35 40 36 41 41 42 37 43 38 44 40 45
REMARK SMILES IDX 42 46 39 47 61 48 62 49 67 50 63 51 64 52 66 53 68 54 65 55
REMARK SMILES IDX 49 56 50 57 55 58 51 59 52 60 54 61 56 62 53 63 7 64 8 65
REMARK SMILES IDX 9 66 10 67 11 68 12 70 13 71 14 72 25 73 15 74 16 75 17 78
REMARK SMILES IDX 18 79 23 80 19 81 22 82 24 83 20 84 21 85
REMARK H PARENT 3 7 73 25 47 36 10 69 25 76 25 77
REMARK Flexibility Score: inf
ROOT
ATOM      1  C   UNL     1       3.901   0.367  -3.865  1.00  0.00     0.002 C 
ENDROOT
BRANCH   1   2
ATOM      2  C   UNL     1       4.398  -0.449  -2.671  1.00  0.00     0.021 C 
BRANCH   2   3
ATOM      3  C   UNL     1       4.219   0.210  -1.312  1.00  0.00     0.116 C 
BRANCH   3   4
ATOM      4  N   UNL     1       2.825   0.393  -0.950  1.00  0.00    -0.352 N 
ATOM      5  O   UNL     1       0.965   0.156   0.309  1.00  0.00    -0.269 OA
ATOM      6  C   UNL     1       2.184   0.050   0.216  1.00  0.00     0.251 C 
ATOM      7  H   UNL     1       2.261   0.821  -1.634  1.00  0.00     0.163 HD
BRANCH   6   8
ATOM      8  C   UNL     1       2.969  -0.475   1.356  1.00  0.00     0.039 A 
ATOM      9  C   UNL     1       4.163   0.137   1.741  1.00  0.00     0.014 A 
ATOM     10  C   UNL     1       2.501  -1.597   2.048  1.00  0.00     0.014 A 
ATOM     11  C   UNL     1       4.955  -0.450   2.720  1.00  0.00     0.010 A 
ATOM     12  C   UNL     1       3.257  -2.135   3.094  1.00  0.00     0.010 A 
ATOM     13  C   UNL     1       4.503  -1.581   3.421  1.00  0.00    -0.014 A 
BRANCH  13  14
ATOM     14  C   UNL     1       5.328  -2.108   4.537  1.00  0.00     0.031 A 
ATOM     15  C   UNL     1       5.963  -3.468   4.472  1.00  0.00     0.074 A 
ATOM     16  C   UNL     1       5.540  -1.312   5.604  1.00  0.00     0.049 A 
ATOM     17  N   UNL     1       6.756  -4.047   5.339  1.00  0.00    -0.248 NA
ATOM     18  C   UNL     1       5.669  -4.290   3.288  1.00  0.00     0.031 C 
ATOM     19  C   UNL     1       4.954   0.018   5.788  1.00  0.00     0.029 A 
ATOM     20  N   UNL     1       6.320  -1.488   6.716  1.00  0.00    -0.354 N 
ATOM     21  C   UNL     1       7.050  -5.298   4.813  1.00  0.00     0.074 A 
ATOM     22  C   UNL     1       6.326  -5.409   3.564  1.00  0.00     0.031 C 
ATOM     23  C   UNL     1       5.437   0.559   6.915  1.00  0.00     0.029 A 
ATOM     24  C   UNL     1       6.320  -0.405   7.560  1.00  0.00     0.049 A 
ATOM     25  H   UNL     1       6.831  -2.311   6.893  1.00  0.00     0.167 HD
ATOM     26  C   UNL     1       7.857  -6.260   5.322  1.00  0.00     0.037 A 
ATOM     27  C   UNL     1       6.953  -0.209   8.731  1.00  0.00     0.037 A 
ATOM     28  C   UNL     1       8.578  -6.144   6.565  1.00  0.00     0.049 A 
ATOM     29  C   UNL     1       7.840  -1.292   9.268  1.00  0.00     0.074 A 
ATOM     30  C   UNL     1       9.423  -7.064   7.163  1.00  0.00     0.029 A 
ATOM     31  N   UNL     1       8.540  -5.037   7.400  1.00  0.00    -0.354 N 
ATOM     32  N   UNL     1       8.121  -2.461   8.747  1.00  0.00    -0.248 NA
ATOM     33  C   UNL     1       8.497  -1.029  10.555  1.00  0.00     0.031 C 
ATOM     34  C   UNL     1       9.873  -6.525   8.374  1.00  0.00     0.029 A 
ATOM     35  C   UNL     1       9.339  -5.254   8.511  1.00  0.00     0.049 A 
ATOM     36  H   UNL     1       8.022  -4.218   7.229  1.00  0.00     0.167 HD
ATOM     37  C   UNL     1       8.991  -3.072   9.639  1.00  0.00     0.074 A 
ATOM     38  C   UNL     1       9.216  -2.130  10.716  1.00  0.00     0.031 C 
ATOM     39  C   UNL     1       9.546  -4.307   9.576  1.00  0.00     0.037 A 
BRANCH  26  40
ATOM     40  C   UNL     1       8.005  -7.531   4.537  1.00  0.00     0.057 A 
ATOM     41  C   UNL     1       8.759  -7.584   3.358  1.00  0.00     0.134 A 
ATOM     42  C   UNL     1       7.435  -8.727   4.993  1.00  0.00     0.134 A 
ATOM     43  F   UNL     1       9.321  -6.472   2.861  1.00  0.00    -0.206 F 
ATOM     44  C   UNL     1       8.930  -8.777   2.653  1.00  0.00     0.040 A 
ATOM     45  C   UNL     1       7.617  -9.931   4.309  1.00  0.00     0.040 A 
ATOM     46  F   UNL     1       6.706  -8.748   6.119  1.00  0.00    -0.206 F 
ATOM     47  C   UNL     1       8.364  -9.957   3.133  1.00  0.00     0.006 A 
ENDBRANCH  26  40
BRANCH  27  48
ATOM     48  C   UNL     1       6.761   1.063   9.468  1.00  0.00     0.057 A 
ATOM     49  C   UNL     1       7.795   1.998   9.587  1.00  0.00     0.134 A 
ATOM     50  C   UNL     1       5.532   1.378  10.062  1.00  0.00     0.134 A 
ATOM     51  F   UNL     1       8.998   1.746   9.052  1.00  0.00    -0.206 F 
ATOM     52  C   UNL     1       7.619   3.195  10.284  1.00  0.00     0.040 A 
ATOM     53  C   UNL     1       5.334   2.582  10.738  1.00  0.00     0.040 A 
ATOM     54  F   UNL     1       4.500   0.526   9.974  1.00  0.00    -0.206 F 
ATOM     55  C   UNL     1       6.383   3.491  10.856  1.00  0.00     0.006 A 
ENDBRANCH  27  48
BRANCH  39  56
ATOM     56  C   UNL     1      10.456  -4.693  10.703  1.00  0.00     0.057 A 
ATOM     57  C   UNL     1       9.958  -5.006  11.975  1.00  0.00     0.134 A 
ATOM     58  C   UNL     1      11.841  -4.756  10.514  1.00  0.00     0.134 A 
ATOM     59  F   UNL     1       8.641  -4.947  12.222  1.00  0.00    -0.206 F 
ATOM     60  C   UNL     1      10.810  -5.340  13.027  1.00  0.00     0.040 A 
ATOM     61  C   UNL     1      12.702  -5.112  11.553  1.00  0.00     0.040 A 
ATOM     62  F   UNL     1      12.379  -4.473   9.318  1.00  0.00    -0.206 F 
ATOM     63  C   UNL     1      12.187  -5.398  12.816  1.00  0.00     0.006 A 
ENDBRANCH  39  56
ENDBRANCH  13  14
ENDBRANCH   6   8
ENDBRANCH   3   4
ENDBRANCH   2   3
ENDBRANCH   1   2
BRANCH   1  64
ATOM     64  C   UNL     1       4.456   1.790  -3.985  1.00  0.00     0.002 C 
BRANCH  64  65
ATOM     65  C   UNL     1       5.978   1.927  -3.893  1.00  0.00     0.021 C 
BRANCH  65  66
ATOM     66  C   UNL     1       6.770   1.032  -4.839  1.00  0.00     0.116 C 
BRANCH  66  67
ATOM     67  N   UNL     1       6.567   1.371  -6.233  1.00  0.00    -0.351 N 
ATOM     68  C   UNL     1       7.440   1.675  -7.235  1.00  0.00     0.279 C 
ATOM     69  H   UNL     1       5.622   1.383  -6.508  1.00  0.00     0.163 HD
ATOM     70  O   UNL     1       6.949   1.947  -8.335  1.00  0.00    -0.268 OA
BRANCH  68  71
ATOM     71  C   UNL     1       8.963   1.751  -7.017  1.00  0.00     0.283 C 
ATOM     72  C   UNL     1       9.338   3.015  -6.252  1.00  0.00     0.151 C 
ATOM     73  N   UNL     1       9.509   0.506  -6.425  1.00  0.00    -0.320 N 
ATOM     74  S   UNL     1      10.193   2.455  -4.771  1.00  0.00    -0.087 SA
ATOM     75  C   UNL     1      10.573   0.822  -5.477  1.00  0.00     0.277 C 
ATOM     76  H   UNL     1       9.883  -0.084  -7.168  1.00  0.00     0.348 HD
ATOM     77  H   UNL     1       8.761   0.016  -5.934  1.00  0.00     0.348 HD
BRANCH  75  78
ATOM     78  C   UNL     1      11.989   0.754  -6.017  1.00  0.00     0.059 A 
ATOM     79  C   UNL     1      13.061   1.076  -5.155  1.00  0.00     0.053 A 
ATOM     80  C   UNL     1      12.320   0.333  -7.313  1.00  0.00     0.133 A 
ATOM     81  C   UNL     1      14.380   1.016  -5.595  1.00  0.00     0.123 A 
ATOM     82  C   UNL     1      13.647   0.267  -7.748  1.00  0.00     0.043 A 
ATOM     83  F   UNL     1      11.377  -0.032  -8.192  1.00  0.00    -0.206 F 
ATOM     84  F   UNL     1      15.369   1.347  -4.755  1.00  0.00    -0.207 F 
ATOM     85  C   UNL     1      14.683   0.617  -6.888  1.00  0.00     0.042 A 
ENDBRANCH  75  78
ENDBRANCH  68  71
ENDBRANCH  66  67
ENDBRANCH  65  66
ENDBRANCH  64  65
ENDBRANCH   1  64
TORSDOF 14
