REMARK SMILES C[NH2+][C@]1(C(=O)NCCCCCCNC(=O)c2ccc(-c3c4nc(c(-c5c(F)cccc5F)c5ccc([nH]5)c(-c5c(F)cccc5F)c5nc(c(-c6c(F)cccc6F)c6ccc3[nH]6)C=C5)C=C4)cc2)CCC[C@@H]1CCOC[C@@H]1CCCO1
REMARK SMILES IDX 8 1 7 2 6 3 4 4 5 5 3 7 70 8 73 9 71 10 72 11 2 12 1 13
REMARK SMILES IDX 74 16 75 17 76 18 77 19 78 20 79 21 82 22 80 23 81 24 9 25
REMARK SMILES IDX 10 26 11 27 12 28 13 29 14 30 15 32 16 33 17 34 69 35 18 36
REMARK SMILES IDX 68 37 19 38 20 39 21 40 62 41 22 42 67 43 61 44 63 45 23 46
REMARK SMILES IDX 66 47 60 48 59 49 24 51 50 52 33 53 49 54 34 55 37 56 48 57
REMARK SMILES IDX 64 58 35 59 36 60 47 62 65 63 38 64 25 65 26 66 31 67 27 68
REMARK SMILES IDX 28 69 30 70 32 71 29 72 51 73 52 74 57 75 53 76 54 77 56 78
REMARK SMILES IDX 58 79 55 80 39 81 40 82 45 83 41 84 42 85 44 86 46 87 43 88
REMARK H PARENT 6 6 2 14 2 15 13 31 63 50 37 61
REMARK Flexibility Score: inf
ROOT
ATOM      1  C   UNL     1       1.321   0.292  -4.936  1.00  0.00     0.021 C 
ENDROOT
BRANCH   1   2
ATOM      2  C   UNL     1       0.598  -0.471  -3.833  1.00  0.00     0.116 C 
BRANCH   2   3
ATOM      3  N   UNL     1       1.166  -0.224  -2.527  1.00  0.00    -0.351 N 
ATOM      4  C   UNL     1       0.656  -0.060  -1.279  1.00  0.00     0.281 C 
ATOM      5  O   UNL     1       1.536   0.094  -0.422  1.00  0.00    -0.268 OA
ATOM      6  H   UNL     1       2.148  -0.160  -2.547  1.00  0.00     0.163 HD
BRANCH   4   7
ATOM      7  C   UNL     1      -0.881  -0.050  -0.941  1.00  0.00     0.178 C 
ATOM      8  C   UNL     1      -1.579   1.128  -1.671  1.00  0.00     0.079 C 
ATOM      9  C   UNL     1      -1.704  -1.258  -1.494  1.00  0.00     0.063 C 
ATOM     10  C   UNL     1      -3.051   0.732  -1.835  1.00  0.00     0.008 C 
ATOM     11  C   UNL     1      -3.155  -0.738  -1.429  1.00  0.00     0.011 C 
BRANCH   7  12
ATOM     12  N   UNL     1      -1.164   0.216   0.506  1.00  0.00    -0.336 N 
ATOM     13  C   UNL     1      -0.317  -0.427   1.494  1.00  0.00     0.331 C 
ATOM     14  H   UNL     1      -1.088   1.223   0.649  1.00  0.00     0.346 HD
ATOM     15  H   UNL     1      -2.089  -0.183   0.663  1.00  0.00     0.346 HD
ENDBRANCH   7  12
BRANCH   9  16
ATOM     16  C   UNL     1      -1.484  -2.620  -0.817  1.00  0.00     0.039 C 
BRANCH  16  17
ATOM     17  C   UNL     1      -2.153  -3.824  -1.510  1.00  0.00     0.161 C 
BRANCH  17  18
ATOM     18  O   UNL     1      -1.344  -4.529  -2.442  1.00  0.00    -0.379 OA
BRANCH  18  19
ATOM     19  C   UNL     1      -1.047  -3.970  -3.716  1.00  0.00     0.192 C 
BRANCH  19  20
ATOM     20  C   UNL     1      -2.181  -3.855  -4.754  1.00  0.00     0.144 C 
ATOM     21  C   UNL     1      -3.100  -2.660  -4.583  1.00  0.00     0.037 C 
ATOM     22  O   UNL     1      -3.001  -5.032  -4.779  1.00  0.00    -0.376 OA
ATOM     23  C   UNL     1      -4.462  -3.186  -4.946  1.00  0.00     0.031 C 
ATOM     24  C   UNL     1      -4.360  -4.643  -4.557  1.00  0.00     0.160 C 
ENDBRANCH  19  20
ENDBRANCH  18  19
ENDBRANCH  17  18
ENDBRANCH  16  17
ENDBRANCH   9  16
ENDBRANCH   4   7
ENDBRANCH   2   3
ENDBRANCH   1   2
BRANCH   1  25
ATOM     25  C   UNL     1       2.789  -0.107  -5.135  1.00  0.00     0.002 C 
BRANCH  25  26
ATOM     26  C   UNL     1       3.053  -1.599  -5.368  1.00  0.00     0.002 C 
BRANCH  26  27
ATOM     27  C   UNL     1       2.272  -2.239  -6.518  1.00  0.00     0.021 C 
BRANCH  27  28
ATOM     28  C   UNL     1       2.405  -1.530  -7.860  1.00  0.00     0.116 C 
BRANCH  28  29
ATOM     29  N   UNL     1       3.781  -1.452  -8.318  1.00  0.00    -0.352 N 
ATOM     30  C   UNL     1       4.309  -1.756  -9.549  1.00  0.00     0.251 C 
ATOM     31  H   UNL     1       4.430  -1.135  -7.649  1.00  0.00     0.163 HD
ATOM     32  O   UNL     1       5.521  -1.774  -9.714  1.00  0.00    -0.269 OA
BRANCH  30  33
ATOM     33  C   UNL     1       3.405  -2.088 -10.672  1.00  0.00     0.039 A 
ATOM     34  C   UNL     1       3.713  -3.186 -11.479  1.00  0.00     0.014 A 
ATOM     35  C   UNL     1       2.263  -1.325 -10.928  1.00  0.00     0.014 A 
ATOM     36  C   UNL     1       2.843  -3.554 -12.506  1.00  0.00     0.010 A 
ATOM     37  C   UNL     1       1.358  -1.740 -11.900  1.00  0.00     0.010 A 
ATOM     38  C   UNL     1       1.641  -2.855 -12.702  1.00  0.00    -0.014 A 
BRANCH  38  39
ATOM     39  C   UNL     1       0.669  -3.279 -13.742  1.00  0.00     0.031 A 
ATOM     40  C   UNL     1       0.337  -2.363 -14.887  1.00  0.00     0.074 A 
ATOM     41  C   UNL     1       0.039  -4.463 -13.620  1.00  0.00     0.049 A 
ATOM     42  N   UNL     1      -0.527  -2.530 -15.856  1.00  0.00    -0.248 NA
ATOM     43  C   UNL     1       1.050  -1.077 -14.935  1.00  0.00     0.031 C 
ATOM     44  C   UNL     1       0.237  -5.418 -12.527  1.00  0.00     0.029 A 
ATOM     45  N   UNL     1      -0.904  -5.062 -14.416  1.00  0.00    -0.354 N 
ATOM     46  C   UNL     1      -0.470  -1.370 -16.618  1.00  0.00     0.074 A 
ATOM     47  C   UNL     1       0.469  -0.483 -15.966  1.00  0.00     0.031 C 
ATOM     48  C   UNL     1      -0.543  -6.490 -12.734  1.00  0.00     0.029 A 
ATOM     49  C   UNL     1      -1.327  -6.282 -13.947  1.00  0.00     0.049 A 
ATOM     50  H   UNL     1      -1.246  -4.655 -15.245  1.00  0.00     0.167 HD
ATOM     51  C   UNL     1      -1.122  -1.080 -17.769  1.00  0.00     0.037 A 
ATOM     52  C   UNL     1      -2.252  -7.132 -14.433  1.00  0.00     0.037 A 
ATOM     53  C   UNL     1      -2.043  -1.974 -18.422  1.00  0.00     0.049 A 
ATOM     54  C   UNL     1      -2.974  -6.781 -15.704  1.00  0.00     0.074 A 
ATOM     55  C   UNL     1      -2.709  -1.799 -19.622  1.00  0.00     0.029 A 
ATOM     56  N   UNL     1      -2.436  -3.208 -17.923  1.00  0.00    -0.354 N 
ATOM     57  N   UNL     1      -2.854  -5.714 -16.456  1.00  0.00    -0.248 NA
ATOM     58  C   UNL     1      -3.955  -7.757 -16.200  1.00  0.00     0.031 C 
ATOM     59  C   UNL     1      -3.548  -2.900 -19.821  1.00  0.00     0.029 A 
ATOM     60  C   UNL     1      -3.358  -3.791 -18.777  1.00  0.00     0.049 A 
ATOM     61  H   UNL     1      -2.107  -3.609 -17.087  1.00  0.00     0.167 HD
ATOM     62  C   UNL     1      -3.720  -5.901 -17.526  1.00  0.00     0.074 A 
ATOM     63  C   UNL     1      -4.347  -7.192 -17.333  1.00  0.00     0.031 C 
ATOM     64  C   UNL     1      -3.973  -5.079 -18.573  1.00  0.00     0.037 A 
BRANCH  51  65
ATOM     65  C   UNL     1      -0.866   0.264 -18.391  1.00  0.00     0.057 A 
ATOM     66  C   UNL     1       0.373   0.596 -18.957  1.00  0.00     0.134 A 
ATOM     67  C   UNL     1      -1.879   1.229 -18.449  1.00  0.00     0.134 A 
ATOM     68  F   UNL     1       1.391  -0.278 -18.927  1.00  0.00    -0.206 F 
ATOM     69  C   UNL     1       0.604   1.849 -19.528  1.00  0.00     0.040 A 
ATOM     70  C   UNL     1      -1.669   2.474 -19.046  1.00  0.00     0.040 A 
ATOM     71  F   UNL     1      -3.092   0.978 -17.934  1.00  0.00    -0.206 F 
ATOM     72  C   UNL     1      -0.422   2.790 -19.579  1.00  0.00     0.006 A 
ENDBRANCH  51  65
BRANCH  52  73
ATOM     73  C   UNL     1      -2.538  -8.403 -13.720  1.00  0.00     0.057 A 
ATOM     74  C   UNL     1      -2.186  -9.640 -14.272  1.00  0.00     0.134 A 
ATOM     75  C   UNL     1      -3.174  -8.413 -12.472  1.00  0.00     0.134 A 
ATOM     76  F   UNL     1      -1.591  -9.698 -15.472  1.00  0.00    -0.206 F 
ATOM     77  C   UNL     1      -2.474 -10.841 -13.621  1.00  0.00     0.040 A 
ATOM     78  C   UNL     1      -3.442  -9.604 -11.796  1.00  0.00     0.040 A 
ATOM     79  F   UNL     1      -3.530  -7.261 -11.884  1.00  0.00    -0.206 F 
ATOM     80  C   UNL     1      -3.099 -10.824 -12.376  1.00  0.00     0.006 A 
ENDBRANCH  52  73
BRANCH  64  81
ATOM     81  C   UNL     1      -4.943  -5.565 -19.612  1.00  0.00     0.057 A 
ATOM     82  C   UNL     1      -6.317  -5.665 -19.357  1.00  0.00     0.134 A 
ATOM     83  C   UNL     1      -4.499  -5.900 -20.898  1.00  0.00     0.134 A 
ATOM     84  F   UNL     1      -6.807  -5.371 -18.143  1.00  0.00    -0.206 F 
ATOM     85  C   UNL     1      -7.210  -6.104 -20.336  1.00  0.00     0.040 A 
ATOM     86  C   UNL     1      -5.386  -6.310 -21.894  1.00  0.00     0.040 A 
ATOM     87  F   UNL     1      -3.197  -5.817 -21.213  1.00  0.00    -0.206 F 
ATOM     88  C   UNL     1      -6.746  -6.421 -21.611  1.00  0.00     0.006 A 
ENDBRANCH  64  81
ENDBRANCH  38  39
ENDBRANCH  30  33
ENDBRANCH  28  29
ENDBRANCH  27  28
ENDBRANCH  26  27
ENDBRANCH  25  26
ENDBRANCH   1  25
TORSDOF 19
