REMARK SMILES O=C(CSc1ccc(Cl)cc1)Nc1cccc(C(=O)Nc2ccc(C(=O)NCCCCCCNC(=O)c3ccc(-c4c5nc(c(-c6c(F)cccc6F)c6ccc([nH]6)c(-c6c(F)cccc6F)c6nc(c(-c7c(F)cccc7F)c7ccc4[nH]7)C=C6)C=C5)cc3)cc2)c1
REMARK SMILES IDX 28 1 27 2 25 3 26 4 24 6 21 7 22 8 92 9 23 10 91 11 20 12
REMARK SMILES IDX 18 13 19 14 17 16 13 17 14 18 93 19 15 20 16 21 12 22 1 23
REMARK SMILES IDX 2 24 3 26 4 27 5 28 6 29 11 30 7 31 10 32 8 33 9 34 29 35
REMARK SMILES IDX 30 36 31 37 32 38 33 39 34 40 35 41 36 43 37 44 38 45 90 46
REMARK SMILES IDX 39 47 89 48 40 49 41 50 42 51 83 52 43 53 88 54 82 55 84 56
REMARK SMILES IDX 44 57 87 58 81 59 80 60 45 62 71 63 54 64 70 65 55 66 58 67
REMARK SMILES IDX 69 68 85 69 56 70 57 71 68 73 86 74 59 75 46 76 47 77 52 78
REMARK SMILES IDX 48 79 49 80 51 81 53 82 50 83 72 84 73 85 78 86 74 87 75 88
REMARK SMILES IDX 77 89 79 90 76 91 60 92 61 93 66 94 62 95 63 96 65 97 67 98
REMARK SMILES IDX 64 99
REMARK H PARENT 27 5 20 15 12 25 34 42 84 61 58 72
REMARK Flexibility Score: inf
ROOT
ATOM      1  C   UNL     1       4.015   2.518   1.237  1.00  0.00     0.116 C 
ENDROOT
BRANCH   1   2
ATOM      2  N   UNL     1       2.953   2.590   2.224  1.00  0.00    -0.352 N 
ATOM      3  C   UNL     1       1.621   2.917   2.170  1.00  0.00     0.251 C 
ATOM      4  O   UNL     1       0.996   2.881   3.232  1.00  0.00    -0.269 OA
ATOM      5  H   UNL     1       3.254   2.353   3.131  1.00  0.00     0.163 HD
BRANCH   3   6
ATOM      6  C   UNL     1       0.890   3.218   0.906  1.00  0.00     0.039 A 
ATOM      7  C   UNL     1      -0.529   3.231  -1.508  1.00  0.00     0.041 A 
ATOM      8  C   UNL     1      -1.202   2.958  -0.320  1.00  0.00     0.027 A 
ATOM      9  C   UNL     1       0.790   3.685  -1.468  1.00  0.00     0.027 A 
ATOM     10  C   UNL     1      -0.481   2.911   0.877  1.00  0.00     0.016 A 
ATOM     11  C   UNL     1       1.480   3.727  -0.251  1.00  0.00     0.016 A 
BRANCH   7  12
ATOM     12  N   UNL     1      -1.181   2.944  -2.716  1.00  0.00    -0.322 N 
ATOM     13  C   UNL     1      -0.704   2.261  -3.824  1.00  0.00     0.255 C 
ATOM     14  O   UNL     1      -1.332   2.321  -4.882  1.00  0.00    -0.269 OA
ATOM     15  H   UNL     1      -2.106   3.274  -2.787  1.00  0.00     0.170 HD
BRANCH  13  16
ATOM     16  C   UNL     1       0.485   1.351  -3.746  1.00  0.00     0.042 A 
ATOM     17  C   UNL     1       2.045  -0.029  -2.461  1.00  0.00     0.041 A 
ATOM     18  C   UNL     1       2.738  -0.318  -3.639  1.00  0.00     0.026 A 
ATOM     19  C   UNL     1       0.887   0.745  -2.548  1.00  0.00     0.040 A 
ATOM     20  C   UNL     1       2.281   0.174  -4.868  1.00  0.00     0.003 A 
ATOM     21  C   UNL     1       1.169   1.020  -4.920  1.00  0.00     0.014 A 
BRANCH  17  22
ATOM     22  N   UNL     1       2.560  -0.509  -1.235  1.00  0.00    -0.325 N 
ATOM     23  O   UNL     1       0.850   0.040   0.243  1.00  0.00    -0.274 OA
ATOM     24  C   UNL     1       1.966  -0.421   0.015  1.00  0.00     0.234 C 
ATOM     25  H   UNL     1       3.437  -0.955  -1.273  1.00  0.00     0.169 HD
BRANCH  24  26
ATOM     26  C   UNL     1       2.788  -0.941   1.186  1.00  0.00     0.175 C 
BRANCH  26  27
ATOM     27  S   UNL     1       3.949  -2.258   0.742  1.00  0.00    -0.116 SA
BRANCH  27  28
ATOM     28  C   UNL     1       2.872  -3.680   0.666  1.00  0.00     0.008 A 
ATOM     29  C   UNL     1       1.489  -3.620   0.455  1.00  0.00     0.016 A 
ATOM     30  C   UNL     1       3.479  -4.934   0.797  1.00  0.00     0.016 A 
ATOM     31  C   UNL     1       0.729  -4.787   0.365  1.00  0.00     0.021 A 
ATOM     32  C   UNL     1       2.720  -6.103   0.712  1.00  0.00     0.021 A 
ATOM     33  C   UNL     1       1.348  -6.024   0.489  1.00  0.00     0.041 A 
ATOM     34  Cl  UNL     1       0.414  -7.460   0.359  1.00  0.00    -0.084 Cl
ENDBRANCH  27  28
ENDBRANCH  26  27
ENDBRANCH  24  26
ENDBRANCH  17  22
ENDBRANCH  13  16
ENDBRANCH   7  12
ENDBRANCH   3   6
ENDBRANCH   1   2
BRANCH   1  35
ATOM     35  C   UNL     1       5.095   3.548   1.541  1.00  0.00     0.021 C 
BRANCH  35  36
ATOM     36  C   UNL     1       5.970   3.161   2.745  1.00  0.00     0.002 C 
BRANCH  36  37
ATOM     37  C   UNL     1       6.686   1.806   2.633  1.00  0.00     0.002 C 
BRANCH  37  38
ATOM     38  C   UNL     1       7.486   1.601   1.345  1.00  0.00     0.021 C 
BRANCH  38  39
ATOM     39  C   UNL     1       8.551   2.660   1.094  1.00  0.00     0.116 C 
BRANCH  39  40
ATOM     40  N   UNL     1       9.567   2.668   2.133  1.00  0.00    -0.352 N 
ATOM     41  C   UNL     1      10.933   2.630   2.008  1.00  0.00     0.251 C 
ATOM     42  H   UNL     1       9.227   2.705   3.056  1.00  0.00     0.163 HD
ATOM     43  O   UNL     1      11.640   2.444   2.990  1.00  0.00    -0.269 OA
BRANCH  41  44
ATOM     44  C   UNL     1      11.545   2.795   0.673  1.00  0.00     0.039 A 
ATOM     45  C   UNL     1      12.579   1.936   0.295  1.00  0.00     0.014 A 
ATOM     46  C   UNL     1      11.099   3.791  -0.200  1.00  0.00     0.014 A 
ATOM     47  C   UNL     1      13.128   2.040  -0.983  1.00  0.00     0.010 A 
ATOM     48  C   UNL     1      11.591   3.841  -1.499  1.00  0.00     0.010 A 
ATOM     49  C   UNL     1      12.616   2.972  -1.902  1.00  0.00    -0.014 A 
BRANCH  49  50
ATOM     50  C   UNL     1      13.141   3.051  -3.287  1.00  0.00     0.031 A 
ATOM     51  C   UNL     1      13.819   4.304  -3.767  1.00  0.00     0.074 A 
ATOM     52  C   UNL     1      12.950   2.019  -4.131  1.00  0.00     0.049 A 
ATOM     53  N   UNL     1      14.285   4.588  -4.957  1.00  0.00    -0.248 NA
ATOM     54  C   UNL     1      13.968   5.394  -2.789  1.00  0.00     0.031 C 
ATOM     55  C   UNL     1      12.263   0.770  -3.797  1.00  0.00     0.029 A 
ATOM     56  N   UNL     1      13.304   1.862  -5.447  1.00  0.00    -0.354 N 
ATOM     57  C   UNL     1      14.768   5.888  -4.873  1.00  0.00     0.074 A 
ATOM     58  C   UNL     1      14.486   6.358  -3.534  1.00  0.00     0.031 C 
ATOM     59  C   UNL     1      12.266  -0.034  -4.873  1.00  0.00     0.029 A 
ATOM     60  C   UNL     1      12.914   0.658  -5.982  1.00  0.00     0.049 A 
ATOM     61  H   UNL     1      13.792   2.546  -5.960  1.00  0.00     0.167 HD
ATOM     62  C   UNL     1      15.407   6.616  -5.819  1.00  0.00     0.037 A 
ATOM     63  C   UNL     1      13.052   0.171  -7.230  1.00  0.00     0.037 A 
ATOM     64  C   UNL     1      15.700   6.136  -7.144  1.00  0.00     0.049 A 
ATOM     65  C   UNL     1      13.755   1.004  -8.267  1.00  0.00     0.074 A 
ATOM     66  C   UNL     1      16.400   6.770  -8.155  1.00  0.00     0.029 A 
ATOM     67  N   UNL     1      15.302   4.905  -7.644  1.00  0.00    -0.354 N 
ATOM     68  N   UNL     1      14.275   2.202  -8.152  1.00  0.00    -0.248 NA
ATOM     69  C   UNL     1      13.896   0.414  -9.605  1.00  0.00     0.031 C 
ATOM     70  C   UNL     1      16.374   5.949  -9.286  1.00  0.00     0.029 A 
ATOM     71  C   UNL     1      15.713   4.775  -8.961  1.00  0.00     0.049 A 
ATOM     72  H   UNL     1      14.800   4.225  -7.139  1.00  0.00     0.167 HD
ATOM     73  C   UNL     1      14.829   2.498  -9.391  1.00  0.00     0.074 A 
ATOM     74  C   UNL     1      14.595   1.346 -10.237  1.00  0.00     0.031 C 
ATOM     75  C   UNL     1      15.475   3.620  -9.791  1.00  0.00     0.037 A 
BRANCH  62  76
ATOM     76  C   UNL     1      15.827   8.012  -5.455  1.00  0.00     0.057 A 
ATOM     77  C   UNL     1      16.841   8.264  -4.520  1.00  0.00     0.134 A 
ATOM     78  C   UNL     1      15.231   9.120  -6.070  1.00  0.00     0.134 A 
ATOM     79  F   UNL     1      17.447   7.249  -3.885  1.00  0.00    -0.206 F 
ATOM     80  C   UNL     1      17.223   9.565  -4.188  1.00  0.00     0.040 A 
ATOM     81  C   UNL     1      15.627  10.425  -5.770  1.00  0.00     0.040 A 
ATOM     82  F   UNL     1      14.258   8.954  -6.980  1.00  0.00    -0.206 F 
ATOM     83  C   UNL     1      16.620  10.650  -4.820  1.00  0.00     0.006 A 
ENDBRANCH  62  76
BRANCH  63  84
ATOM     84  C   UNL     1      12.524  -1.176  -7.564  1.00  0.00     0.057 A 
ATOM     85  C   UNL     1      13.386  -2.241  -7.850  1.00  0.00     0.134 A 
ATOM     86  C   UNL     1      11.148  -1.432  -7.610  1.00  0.00     0.134 A 
ATOM     87  F   UNL     1      14.715  -2.057  -7.838  1.00  0.00    -0.206 F 
ATOM     88  C   UNL     1      12.901  -3.505  -8.191  1.00  0.00     0.040 A 
ATOM     89  C   UNL     1      10.649  -2.697  -7.922  1.00  0.00     0.040 A 
ATOM     90  F   UNL     1      10.268  -0.457  -7.336  1.00  0.00    -0.206 F 
ATOM     91  C   UNL     1      11.527  -3.736  -8.223  1.00  0.00     0.006 A 
ENDBRANCH  63  84
BRANCH  75  92
ATOM     92  C   UNL     1      16.007   3.646 -11.195  1.00  0.00     0.057 A 
ATOM     93  C   UNL     1      15.162   3.738 -12.308  1.00  0.00     0.134 A 
ATOM     94  C   UNL     1      17.388   3.622 -11.432  1.00  0.00     0.134 A 
ATOM     95  F   UNL     1      13.830   3.753 -12.151  1.00  0.00    -0.206 F 
ATOM     96  C   UNL     1      15.670   3.781 -13.607  1.00  0.00     0.040 A 
ATOM     97  C   UNL     1      17.909   3.695 -12.725  1.00  0.00     0.040 A 
ATOM     98  F   UNL     1      18.254   3.544 -10.411  1.00  0.00    -0.206 F 
ATOM     99  C   UNL     1      17.048   3.768 -13.818  1.00  0.00     0.006 A 
ENDBRANCH  75  92
ENDBRANCH  49  50
ENDBRANCH  41  44
ENDBRANCH  39  40
ENDBRANCH  38  39
ENDBRANCH  37  38
ENDBRANCH  36  37
ENDBRANCH  35  36
ENDBRANCH   1  35
TORSDOF 19
