REMARK SMILES O=C(NCCCCCCNC(=O)c1n[nH]c2cc(Br)cc(Cl)c12)c1ccc(-c2c3nc(c(-c4c(F)cccc4F)c4ccc([nH]4)c(-c4c(F)cccc4F)c4nc(c(-c5c(F)cccc5F)c5ccc2[nH]5)C=C4)C=C3)cc1
REMARK SMILES IDX 5 1 4 2 3 3 1 4 2 5 24 7 25 8 77 9 26 10 76 11 27 12 28 13
REMARK SMILES IDX 29 14 70 15 30 16 75 17 69 18 71 19 31 20 74 21 68 22 67 23
REMARK SMILES IDX 32 25 58 26 41 27 57 28 42 29 45 30 56 31 72 32 43 33 44 34
REMARK SMILES IDX 55 36 73 37 46 38 33 39 34 40 39 41 35 42 36 43 38 44 40 45
REMARK SMILES IDX 37 46 59 47 60 48 65 49 61 50 62 51 64 52 66 53 63 54 47 55
REMARK SMILES IDX 48 56 53 57 49 58 50 59 52 60 54 61 51 62 6 63 7 64 8 65
REMARK SMILES IDX 9 66 10 67 11 68 12 70 13 71 14 72 23 73 15 74 16 75 21 76
REMARK SMILES IDX 17 78 20 79 22 80 18 81 19 82
REMARK H PARENT 3 6 71 24 45 35 10 69 15 77
REMARK Flexibility Score: inf
ROOT
ATOM      1  C   UNL     1       4.792   2.281  -0.514  1.00  0.00     0.021 C 
ENDROOT
BRANCH   1   2
ATOM      2  C   UNL     1       4.578   1.025   0.333  1.00  0.00     0.116 C 
BRANCH   2   3
ATOM      3  N   UNL     1       3.198   0.798   0.706  1.00  0.00    -0.352 N 
ATOM      4  O   UNL     1       1.098   0.144   0.825  1.00  0.00    -0.269 OA
ATOM      5  C   UNL     1       2.113   0.203   0.126  1.00  0.00     0.251 C 
ATOM      6  H   UNL     1       2.989   1.162   1.597  1.00  0.00     0.163 HD
BRANCH   5   7
ATOM      7  C   UNL     1       2.052  -0.343  -1.261  1.00  0.00     0.039 A 
ATOM      8  C   UNL     1       3.120  -0.445  -2.151  1.00  0.00     0.014 A 
ATOM      9  C   UNL     1       0.784  -0.782  -1.696  1.00  0.00     0.014 A 
ATOM     10  C   UNL     1       2.922  -0.936  -3.445  1.00  0.00     0.010 A 
ATOM     11  C   UNL     1       0.584  -1.282  -2.984  1.00  0.00     0.010 A 
ATOM     12  C   UNL     1       1.652  -1.340  -3.871  1.00  0.00    -0.014 A 
BRANCH  12  13
ATOM     13  C   UNL     1       1.523  -1.861  -5.233  1.00  0.00     0.031 A 
ATOM     14  C   UNL     1       2.288  -3.102  -5.561  1.00  0.00     0.074 A 
ATOM     15  C   UNL     1       0.691  -1.366  -6.171  1.00  0.00     0.049 A 
ATOM     16  N   UNL     1       3.225  -3.263  -6.442  1.00  0.00    -0.248 NA
ATOM     17  C   UNL     1       1.974  -4.315  -4.794  1.00  0.00     0.031 C 
ATOM     18  C   UNL     1      -0.385  -0.386  -6.019  1.00  0.00     0.029 A 
ATOM     19  N   UNL     1       0.608  -1.722  -7.487  1.00  0.00    -0.354 N 
ATOM     20  C   UNL     1       3.530  -4.626  -6.449  1.00  0.00     0.074 A 
ATOM     21  C   UNL     1       2.783  -5.212  -5.364  1.00  0.00     0.031 C 
ATOM     22  C   UNL     1      -1.130  -0.366  -7.149  1.00  0.00     0.029 A 
ATOM     23  C   UNL     1      -0.500  -1.217  -8.145  1.00  0.00     0.049 A 
ATOM     24  H   UNL     1       1.278  -2.291  -7.930  1.00  0.00     0.167 HD
ATOM     25  C   UNL     1       4.274  -5.208  -7.432  1.00  0.00     0.037 A 
ATOM     26  C   UNL     1      -0.892  -1.508  -9.407  1.00  0.00     0.037 A 
ATOM     27  C   UNL     1       5.019  -4.241  -8.190  1.00  0.00     0.049 A 
ATOM     28  C   UNL     1       0.276  -2.039 -10.146  1.00  0.00     0.074 A 
ATOM     29  C   UNL     1       6.008  -3.320  -7.907  1.00  0.00     0.029 A 
ATOM     30  N   UNL     1       4.592  -3.934  -9.456  1.00  0.00    -0.354 N 
ATOM     31  N   UNL     1       1.306  -1.331 -10.513  1.00  0.00    -0.248 NA
ATOM     32  C   UNL     1       0.457  -3.481 -10.207  1.00  0.00     0.031 C 
ATOM     33  C   UNL     1       5.774  -2.233  -8.800  1.00  0.00     0.029 A 
ATOM     34  C   UNL     1       4.659  -2.571  -9.568  1.00  0.00     0.049 A 
ATOM     35  H   UNL     1       4.295  -4.569 -10.148  1.00  0.00     0.167 HD
ATOM     36  C   UNL     1       2.377  -2.208 -10.461  1.00  0.00     0.074 A 
ATOM     37  C   UNL     1       1.777  -3.535 -10.395  1.00  0.00     0.031 C 
ATOM     38  C   UNL     1       3.642  -1.766 -10.200  1.00  0.00     0.037 A 
BRANCH  25  39
ATOM     39  C   UNL     1       4.143  -6.639  -7.896  1.00  0.00     0.057 A 
ATOM     40  C   UNL     1       5.107  -7.183  -8.769  1.00  0.00     0.134 A 
ATOM     41  C   UNL     1       2.972  -7.407  -7.748  1.00  0.00     0.134 A 
ATOM     42  F   UNL     1       6.259  -6.540  -9.013  1.00  0.00    -0.206 F 
ATOM     43  C   UNL     1       4.894  -8.367  -9.486  1.00  0.00     0.040 A 
ATOM     44  C   UNL     1       2.770  -8.617  -8.422  1.00  0.00     0.040 A 
ATOM     45  F   UNL     1       1.931  -6.979  -7.023  1.00  0.00    -0.206 F 
ATOM     46  C   UNL     1       3.719  -9.087  -9.317  1.00  0.00     0.006 A 
ENDBRANCH  25  39
BRANCH  26  47
ATOM     47  C   UNL     1      -2.262  -1.583  -9.957  1.00  0.00     0.057 A 
ATOM     48  C   UNL     1      -2.494  -1.556 -11.339  1.00  0.00     0.134 A 
ATOM     49  C   UNL     1      -3.349  -1.966  -9.152  1.00  0.00     0.134 A 
ATOM     50  F   UNL     1      -1.507  -1.242 -12.190  1.00  0.00    -0.206 F 
ATOM     51  C   UNL     1      -3.730  -1.914 -11.892  1.00  0.00     0.040 A 
ATOM     52  C   UNL     1      -4.590  -2.317  -9.691  1.00  0.00     0.040 A 
ATOM     53  F   UNL     1      -3.215  -2.099  -7.825  1.00  0.00    -0.206 F 
ATOM     54  C   UNL     1      -4.779  -2.308 -11.067  1.00  0.00     0.006 A 
ENDBRANCH  26  47
BRANCH  38  55
ATOM     55  C   UNL     1       3.896  -0.288 -10.272  1.00  0.00     0.057 A 
ATOM     56  C   UNL     1       3.300   0.642  -9.408  1.00  0.00     0.134 A 
ATOM     57  C   UNL     1       4.885   0.192 -11.138  1.00  0.00     0.134 A 
ATOM     58  F   UNL     1       2.424   0.255  -8.473  1.00  0.00    -0.206 F 
ATOM     59  C   UNL     1       3.638   1.998  -9.441  1.00  0.00     0.040 A 
ATOM     60  C   UNL     1       5.255   1.539 -11.158  1.00  0.00     0.040 A 
ATOM     61  F   UNL     1       5.544  -0.652 -11.948  1.00  0.00    -0.206 F 
ATOM     62  C   UNL     1       4.622   2.449 -10.315  1.00  0.00     0.006 A 
ENDBRANCH  38  55
ENDBRANCH  12  13
ENDBRANCH   5   7
ENDBRANCH   2   3
ENDBRANCH   1   2
BRANCH   1  63
ATOM     63  C   UNL     1       4.280   3.587   0.108  1.00  0.00     0.002 C 
BRANCH  63  64
ATOM     64  C   UNL     1       4.752   3.896   1.533  1.00  0.00     0.002 C 
BRANCH  64  65
ATOM     65  C   UNL     1       6.267   3.915   1.756  1.00  0.00     0.021 C 
BRANCH  65  66
ATOM     66  C   UNL     1       7.046   4.905   0.895  1.00  0.00     0.116 C 
BRANCH  66  67
ATOM     67  N   UNL     1       6.707   6.288   1.171  1.00  0.00    -0.351 N 
ATOM     68  C   UNL     1       7.550   7.379   1.287  1.00  0.00     0.272 C 
ATOM     69  H   UNL     1       5.748   6.476   1.292  1.00  0.00     0.163 HD
ATOM     70  O   UNL     1       7.070   8.477   1.531  1.00  0.00    -0.267 OA
BRANCH  68  71
ATOM     71  C   UNL     1       8.995   7.152   1.144  1.00  0.00     0.159 A 
ATOM     72  N   UNL     1       9.813   7.306   2.204  1.00  0.00    -0.169 NA
ATOM     73  C   UNL     1       9.716   6.699  -0.006  1.00  0.00     0.051 A 
ATOM     74  N   UNL     1      11.016   6.934   1.752  1.00  0.00    -0.277 N 
ATOM     75  C   UNL     1      11.015   6.491   0.459  1.00  0.00     0.068 A 
ATOM     76  C   UNL     1       9.460   6.395  -1.357  1.00  0.00     0.054 A 
ATOM     77  H   UNL     1      11.831   6.977   2.303  1.00  0.00     0.190 HD
ATOM     78  C   UNL     1      12.034   5.936  -0.327  1.00  0.00     0.044 A 
ATOM     79  C   UNL     1      10.441   5.825  -2.168  1.00  0.00     0.037 A 
ATOM     80  Cl  UNL     1       7.917   6.775  -1.984  1.00  0.00    -0.083 Cl
ATOM     81  C   UNL     1      11.707   5.586  -1.642  1.00  0.00     0.021 A 
ATOM     82  Br  UNL     1      13.024   4.772  -2.730  1.00  0.00    -0.051 Br
ENDBRANCH  68  71
ENDBRANCH  66  67
ENDBRANCH  65  66
ENDBRANCH  64  65
ENDBRANCH  63  64
ENDBRANCH   1  63
TORSDOF 13
