REMARK SMILES CCc1c(C(=O)NCC(=O)NCCCCCCNC(=O)c2ccc(-c3c4nc(c(-c5c(F)cccc5F)c5ccc([nH]5)c(-c5c(F)cccc5F)c5nc(c(-c6c(F)cccc6F)c6ccc3[nH]6)C=C5)C=C4)cc2)nnn1-c1ccc(Cl)cc1
REMARK SMILES IDX 14 1 13 2 12 3 11 4 9 5 10 6 8 8 7 9 5 10 6 11 4 13 3 14
REMARK SMILES IDX 77 15 75 16 76 17 2 18 1 19 78 20 79 21 84 22 80 23 83 24
REMARK SMILES IDX 81 25 82 26 15 27 16 28 17 29 18 30 19 31 20 33 21 34 22 35
REMARK SMILES IDX 74 36 23 37 73 38 24 39 25 40 26 41 67 42 27 43 72 44 66 45
REMARK SMILES IDX 68 46 28 47 71 48 65 49 64 50 29 52 55 53 38 54 54 55 39 56
REMARK SMILES IDX 42 57 53 58 69 59 40 60 41 61 52 63 70 64 43 65 30 66 31 67
REMARK SMILES IDX 36 68 32 69 33 70 35 71 37 72 34 73 56 74 57 75 62 76 58 77
REMARK SMILES IDX 59 78 61 79 63 80 60 81 44 82 45 83 50 84 46 85 47 86 49 87
REMARK SMILES IDX 51 88 48 89
REMARK H PARENT 11 7 7 12 18 32 68 51 42 62
REMARK Flexibility Score: inf
ROOT
ATOM      1  C   UNL     1      -5.056   1.752   2.306  1.00  0.00     0.002 C 
ENDROOT
BRANCH   1   2
ATOM      2  C   UNL     1      -3.626   2.294   2.246  1.00  0.00     0.021 C 
BRANCH   2   3
ATOM      3  C   UNL     1      -2.591   1.218   1.950  1.00  0.00     0.116 C 
BRANCH   3   4
ATOM      4  N   UNL     1      -2.718   0.718   0.603  1.00  0.00    -0.355 N 
ATOM      5  C   UNL     1      -2.008   0.985  -0.521  1.00  0.00     0.239 C 
ATOM      6  O   UNL     1      -2.380   0.418  -1.555  1.00  0.00    -0.273 OA
ATOM      7  H   UNL     1      -3.449   0.070   0.477  1.00  0.00     0.163 HD
BRANCH   5   8
ATOM      8  C   UNL     1      -0.682   1.759  -0.525  1.00  0.00     0.216 C 
BRANCH   8   9
ATOM      9  N   UNL     1      -0.386   2.839   0.387  1.00  0.00    -0.342 N 
ATOM     10  C   UNL     1       0.353   3.005   1.527  1.00  0.00     0.274 C 
ATOM     11  O   UNL     1       0.484   4.193   1.847  1.00  0.00    -0.267 OA
ATOM     12  H   UNL     1      -0.833   3.675   0.118  1.00  0.00     0.164 HD
BRANCH  10  13
ATOM     13  C   UNL     1       0.869   1.949   2.418  1.00  0.00     0.174 A 
ATOM     14  C   UNL     1       1.134   0.575   2.359  1.00  0.00     0.077 A 
ATOM     15  N   UNL     1       1.568   0.263   3.653  1.00  0.00    -0.217 N 
ATOM     16  N   UNL     1       1.065   2.349   3.731  1.00  0.00    -0.124 NA
ATOM     17  N   UNL     1       1.363   1.305   4.473  1.00  0.00    -0.061 NA
BRANCH  14  18
ATOM     18  C   UNL     1       0.899  -0.496   1.346  1.00  0.00     0.055 C 
ATOM     19  C   UNL     1       1.890  -0.484   0.193  1.00  0.00     0.011 C 
ENDBRANCH  14  18
BRANCH  15  20
ATOM     20  C   UNL     1       2.080  -0.951   4.176  1.00  0.00     0.067 A 
ATOM     21  C   UNL     1       1.690  -1.370   5.456  1.00  0.00     0.030 A 
ATOM     22  C   UNL     1       2.980  -1.724   3.433  1.00  0.00     0.030 A 
ATOM     23  C   UNL     1       2.138  -2.599   5.950  1.00  0.00     0.023 A 
ATOM     24  C   UNL     1       3.442  -2.940   3.940  1.00  0.00     0.023 A 
ATOM     25  C   UNL     1       3.005  -3.381   5.188  1.00  0.00     0.041 A 
ATOM     26  Cl  UNL     1       3.547  -4.898   5.790  1.00  0.00    -0.084 Cl
ENDBRANCH  15  20
ENDBRANCH  10  13
ENDBRANCH   8   9
ENDBRANCH   5   8
ENDBRANCH   3   4
ENDBRANCH   2   3
ENDBRANCH   1   2
BRANCH   1  27
ATOM     27  C   UNL     1      -5.279   0.569   3.263  1.00  0.00     0.002 C 
BRANCH  27  28
ATOM     28  C   UNL     1      -4.789   0.745   4.709  1.00  0.00     0.021 C 
BRANCH  28  29
ATOM     29  C   UNL     1      -5.492   1.854   5.472  1.00  0.00     0.116 C 
BRANCH  29  30
ATOM     30  N   UNL     1      -6.931   1.603   5.640  1.00  0.00    -0.352 N 
ATOM     31  C   UNL     1      -7.907   2.448   6.127  1.00  0.00     0.251 C 
ATOM     32  H   UNL     1      -7.240   0.709   5.367  1.00  0.00     0.163 HD
ATOM     33  O   UNL     1      -8.974   2.003   6.565  1.00  0.00    -0.269 OA
BRANCH  31  34
ATOM     34  C   UNL     1      -7.671   3.897   6.094  1.00  0.00     0.039 A 
ATOM     35  C   UNL     1      -8.108   4.777   7.087  1.00  0.00     0.014 A 
ATOM     36  C   UNL     1      -6.930   4.363   5.018  1.00  0.00     0.014 A 
ATOM     37  C   UNL     1      -7.743   6.119   6.987  1.00  0.00     0.010 A 
ATOM     38  C   UNL     1      -6.322   5.574   5.100  1.00  0.00     0.010 A 
ATOM     39  C   UNL     1      -6.844   6.501   5.979  1.00  0.00    -0.014 A 
BRANCH  39  40
ATOM     40  C   UNL     1      -6.343   7.855   5.824  1.00  0.00     0.031 A 
ATOM     41  C   UNL     1      -5.633   8.359   7.019  1.00  0.00     0.074 A 
ATOM     42  C   UNL     1      -6.294   8.471   4.620  1.00  0.00     0.049 A 
ATOM     43  N   UNL     1      -6.045   9.252   7.853  1.00  0.00    -0.248 NA
ATOM     44  C   UNL     1      -4.409   7.660   7.445  1.00  0.00     0.031 C 
ATOM     45  C   UNL     1      -6.646   7.939   3.293  1.00  0.00     0.029 A 
ATOM     46  N   UNL     1      -5.814   9.705   4.314  1.00  0.00    -0.354 N 
ATOM     47  C   UNL     1      -5.013   9.405   8.771  1.00  0.00     0.074 A 
ATOM     48  C   UNL     1      -4.163   8.255   8.614  1.00  0.00     0.031 C 
ATOM     49  C   UNL     1      -6.159   8.750   2.327  1.00  0.00     0.029 A 
ATOM     50  C   UNL     1      -5.620   9.940   2.954  1.00  0.00     0.049 A 
ATOM     51  H   UNL     1      -5.617  10.382   5.002  1.00  0.00     0.167 HD
ATOM     52  C   UNL     1      -4.792  10.609   9.366  1.00  0.00     0.037 A 
ATOM     53  C   UNL     1      -5.035  11.034   2.404  1.00  0.00     0.037 A 
ATOM     54  C   UNL     1      -5.927  11.485   9.188  1.00  0.00     0.049 A 
ATOM     55  C   UNL     1      -5.064  12.104   3.434  1.00  0.00     0.074 A 
ATOM     56  C   UNL     1      -7.268  11.419   9.517  1.00  0.00     0.029 A 
ATOM     57  N   UNL     1      -5.830  12.450   8.214  1.00  0.00    -0.354 N 
ATOM     58  N   UNL     1      -6.162  12.666   3.859  1.00  0.00    -0.248 NA
ATOM     59  C   UNL     1      -3.928  12.189   4.338  1.00  0.00     0.031 C 
ATOM     60  C   UNL     1      -7.950  11.979   8.395  1.00  0.00     0.029 A 
ATOM     61  C   UNL     1      -6.992  12.432   7.487  1.00  0.00     0.049 A 
ATOM     62  H   UNL     1      -5.063  13.049   8.065  1.00  0.00     0.167 HD
ATOM     63  C   UNL     1      -5.992  12.779   5.232  1.00  0.00     0.074 A 
ATOM     64  C   UNL     1      -4.567  12.536   5.458  1.00  0.00     0.031 C 
ATOM     65  C   UNL     1      -7.064  12.754   6.079  1.00  0.00     0.037 A 
BRANCH  52  66
ATOM     66  C   UNL     1      -3.425  11.140   9.729  1.00  0.00     0.057 A 
ATOM     67  C   UNL     1      -3.341  12.348  10.445  1.00  0.00     0.134 A 
ATOM     68  C   UNL     1      -2.211  10.693   9.167  1.00  0.00     0.134 A 
ATOM     69  F   UNL     1      -4.427  12.883  11.023  1.00  0.00    -0.206 F 
ATOM     70  C   UNL     1      -2.160  13.097  10.517  1.00  0.00     0.040 A 
ATOM     71  C   UNL     1      -1.016  11.407   9.279  1.00  0.00     0.040 A 
ATOM     72  F   UNL     1      -2.125   9.605   8.395  1.00  0.00    -0.206 F 
ATOM     73  C   UNL     1      -0.994  12.631   9.924  1.00  0.00     0.006 A 
ENDBRANCH  52  66
BRANCH  53  74
ATOM     74  C   UNL     1      -4.175  11.129   1.200  1.00  0.00     0.057 A 
ATOM     75  C   UNL     1      -3.887  12.368   0.607  1.00  0.00     0.134 A 
ATOM     76  C   UNL     1      -3.377  10.049   0.784  1.00  0.00     0.134 A 
ATOM     77  F   UNL     1      -4.566  13.467   0.966  1.00  0.00    -0.206 F 
ATOM     78  C   UNL     1      -2.847  12.530  -0.320  1.00  0.00     0.040 A 
ATOM     79  C   UNL     1      -2.337  10.196  -0.141  1.00  0.00     0.040 A 
ATOM     80  F   UNL     1      -3.521   8.833   1.331  1.00  0.00    -0.206 F 
ATOM     81  C   UNL     1      -2.058  11.444  -0.685  1.00  0.00     0.006 A 
ENDBRANCH  53  74
BRANCH  65  82
ATOM     82  C   UNL     1      -8.441  12.850   5.474  1.00  0.00     0.057 A 
ATOM     83  C   UNL     1      -9.003  11.888   4.620  1.00  0.00     0.134 A 
ATOM     84  C   UNL     1      -9.284  13.883   5.895  1.00  0.00     0.134 A 
ATOM     85  F   UNL     1      -8.310  10.810   4.235  1.00  0.00    -0.206 F 
ATOM     86  C   UNL     1     -10.327  11.973   4.176  1.00  0.00     0.040 A 
ATOM     87  C   UNL     1     -10.617  13.963   5.486  1.00  0.00     0.040 A 
ATOM     88  F   UNL     1      -8.836  14.811   6.755  1.00  0.00    -0.206 F 
ATOM     89  C   UNL     1     -11.142  13.011   4.615  1.00  0.00     0.006 A 
ENDBRANCH  65  82
ENDBRANCH  39  40
ENDBRANCH  31  34
ENDBRANCH  29  30
ENDBRANCH  28  29
ENDBRANCH  27  28
ENDBRANCH   1  27
TORSDOF 17
