REMARK SMILES Cn1cc(S(=O)(=O)N[C@@H]2C=C[C@@H](C(=O)NCCCCCCNC(=O)c3ccc(-c4c5nc(c(-c6c(F)cccc6F)c6ccc([nH]6)c(-c6c(F)cccc6F)c6nc(c(-c7c(F)cccc7F)c7ccc4[nH]7)C=C6)C=C5)cc3)C2)cc1C(N)=O
REMARK SMILES IDX 17 1 16 2 15 3 13 4 14 5 12 7 9 8 10 9 79 10 11 11 8 12 5 14
REMARK SMILES IDX 6 15 7 16 4 17 1 18 2 19 3 20 81 21 80 22 82 23 83 24 84 25
REMARK SMILES IDX 18 28 19 29 20 30 21 31 22 32 23 33 24 35 25 36 26 37 78 38
REMARK SMILES IDX 27 39 77 40 28 41 29 42 30 43 71 44 31 45 76 46 70 47 72 48
REMARK SMILES IDX 32 49 75 50 69 51 68 52 33 54 59 55 42 56 58 57 43 58 46 59
REMARK SMILES IDX 57 60 73 61 44 62 45 63 56 65 74 66 47 67 34 68 35 69 40 70
REMARK SMILES IDX 36 71 37 72 39 73 41 74 38 75 60 76 61 77 66 78 62 79 63 80
REMARK SMILES IDX 65 81 67 82 64 83 48 84 49 85 54 86 50 87 51 88 53 89 55 90
REMARK SMILES IDX 52 91
REMARK H PARENT 15 6 8 13 83 26 83 27 22 34 72 53 46 64
REMARK Flexibility Score: inf
ROOT
ATOM      1  C   UNL     1      -2.641  -2.216  -2.682  1.00  0.00     0.021 C 
ENDROOT
BRANCH   1   2
ATOM      2  C   UNL     1      -3.606  -2.654  -1.588  1.00  0.00     0.116 C 
BRANCH   2   3
ATOM      3  N   UNL     1      -2.979  -3.547  -0.632  1.00  0.00    -0.356 N 
ATOM      4  C   UNL     1      -3.041  -3.567   0.730  1.00  0.00     0.226 C 
ATOM      5  O   UNL     1      -2.464  -4.488   1.315  1.00  0.00    -0.274 OA
ATOM      6  H   UNL     1      -2.419  -4.252  -1.031  1.00  0.00     0.163 HD
BRANCH   4   7
ATOM      7  C   UNL     1      -3.791  -2.498   1.529  1.00  0.00     0.103 C 
ATOM      8  C   UNL     1      -4.418  -0.132   1.219  1.00  0.00     0.093 C 
ATOM      9  C   UNL     1      -5.531  -1.072   0.886  1.00  0.00    -0.011 C 
ATOM     10  C   UNL     1      -3.213  -1.081   1.384  1.00  0.00     0.042 C 
ATOM     11  C   UNL     1      -5.215  -2.354   1.093  1.00  0.00    -0.016 C 
BRANCH   8  12
ATOM     12  N   UNL     1      -4.675   0.546   2.498  1.00  0.00    -0.204 NA
ATOM     13  H   UNL     1      -4.850  -0.178   3.195  1.00  0.00     0.142 HD
BRANCH  12  14
ATOM     14  S   UNL     1      -5.961   1.641   2.578  1.00  0.00     0.242 S 
ATOM     15  O   UNL     1      -6.072   2.301   1.298  1.00  0.00    -0.207 OA
ATOM     16  O   UNL     1      -5.811   2.367   3.818  1.00  0.00    -0.207 OA
BRANCH  14  17
ATOM     17  C   UNL     1      -7.432   0.761   2.768  1.00  0.00     0.100 A 
ATOM     18  C   UNL     1     -10.979   0.207   2.385  1.00  0.00     0.150 C 
ATOM     19  N   UNL     1      -9.554   0.115   2.630  1.00  0.00    -0.345 N 
ATOM     20  C   UNL     1      -8.697   1.170   2.415  1.00  0.00     0.107 A 
ATOM     21  C   UNL     1      -8.844  -1.000   3.047  1.00  0.00     0.107 A 
ATOM     22  C   UNL     1      -7.543  -0.558   3.265  1.00  0.00     0.055 A 
BRANCH  21  23
ATOM     23  C   UNL     1      -9.375  -2.341   3.202  1.00  0.00     0.265 C 
ATOM     24  N   UNL     1      -8.442  -3.337   3.246  1.00  0.00    -0.364 N 
ATOM     25  O   UNL     1     -10.565  -2.632   3.248  1.00  0.00    -0.268 OA
ATOM     26  H   UNL     1      -7.483  -3.116   3.210  1.00  0.00     0.160 HD
ATOM     27  H   UNL     1      -8.728  -4.277   3.314  1.00  0.00     0.160 HD
ENDBRANCH  21  23
ENDBRANCH  14  17
ENDBRANCH  12  14
ENDBRANCH   8  12
ENDBRANCH   4   7
ENDBRANCH   2   3
ENDBRANCH   1   2
BRANCH   1  28
ATOM     28  C   UNL     1      -2.333  -3.288  -3.729  1.00  0.00     0.002 C 
BRANCH  28  29
ATOM     29  C   UNL     1      -3.544  -3.832  -4.494  1.00  0.00     0.002 C 
BRANCH  29  30
ATOM     30  C   UNL     1      -4.463  -2.784  -5.129  1.00  0.00     0.021 C 
BRANCH  30  31
ATOM     31  C   UNL     1      -3.778  -1.772  -6.044  1.00  0.00     0.116 C 
BRANCH  31  32
ATOM     32  N   UNL     1      -3.098  -2.397  -7.164  1.00  0.00    -0.352 N 
ATOM     33  C   UNL     1      -3.146  -2.087  -8.500  1.00  0.00     0.251 C 
ATOM     34  H   UNL     1      -2.515  -3.155  -6.930  1.00  0.00     0.163 HD
ATOM     35  O   UNL     1      -2.596  -2.816  -9.320  1.00  0.00    -0.269 OA
BRANCH  33  36
ATOM     36  C   UNL     1      -3.885  -0.892  -8.962  1.00  0.00     0.039 A 
ATOM     37  C   UNL     1      -4.748  -1.023 -10.054  1.00  0.00     0.014 A 
ATOM     38  C   UNL     1      -3.723   0.350  -8.340  1.00  0.00     0.014 A 
ATOM     39  C   UNL     1      -5.499   0.074 -10.482  1.00  0.00     0.010 A 
ATOM     40  C   UNL     1      -4.510   1.431  -8.735  1.00  0.00     0.010 A 
ATOM     41  C   UNL     1      -5.410   1.300  -9.804  1.00  0.00    -0.014 A 
BRANCH  41  42
ATOM     42  C   UNL     1      -6.270   2.448 -10.186  1.00  0.00     0.031 A 
ATOM     43  C   UNL     1      -5.667   3.687 -10.784  1.00  0.00     0.074 A 
ATOM     44  C   UNL     1      -7.591   2.396  -9.930  1.00  0.00     0.049 A 
ATOM     45  N   UNL     1      -6.250   4.811 -11.114  1.00  0.00    -0.248 NA
ATOM     46  C   UNL     1      -4.216   3.669 -11.020  1.00  0.00     0.031 C 
ATOM     47  C   UNL     1      -8.289   1.269  -9.310  1.00  0.00     0.029 A 
ATOM     48  N   UNL     1      -8.580   3.322 -10.146  1.00  0.00    -0.354 N 
ATOM     49  C   UNL     1      -5.238   5.639 -11.580  1.00  0.00     0.074 A 
ATOM     50  C   UNL     1      -3.999   4.901 -11.459  1.00  0.00     0.031 C 
ATOM     51  C   UNL     1      -9.595   1.565  -9.205  1.00  0.00     0.029 A 
ATOM     52  C   UNL     1      -9.820   2.911  -9.722  1.00  0.00     0.049 A 
ATOM     53  H   UNL     1      -8.416   4.198 -10.565  1.00  0.00     0.167 HD
ATOM     54  C   UNL     1      -5.336   6.894 -12.079  1.00  0.00     0.037 A 
ATOM     55  C   UNL     1     -11.005   3.550  -9.741  1.00  0.00     0.037 A 
ATOM     56  C   UNL     1      -6.572   7.617 -12.230  1.00  0.00     0.049 A 
ATOM     57  C   UNL     1     -11.087   4.937 -10.311  1.00  0.00     0.074 A 
ATOM     58  C   UNL     1      -6.779   8.862 -12.798  1.00  0.00     0.029 A 
ATOM     59  N   UNL     1      -7.810   7.158 -11.809  1.00  0.00    -0.354 N 
ATOM     60  N   UNL     1     -10.132   5.681 -10.811  1.00  0.00    -0.248 NA
ATOM     61  C   UNL     1     -12.413   5.571 -10.321  1.00  0.00     0.031 C 
ATOM     62  C   UNL     1      -8.139   9.172 -12.691  1.00  0.00     0.029 A 
ATOM     63  C   UNL     1      -8.783   8.105 -12.086  1.00  0.00     0.049 A 
ATOM     64  H   UNL     1      -7.974   6.288 -11.378  1.00  0.00     0.167 HD
ATOM     65  C   UNL     1     -10.741   6.863 -11.211  1.00  0.00     0.074 A 
ATOM     66  C   UNL     1     -12.152   6.731 -10.909  1.00  0.00     0.031 C 
ATOM     67  C   UNL     1     -10.182   7.959 -11.777  1.00  0.00     0.037 A 
BRANCH  54  68
ATOM     68  C   UNL     1      -4.067   7.568 -12.506  1.00  0.00     0.057 A 
ATOM     69  C   UNL     1      -3.396   7.199 -13.679  1.00  0.00     0.134 A 
ATOM     70  C   UNL     1      -3.532   8.625 -11.758  1.00  0.00     0.134 A 
ATOM     71  F   UNL     1      -3.852   6.187 -14.433  1.00  0.00    -0.206 F 
ATOM     72  C   UNL     1      -2.227   7.845 -14.084  1.00  0.00     0.040 A 
ATOM     73  C   UNL     1      -2.375   9.292 -12.164  1.00  0.00     0.040 A 
ATOM     74  F   UNL     1      -4.129   9.030 -10.627  1.00  0.00    -0.206 F 
ATOM     75  C   UNL     1      -1.717   8.899 -13.328  1.00  0.00     0.006 A 
ENDBRANCH  54  68
BRANCH  55  76
ATOM     76  C   UNL     1     -12.215   2.875  -9.215  1.00  0.00     0.057 A 
ATOM     77  C   UNL     1     -13.207   2.401 -10.080  1.00  0.00     0.134 A 
ATOM     78  C   UNL     1     -12.409   2.689  -7.841  1.00  0.00     0.134 A 
ATOM     79  F   UNL     1     -13.084   2.568 -11.405  1.00  0.00    -0.206 F 
ATOM     80  C   UNL     1     -14.357   1.775  -9.597  1.00  0.00     0.040 A 
ATOM     81  C   UNL     1     -13.545   2.048  -7.346  1.00  0.00     0.040 A 
ATOM     82  F   UNL     1     -11.490   3.117  -6.964  1.00  0.00    -0.206 F 
ATOM     83  C   UNL     1     -14.526   1.594  -8.226  1.00  0.00     0.006 A 
ENDBRANCH  55  76
BRANCH  67  84
ATOM     84  C   UNL     1     -11.099   9.093 -12.119  1.00  0.00     0.057 A 
ATOM     85  C   UNL     1     -11.609   9.947 -11.133  1.00  0.00     0.134 A 
ATOM     86  C   UNL     1     -11.451   9.352 -13.449  1.00  0.00     0.134 A 
ATOM     87  F   UNL     1     -11.320   9.740  -9.840  1.00  0.00    -0.206 F 
ATOM     88  C   UNL     1     -12.451  11.011 -11.458  1.00  0.00     0.040 A 
ATOM     89  C   UNL     1     -12.276  10.425 -13.788  1.00  0.00     0.040 A 
ATOM     90  F   UNL     1     -10.991   8.573 -14.440  1.00  0.00    -0.206 F 
ATOM     91  C   UNL     1     -12.782  11.256 -12.790  1.00  0.00     0.006 A 
ENDBRANCH  67  84
ENDBRANCH  41  42
ENDBRANCH  33  36
ENDBRANCH  31  32
ENDBRANCH  30  31
ENDBRANCH  29  30
ENDBRANCH  28  29
ENDBRANCH   1  28
TORSDOF 17
