REMARK SMILES COc1ccccc1[C@@H]1C[N@@H+](Cc2cc3c(cc2C)OCO3)C[C@H]1C(=O)NCCCCCCNC(=O)c1ccc(-c2c3nc(c(-c4c(F)cccc4F)c4ccc([nH]4)c(-c4c(F)cccc4F)c4nc(c(-c5c(F)cccc5F)c5ccc2[nH]5)C=C4)C=C3)cc1
REMARK SMILES IDX 30 1 29 2 28 3 27 4 25 5 26 6 24 8 9 9 10 10 11 11 23 12
REMARK SMILES IDX 8 14 3 15 4 16 5 17 7 18 6 19 2 20 1 21 12 22 13 23 14 24
REMARK SMILES IDX 18 25 15 26 17 27 19 28 16 29 22 30 20 31 21 32 31 33 32 34
REMARK SMILES IDX 33 35 34 36 35 37 36 39 37 40 38 41 90 42 39 43 89 44 40 45
REMARK SMILES IDX 41 46 42 47 83 48 43 49 88 50 82 51 84 52 44 53 87 54 81 55
REMARK SMILES IDX 80 56 45 58 71 59 54 60 70 61 55 62 58 63 69 64 85 65 56 66
REMARK SMILES IDX 57 67 68 69 86 70 59 71 46 72 47 73 52 74 48 75 49 76 51 77
REMARK SMILES IDX 53 78 50 79 72 80 73 81 78 82 74 83 75 84 77 85 79 86 76 87
REMARK SMILES IDX 60 88 61 89 66 90 62 91 63 92 65 93 67 94 64 95
REMARK H PARENT 27 7 11 13 34 38 84 57 58 68
REMARK Flexibility Score: inf
ROOT
ATOM      1  C   UNL     1       7.470  -4.639   2.648  1.00  0.00     0.002 C 
ENDROOT
BRANCH   1   2
ATOM      2  C   UNL     1       6.279  -3.740   2.291  1.00  0.00     0.021 C 
BRANCH   2   3
ATOM      3  C   UNL     1       5.168  -4.106   1.240  1.00  0.00     0.116 C 
BRANCH   3   4
ATOM      4  N   UNL     1       3.743  -3.443   1.362  1.00  0.00    -0.356 N 
ATOM      5  C   UNL     1       2.807  -2.464   1.157  1.00  0.00     0.229 C 
ATOM      6  O   UNL     1       1.714  -2.908   1.599  1.00  0.00    -0.275 OA
ATOM      7  H   UNL     1       3.239  -4.114   1.878  1.00  0.00     0.163 HD
BRANCH   5   8
ATOM      8  C   UNL     1       2.645  -0.941   0.578  1.00  0.00     0.146 C 
ATOM      9  C   UNL     1       2.587   0.283   1.566  1.00  0.00     0.096 C 
ATOM     10  C   UNL     1       2.973   1.536   0.745  1.00  0.00     0.272 C 
ATOM     11  N   UNL     1       3.802   1.076  -0.371  1.00  0.00    -0.330 N 
ATOM     12  C   UNL     1       3.300  -0.292  -0.677  1.00  0.00     0.276 C 
ATOM     13  H   UNL     1       3.713   1.596  -1.244  1.00  0.00     0.348 HD
BRANCH   9  14
ATOM     14  C   UNL     1       1.465   0.638   2.544  1.00  0.00     0.004 A 
ATOM     15  C   UNL     1       0.173   1.133   2.279  1.00  0.00     0.122 A 
ATOM     16  C   UNL     1      -0.634   1.605   3.340  1.00  0.00     0.047 A 
ATOM     17  C   UNL     1      -0.173   1.665   4.653  1.00  0.00     0.004 A 
ATOM     18  C   UNL     1       1.900   0.722   3.900  1.00  0.00     0.008 A 
ATOM     19  C   UNL     1       1.112   1.242   4.929  1.00  0.00     0.001 A 
BRANCH  15  20
ATOM     20  O   UNL     1      -0.385   1.465   1.075  1.00  0.00    -0.496 OA
ATOM     21  C   UNL     1      -0.376   0.513   0.034  1.00  0.00     0.278 C 
ENDBRANCH  15  20
ENDBRANCH   9  14
BRANCH  11  22
ATOM     22  C   UNL     1       5.257   1.381  -0.198  1.00  0.00     0.299 C 
BRANCH  22  23
ATOM     23  C   UNL     1       5.931   0.731   0.997  1.00  0.00     0.013 A 
ATOM     24  C   UNL     1       6.535   1.401   2.087  1.00  0.00     0.060 A 
ATOM     25  C   UNL     1       5.747  -0.632   1.106  1.00  0.00    -0.038 A 
ATOM     26  C   UNL     1       6.638   0.724   3.294  1.00  0.00     0.166 A 
ATOM     27  C   UNL     1       5.428  -1.072   2.381  1.00  0.00     0.054 A 
ATOM     28  C   UNL     1       5.912  -1.501  -0.109  1.00  0.00     0.045 C 
ATOM     29  C   UNL     1       5.960  -0.439   3.456  1.00  0.00     0.166 A 
ATOM     30  O   UNL     1       7.268   1.061   4.451  1.00  0.00    -0.454 OA
ATOM     31  O   UNL     1       5.963  -0.935   4.715  1.00  0.00    -0.454 OA
ATOM     32  C   UNL     1       7.023  -0.133   5.250  1.00  0.00     0.468 C 
ENDBRANCH  22  23
ENDBRANCH  11  22
ENDBRANCH   5   8
ENDBRANCH   3   4
ENDBRANCH   2   3
ENDBRANCH   1   2
BRANCH   1  33
ATOM     33  C   UNL     1       8.703  -4.622   1.730  1.00  0.00     0.002 C 
BRANCH  33  34
ATOM     34  C   UNL     1       9.494  -3.313   1.531  1.00  0.00     0.021 C 
BRANCH  34  35
ATOM     35  C   UNL     1       9.872  -2.494   2.768  1.00  0.00     0.116 C 
BRANCH  35  36
ATOM     36  N   UNL     1      10.562  -3.272   3.785  1.00  0.00    -0.352 N 
ATOM     37  C   UNL     1      11.874  -3.234   4.202  1.00  0.00     0.251 C 
ATOM     38  H   UNL     1      10.000  -3.933   4.250  1.00  0.00     0.163 HD
ATOM     39  O   UNL     1      12.312  -4.084   4.954  1.00  0.00    -0.269 OA
BRANCH  37  40
ATOM     40  C   UNL     1      12.757  -2.149   3.727  1.00  0.00     0.039 A 
ATOM     41  C   UNL     1      13.983  -2.475   3.140  1.00  0.00     0.014 A 
ATOM     42  C   UNL     1      12.379  -0.815   3.888  1.00  0.00     0.014 A 
ATOM     43  C   UNL     1      14.807  -1.457   2.654  1.00  0.00     0.010 A 
ATOM     44  C   UNL     1      13.172   0.194   3.349  1.00  0.00     0.010 A 
ATOM     45  C   UNL     1      14.395  -0.117   2.732  1.00  0.00    -0.014 A 
BRANCH  45  46
ATOM     46  C   UNL     1      15.240   0.982   2.203  1.00  0.00     0.031 A 
ATOM     47  C   UNL     1      15.810   2.003   3.147  1.00  0.00     0.074 A 
ATOM     48  C   UNL     1      15.434   1.102   0.876  1.00  0.00     0.049 A 
ATOM     49  N   UNL     1      16.493   3.087   2.883  1.00  0.00    -0.248 NA
ATOM     50  C   UNL     1      15.547   1.790   4.579  1.00  0.00     0.031 C 
ATOM     51  C   UNL     1      14.899   0.196  -0.141  1.00  0.00     0.029 A 
ATOM     52  N   UNL     1      16.120   2.046   0.154  1.00  0.00    -0.354 N 
ATOM     53  C   UNL     1      16.725   3.692   4.111  1.00  0.00     0.074 A 
ATOM     54  C   UNL     1      16.056   2.890   5.112  1.00  0.00     0.031 C 
ATOM     55  C   UNL     1      15.289   0.620  -1.354  1.00  0.00     0.029 A 
ATOM     56  C   UNL     1      16.065   1.847  -1.204  1.00  0.00     0.049 A 
ATOM     57  H   UNL     1      16.605   2.795   0.571  1.00  0.00     0.167 HD
ATOM     58  C   UNL     1      17.451   4.803   4.385  1.00  0.00     0.037 A 
ATOM     59  C   UNL     1      16.575   2.579  -2.213  1.00  0.00     0.037 A 
ATOM     60  C   UNL     1      18.122   5.588   3.383  1.00  0.00     0.049 A 
ATOM     61  C   UNL     1      17.363   3.819  -1.891  1.00  0.00     0.074 A 
ATOM     62  C   UNL     1      18.923   6.703   3.553  1.00  0.00     0.029 A 
ATOM     63  N   UNL     1      18.061   5.343   2.018  1.00  0.00    -0.354 N 
ATOM     64  N   UNL     1      17.630   4.348  -0.721  1.00  0.00    -0.248 NA
ATOM     65  C   UNL     1      17.927   4.560  -3.027  1.00  0.00     0.031 C 
ATOM     66  C   UNL     1      19.301   7.165   2.288  1.00  0.00     0.029 A 
ATOM     67  C   UNL     1      18.790   6.300   1.332  1.00  0.00     0.049 A 
ATOM     68  H   UNL     1      17.572   4.598   1.599  1.00  0.00     0.167 HD
ATOM     69  C   UNL     1      18.421   5.462  -0.976  1.00  0.00     0.074 A 
ATOM     70  C   UNL     1      18.593   5.528  -2.413  1.00  0.00     0.031 C 
ATOM     71  C   UNL     1      18.959   6.345  -0.099  1.00  0.00     0.037 A 
BRANCH  58  72
ATOM     72  C   UNL     1      17.539   5.229   5.823  1.00  0.00     0.057 A 
ATOM     73  C   UNL     1      18.214   4.463   6.785  1.00  0.00     0.134 A 
ATOM     74  C   UNL     1      16.937   6.417   6.256  1.00  0.00     0.134 A 
ATOM     75  F   UNL     1      18.804   3.307   6.442  1.00  0.00    -0.206 F 
ATOM     76  C   UNL     1      18.245   4.837   8.130  1.00  0.00     0.040 A 
ATOM     77  C   UNL     1      16.991   6.820   7.592  1.00  0.00     0.040 A 
ATOM     78  F   UNL     1      16.282   7.204   5.390  1.00  0.00    -0.206 F 
ATOM     79  C   UNL     1      17.636   6.022   8.535  1.00  0.00     0.006 A 
ENDBRANCH  58  72
BRANCH  59  80
ATOM     80  C   UNL     1      16.372   2.141  -3.617  1.00  0.00     0.057 A 
ATOM     81  C   UNL     1      17.435   1.646  -4.381  1.00  0.00     0.134 A 
ATOM     82  C   UNL     1      15.111   2.189  -4.224  1.00  0.00     0.134 A 
ATOM     83  F   UNL     1      18.670   1.590  -3.862  1.00  0.00    -0.206 F 
ATOM     84  C   UNL     1      17.255   1.226  -5.701  1.00  0.00     0.040 A 
ATOM     85  C   UNL     1      14.911   1.749  -5.534  1.00  0.00     0.040 A 
ATOM     86  F   UNL     1      14.048   2.643  -3.543  1.00  0.00    -0.206 F 
ATOM     87  C   UNL     1      15.988   1.271  -6.278  1.00  0.00     0.006 A 
ENDBRANCH  59  80
BRANCH  71  88
ATOM     88  C   UNL     1      19.827   7.434  -0.660  1.00  0.00     0.057 A 
ATOM     89  C   UNL     1      19.299   8.510  -1.384  1.00  0.00     0.134 A 
ATOM     90  C   UNL     1      21.207   7.435  -0.415  1.00  0.00     0.134 A 
ATOM     91  F   UNL     1      17.988   8.565  -1.663  1.00  0.00    -0.206 F 
ATOM     92  C   UNL     1      20.115   9.538  -1.860  1.00  0.00     0.040 A 
ATOM     93  C   UNL     1      22.028   8.472  -0.860  1.00  0.00     0.040 A 
ATOM     94  F   UNL     1      21.776   6.439   0.280  1.00  0.00    -0.206 F 
ATOM     95  C   UNL     1      21.482   9.525  -1.589  1.00  0.00     0.006 A 
ENDBRANCH  71  88
ENDBRANCH  45  46
ENDBRANCH  37  40
ENDBRANCH  35  36
ENDBRANCH  34  35
ENDBRANCH  33  34
ENDBRANCH   1  33
TORSDOF 17
