REMARK SMILES O=C(NCCCCCCNC(=O)c1nn(Cc2ccc(F)cc2)c2c1CN(C(=O)[C@H]1CC1(F)F)CC2)c1ccc(-c2c3nc(c(-c4c(F)cccc4F)c4ccc([nH]4)c(-c4c(F)cccc4F)c4nc(c(-c5c(F)cccc5F)c5ccc2[nH]5)C=C4)C=C3)cc1
REMARK SMILES IDX 6 1 5 2 4 3 3 4 1 5 2 6 37 8 38 9 90 10 39 11 89 12 40 13
REMARK SMILES IDX 41 14 42 15 83 16 43 17 88 18 82 19 84 20 44 21 87 22 81 23
REMARK SMILES IDX 80 24 45 26 71 27 54 28 70 29 55 30 58 31 69 32 85 33 56 34
REMARK SMILES IDX 57 35 68 37 86 38 59 39 46 40 47 41 52 42 48 43 49 44 51 45
REMARK SMILES IDX 53 46 50 47 72 48 73 49 78 50 74 51 75 52 77 53 79 54 76 55
REMARK SMILES IDX 60 56 61 57 66 58 62 59 63 60 65 61 67 62 64 63 7 64 8 65
REMARK SMILES IDX 9 66 10 67 11 68 12 70 13 71 14 72 25 73 15 74 24 75 26 76
REMARK SMILES IDX 36 77 27 78 35 79 16 80 17 81 18 82 23 83 19 84 22 85 20 86
REMARK SMILES IDX 21 87 28 88 29 89 30 90 31 91 32 92 33 93 34 94
REMARK H PARENT 3 7 84 25 58 36 10 69
REMARK Flexibility Score: inf
ROOT
ATOM      1  C   UNL     1      10.624  22.892  -3.211  1.00  0.00     0.002 C 
ENDROOT
BRANCH   1   2
ATOM      2  C   UNL     1      10.504  23.188  -4.713  1.00  0.00     0.021 C 
BRANCH   2   3
ATOM      3  C   UNL     1       9.082  23.156  -5.274  1.00  0.00     0.116 C 
BRANCH   3   4
ATOM      4  N   UNL     1       8.184  24.104  -4.645  1.00  0.00    -0.352 N 
ATOM      5  O   UNL     1       6.967  25.863  -4.117  1.00  0.00    -0.269 OA
ATOM      6  C   UNL     1       7.884  25.426  -4.820  1.00  0.00     0.251 C 
ATOM      7  H   UNL     1       7.665  23.697  -3.915  1.00  0.00     0.163 HD
BRANCH   6   8
ATOM      8  C   UNL     1       8.574  26.369  -5.750  1.00  0.00     0.039 A 
ATOM      9  C   UNL     1       9.559  26.038  -6.680  1.00  0.00     0.014 A 
ATOM     10  C   UNL     1       8.182  27.721  -5.657  1.00  0.00     0.014 A 
ATOM     11  C   UNL     1      10.154  27.027  -7.470  1.00  0.00     0.010 A 
ATOM     12  C   UNL     1       8.767  28.710  -6.449  1.00  0.00     0.010 A 
ATOM     13  C   UNL     1       9.773  28.367  -7.348  1.00  0.00    -0.014 A 
BRANCH  13  14
ATOM     14  C   UNL     1      10.405  29.354  -8.230  1.00  0.00     0.031 A 
ATOM     15  C   UNL     1      10.152  29.220  -9.699  1.00  0.00     0.074 A 
ATOM     16  C   UNL     1      11.060  30.451  -7.798  1.00  0.00     0.049 A 
ATOM     17  N   UNL     1      11.009  29.109 -10.666  1.00  0.00    -0.248 NA
ATOM     18  C   UNL     1       8.750  29.209 -10.143  1.00  0.00     0.031 C 
ATOM     19  C   UNL     1      11.138  30.989  -6.438  1.00  0.00     0.029 A 
ATOM     20  N   UNL     1      11.730  31.381  -8.542  1.00  0.00    -0.354 N 
ATOM     21  C   UNL     1      10.273  29.146 -11.852  1.00  0.00     0.074 A 
ATOM     22  C   UNL     1       8.883  29.146 -11.468  1.00  0.00     0.031 C 
ATOM     23  C   UNL     1      11.640  32.244  -6.487  1.00  0.00     0.029 A 
ATOM     24  C   UNL     1      12.047  32.538  -7.851  1.00  0.00     0.049 A 
ATOM     25  H   UNL     1      11.967  31.241  -9.487  1.00  0.00     0.167 HD
ATOM     26  C   UNL     1      10.842  29.300 -13.080  1.00  0.00     0.037 A 
ATOM     27  C   UNL     1      12.556  33.678  -8.373  1.00  0.00     0.037 A 
ATOM     28  C   UNL     1      12.250  29.028 -13.070  1.00  0.00     0.049 A 
ATOM     29  C   UNL     1      13.175  33.356  -9.680  1.00  0.00     0.074 A 
ATOM     30  C   UNL     1      13.032  27.920 -12.816  1.00  0.00     0.029 A 
ATOM     31  N   UNL     1      13.117  30.088 -13.120  1.00  0.00    -0.354 N 
ATOM     32  N   UNL     1      14.258  32.650  -9.840  1.00  0.00    -0.248 NA
ATOM     33  C   UNL     1      12.392  33.580 -10.886  1.00  0.00     0.031 C 
ATOM     34  C   UNL     1      14.240  28.434 -12.262  1.00  0.00     0.029 A 
ATOM     35  C   UNL     1      14.110  29.823 -12.214  1.00  0.00     0.049 A 
ATOM     36  H   UNL     1      13.040  30.884 -13.694  1.00  0.00     0.167 HD
ATOM     37  C   UNL     1      14.092  32.017 -11.061  1.00  0.00     0.074 A 
ATOM     38  C   UNL     1      13.000  32.728 -11.713  1.00  0.00     0.031 C 
ATOM     39  C   UNL     1      14.668  30.808 -11.316  1.00  0.00     0.037 A 
BRANCH  26  40
ATOM     40  C   UNL     1      10.172  29.926 -14.275  1.00  0.00     0.057 A 
ATOM     41  C   UNL     1       9.167  30.906 -14.169  1.00  0.00     0.134 A 
ATOM     42  C   UNL     1      10.715  29.758 -15.562  1.00  0.00     0.134 A 
ATOM     43  F   UNL     1       8.639  31.248 -12.986  1.00  0.00    -0.206 F 
ATOM     44  C   UNL     1       8.720  31.652 -15.266  1.00  0.00     0.040 A 
ATOM     45  C   UNL     1      10.309  30.531 -16.658  1.00  0.00     0.040 A 
ATOM     46  F   UNL     1      11.706  28.881 -15.783  1.00  0.00    -0.206 F 
ATOM     47  C   UNL     1       9.307  31.482 -16.511  1.00  0.00     0.006 A 
ENDBRANCH  26  40
BRANCH  27  48
ATOM     48  C   UNL     1      12.316  35.074  -7.947  1.00  0.00     0.057 A 
ATOM     49  C   UNL     1      11.096  35.462  -7.366  1.00  0.00     0.134 A 
ATOM     50  C   UNL     1      13.166  36.113  -8.349  1.00  0.00     0.134 A 
ATOM     51  F   UNL     1      10.175  34.552  -7.016  1.00  0.00    -0.206 F 
ATOM     52  C   UNL     1      10.735  36.803  -7.208  1.00  0.00     0.040 A 
ATOM     53  C   UNL     1      12.812  37.461  -8.206  1.00  0.00     0.040 A 
ATOM     54  F   UNL     1      14.333  35.844  -8.952  1.00  0.00    -0.206 F 
ATOM     55  C   UNL     1      11.588  37.809  -7.643  1.00  0.00     0.006 A 
ENDBRANCH  27  48
BRANCH  39  56
ATOM     56  C   UNL     1      15.742  30.323 -10.387  1.00  0.00     0.057 A 
ATOM     57  C   UNL     1      17.001  30.008 -10.913  1.00  0.00     0.134 A 
ATOM     58  C   UNL     1      15.507  29.982  -9.047  1.00  0.00     0.134 A 
ATOM     59  F   UNL     1      17.274  30.250 -12.205  1.00  0.00    -0.206 F 
ATOM     60  C   UNL     1      17.983  29.380 -10.144  1.00  0.00     0.040 A 
ATOM     61  C   UNL     1      16.493  29.382  -8.258  1.00  0.00     0.040 A 
ATOM     62  F   UNL     1      14.302  30.154  -8.490  1.00  0.00    -0.206 F 
ATOM     63  C   UNL     1      17.733  29.070  -8.810  1.00  0.00     0.006 A 
ENDBRANCH  39  56
ENDBRANCH  13  14
ENDBRANCH   6   8
ENDBRANCH   3   4
ENDBRANCH   2   3
ENDBRANCH   1   2
BRANCH   1  64
ATOM     64  C   UNL     1      10.014  21.572  -2.725  1.00  0.00     0.002 C 
BRANCH  64  65
ATOM     65  C   UNL     1      10.528  20.304  -3.417  1.00  0.00     0.021 C 
BRANCH  65  66
ATOM     66  C   UNL     1      12.008  19.986  -3.189  1.00  0.00     0.116 C 
BRANCH  66  67
ATOM     67  N   UNL     1      12.261  19.545  -1.826  1.00  0.00    -0.351 N 
ATOM     68  C   UNL     1      12.730  18.331  -1.368  1.00  0.00     0.272 C 
ATOM     69  H   UNL     1      12.070  20.212  -1.127  1.00  0.00     0.163 HD
ATOM     70  O   UNL     1      12.646  18.097  -0.161  1.00  0.00    -0.267 OA
BRANCH  68  71
ATOM     71  C   UNL     1      13.266  17.332  -2.309  1.00  0.00     0.155 A 
ATOM     72  N   UNL     1      13.968  17.660  -3.414  1.00  0.00    -0.167 NA
ATOM     73  C   UNL     1      13.185  15.918  -2.179  1.00  0.00     0.026 A 
ATOM     74  N   UNL     1      14.225  16.486  -4.034  1.00  0.00    -0.264 N 
ATOM     75  C   UNL     1      13.719  15.422  -3.352  1.00  0.00     0.046 A 
ATOM     76  C   UNL     1      12.597  15.066  -1.099  1.00  0.00     0.159 C 
ATOM     77  C   UNL     1      13.728  13.987  -3.732  1.00  0.00     0.078 C 
ATOM     78  N   UNL     1      12.798  13.639  -1.448  1.00  0.00    -0.337 N 
ATOM     79  C   UNL     1      12.659  13.276  -2.873  1.00  0.00     0.126 C 
BRANCH  74  80
ATOM     80  C   UNL     1      15.074  16.467  -5.219  1.00  0.00     0.180 C 
BRANCH  80  81
ATOM     81  C   UNL     1      14.395  17.055  -6.433  1.00  0.00    -0.026 A 
ATOM     82  C   UNL     1      14.259  18.449  -6.559  1.00  0.00     0.008 A 
ATOM     83  C   UNL     1      13.911  16.229  -7.460  1.00  0.00     0.008 A 
ATOM     84  C   UNL     1      13.658  19.006  -7.687  1.00  0.00     0.039 A 
ATOM     85  C   UNL     1      13.313  16.790  -8.591  1.00  0.00     0.039 A 
ATOM     86  C   UNL     1      13.194  18.171  -8.694  1.00  0.00     0.123 A 
ATOM     87  F   UNL     1      12.623  18.704  -9.782  1.00  0.00    -0.207 F 
ENDBRANCH  80  81
ENDBRANCH  74  80
BRANCH  78  88
ATOM     88  C   UNL     1      13.062  12.738  -0.424  1.00  0.00     0.232 C 
ATOM     89  O   UNL     1      13.092  13.046   0.759  1.00  0.00    -0.274 OA
BRANCH  88  90
ATOM     90  C   UNL     1      13.257  11.323  -0.808  1.00  0.00     0.154 C 
ATOM     91  C   UNL     1      14.529  10.881  -1.516  1.00  0.00     0.097 C 
ATOM     92  C   UNL     1      14.264  10.486  -0.113  1.00  0.00     0.260 C 
ATOM     93  F   UNL     1      15.101  10.954   0.870  1.00  0.00    -0.206 F 
ATOM     94  F   UNL     1      14.009   9.161   0.162  1.00  0.00    -0.206 F 
ENDBRANCH  88  90
ENDBRANCH  78  88
ENDBRANCH  68  71
ENDBRANCH  66  67
ENDBRANCH  65  66
ENDBRANCH  64  65
ENDBRANCH   1  64
TORSDOF 17
