REMARK SMILES CC1(C)C[C@@H]([C@H](CCNC(=O)c2ccccc2C(=O)NCCCCCCNC(=O)c2ccc(-c3c4nc(c(-c5c(F)cccc5F)c5ccc([nH]5)c(-c5c(F)cccc5F)c5nc(c(-c6c(F)cccc6F)c6ccc3[nH]6)C=C5)C=C4)cc2)c2ccccc2)CCO1
REMARK SMILES IDX 22 1 21 2 20 3 18 4 19 5 17 7 12 8 13 9 14 10 16 11 15 12
REMARK SMILES IDX 10 13 9 14 11 16 8 17 7 18 6 19 5 20 1 21 2 22 3 23 4 24
REMARK SMILES IDX 92 25 91 26 90 27 84 28 85 29 89 30 86 31 88 32 87 33 23 34
REMARK SMILES IDX 24 35 25 36 26 37 27 38 28 39 29 41 30 42 31 43 83 44 32 45
REMARK SMILES IDX 82 46 33 47 34 48 35 49 76 50 36 51 81 52 75 53 77 54 37 55
REMARK SMILES IDX 80 56 74 57 73 58 38 60 64 61 47 62 63 63 48 64 51 65 62 66
REMARK SMILES IDX 78 67 49 68 50 69 61 71 79 72 52 73 39 74 40 75 45 76 41 77
REMARK SMILES IDX 42 78 44 79 46 80 43 81 65 82 66 83 71 84 67 85 68 86 70 87
REMARK SMILES IDX 72 88 69 89 53 90 54 91 59 92 55 93 56 94 58 95 60 96 57 97
REMARK H PARENT 20 6 9 15 27 40 77 59 51 70
REMARK Flexibility Score: inf
ROOT
ATOM      1  C   UNL     1       1.052   5.891  -5.449  1.00  0.00     0.021 C 
ENDROOT
BRANCH   1   2
ATOM      2  C   UNL     1       0.390   5.619  -4.098  1.00  0.00     0.116 C 
BRANCH   2   3
ATOM      3  N   UNL     1       1.062   6.252  -2.978  1.00  0.00    -0.352 N 
ATOM      4  C   UNL     1       0.591   6.638  -1.749  1.00  0.00     0.252 C 
ATOM      5  O   UNL     1       1.393   7.127  -0.951  1.00  0.00    -0.269 OA
ATOM      6  H   UNL     1       2.018   6.436  -3.126  1.00  0.00     0.163 HD
BRANCH   4   7
ATOM      7  C   UNL     1      -0.835   6.554  -1.346  1.00  0.00     0.052 A 
ATOM      8  C   UNL     1      -1.696   5.472  -1.545  1.00  0.00     0.052 A 
ATOM      9  C   UNL     1      -3.060   5.590  -1.209  1.00  0.00     0.014 A 
ATOM     10  C   UNL     1      -3.543   6.726  -0.565  1.00  0.00     0.001 A 
ATOM     11  C   UNL     1      -1.328   7.675  -0.646  1.00  0.00     0.014 A 
ATOM     12  C   UNL     1      -2.666   7.755  -0.248  1.00  0.00     0.001 A 
BRANCH   8  13
ATOM     13  C   UNL     1      -1.315   4.139  -2.041  1.00  0.00     0.252 C 
ATOM     14  N   UNL     1      -0.394   3.371  -1.379  1.00  0.00    -0.352 N 
ATOM     15  H   UNL     1      -0.343   2.432  -1.670  1.00  0.00     0.163 HD
ATOM     16  O   UNL     1      -1.907   3.678  -3.016  1.00  0.00    -0.269 OA
BRANCH  14  17
ATOM     17  C   UNL     1       0.522   3.740  -0.307  1.00  0.00     0.117 C 
BRANCH  17  18
ATOM     18  C   UNL     1       1.224   2.556   0.367  1.00  0.00     0.030 C 
BRANCH  18  19
ATOM     19  C   UNL     1       2.348   1.765  -0.395  1.00  0.00     0.024 C 
BRANCH  19  20
ATOM     20  C   UNL     1       2.574   2.161  -1.899  1.00  0.00     0.002 C 
ATOM     21  C   UNL     1       4.541  -0.715  -2.107  1.00  0.00     0.042 C 
ATOM     22  C   UNL     1       4.254   0.497  -3.002  1.00  0.00     0.063 C 
ATOM     23  C   UNL     1       4.503   0.055  -4.455  1.00  0.00     0.042 C 
ATOM     24  C   UNL     1       2.800   0.956  -2.837  1.00  0.00     0.039 C 
ATOM     25  O   UNL     1       5.191   1.518  -2.643  1.00  0.00    -0.376 OA
ATOM     26  C   UNL     1       4.802   2.851  -2.952  1.00  0.00     0.161 C 
ATOM     27  C   UNL     1       3.555   3.303  -2.181  1.00  0.00     0.033 C 
ENDBRANCH  19  20
BRANCH  19  28
ATOM     28  C   UNL     1       3.560   1.490   0.521  1.00  0.00    -0.045 A 
ATOM     29  C   UNL     1       4.868   1.940   0.294  1.00  0.00     0.004 A 
ATOM     30  C   UNL     1       3.387   0.654   1.638  1.00  0.00     0.004 A 
ATOM     31  C   UNL     1       5.966   1.486   1.027  1.00  0.00     0.000 A 
ATOM     32  C   UNL     1       4.478   0.225   2.409  1.00  0.00     0.000 A 
ATOM     33  C   UNL     1       5.773   0.613   2.081  1.00  0.00     0.000 A 
ENDBRANCH  19  28
ENDBRANCH  18  19
ENDBRANCH  17  18
ENDBRANCH  14  17
ENDBRANCH   8  13
ENDBRANCH   4   7
ENDBRANCH   2   3
ENDBRANCH   1   2
BRANCH   1  34
ATOM     34  C   UNL     1       2.455   5.304  -5.632  1.00  0.00     0.002 C 
BRANCH  34  35
ATOM     35  C   UNL     1       2.571   3.793  -5.453  1.00  0.00     0.002 C 
BRANCH  35  36
ATOM     36  C   UNL     1       1.747   2.898  -6.354  1.00  0.00     0.021 C 
BRANCH  36  37
ATOM     37  C   UNL     1       2.116   3.033  -7.815  1.00  0.00     0.116 C 
BRANCH  37  38
ATOM     38  N   UNL     1       3.497   2.632  -8.084  1.00  0.00    -0.352 N 
ATOM     39  C   UNL     1       4.027   1.488  -8.636  1.00  0.00     0.251 C 
ATOM     40  H   UNL     1       4.169   3.302  -7.823  1.00  0.00     0.163 HD
ATOM     41  O   UNL     1       5.233   1.282  -8.570  1.00  0.00    -0.269 OA
BRANCH  39  42
ATOM     42  C   UNL     1       3.146   0.496  -9.288  1.00  0.00     0.039 A 
ATOM     43  C   UNL     1       3.448  -0.867  -9.216  1.00  0.00     0.014 A 
ATOM     44  C   UNL     1       2.014   0.911  -9.980  1.00  0.00     0.014 A 
ATOM     45  C   UNL     1       2.565  -1.801  -9.766  1.00  0.00     0.010 A 
ATOM     46  C   UNL     1       1.056  -0.012 -10.355  1.00  0.00     0.010 A 
ATOM     47  C   UNL     1       1.335  -1.381 -10.297  1.00  0.00    -0.014 A 
BRANCH  47  48
ATOM     48  C   UNL     1       0.336  -2.321 -10.863  1.00  0.00     0.031 A 
ATOM     49  C   UNL     1      -0.156  -2.114 -12.275  1.00  0.00     0.074 A 
ATOM     50  C   UNL     1      -0.211  -3.274 -10.085  1.00  0.00     0.049 A 
ATOM     51  N   UNL     1      -1.143  -2.698 -12.905  1.00  0.00    -0.248 NA
ATOM     52  C   UNL     1       0.511  -1.062 -13.065  1.00  0.00     0.031 C 
ATOM     53  C   UNL     1       0.125  -3.525  -8.682  1.00  0.00     0.029 A 
ATOM     54  N   UNL     1      -1.182  -4.202 -10.363  1.00  0.00    -0.354 N 
ATOM     55  C   UNL     1      -1.242  -2.049 -14.131  1.00  0.00     0.074 A 
ATOM     56  C   UNL     1      -0.272  -0.980 -14.128  1.00  0.00     0.031 C 
ATOM     57  C   UNL     1      -0.603  -4.560  -8.233  1.00  0.00     0.029 A 
ATOM     58  C   UNL     1      -1.489  -5.014  -9.299  1.00  0.00     0.049 A 
ATOM     59  H   UNL     1      -1.619  -4.278 -11.242  1.00  0.00     0.167 HD
ATOM     60  C   UNL     1      -2.042  -2.341 -15.183  1.00  0.00     0.037 A 
ATOM     61  C   UNL     1      -2.390  -6.008  -9.195  1.00  0.00     0.037 A 
ATOM     62  C   UNL     1      -2.951  -3.454 -15.202  1.00  0.00     0.049 A 
ATOM     63  C   UNL     1      -3.231  -6.353 -10.393  1.00  0.00     0.074 A 
ATOM     64  C   UNL     1      -3.737  -3.908 -16.245  1.00  0.00     0.029 A 
ATOM     65  N   UNL     1      -3.185  -4.295 -14.124  1.00  0.00    -0.354 N 
ATOM     66  N   UNL     1      -3.260  -5.782 -11.574  1.00  0.00    -0.248 NA
ATOM     67  C   UNL     1      -4.157  -7.483 -10.248  1.00  0.00     0.031 C 
ATOM     68  C   UNL     1      -4.480  -4.999 -15.784  1.00  0.00     0.029 A 
ATOM     69  C   UNL     1      -4.118  -5.256 -14.471  1.00  0.00     0.049 A 
ATOM     70  H   UNL     1      -2.751  -4.220 -13.244  1.00  0.00     0.167 HD
ATOM     71  C   UNL     1      -4.185  -6.499 -12.321  1.00  0.00     0.074 A 
ATOM     72  C   UNL     1      -4.682  -7.556 -11.463  1.00  0.00     0.031 C 
ATOM     73  C   UNL     1      -4.589  -6.303 -13.600  1.00  0.00     0.037 A 
BRANCH  60  74
ATOM     74  C   UNL     1      -1.952  -1.456 -16.394  1.00  0.00     0.057 A 
ATOM     75  C   UNL     1      -0.805  -1.410 -17.200  1.00  0.00     0.134 A 
ATOM     76  C   UNL     1      -3.032  -0.647 -16.768  1.00  0.00     0.134 A 
ATOM     77  F   UNL     1       0.273  -2.148 -16.893  1.00  0.00    -0.206 F 
ATOM     78  C   UNL     1      -0.722  -0.564 -18.308  1.00  0.00     0.040 A 
ATOM     79  C   UNL     1      -2.974   0.177 -17.894  1.00  0.00     0.040 A 
ATOM     80  F   UNL     1      -4.164  -0.644 -16.048  1.00  0.00    -0.206 F 
ATOM     81  C   UNL     1      -1.812   0.228 -18.661  1.00  0.00     0.006 A 
ENDBRANCH  60  74
BRANCH  61  82
ATOM     82  C   UNL     1      -2.513  -6.769  -7.926  1.00  0.00     0.057 A 
ATOM     83  C   UNL     1      -2.079  -8.097  -7.837  1.00  0.00     0.134 A 
ATOM     84  C   UNL     1      -3.050  -6.189  -6.771  1.00  0.00     0.134 A 
ATOM     85  F   UNL     1      -1.567  -8.713  -8.914  1.00  0.00    -0.206 F 
ATOM     86  C   UNL     1      -2.192  -8.828  -6.653  1.00  0.00     0.040 A 
ATOM     87  C   UNL     1      -3.145  -6.900  -5.572  1.00  0.00     0.040 A 
ATOM     88  F   UNL     1      -3.472  -4.916  -6.785  1.00  0.00    -0.206 F 
ATOM     89  C   UNL     1      -2.722  -8.226  -5.514  1.00  0.00     0.006 A 
ENDBRANCH  61  82
BRANCH  73  90
ATOM     90  C   UNL     1      -5.588  -7.271 -14.159  1.00  0.00     0.057 A 
ATOM     91  C   UNL     1      -6.929  -7.264 -13.757  1.00  0.00     0.134 A 
ATOM     92  C   UNL     1      -5.212  -8.187 -15.150  1.00  0.00     0.134 A 
ATOM     93  F   UNL     1      -7.350  -6.418 -12.804  1.00  0.00    -0.206 F 
ATOM     94  C   UNL     1      -7.857  -8.152 -14.304  1.00  0.00     0.040 A 
ATOM     95  C   UNL     1      -6.136  -9.058 -15.725  1.00  0.00     0.040 A 
ATOM     96  F   UNL     1      -3.944  -8.235 -15.587  1.00  0.00    -0.206 F 
ATOM     97  C   UNL     1      -7.462  -9.046 -15.298  1.00  0.00     0.006 A 
ENDBRANCH  73  90
ENDBRANCH  47  48
ENDBRANCH  39  42
ENDBRANCH  37  38
ENDBRANCH  36  37
ENDBRANCH  35  36
ENDBRANCH  34  35
ENDBRANCH   1  34
TORSDOF 19
