REMARK SMILES CCc1ccc(/C=C2\C(=O)N(c3ccc(Cl)c(C(=O)NCCCCCCNC(=O)c4ccc(-c5c6nc(c(-c7c(F)cccc7F)c7ccc([nH]7)c(-c7c(F)cccc7F)c7nc(c(-c8c(F)cccc8F)c8ccc5[nH]8)C=C7)C=C6)cc4)c3)N=C2C)cc1
REMARK SMILES IDX 23 1 22 2 21 3 20 4 18 5 19 6 17 8 12 9 13 10 84 11 14 12
REMARK SMILES IDX 15 13 16 14 11 15 7 16 8 17 9 18 86 19 10 20 85 21 87 22
REMARK SMILES IDX 6 23 3 24 4 25 89 26 5 27 88 28 2 29 1 30 24 31 25 32 26 33
REMARK SMILES IDX 27 34 28 35 29 37 30 38 31 39 83 40 32 41 82 42 33 43 34 44
REMARK SMILES IDX 35 45 76 46 36 47 81 48 75 49 77 50 37 51 80 52 74 53 73 54
REMARK SMILES IDX 38 56 64 57 47 58 63 59 48 60 51 61 62 62 78 63 49 64 50 65
REMARK SMILES IDX 61 67 79 68 52 69 39 70 40 71 45 72 41 73 42 74 44 75 46 76
REMARK SMILES IDX 43 77 65 78 66 79 71 80 67 81 68 82 70 83 72 84 69 85 53 86
REMARK SMILES IDX 54 87 59 88 55 89 56 90 58 91 60 92 57 93
REMARK H PARENT 20 7 27 36 77 55 51 66
REMARK Flexibility Score: inf
ROOT
ATOM      1  C   UNL     1       6.809  -5.605   0.620  1.00  0.00     0.002 C 
ENDROOT
BRANCH   1   2
ATOM      2  C   UNL     1       6.763  -5.592  -0.907  1.00  0.00     0.021 C 
BRANCH   2   3
ATOM      3  C   UNL     1       6.934  -4.235  -1.583  1.00  0.00     0.116 C 
BRANCH   3   4
ATOM      4  N   UNL     1       8.235  -3.607  -1.372  1.00  0.00    -0.352 N 
ATOM      5  C   UNL     1       9.082  -2.903  -2.213  1.00  0.00     0.252 C 
ATOM      6  O   UNL     1      10.084  -2.397  -1.714  1.00  0.00    -0.269 OA
ATOM      7  H   UNL     1       8.577  -3.702  -0.454  1.00  0.00     0.163 HD
BRANCH   5   8
ATOM      8  C   UNL     1       8.818  -2.778  -3.679  1.00  0.00     0.060 A 
ATOM      9  C   UNL     1       7.130  -2.942  -5.432  1.00  0.00     0.070 A 
ATOM     10  C   UNL     1       8.138  -3.070  -6.386  1.00  0.00     0.030 A 
ATOM     11  C   UNL     1       7.496  -2.657  -4.112  1.00  0.00     0.044 A 
ATOM     12  C   UNL     1       9.477  -2.943  -6.005  1.00  0.00     0.023 A 
ATOM     13  C   UNL     1       9.825  -2.841  -4.649  1.00  0.00     0.053 A 
ATOM     14  Cl  UNL     1      11.514  -2.834  -4.288  1.00  0.00    -0.083 Cl
BRANCH   9  15
ATOM     15  N   UNL     1       5.778  -3.208  -5.746  1.00  0.00    -0.196 N 
ATOM     16  C   UNL     1       2.240  -3.432  -5.414  1.00  0.00     0.024 C 
ATOM     17  C   UNL     1       3.554  -3.565  -5.641  1.00  0.00     0.065 C 
ATOM     18  C   UNL     1       4.671  -2.875  -4.953  1.00  0.00     0.280 C 
ATOM     19  C   UNL     1       4.218  -4.379  -6.674  1.00  0.00     0.071 C 
ATOM     20  O   UNL     1       4.606  -2.228  -3.928  1.00  0.00    -0.267 OA
ATOM     21  N   UNL     1       5.497  -4.116  -6.768  1.00  0.00    -0.169 NA
ATOM     22  C   UNL     1       3.515  -5.411  -7.492  1.00  0.00     0.069 C 
BRANCH  16  23
ATOM     23  C   UNL     1       1.690  -2.472  -4.446  1.00  0.00    -0.025 A 
ATOM     24  C   UNL     1       0.838  -0.650  -2.469  1.00  0.00    -0.048 A 
ATOM     25  C   UNL     1       0.458  -1.999  -2.414  1.00  0.00     0.004 A 
ATOM     26  C   UNL     1       1.597  -0.210  -3.557  1.00  0.00     0.004 A 
ATOM     27  C   UNL     1       0.884  -2.906  -3.393  1.00  0.00     0.008 A 
ATOM     28  C   UNL     1       1.998  -1.107  -4.547  1.00  0.00     0.008 A 
BRANCH  24  29
ATOM     29  C   UNL     1       0.449   0.318  -1.380  1.00  0.00     0.032 C 
ATOM     30  C   UNL     1       1.055  -0.037  -0.029  1.00  0.00     0.009 C 
ENDBRANCH  24  29
ENDBRANCH  16  23
ENDBRANCH   9  15
ENDBRANCH   5   8
ENDBRANCH   3   4
ENDBRANCH   2   3
ENDBRANCH   1   2
BRANCH   1  31
ATOM     31  C   UNL     1       5.818  -4.686   1.338  1.00  0.00     0.002 C 
BRANCH  31  32
ATOM     32  C   UNL     1       4.348  -4.833   0.939  1.00  0.00     0.021 C 
BRANCH  32  33
ATOM     33  C   UNL     1       3.773  -6.242   1.048  1.00  0.00     0.116 C 
BRANCH  33  34
ATOM     34  N   UNL     1       3.807  -6.760   2.406  1.00  0.00    -0.352 N 
ATOM     35  C   UNL     1       2.791  -7.273   3.174  1.00  0.00     0.251 C 
ATOM     36  H   UNL     1       4.690  -6.739   2.840  1.00  0.00     0.163 HD
ATOM     37  O   UNL     1       2.976  -7.505   4.365  1.00  0.00    -0.269 OA
BRANCH  35  38
ATOM     38  C   UNL     1       1.463  -7.528   2.576  1.00  0.00     0.039 A 
ATOM     39  C   UNL     1       0.320  -7.147   3.285  1.00  0.00     0.014 A 
ATOM     40  C   UNL     1       1.339  -8.151   1.331  1.00  0.00     0.014 A 
ATOM     41  C   UNL     1      -0.942  -7.334   2.717  1.00  0.00     0.010 A 
ATOM     42  C   UNL     1       0.086  -8.266   0.734  1.00  0.00     0.010 A 
ATOM     43  C   UNL     1      -1.068  -7.860   1.421  1.00  0.00    -0.014 A 
BRANCH  43  44
ATOM     44  C   UNL     1      -2.397  -7.984   0.769  1.00  0.00     0.031 A 
ATOM     45  C   UNL     1      -2.937  -9.335   0.388  1.00  0.00     0.074 A 
ATOM     46  C   UNL     1      -3.093  -6.870   0.463  1.00  0.00     0.049 A 
ATOM     47  N   UNL     1      -4.045  -9.635  -0.241  1.00  0.00    -0.248 NA
ATOM     48  C   UNL     1      -2.111 -10.502   0.737  1.00  0.00     0.031 C 
ATOM     49  C   UNL     1      -2.659  -5.500   0.739  1.00  0.00     0.029 A 
ATOM     50  N   UNL     1      -4.309  -6.715  -0.154  1.00  0.00    -0.354 N 
ATOM     51  C   UNL     1      -4.042 -11.018  -0.374  1.00  0.00     0.074 A 
ATOM     52  C   UNL     1      -2.799 -11.494   0.192  1.00  0.00     0.031 C 
ATOM     53  C   UNL     1      -3.604  -4.646   0.316  1.00  0.00     0.029 A 
ATOM     54  C   UNL     1      -4.689  -5.402  -0.300  1.00  0.00     0.049 A 
ATOM     55  H   UNL     1      -4.858  -7.472  -0.463  1.00  0.00     0.167 HD
ATOM     56  C   UNL     1      -4.998 -11.819  -0.902  1.00  0.00     0.037 A 
ATOM     57  C   UNL     1      -5.783  -4.866  -0.875  1.00  0.00     0.037 A 
ATOM     58  C   UNL     1      -6.244 -11.342  -1.445  1.00  0.00     0.049 A 
ATOM     59  C   UNL     1      -6.825  -5.777  -1.463  1.00  0.00     0.074 A 
ATOM     60  C   UNL     1      -7.303 -12.080  -1.944  1.00  0.00     0.029 A 
ATOM     61  N   UNL     1      -6.596 -10.006  -1.566  1.00  0.00    -0.354 N 
ATOM     62  N   UNL     1      -6.839  -7.087  -1.522  1.00  0.00    -0.248 NA
ATOM     63  C   UNL     1      -8.006  -5.136  -2.058  1.00  0.00     0.031 C 
ATOM     64  C   UNL     1      -8.269 -11.190  -2.424  1.00  0.00     0.029 A 
ATOM     65  C   UNL     1      -7.842  -9.898  -2.162  1.00  0.00     0.049 A 
ATOM     66  H   UNL     1      -6.043  -9.247  -1.272  1.00  0.00     0.167 HD
ATOM     67  C   UNL     1      -8.040  -7.428  -2.133  1.00  0.00     0.074 A 
ATOM     68  C   UNL     1      -8.733  -6.187  -2.412  1.00  0.00     0.031 C 
ATOM     69  C   UNL     1      -8.524  -8.658  -2.434  1.00  0.00     0.037 A 
BRANCH  56  70
ATOM     70  C   UNL     1      -4.737 -13.298  -0.925  1.00  0.00     0.057 A 
ATOM     71  C   UNL     1      -4.710 -14.066   0.247  1.00  0.00     0.134 A 
ATOM     72  C   UNL     1      -4.561 -13.972  -2.141  1.00  0.00     0.134 A 
ATOM     73  F   UNL     1      -4.862 -13.484   1.446  1.00  0.00    -0.206 F 
ATOM     74  C   UNL     1      -4.496 -15.446   0.212  1.00  0.00     0.040 A 
ATOM     75  C   UNL     1      -4.377 -15.354  -2.191  1.00  0.00     0.040 A 
ATOM     76  F   UNL     1      -4.581 -13.300  -3.302  1.00  0.00    -0.206 F 
ATOM     77  C   UNL     1      -4.338 -16.095  -1.011  1.00  0.00     0.006 A 
ENDBRANCH  56  70
BRANCH  57  78
ATOM     78  C   UNL     1      -5.952  -3.391  -0.910  1.00  0.00     0.057 A 
ATOM     79  C   UNL     1      -6.946  -2.757  -0.156  1.00  0.00     0.134 A 
ATOM     80  C   UNL     1      -5.125  -2.579  -1.697  1.00  0.00     0.134 A 
ATOM     81  F   UNL     1      -7.781  -3.480   0.604  1.00  0.00    -0.206 F 
ATOM     82  C   UNL     1      -7.125  -1.373  -0.197  1.00  0.00     0.040 A 
ATOM     83  C   UNL     1      -5.273  -1.192  -1.725  1.00  0.00     0.040 A 
ATOM     84  F   UNL     1      -4.146  -3.124  -2.435  1.00  0.00    -0.206 F 
ATOM     85  C   UNL     1      -6.282  -0.586  -0.979  1.00  0.00     0.006 A 
ENDBRANCH  57  78
BRANCH  69  86
ATOM     86  C   UNL     1      -9.884  -8.729  -3.068  1.00  0.00     0.057 A 
ATOM     87  C   UNL     1     -10.113  -8.314  -4.385  1.00  0.00     0.134 A 
ATOM     88  C   UNL     1     -10.969  -9.266  -2.362  1.00  0.00     0.134 A 
ATOM     89  F   UNL     1      -9.120  -7.781  -5.114  1.00  0.00    -0.206 F 
ATOM     90  C   UNL     1     -11.378  -8.405  -4.969  1.00  0.00     0.040 A 
ATOM     91  C   UNL     1     -12.230  -9.392  -2.945  1.00  0.00     0.040 A 
ATOM     92  F   UNL     1     -10.817  -9.694  -1.099  1.00  0.00    -0.206 F 
ATOM     93  C   UNL     1     -12.439  -8.954  -4.251  1.00  0.00     0.006 A 
ENDBRANCH  69  86
ENDBRANCH  43  44
ENDBRANCH  35  38
ENDBRANCH  33  34
ENDBRANCH  32  33
ENDBRANCH  31  32
ENDBRANCH   1  31
TORSDOF 16
