REMARK SMILES Cc1ccc(-c2cc([C@@H](C)C(=O)NCCCCCCNC(=O)c3ccc(-c4c5nc(c(-c6c(F)cccc6F)c6ccc([nH]6)c(-c6c(F)cccc6F)c6nc(c(-c7c(F)cccc7F)c7ccc4[nH]7)C=C6)C=C5)cc3)ccc2C[C@H]2CCCC2=O)cc1
REMARK SMILES IDX 16 1 15 2 14 3 13 4 11 5 12 6 9 8 10 9 8 10 6 11 7 12 79 13
REMARK SMILES IDX 78 14 77 15 5 16 1 17 2 18 3 19 88 20 4 21 87 22 80 23 81 24
REMARK SMILES IDX 82 25 85 26 83 27 84 28 86 29 17 30 18 31 19 32 20 33 21 34
REMARK SMILES IDX 22 36 23 37 24 38 76 39 25 40 75 41 26 42 27 43 28 44 69 45
REMARK SMILES IDX 29 46 74 47 68 48 70 49 30 50 73 51 67 52 66 53 31 55 57 56
REMARK SMILES IDX 40 57 56 58 41 59 44 60 55 61 71 62 42 63 43 64 54 66 72 67
REMARK SMILES IDX 45 68 32 69 33 70 38 71 34 72 35 73 37 74 39 75 36 76 58 77
REMARK SMILES IDX 59 78 64 79 60 80 61 81 63 82 65 83 62 84 46 85 47 86 52 87
REMARK SMILES IDX 48 88 49 89 51 90 53 91 50 92
REMARK H PARENT 13 7 20 35 70 54 44 65
REMARK Flexibility Score: inf
ROOT
ATOM      1  C   UNL     1      -9.470   1.997   1.632  1.00  0.00     0.002 C 
ENDROOT
BRANCH   1   2
ATOM      2  C   UNL     1      -8.508   1.134   0.804  1.00  0.00     0.021 C 
BRANCH   2   3
ATOM      3  C   UNL     1      -8.660   1.264  -0.714  1.00  0.00     0.116 C 
BRANCH   3   4
ATOM      4  N   UNL     1      -7.839   2.324  -1.255  1.00  0.00    -0.356 N 
ATOM      5  C   UNL     1      -6.659   2.303  -1.934  1.00  0.00     0.227 C 
ATOM      6  O   UNL     1      -6.165   3.406  -2.200  1.00  0.00    -0.274 OA
ATOM      7  H   UNL     1      -8.200   3.228  -1.105  1.00  0.00     0.163 HD
BRANCH   5   8
ATOM      8  C   UNL     1      -5.946   1.017  -2.384  1.00  0.00     0.105 C 
ATOM      9  C   UNL     1      -6.769   0.138  -3.326  1.00  0.00     0.023 C 
BRANCH   8  10
ATOM     10  C   UNL     1      -5.229   0.288  -1.258  1.00  0.00    -0.035 A 
ATOM     11  C   UNL     1      -3.152  -0.066   0.032  1.00  0.00    -0.015 A 
ATOM     12  C   UNL     1      -3.866   0.545  -1.022  1.00  0.00     0.013 A 
ATOM     13  C   UNL     1      -3.871  -0.855   0.957  1.00  0.00    -0.039 A 
ATOM     14  C   UNL     1      -5.205  -1.181   0.671  1.00  0.00     0.004 A 
ATOM     15  C   UNL     1      -5.858  -0.648  -0.439  1.00  0.00     0.005 A 
BRANCH  11  16
ATOM     16  C   UNL     1      -1.681   0.034   0.045  1.00  0.00    -0.018 A 
ATOM     17  C   UNL     1       2.649   0.163  -0.033  1.00  0.00     0.044 C 
ATOM     18  C   UNL     1       1.149   0.133  -0.019  1.00  0.00    -0.051 A 
ATOM     19  C   UNL     1       0.484  -1.089  -0.127  1.00  0.00     0.004 A 
ATOM     20  C   UNL     1       0.396   1.306   0.110  1.00  0.00     0.004 A 
ATOM     21  C   UNL     1      -0.910  -1.134  -0.107  1.00  0.00     0.009 A 
ATOM     22  C   UNL     1      -1.005   1.257   0.139  1.00  0.00     0.009 A 
ENDBRANCH  11  16
BRANCH  13  23
ATOM     23  C   UNL     1      -3.283  -1.360   2.262  1.00  0.00     0.047 C 
BRANCH  23  24
ATOM     24  C   UNL     1      -3.685  -0.589   3.530  1.00  0.00     0.060 C 
ATOM     25  C   UNL     1      -3.380   0.916   3.536  1.00  0.00     0.012 C 
ATOM     26  C   UNL     1      -5.173  -0.614   3.818  1.00  0.00     0.136 C 
ATOM     27  C   UNL     1      -4.703   1.618   3.252  1.00  0.00     0.009 C 
ATOM     28  C   UNL     1      -5.753   0.769   3.950  1.00  0.00     0.076 C 
ATOM     29  O   UNL     1      -5.832  -1.638   3.960  1.00  0.00    -0.299 OA
ENDBRANCH  23  24
ENDBRANCH  13  23
ENDBRANCH   8  10
ENDBRANCH   5   8
ENDBRANCH   3   4
ENDBRANCH   2   3
ENDBRANCH   1   2
BRANCH   1  30
ATOM     30  C   UNL     1     -10.970   1.847   1.322  1.00  0.00     0.002 C 
BRANCH  30  31
ATOM     31  C   UNL     1     -11.490   0.413   1.189  1.00  0.00     0.021 C 
BRANCH  31  32
ATOM     32  C   UNL     1     -11.612  -0.330   2.513  1.00  0.00     0.116 C 
BRANCH  32  33
ATOM     33  N   UNL     1     -12.938  -0.235   3.111  1.00  0.00    -0.352 N 
ATOM     34  C   UNL     1     -13.408  -0.700   4.332  1.00  0.00     0.251 C 
ATOM     35  H   UNL     1     -13.607   0.234   2.562  1.00  0.00     0.163 HD
ATOM     36  O   UNL     1     -14.573  -0.552   4.628  1.00  0.00    -0.269 OA
BRANCH  34  37
ATOM     37  C   UNL     1     -12.444  -1.235   5.330  1.00  0.00     0.039 A 
ATOM     38  C   UNL     1     -12.580  -0.788   6.650  1.00  0.00     0.014 A 
ATOM     39  C   UNL     1     -11.319  -1.960   4.950  1.00  0.00     0.014 A 
ATOM     40  C   UNL     1     -11.479  -0.826   7.500  1.00  0.00     0.010 A 
ATOM     41  C   UNL     1     -10.197  -1.913   5.752  1.00  0.00     0.010 A 
ATOM     42  C   UNL     1     -10.261  -1.276   6.994  1.00  0.00    -0.014 A 
BRANCH  42  43
ATOM     43  C   UNL     1      -8.985  -0.977   7.628  1.00  0.00     0.031 A 
ATOM     44  C   UNL     1      -8.243  -2.019   8.361  1.00  0.00     0.074 A 
ATOM     45  C   UNL     1      -8.456   0.257   7.471  1.00  0.00     0.049 A 
ATOM     46  N   UNL     1      -7.389  -1.781   9.298  1.00  0.00    -0.248 NA
ATOM     47  C   UNL     1      -8.451  -3.440   8.116  1.00  0.00     0.031 C 
ATOM     48  C   UNL     1      -7.095   0.683   7.777  1.00  0.00     0.029 A 
ATOM     49  N   UNL     1      -9.136   1.444   7.170  1.00  0.00    -0.354 N 
ATOM     50  C   UNL     1      -6.750  -2.964   9.594  1.00  0.00     0.074 A 
ATOM     51  C   UNL     1      -7.491  -3.976   8.875  1.00  0.00     0.031 C 
ATOM     52  C   UNL     1      -7.079   2.019   7.906  1.00  0.00     0.029 A 
ATOM     53  C   UNL     1      -8.457   2.478   7.844  1.00  0.00     0.049 A 
ATOM     54  H   UNL     1      -9.933   1.537   6.599  1.00  0.00     0.167 HD
ATOM     55  C   UNL     1      -5.586  -2.940  10.306  1.00  0.00     0.037 A 
ATOM     56  C   UNL     1      -9.075   3.211   8.816  1.00  0.00     0.037 A 
ATOM     57  C   UNL     1      -5.237  -1.576  10.696  1.00  0.00     0.049 A 
ATOM     58  C   UNL     1      -8.430   3.096  10.178  1.00  0.00     0.074 A 
ATOM     59  C   UNL     1      -4.404  -0.629  10.119  1.00  0.00     0.029 A 
ATOM     60  N   UNL     1      -6.011  -0.902  11.632  1.00  0.00    -0.354 N 
ATOM     61  N   UNL     1      -7.586   2.158  10.505  1.00  0.00    -0.248 NA
ATOM     62  C   UNL     1      -8.715   4.002  11.289  1.00  0.00     0.031 C 
ATOM     63  C   UNL     1      -4.731   0.635  10.666  1.00  0.00     0.029 A 
ATOM     64  C   UNL     1      -5.742   0.454  11.593  1.00  0.00     0.049 A 
ATOM     65  H   UNL     1      -6.659  -1.329  12.237  1.00  0.00     0.167 HD
ATOM     66  C   UNL     1      -7.259   2.280  11.829  1.00  0.00     0.074 A 
ATOM     67  C   UNL     1      -7.966   3.467  12.270  1.00  0.00     0.031 C 
ATOM     68  C   UNL     1      -6.454   1.378  12.460  1.00  0.00     0.037 A 
BRANCH  55  69
ATOM     69  C   UNL     1      -4.616  -4.101  10.365  1.00  0.00     0.057 A 
ATOM     70  C   UNL     1      -3.227  -3.880  10.466  1.00  0.00     0.134 A 
ATOM     71  C   UNL     1      -4.977  -5.455  10.266  1.00  0.00     0.134 A 
ATOM     72  F   UNL     1      -2.720  -2.662  10.698  1.00  0.00    -0.206 F 
ATOM     73  C   UNL     1      -2.279  -4.903  10.334  1.00  0.00     0.040 A 
ATOM     74  C   UNL     1      -4.040  -6.483  10.076  1.00  0.00     0.040 A 
ATOM     75  F   UNL     1      -6.248  -5.851  10.407  1.00  0.00    -0.206 F 
ATOM     76  C   UNL     1      -2.682  -6.205  10.090  1.00  0.00     0.006 A 
ENDBRANCH  55  69
BRANCH  56  77
ATOM     77  C   UNL     1     -10.530   3.397   8.583  1.00  0.00     0.057 A 
ATOM     78  C   UNL     1     -10.944   4.191   7.501  1.00  0.00     0.134 A 
ATOM     79  C   UNL     1     -11.481   2.540   9.145  1.00  0.00     0.134 A 
ATOM     80  F   UNL     1     -10.079   5.036   6.916  1.00  0.00    -0.206 F 
ATOM     81  C   UNL     1     -12.213   4.062   6.933  1.00  0.00     0.040 A 
ATOM     82  C   UNL     1     -12.758   2.406   8.588  1.00  0.00     0.040 A 
ATOM     83  F   UNL     1     -11.155   1.735  10.167  1.00  0.00    -0.206 F 
ATOM     84  C   UNL     1     -13.114   3.140   7.457  1.00  0.00     0.006 A 
ENDBRANCH  56  77
BRANCH  68  85
ATOM     85  C   UNL     1      -6.211   1.316  13.942  1.00  0.00     0.057 A 
ATOM     86  C   UNL     1      -7.185   1.612  14.905  1.00  0.00     0.134 A 
ATOM     87  C   UNL     1      -5.003   0.784  14.442  1.00  0.00     0.134 A 
ATOM     88  F   UNL     1      -8.407   2.037  14.554  1.00  0.00    -0.206 F 
ATOM     89  C   UNL     1      -6.960   1.431  16.275  1.00  0.00     0.040 A 
ATOM     90  C   UNL     1      -4.785   0.554  15.802  1.00  0.00     0.040 A 
ATOM     91  F   UNL     1      -3.994   0.447  13.624  1.00  0.00    -0.206 F 
ATOM     92  C   UNL     1      -5.763   0.887  16.727  1.00  0.00     0.006 A 
ENDBRANCH  68  85
ENDBRANCH  42  43
ENDBRANCH  34  37
ENDBRANCH  32  33
ENDBRANCH  31  32
ENDBRANCH  30  31
ENDBRANCH   1  30
TORSDOF 17
