REMARK SMILES Cc1cnc(NC(=O)NC[C@H]2CC[C@H](C(=O)NCCCCCCNC(=O)c3ccc(-c4c5nc(c(-c6c(F)cccc6F)c6ccc([nH]6)c(-c6c(F)cccc6F)c6nc(c(-c7c(F)cccc7F)c7ccc4[nH]7)C=C6)C=C5)cc3)O2)s1
REMARK SMILES IDX 20 1 19 2 18 3 17 4 15 5 16 6 14 8 11 9 12 10 81 11 13 12
REMARK SMILES IDX 10 13 9 14 6 15 7 16 8 18 5 20 1 21 2 22 3 23 82 24 4 25
REMARK SMILES IDX 21 26 22 27 23 28 24 29 25 30 26 32 27 33 28 34 80 35 29 36
REMARK SMILES IDX 79 37 30 38 31 39 32 40 73 41 33 42 78 43 72 44 74 45 34 46
REMARK SMILES IDX 77 47 71 48 70 49 35 51 61 52 44 53 60 54 45 55 48 56 59 57
REMARK SMILES IDX 75 58 46 59 47 60 58 62 76 63 49 64 36 65 37 66 42 67 38 68
REMARK SMILES IDX 39 69 41 70 43 71 40 72 62 73 63 74 68 75 64 76 65 77 67 78
REMARK SMILES IDX 69 79 66 80 50 81 51 82 56 83 52 84 53 85 55 86 57 87 54 88
REMARK H PARENT 17 7 6 17 9 19 24 31 74 50 48 61
REMARK Flexibility Score: inf
ROOT
ATOM      1  C   UNL     1      -4.639   4.831  -1.787  1.00  0.00     0.002 C 
ENDROOT
BRANCH   1   2
ATOM      2  C   UNL     1      -3.126   4.602  -1.817  1.00  0.00     0.021 C 
BRANCH   2   3
ATOM      3  C   UNL     1      -2.738   3.131  -1.956  1.00  0.00     0.116 C 
BRANCH   3   4
ATOM      4  N   UNL     1      -2.643   2.725  -3.338  1.00  0.00    -0.354 N 
ATOM      5  C   UNL     1      -1.560   2.347  -4.075  1.00  0.00     0.249 C 
ATOM      6  O   UNL     1      -1.768   2.026  -5.250  1.00  0.00    -0.272 OA
ATOM      7  H   UNL     1      -3.497   2.721  -3.828  1.00  0.00     0.163 HD
BRANCH   5   8
ATOM      8  C   UNL     1      -0.115   2.391  -3.517  1.00  0.00     0.207 C 
ATOM      9  C   UNL     1       0.689   2.743  -1.342  1.00  0.00     0.138 C 
ATOM     10  C   UNL     1       0.643   4.095  -2.020  1.00  0.00     0.037 C 
ATOM     11  O   UNL     1       0.115   1.784  -2.243  1.00  0.00    -0.363 OA
ATOM     12  C   UNL     1       0.431   3.807  -3.479  1.00  0.00     0.045 C 
BRANCH   9  13
ATOM     13  C   UNL     1       2.019   2.254  -0.752  1.00  0.00     0.149 C 
BRANCH  13  14
ATOM     14  N   UNL     1       3.056   1.814  -1.669  1.00  0.00    -0.335 N 
ATOM     15  N   UNL     1       4.451   3.565  -2.519  1.00  0.00    -0.284 N 
ATOM     16  C   UNL     1       4.092   2.293  -2.353  1.00  0.00     0.321 C 
ATOM     17  H   UNL     1       5.122   3.669  -3.232  1.00  0.00     0.174 HD
ATOM     18  O   UNL     1       4.724   1.450  -3.006  1.00  0.00    -0.248 OA
ATOM     19  H   UNL     1       2.962   0.849  -1.839  1.00  0.00     0.165 HD
BRANCH  15  20
ATOM     20  C   UNL     1       4.124   4.753  -1.953  1.00  0.00     0.190 A 
ATOM     21  C   UNL     1       2.349   7.208   0.385  1.00  0.00     0.058 C 
ATOM     22  C   UNL     1       3.192   6.500  -0.608  1.00  0.00     0.023 A 
ATOM     23  C   UNL     1       3.530   6.864  -1.896  1.00  0.00     0.128 A 
ATOM     24  S   UNL     1       3.868   4.955  -0.284  1.00  0.00    -0.102 S 
ATOM     25  N   UNL     1       4.121   5.867  -2.647  1.00  0.00    -0.228 NA
ENDBRANCH  15  20
ENDBRANCH  13  14
ENDBRANCH   9  13
ENDBRANCH   5   8
ENDBRANCH   3   4
ENDBRANCH   2   3
ENDBRANCH   1   2
BRANCH   1  26
ATOM     26  C   UNL     1      -5.366   4.163  -0.612  1.00  0.00     0.002 C 
BRANCH  26  27
ATOM     27  C   UNL     1      -4.855   4.549   0.780  1.00  0.00     0.021 C 
BRANCH  27  28
ATOM     28  C   UNL     1      -4.968   6.035   1.107  1.00  0.00     0.116 C 
BRANCH  28  29
ATOM     29  N   UNL     1      -6.347   6.491   1.055  1.00  0.00    -0.352 N 
ATOM     30  C   UNL     1      -7.110   7.093   2.021  1.00  0.00     0.251 C 
ATOM     31  H   UNL     1      -6.803   6.344   0.195  1.00  0.00     0.163 HD
ATOM     32  O   UNL     1      -8.325   7.179   1.874  1.00  0.00    -0.269 OA
BRANCH  30  33
ATOM     33  C   UNL     1      -6.478   7.648   3.236  1.00  0.00     0.039 A 
ATOM     34  C   UNL     1      -7.134   7.503   4.461  1.00  0.00     0.014 A 
ATOM     35  C   UNL     1      -5.282   8.369   3.161  1.00  0.00     0.014 A 
ATOM     36  C   UNL     1      -6.580   8.061   5.614  1.00  0.00     0.010 A 
ATOM     37  C   UNL     1      -4.694   8.864   4.322  1.00  0.00     0.010 A 
ATOM     38  C   UNL     1      -5.350   8.736   5.556  1.00  0.00    -0.014 A 
BRANCH  38  39
ATOM     39  C   UNL     1      -4.764   9.355   6.770  1.00  0.00     0.031 A 
ATOM     40  C   UNL     1      -4.630  10.851   6.862  1.00  0.00     0.074 A 
ATOM     41  C   UNL     1      -4.328   8.572   7.775  1.00  0.00     0.049 A 
ATOM     42  N   UNL     1      -4.114  11.579   7.820  1.00  0.00    -0.248 NA
ATOM     43  C   UNL     1      -5.116  11.631   5.712  1.00  0.00     0.031 C 
ATOM     44  C   UNL     1      -4.360   7.109   7.784  1.00  0.00     0.029 A 
ATOM     45  N   UNL     1      -3.767   8.901   8.983  1.00  0.00    -0.354 N 
ATOM     46  C   UNL     1      -4.211  12.896   7.388  1.00  0.00     0.074 A 
ATOM     47  C   UNL     1      -4.773  12.864   6.055  1.00  0.00     0.031 C 
ATOM     48  C   UNL     1      -3.859   6.666   8.949  1.00  0.00     0.029 A 
ATOM     49  C   UNL     1      -3.449   7.811   9.756  1.00  0.00     0.049 A 
ATOM     50  H   UNL     1      -3.607   9.829   9.268  1.00  0.00     0.167 HD
ATOM     51  C   UNL     1      -3.891  14.032   8.052  1.00  0.00     0.037 A 
ATOM     52  C   UNL     1      -2.892   7.745  10.979  1.00  0.00     0.037 A 
ATOM     53  C   UNL     1      -3.350  14.064   9.385  1.00  0.00     0.049 A 
ATOM     54  C   UNL     1      -2.563   9.022  11.703  1.00  0.00     0.074 A 
ATOM     55  C   UNL     1      -3.006  15.162  10.154  1.00  0.00     0.029 A 
ATOM     56  N   UNL     1      -3.085  12.940  10.152  1.00  0.00    -0.354 N 
ATOM     57  N   UNL     1      -2.700  10.262  11.298  1.00  0.00    -0.248 NA
ATOM     58  C   UNL     1      -2.019   8.890  13.061  1.00  0.00     0.031 C 
ATOM     59  C   UNL     1      -2.509  14.701  11.378  1.00  0.00     0.029 A 
ATOM     60  C   UNL     1      -2.583  13.318  11.386  1.00  0.00     0.049 A 
ATOM     61  H   UNL     1      -3.231  12.010   9.863  1.00  0.00     0.167 HD
ATOM     62  C   UNL     1      -2.292  11.056  12.362  1.00  0.00     0.074 A 
ATOM     63  C   UNL     1      -1.918  10.157  13.435  1.00  0.00     0.031 C 
ATOM     64  C   UNL     1      -2.231  12.408  12.446  1.00  0.00     0.037 A 
BRANCH  51  65
ATOM     65  C   UNL     1      -4.139  15.335   7.347  1.00  0.00     0.057 A 
ATOM     66  C   UNL     1      -5.438  15.808   7.116  1.00  0.00     0.134 A 
ATOM     67  C   UNL     1      -3.075  16.136   6.916  1.00  0.00     0.134 A 
ATOM     68  F   UNL     1      -6.503  15.081   7.490  1.00  0.00    -0.206 F 
ATOM     69  C   UNL     1      -5.670  17.018   6.460  1.00  0.00     0.040 A 
ATOM     70  C   UNL     1      -3.294  17.362   6.283  1.00  0.00     0.040 A 
ATOM     71  F   UNL     1      -1.806  15.746   7.108  1.00  0.00    -0.206 F 
ATOM     72  C   UNL     1      -4.595  17.802   6.048  1.00  0.00     0.006 A 
ENDBRANCH  51  65
BRANCH  52  73
ATOM     73  C   UNL     1      -2.638   6.428  11.614  1.00  0.00     0.057 A 
ATOM     74  C   UNL     1      -3.382   6.001  12.721  1.00  0.00     0.134 A 
ATOM     75  C   UNL     1      -1.634   5.574  11.144  1.00  0.00     0.134 A 
ATOM     76  F   UNL     1      -4.347   6.783  13.227  1.00  0.00    -0.206 F 
ATOM     77  C   UNL     1      -3.117   4.788  13.357  1.00  0.00     0.040 A 
ATOM     78  C   UNL     1      -1.375   4.345  11.754  1.00  0.00     0.040 A 
ATOM     79  F   UNL     1      -0.895   5.919  10.079  1.00  0.00    -0.206 F 
ATOM     80  C   UNL     1      -2.111   3.954  12.871  1.00  0.00     0.006 A 
ENDBRANCH  52  73
BRANCH  64  81
ATOM     81  C   UNL     1      -1.788  12.990  13.756  1.00  0.00     0.057 A 
ATOM     82  C   UNL     1      -0.460  12.911  14.192  1.00  0.00     0.134 A 
ATOM     83  C   UNL     1      -2.705  13.649  14.585  1.00  0.00     0.134 A 
ATOM     84  F   UNL     1       0.463  12.281  13.450  1.00  0.00    -0.206 F 
ATOM     85  C   UNL     1      -0.065  13.438  15.423  1.00  0.00     0.040 A 
ATOM     86  C   UNL     1      -2.317  14.204  15.804  1.00  0.00     0.040 A 
ATOM     87  F   UNL     1      -3.991  13.768  14.221  1.00  0.00    -0.206 F 
ATOM     88  C   UNL     1      -0.995  14.091  16.230  1.00  0.00     0.006 A 
ENDBRANCH  64  81
ENDBRANCH  38  39
ENDBRANCH  30  33
ENDBRANCH  28  29
ENDBRANCH  27  28
ENDBRANCH  26  27
ENDBRANCH   1  26
TORSDOF 16
