REMARK SMILES NS(=O)(=O)c1ccc(-n2nc(C(=O)NCCCCCCNC(=O)c3ccc(-c4c5nc(c(-c6c(F)cccc6F)c6ccc([nH]6)c(-c6c(F)cccc6F)c6nc(c(-c7c(F)cccc7F)c7ccc4[nH]7)C=C6)C=C5)cc3)cc2-c2cc3ccccc3s2)cc1
REMARK SMILES IDX 17 1 16 2 15 3 14 4 12 5 13 6 11 8 9 9 10 10 79 11 78 12
REMARK SMILES IDX 8 13 5 14 6 15 90 16 7 17 89 18 2 19 3 20 4 21 1 22 80 25
REMARK SMILES IDX 81 26 88 27 82 28 87 29 83 30 86 31 84 32 85 33 18 34 19 35
REMARK SMILES IDX 20 36 21 37 22 38 23 40 24 41 25 42 77 43 26 44 76 45 27 46
REMARK SMILES IDX 28 47 29 48 70 49 30 50 75 51 69 52 71 53 31 54 74 55 68 56
REMARK SMILES IDX 67 57 32 59 58 60 41 61 57 62 42 63 45 64 56 65 72 66 43 67
REMARK SMILES IDX 44 68 55 70 73 71 46 72 33 73 34 74 39 75 35 76 36 77 38 78
REMARK SMILES IDX 40 79 37 80 59 81 60 82 65 83 61 84 62 85 64 86 66 87 63 88
REMARK SMILES IDX 47 89 48 90 53 91 49 92 50 93 52 94 54 95 51 96
REMARK H PARENT 14 7 1 23 1 24 21 39 71 58 45 69
REMARK Flexibility Score: inf
ROOT
ATOM      1  C   UNL     1       4.225 -10.635  -7.860  1.00  0.00     0.002 C 
ENDROOT
BRANCH   1   2
ATOM      2  C   UNL     1       3.310  -9.642  -7.128  1.00  0.00     0.021 C 
BRANCH   2   3
ATOM      3  C   UNL     1       3.283  -9.823  -5.607  1.00  0.00     0.116 C 
BRANCH   3   4
ATOM      4  N   UNL     1       4.448  -9.220  -4.974  1.00  0.00    -0.351 N 
ATOM      5  C   UNL     1       4.616  -8.118  -4.152  1.00  0.00     0.271 C 
ATOM      6  O   UNL     1       5.748  -7.947  -3.695  1.00  0.00    -0.267 OA
ATOM      7  H   UNL     1       5.288  -9.693  -5.171  1.00  0.00     0.163 HD
BRANCH   5   8
ATOM      8  C   UNL     1       3.478  -7.244  -3.802  1.00  0.00     0.151 A 
ATOM      9  N   UNL     1       2.180  -6.082  -2.537  1.00  0.00    -0.231 N 
ATOM     10  N   UNL     1       3.480  -6.449  -2.710  1.00  0.00    -0.162 NA
ATOM     11  C   UNL     1       1.382  -6.632  -3.509  1.00  0.00     0.085 A 
ATOM     12  C   UNL     1       2.260  -7.072  -4.480  1.00  0.00     0.066 A 
BRANCH   9  13
ATOM     13  C   UNL     1       1.831  -5.032  -1.661  1.00  0.00     0.065 A 
ATOM     14  C   UNL     1       1.081  -2.825  -0.152  1.00  0.00     0.082 A 
ATOM     15  C   UNL     1       0.356  -4.019  -0.045  1.00  0.00     0.024 A 
ATOM     16  C   UNL     1       2.180  -2.728  -1.008  1.00  0.00     0.024 A 
ATOM     17  C   UNL     1       0.719  -5.125  -0.819  1.00  0.00     0.030 A 
ATOM     18  C   UNL     1       2.574  -3.845  -1.743  1.00  0.00     0.030 A 
BRANCH  14  19
ATOM     19  S   UNL     1       0.562  -1.433   0.807  1.00  0.00     0.238 S 
ATOM     20  O   UNL     1       1.210  -1.496   2.091  1.00  0.00    -0.207 OA
ATOM     21  O   UNL     1      -0.870  -1.282   0.654  1.00  0.00    -0.207 OA
BRANCH  19  22
ATOM     22  N   UNL     1       1.225  -0.104   0.017  1.00  0.00    -0.225 NA
ATOM     23  H   UNL     1       0.969   0.750   0.514  1.00  0.00     0.137 HD
ATOM     24  H   UNL     1       0.867  -0.062  -0.937  1.00  0.00     0.137 HD
ENDBRANCH  19  22
ENDBRANCH  14  19
ENDBRANCH   9  13
BRANCH  11  25
ATOM     25  C   UNL     1      -0.040  -6.820  -3.559  1.00  0.00     0.054 A 
ATOM     26  C   UNL     1      -0.864  -6.403  -4.595  1.00  0.00     0.031 A 
ATOM     27  S   UNL     1      -0.629  -8.392  -3.098  1.00  0.00    -0.134 S 
ATOM     28  C   UNL     1      -0.997  -7.545  -5.484  1.00  0.00    -0.007 A 
ATOM     29  C   UNL     1      -0.775  -8.745  -4.793  1.00  0.00     0.035 A 
ATOM     30  C   UNL     1      -1.159  -7.604  -6.886  1.00  0.00     0.009 A 
ATOM     31  C   UNL     1      -0.658  -9.981  -5.447  1.00  0.00     0.019 A 
ATOM     32  C   UNL     1      -0.978  -8.821  -7.552  1.00  0.00     0.001 A 
ATOM     33  C   UNL     1      -0.718  -9.989  -6.842  1.00  0.00     0.001 A 
ENDBRANCH  11  25
ENDBRANCH   5   8
ENDBRANCH   3   4
ENDBRANCH   2   3
ENDBRANCH   1   2
BRANCH   1  34
ATOM     34  C   UNL     1       3.890 -12.127  -7.686  1.00  0.00     0.002 C 
BRANCH  34  35
ATOM     35  C   UNL     1       2.451 -12.562  -7.999  1.00  0.00     0.021 C 
BRANCH  35  36
ATOM     36  C   UNL     1       2.033 -12.354  -9.447  1.00  0.00     0.116 C 
BRANCH  36  37
ATOM     37  N   UNL     1       2.751 -13.228 -10.376  1.00  0.00    -0.352 N 
ATOM     38  C   UNL     1       2.631 -13.310 -11.750  1.00  0.00     0.251 C 
ATOM     39  H   UNL     1       3.408 -13.837  -9.967  1.00  0.00     0.163 HD
ATOM     40  O   UNL     1       2.971 -14.323 -12.350  1.00  0.00    -0.269 OA
BRANCH  38  41
ATOM     41  C   UNL     1       2.106 -12.151 -12.495  1.00  0.00     0.039 A 
ATOM     42  C   UNL     1       1.338 -12.303 -13.654  1.00  0.00     0.014 A 
ATOM     43  C   UNL     1       2.421 -10.882 -12.018  1.00  0.00     0.014 A 
ATOM     44  C   UNL     1       0.852 -11.162 -14.290  1.00  0.00     0.010 A 
ATOM     45  C   UNL     1       1.790  -9.781 -12.526  1.00  0.00     0.010 A 
ATOM     46  C   UNL     1       1.080  -9.904 -13.710  1.00  0.00    -0.014 A 
BRANCH  46  47
ATOM     47  C   UNL     1       0.488  -8.689 -14.251  1.00  0.00     0.031 A 
ATOM     48  C   UNL     1      -0.993  -8.739 -14.296  1.00  0.00     0.074 A 
ATOM     49  C   UNL     1       1.199  -7.556 -14.452  1.00  0.00     0.049 A 
ATOM     50  N   UNL     1      -1.738  -8.861 -15.341  1.00  0.00    -0.248 NA
ATOM     51  C   UNL     1      -1.730  -8.857 -13.025  1.00  0.00     0.031 C 
ATOM     52  C   UNL     1       2.612  -7.313 -14.120  1.00  0.00     0.029 A 
ATOM     53  N   UNL     1       0.790  -6.336 -14.908  1.00  0.00    -0.354 N 
ATOM     54  C   UNL     1      -3.048  -8.790 -14.873  1.00  0.00     0.074 A 
ATOM     55  C   UNL     1      -2.981  -9.035 -13.459  1.00  0.00     0.031 C 
ATOM     56  C   UNL     1       2.877  -5.989 -14.172  1.00  0.00     0.029 A 
ATOM     57  C   UNL     1       1.716  -5.310 -14.716  1.00  0.00     0.049 A 
ATOM     58  H   UNL     1      -0.085  -6.192 -15.335  1.00  0.00     0.167 HD
ATOM     59  C   UNL     1      -4.008  -8.197 -15.634  1.00  0.00     0.037 A 
ATOM     60  C   UNL     1       1.547  -3.996 -15.002  1.00  0.00     0.037 A 
ATOM     61  C   UNL     1      -3.517  -7.983 -16.974  1.00  0.00     0.049 A 
ATOM     62  C   UNL     1       0.454  -3.902 -15.992  1.00  0.00     0.074 A 
ATOM     63  C   UNL     1      -3.264  -8.754 -18.087  1.00  0.00     0.029 A 
ATOM     64  N   UNL     1      -2.814  -6.815 -17.114  1.00  0.00    -0.354 N 
ATOM     65  N   UNL     1       0.558  -4.345 -17.212  1.00  0.00    -0.248 NA
ATOM     66  C   UNL     1      -0.906  -3.645 -15.531  1.00  0.00     0.031 C 
ATOM     67  C   UNL     1      -2.248  -8.070 -18.820  1.00  0.00     0.029 A 
ATOM     68  C   UNL     1      -1.945  -6.877 -18.168  1.00  0.00     0.049 A 
ATOM     69  H   UNL     1      -2.921  -6.030 -16.529  1.00  0.00     0.167 HD
ATOM     70  C   UNL     1      -0.699  -4.836 -17.501  1.00  0.00     0.074 A 
ATOM     71  C   UNL     1      -1.590  -4.219 -16.525  1.00  0.00     0.031 C 
ATOM     72  C   UNL     1      -0.844  -5.949 -18.276  1.00  0.00     0.037 A 
BRANCH  59  73
ATOM     73  C   UNL     1      -5.146  -7.346 -15.102  1.00  0.00     0.057 A 
ATOM     74  C   UNL     1      -6.096  -6.845 -16.014  1.00  0.00     0.134 A 
ATOM     75  C   UNL     1      -5.177  -6.744 -13.827  1.00  0.00     0.134 A 
ATOM     76  F   UNL     1      -6.168  -7.325 -17.265  1.00  0.00    -0.206 F 
ATOM     77  C   UNL     1      -6.950  -5.779 -15.706  1.00  0.00     0.040 A 
ATOM     78  C   UNL     1      -6.059  -5.711 -13.494  1.00  0.00     0.040 A 
ATOM     79  F   UNL     1      -4.297  -7.040 -12.865  1.00  0.00    -0.206 F 
ATOM     80  C   UNL     1      -6.928  -5.201 -14.444  1.00  0.00     0.006 A 
ENDBRANCH  59  73
BRANCH  60  81
ATOM     81  C   UNL     1       2.124  -2.789 -14.375  1.00  0.00     0.057 A 
ATOM     82  C   UNL     1       2.179  -1.564 -15.058  1.00  0.00     0.134 A 
ATOM     83  C   UNL     1       2.343  -2.737 -12.989  1.00  0.00     0.134 A 
ATOM     84  F   UNL     1       1.954  -1.510 -16.378  1.00  0.00    -0.206 F 
ATOM     85  C   UNL     1       2.396  -0.349 -14.393  1.00  0.00     0.040 A 
ATOM     86  C   UNL     1       2.560  -1.530 -12.313  1.00  0.00     0.040 A 
ATOM     87  F   UNL     1       2.254  -3.845 -12.239  1.00  0.00    -0.206 F 
ATOM     88  C   UNL     1       2.568  -0.329 -13.013  1.00  0.00     0.006 A 
ENDBRANCH  60  81
BRANCH  72  89
ATOM     89  C   UNL     1       0.294  -6.301 -19.183  1.00  0.00     0.057 A 
ATOM     90  C   UNL     1       1.545  -6.766 -18.755  1.00  0.00     0.134 A 
ATOM     91  C   UNL     1       0.079  -6.229 -20.562  1.00  0.00     0.134 A 
ATOM     92  F   UNL     1       1.817  -6.932 -17.455  1.00  0.00    -0.206 F 
ATOM     93  C   UNL     1       2.550  -7.109 -19.665  1.00  0.00     0.040 A 
ATOM     94  C   UNL     1       1.061  -6.598 -21.481  1.00  0.00     0.040 A 
ATOM     95  F   UNL     1      -1.110  -5.827 -21.039  1.00  0.00    -0.206 F 
ATOM     96  C   UNL     1       2.306  -7.031 -21.033  1.00  0.00     0.006 A 
ENDBRANCH  72  89
ENDBRANCH  46  47
ENDBRANCH  38  41
ENDBRANCH  36  37
ENDBRANCH  35  36
ENDBRANCH  34  35
ENDBRANCH   1  34
TORSDOF 17
