REMARK SMILES CS(=O)(=O)c1ccc(C2=NN(c3ccc(C(=O)NCCCCCCNC(=O)c4ccc(-c5c6nc(c(-c7c(F)cccc7F)c7ccc([nH]7)c(-c7c(F)cccc7F)c7nc(c(-c8c(F)cccc8F)c8ccc5[nH]8)C=C7)C=C6)cc4)cc3)[C@H](c3ccccc3)C2)cc1
REMARK SMILES IDX 21 1 20 2 19 3 18 4 16 5 17 6 15 8 12 9 13 10 83 11 14 12
REMARK SMILES IDX 82 13 11 14 9 15 10 16 91 17 84 18 8 19 5 20 6 21 93 22 7 23
REMARK SMILES IDX 92 24 2 25 1 26 3 27 4 28 85 29 86 30 90 31 87 32 89 33
REMARK SMILES IDX 88 34 22 35 23 36 24 37 25 38 26 39 27 41 28 42 29 43 81 44
REMARK SMILES IDX 30 45 80 46 31 47 32 48 33 49 74 50 34 51 79 52 73 53 75 54
REMARK SMILES IDX 35 55 78 56 72 57 71 58 36 60 62 61 45 62 61 63 46 64 49 65
REMARK SMILES IDX 60 66 76 67 47 68 48 69 59 71 77 72 50 73 37 74 38 75 43 76
REMARK SMILES IDX 39 77 40 78 42 79 44 80 41 81 63 82 64 83 69 84 65 85 66 86
REMARK SMILES IDX 68 87 70 88 67 89 51 90 52 91 57 92 53 93 54 94 56 95 58 96
REMARK SMILES IDX 55 97
REMARK H PARENT 18 7 25 40 75 59 49 70
REMARK Flexibility Score: inf
ROOT
ATOM      1  C   UNL     1       4.297  -3.931 -16.173  1.00  0.00     0.002 C 
ENDROOT
BRANCH   1   2
ATOM      2  C   UNL     1       4.285  -3.355 -14.752  1.00  0.00     0.021 C 
BRANCH   2   3
ATOM      3  C   UNL     1       3.869  -1.884 -14.696  1.00  0.00     0.116 C 
BRANCH   3   4
ATOM      4  N   UNL     1       2.431  -1.762 -14.852  1.00  0.00    -0.352 N 
ATOM      5  C   UNL     1       1.447  -1.458 -13.946  1.00  0.00     0.251 C 
ATOM      6  O   UNL     1       0.287  -1.363 -14.343  1.00  0.00    -0.269 OA
ATOM      7  H   UNL     1       2.106  -1.925 -15.767  1.00  0.00     0.163 HD
BRANCH   5   8
ATOM      8  C   UNL     1       1.759  -1.163 -12.526  1.00  0.00     0.039 A 
ATOM      9  C   UNL     1       2.388  -0.376  -9.901  1.00  0.00     0.060 A 
ATOM     10  C   UNL     1       1.376   0.276 -10.612  1.00  0.00     0.029 A 
ATOM     11  C   UNL     1       3.017  -1.478 -10.487  1.00  0.00     0.029 A 
ATOM     12  C   UNL     1       1.058  -0.116 -11.915  1.00  0.00     0.016 A 
ATOM     13  C   UNL     1       2.697  -1.882 -11.784  1.00  0.00     0.016 A 
BRANCH   9  14
ATOM     14  N   UNL     1       2.788   0.052  -8.649  1.00  0.00    -0.257 N 
ATOM     15  C   UNL     1       2.479   0.311  -6.571  1.00  0.00     0.071 C 
ATOM     16  N   UNL     1       2.237  -0.503  -7.550  1.00  0.00    -0.176 NA
ATOM     17  C   UNL     1       3.203   1.579  -6.942  1.00  0.00     0.091 C 
ATOM     18  C   UNL     1       3.569   1.264  -8.404  1.00  0.00     0.144 C 
BRANCH  15  19
ATOM     19  C   UNL     1       2.033   0.020  -5.199  1.00  0.00    -0.002 A 
ATOM     20  C   UNL     1       1.035  -0.665  -2.695  1.00  0.00     0.067 A 
ATOM     21  C   UNL     1       1.572  -1.659  -3.516  1.00  0.00     0.021 A 
ATOM     22  C   UNL     1       0.996   0.670  -3.116  1.00  0.00     0.021 A 
ATOM     23  C   UNL     1       2.059  -1.315  -4.775  1.00  0.00     0.011 A 
ATOM     24  C   UNL     1       1.511   1.017  -4.371  1.00  0.00     0.011 A 
BRANCH  20  25
ATOM     25  S   UNL     1       0.357  -1.122  -1.116  1.00  0.00     0.175 S 
ATOM     26  C   UNL     1       1.090   0.005   0.039  1.00  0.00     0.163 C 
ATOM     27  O   UNL     1       0.861  -2.445  -0.794  1.00  0.00    -0.224 OA
ATOM     28  O   UNL     1      -1.064  -0.853  -1.179  1.00  0.00    -0.224 OA
ENDBRANCH  20  25
ENDBRANCH  15  19
BRANCH  18  29
ATOM     29  C   UNL     1       5.036   1.004  -8.739  1.00  0.00    -0.023 A 
ATOM     30  C   UNL     1       6.009   0.658  -7.790  1.00  0.00     0.006 A 
ATOM     31  C   UNL     1       5.428   1.042 -10.094  1.00  0.00     0.006 A 
ATOM     32  C   UNL     1       7.325   0.378  -8.180  1.00  0.00     0.000 A 
ATOM     33  C   UNL     1       6.734   0.737 -10.484  1.00  0.00     0.000 A 
ATOM     34  C   UNL     1       7.685   0.411  -9.525  1.00  0.00     0.000 A 
ENDBRANCH  18  29
ENDBRANCH   9  14
ENDBRANCH   5   8
ENDBRANCH   3   4
ENDBRANCH   2   3
ENDBRANCH   1   2
BRANCH   1  35
ATOM     35  C   UNL     1       5.327  -3.298 -17.116  1.00  0.00     0.002 C 
BRANCH  35  36
ATOM     36  C   UNL     1       6.773  -3.336 -16.615  1.00  0.00     0.021 C 
BRANCH  36  37
ATOM     37  C   UNL     1       7.320  -4.739 -16.370  1.00  0.00     0.116 C 
BRANCH  37  38
ATOM     38  N   UNL     1       7.413  -5.506 -17.603  1.00  0.00    -0.352 N 
ATOM     39  C   UNL     1       8.499  -6.137 -18.155  1.00  0.00     0.251 C 
ATOM     40  H   UNL     1       6.575  -5.583 -18.116  1.00  0.00     0.163 HD
ATOM     41  O   UNL     1       8.453  -6.553 -19.308  1.00  0.00    -0.269 OA
BRANCH  39  42
ATOM     42  C   UNL     1       9.734  -6.304 -17.361  1.00  0.00     0.039 A 
ATOM     43  C   UNL     1      10.967  -6.043 -17.965  1.00  0.00     0.014 A 
ATOM     44  C   UNL     1       9.679  -6.737 -16.033  1.00  0.00     0.014 A 
ATOM     45  C   UNL     1      12.142  -6.165 -17.221  1.00  0.00     0.010 A 
ATOM     46  C   UNL     1      10.844  -6.792 -15.274  1.00  0.00     0.010 A 
ATOM     47  C   UNL     1      12.087  -6.512 -15.861  1.00  0.00    -0.014 A 
BRANCH  47  48
ATOM     48  C   UNL     1      13.320  -6.590 -15.038  1.00  0.00     0.031 A 
ATOM     49  C   UNL     1      13.759  -7.906 -14.458  1.00  0.00     0.074 A 
ATOM     50  C   UNL     1      14.008  -5.466 -14.761  1.00  0.00     0.049 A 
ATOM     51  N   UNL     1      14.765  -8.164 -13.661  1.00  0.00    -0.248 NA
ATOM     52  C   UNL     1      12.945  -9.084 -14.799  1.00  0.00     0.031 C 
ATOM     53  C   UNL     1      13.659  -4.123 -15.228  1.00  0.00     0.029 A 
ATOM     54  N   UNL     1      15.140  -5.273 -14.011  1.00  0.00    -0.354 N 
ATOM     55  C   UNL     1      14.696  -9.525 -13.394  1.00  0.00     0.074 A 
ATOM     56  C   UNL     1      13.522 -10.030 -14.072  1.00  0.00     0.031 C 
ATOM     57  C   UNL     1      14.569  -3.249 -14.771  1.00  0.00     0.029 A 
ATOM     58  C   UNL     1      15.544  -3.961 -13.951  1.00  0.00     0.049 A 
ATOM     59  H   UNL     1      15.618  -6.005 -13.558  1.00  0.00     0.167 HD
ATOM     60  C   UNL     1      15.547 -10.290 -12.669  1.00  0.00     0.037 A 
ATOM     61  C   UNL     1      16.579  -3.396 -13.303  1.00  0.00     0.037 A 
ATOM     62  C   UNL     1      16.728  -9.789 -12.016  1.00  0.00     0.049 A 
ATOM     63  C   UNL     1      17.507  -4.266 -12.500  1.00  0.00     0.074 A 
ATOM     64  C   UNL     1      17.684 -10.493 -11.305  1.00  0.00     0.029 A 
ATOM     65  N   UNL     1      17.112  -8.457 -11.993  1.00  0.00    -0.354 N 
ATOM     66  N   UNL     1      17.466  -5.562 -12.309  1.00  0.00    -0.248 NA
ATOM     67  C   UNL     1      18.629  -3.595 -11.829  1.00  0.00     0.031 C 
ATOM     68  C   UNL     1      18.626  -9.581 -10.817  1.00  0.00     0.029 A 
ATOM     69  C   UNL     1      18.281  -8.315 -11.263  1.00  0.00     0.049 A 
ATOM     70  H   UNL     1      16.626  -7.721 -12.430  1.00  0.00     0.167 HD
ATOM     71  C   UNL     1      18.568  -5.865 -11.521  1.00  0.00     0.074 A 
ATOM     72  C   UNL     1      19.266  -4.619 -11.281  1.00  0.00     0.031 C 
ATOM     73  C   UNL     1      18.967  -7.068 -11.040  1.00  0.00     0.037 A 
BRANCH  60  74
ATOM     74  C   UNL     1      15.231 -11.752 -12.548  1.00  0.00     0.057 A 
ATOM     75  C   UNL     1      15.354 -12.627 -13.636  1.00  0.00     0.134 A 
ATOM     76  C   UNL     1      14.832 -12.300 -11.322  1.00  0.00     0.134 A 
ATOM     77  F   UNL     1      15.721 -12.165 -14.841  1.00  0.00    -0.206 F 
ATOM     78  C   UNL     1      15.067 -13.988 -13.516  1.00  0.00     0.040 A 
ATOM     79  C   UNL     1      14.569 -13.664 -11.183  1.00  0.00     0.040 A 
ATOM     80  F   UNL     1      14.701 -11.521 -10.238  1.00  0.00    -0.206 F 
ATOM     81  C   UNL     1      14.680 -14.511 -12.284  1.00  0.00     0.006 A 
ENDBRANCH  60  74
BRANCH  61  82
ATOM     82  C   UNL     1      16.810  -1.933 -13.404  1.00  0.00     0.057 A 
ATOM     83  C   UNL     1      17.901  -1.424 -14.118  1.00  0.00     0.134 A 
ATOM     84  C   UNL     1      15.956  -1.012 -12.787  1.00  0.00     0.134 A 
ATOM     85  F   UNL     1      18.765  -2.258 -14.716  1.00  0.00    -0.206 F 
ATOM     86  C   UNL     1      18.145  -0.052 -14.201  1.00  0.00     0.040 A 
ATOM     87  C   UNL     1      16.174   0.363 -12.882  1.00  0.00     0.040 A 
ATOM     88  F   UNL     1      14.888  -1.436 -12.094  1.00  0.00    -0.206 F 
ATOM     89  C   UNL     1      17.276   0.846 -13.584  1.00  0.00     0.006 A 
ENDBRANCH  61  82
BRANCH  73  90
ATOM     90  C   UNL     1      20.233  -7.099 -10.235  1.00  0.00     0.057 A 
ATOM     91  C   UNL     1      20.295  -6.588  -8.933  1.00  0.00     0.134 A 
ATOM     92  C   UNL     1      21.394  -7.682 -10.758  1.00  0.00     0.134 A 
ATOM     93  F   UNL     1      19.221  -6.005  -8.379  1.00  0.00    -0.206 F 
ATOM     94  C   UNL     1      21.474  -6.637  -8.187  1.00  0.00     0.040 A 
ATOM     95  C   UNL     1      22.571  -7.760 -10.012  1.00  0.00     0.040 A 
ATOM     96  F   UNL     1      21.400  -8.198 -11.997  1.00  0.00    -0.206 F 
ATOM     97  C   UNL     1      22.614  -7.231  -8.724  1.00  0.00     0.006 A 
ENDBRANCH  73  90
ENDBRANCH  47  48
ENDBRANCH  39  42
ENDBRANCH  37  38
ENDBRANCH  36  37
ENDBRANCH  35  36
ENDBRANCH   1  35
TORSDOF 17
