REMARK SMILES O=C(NCCCCCCNC(=O)[C@H](C[NH+]1CCCC1)c1ccc(Br)cc1)c1ccc(-c2c3nc(c(-c4c(F)cccc4F)c4ccc([nH]4)c(-c4c(F)cccc4F)c4nc(c(-c5c(F)cccc5F)c5ccc2[nH]5)C=C4)C=C3)cc1
REMARK SMILES IDX 6 1 5 2 4 3 3 4 1 5 2 6 27 8 28 9 80 10 29 11 79 12 30 13
REMARK SMILES IDX 31 14 32 15 73 16 33 17 78 18 72 19 74 20 34 21 77 22 71 23
REMARK SMILES IDX 70 24 35 26 61 27 44 28 60 29 45 30 48 31 59 32 75 33 46 34
REMARK SMILES IDX 47 35 58 37 76 38 49 39 36 40 37 41 42 42 38 43 39 44 41 45
REMARK SMILES IDX 43 46 40 47 62 48 63 49 68 50 64 51 65 52 67 53 69 54 66 55
REMARK SMILES IDX 50 56 51 57 56 58 52 59 53 60 55 61 57 62 54 63 7 64 8 65
REMARK SMILES IDX 9 66 10 67 11 68 12 70 13 71 20 72 21 73 26 74 22 75 25 76
REMARK SMILES IDX 23 77 24 78 14 79 15 80 16 81 19 82 17 84 18 85
REMARK H PARENT 3 7 74 25 48 36 10 69 15 83
REMARK Flexibility Score: inf
ROOT
ATOM      1  C   UNL     1      13.437  -2.250  -2.930  1.00  0.00     0.002 C 
ENDROOT
BRANCH   1   2
ATOM      2  C   UNL     1      14.254  -2.947  -1.845  1.00  0.00     0.021 C 
BRANCH   2   3
ATOM      3  C   UNL     1      15.698  -3.271  -2.207  1.00  0.00     0.116 C 
BRANCH   3   4
ATOM      4  N   UNL     1      16.508  -2.098  -2.492  1.00  0.00    -0.352 N 
ATOM      5  O   UNL     1      18.277  -0.703  -2.323  1.00  0.00    -0.269 OA
ATOM      6  C   UNL     1      17.772  -1.787  -2.047  1.00  0.00     0.251 C 
ATOM      7  H   UNL     1      16.093  -1.432  -3.087  1.00  0.00     0.163 HD
BRANCH   6   8
ATOM      8  C   UNL     1      18.509  -2.748  -1.196  1.00  0.00     0.039 A 
ATOM      9  C   UNL     1      18.553  -4.105  -1.518  1.00  0.00     0.014 A 
ATOM     10  C   UNL     1      19.142  -2.283  -0.040  1.00  0.00     0.014 A 
ATOM     11  C   UNL     1      19.076  -5.014  -0.605  1.00  0.00     0.010 A 
ATOM     12  C   UNL     1      19.748  -3.190   0.836  1.00  0.00     0.010 A 
ATOM     13  C   UNL     1      19.678  -4.568   0.585  1.00  0.00    -0.014 A 
BRANCH  13  14
ATOM     14  C   UNL     1      20.237  -5.567   1.533  1.00  0.00     0.031 A 
ATOM     15  C   UNL     1      19.655  -5.744   2.910  1.00  0.00     0.074 A 
ATOM     16  C   UNL     1      21.250  -6.355   1.125  1.00  0.00     0.049 A 
ATOM     17  N   UNL     1      19.987  -6.606   3.840  1.00  0.00    -0.248 NA
ATOM     18  C   UNL     1      18.568  -4.834   3.301  1.00  0.00     0.031 C 
ATOM     19  C   UNL     1      21.909  -6.271  -0.180  1.00  0.00     0.029 A 
ATOM     20  N   UNL     1      21.885  -7.397   1.751  1.00  0.00    -0.354 N 
ATOM     21  C   UNL     1      19.172  -6.326   4.930  1.00  0.00     0.074 A 
ATOM     22  C   UNL     1      18.343  -5.200   4.555  1.00  0.00     0.031 C 
ATOM     23  C   UNL     1      22.813  -7.256  -0.280  1.00  0.00     0.029 A 
ATOM     24  C   UNL     1      22.836  -8.006   0.971  1.00  0.00     0.049 A 
ATOM     25  H   UNL     1      21.678  -7.681   2.671  1.00  0.00     0.167 HD
ATOM     26  C   UNL     1      19.114  -6.955   6.129  1.00  0.00     0.037 A 
ATOM     27  C   UNL     1      23.642  -9.052   1.231  1.00  0.00     0.037 A 
ATOM     28  C   UNL     1      19.918  -8.095   6.490  1.00  0.00     0.049 A 
ATOM     29  C   UNL     1      23.551  -9.733   2.564  1.00  0.00     0.074 A 
ATOM     30  C   UNL     1      19.900  -8.827   7.666  1.00  0.00     0.029 A 
ATOM     31  N   UNL     1      20.886  -8.668   5.679  1.00  0.00    -0.354 N 
ATOM     32  N   UNL     1      22.749  -9.479   3.569  1.00  0.00    -0.248 NA
ATOM     33  C   UNL     1      24.479 -10.847   2.800  1.00  0.00     0.031 C 
ATOM     34  C   UNL     1      20.882  -9.820   7.580  1.00  0.00     0.029 A 
ATOM     35  C   UNL     1      21.482  -9.734   6.335  1.00  0.00     0.049 A 
ATOM     36  H   UNL     1      21.115  -8.364   4.772  1.00  0.00     0.167 HD
ATOM     37  C   UNL     1      23.060 -10.413   4.548  1.00  0.00     0.074 A 
ATOM     38  C   UNL     1      24.112 -11.250   4.008  1.00  0.00     0.031 C 
ATOM     39  C   UNL     1      22.524 -10.562   5.783  1.00  0.00     0.037 A 
BRANCH  26  40
ATOM     40  C   UNL     1      18.156  -6.416   7.152  1.00  0.00     0.057 A 
ATOM     41  C   UNL     1      16.771  -6.589   7.037  1.00  0.00     0.134 A 
ATOM     42  C   UNL     1      18.631  -5.753   8.291  1.00  0.00     0.134 A 
ATOM     43  F   UNL     1      16.250  -7.206   5.966  1.00  0.00    -0.206 F 
ATOM     44  C   UNL     1      15.891  -6.104   8.008  1.00  0.00     0.040 A 
ATOM     45  C   UNL     1      17.763  -5.284   9.280  1.00  0.00     0.040 A 
ATOM     46  F   UNL     1      19.947  -5.560   8.468  1.00  0.00    -0.206 F 
ATOM     47  C   UNL     1      16.388  -5.455   9.136  1.00  0.00     0.006 A 
ENDBRANCH  26  40
BRANCH  27  48
ATOM     48  C   UNL     1      24.591  -9.526   0.195  1.00  0.00     0.057 A 
ATOM     49  C   UNL     1      24.398 -10.750  -0.455  1.00  0.00     0.134 A 
ATOM     50  C   UNL     1      25.706  -8.765  -0.176  1.00  0.00     0.134 A 
ATOM     51  F   UNL     1      23.357 -11.530  -0.130  1.00  0.00    -0.206 F 
ATOM     52  C   UNL     1      25.287 -11.207  -1.429  1.00  0.00     0.040 A 
ATOM     53  C   UNL     1      26.588  -9.197  -1.166  1.00  0.00     0.040 A 
ATOM     54  F   UNL     1      25.940  -7.579   0.405  1.00  0.00    -0.206 F 
ATOM     55  C   UNL     1      26.383 -10.426  -1.791  1.00  0.00     0.006 A 
ENDBRANCH  27  48
BRANCH  39  56
ATOM     56  C   UNL     1      23.044 -11.694   6.617  1.00  0.00     0.057 A 
ATOM     57  C   UNL     1      24.314 -11.656   7.205  1.00  0.00     0.134 A 
ATOM     58  C   UNL     1      22.258 -12.830   6.844  1.00  0.00     0.134 A 
ATOM     59  F   UNL     1      25.122 -10.602   7.012  1.00  0.00    -0.206 F 
ATOM     60  C   UNL     1      24.796 -12.721   7.968  1.00  0.00     0.040 A 
ATOM     61  C   UNL     1      22.718 -13.891   7.625  1.00  0.00     0.040 A 
ATOM     62  F   UNL     1      21.029 -12.926   6.314  1.00  0.00    -0.206 F 
ATOM     63  C   UNL     1      23.994 -13.841   8.183  1.00  0.00     0.006 A 
ENDBRANCH  39  56
ENDBRANCH  13  14
ENDBRANCH   6   8
ENDBRANCH   3   4
ENDBRANCH   2   3
ENDBRANCH   1   2
BRANCH   1  64
ATOM     64  C   UNL     1      13.446  -2.912  -4.311  1.00  0.00     0.002 C 
BRANCH  64  65
ATOM     65  C   UNL     1      13.055  -4.394  -4.363  1.00  0.00     0.021 C 
BRANCH  65  66
ATOM     66  C   UNL     1      11.707  -4.751  -3.741  1.00  0.00     0.116 C 
BRANCH  66  67
ATOM     67  N   UNL     1      10.598  -4.065  -4.374  1.00  0.00    -0.355 N 
ATOM     68  C   UNL     1       9.281  -4.429  -4.416  1.00  0.00     0.233 C 
ATOM     69  H   UNL     1      10.823  -3.225  -4.835  1.00  0.00     0.163 HD
ATOM     70  O   UNL     1       8.496  -3.623  -4.921  1.00  0.00    -0.274 OA
BRANCH  68  71
ATOM     71  C   UNL     1       8.836  -5.808  -3.901  1.00  0.00     0.163 C 
BRANCH  71  72
ATOM     72  C   UNL     1       9.156  -6.057  -2.427  1.00  0.00    -0.030 A 
ATOM     73  C   UNL     1       9.078  -5.054  -1.451  1.00  0.00     0.006 A 
ATOM     74  C   UNL     1       9.520  -7.359  -2.029  1.00  0.00     0.006 A 
ATOM     75  C   UNL     1       9.396  -5.339  -0.120  1.00  0.00     0.016 A 
ATOM     76  C   UNL     1       9.818  -7.649  -0.699  1.00  0.00     0.016 A 
ATOM     77  C   UNL     1       9.763  -6.633   0.249  1.00  0.00     0.017 A 
ATOM     78  Br  UNL     1      10.182  -7.015   2.052  1.00  0.00    -0.051 Br
ENDBRANCH  71  72
BRANCH  71  79
ATOM     79  C   UNL     1       7.331  -6.020  -4.238  1.00  0.00     0.280 C 
BRANCH  79  80
ATOM     80  N   UNL     1       6.769  -7.234  -3.608  1.00  0.00    -0.334 N 
ATOM     81  C   UNL     1       6.104  -8.140  -4.546  1.00  0.00     0.262 C 
ATOM     82  C   UNL     1       5.770  -6.900  -2.574  1.00  0.00     0.262 C 
ATOM     83  H   UNL     1       7.585  -7.699  -3.210  1.00  0.00     0.348 HD
ATOM     84  C   UNL     1       4.657  -7.699  -4.560  1.00  0.00     0.067 C 
ATOM     85  C   UNL     1       4.405  -7.308  -3.117  1.00  0.00     0.067 C 
ENDBRANCH  79  80
ENDBRANCH  71  79
ENDBRANCH  68  71
ENDBRANCH  66  67
ENDBRANCH  65  66
ENDBRANCH  64  65
ENDBRANCH   1  64
TORSDOF 16
