REMARK SMILES O=C(NCCCCCCNC(=O)[C@@H]1CCCC[C@@H]1C(=O)N1CCN(C(=O)c2sc3cc([N+](=O)[O-])ccc3c2Cl)CC1)c1ccc(-c2c3nc(c(-c4c(F)cccc4F)c4ccc([nH]4)c(-c4c(F)cccc4F)c4nc(c(-c5c(F)cccc5F)c5ccc2[nH]5)C=C4)C=C3)cc1
REMARK SMILES IDX 7 1 6 2 5 3 4 4 3 5 1 6 2 7 42 9 43 10 95 11 44 12 94 13
REMARK SMILES IDX 45 14 46 15 47 16 88 17 48 18 93 19 87 20 89 21 49 22 92 23
REMARK SMILES IDX 86 24 85 25 50 27 76 28 59 29 75 30 60 31 63 32 74 33 90 34
REMARK SMILES IDX 61 35 62 36 73 38 91 39 64 40 51 41 52 42 57 43 53 44 54 45
REMARK SMILES IDX 56 46 58 47 55 48 77 49 78 50 83 51 79 52 80 53 82 54 84 55
REMARK SMILES IDX 81 56 65 57 66 58 71 59 67 60 68 61 70 62 72 63 69 64 8 65
REMARK SMILES IDX 9 66 10 67 11 68 12 70 13 71 14 72 18 73 15 74 17 75 16 76
REMARK SMILES IDX 19 77 20 78 21 79 22 80 41 81 23 82 40 83 24 84 25 85 26 86
REMARK SMILES IDX 27 87 28 88 38 89 29 90 37 91 39 92 30 93 36 94 31 95 35 96
REMARK SMILES IDX 32 97 33 98 34 99
REMARK H PARENT 3 8 89 26 63 37 10 69
REMARK Flexibility Score: inf
ROOT
ATOM      1  C   UNL     1       4.887  -4.072  -0.455  1.00  0.00     0.002 C 
ENDROOT
BRANCH   1   2
ATOM      2  C   UNL     1       4.165  -3.481   0.762  1.00  0.00     0.002 C 
BRANCH   2   3
ATOM      3  C   UNL     1       4.722  -2.227   1.450  1.00  0.00     0.021 C 
BRANCH   3   4
ATOM      4  C   UNL     1       4.314  -0.906   0.823  1.00  0.00     0.116 C 
BRANCH   4   5
ATOM      5  N   UNL     1       2.865  -0.627   0.900  1.00  0.00    -0.352 N 
ATOM      6  O   UNL     1       0.977   0.583   0.439  1.00  0.00    -0.269 OA
ATOM      7  C   UNL     1       2.070   0.194   0.096  1.00  0.00     0.251 C 
ATOM      8  H   UNL     1       2.389  -1.089   1.627  1.00  0.00     0.163 HD
BRANCH   7   9
ATOM      9  C   UNL     1       2.609   0.530  -1.233  1.00  0.00     0.039 A 
ATOM     10  C   UNL     1       2.679   1.819  -1.768  1.00  0.00     0.014 A 
ATOM     11  C   UNL     1       3.272  -0.521  -1.822  1.00  0.00     0.014 A 
ATOM     12  C   UNL     1       3.528   2.018  -2.858  1.00  0.00     0.010 A 
ATOM     13  C   UNL     1       4.403  -0.185  -2.484  1.00  0.00     0.010 A 
ATOM     14  C   UNL     1       4.417   0.987  -3.196  1.00  0.00    -0.014 A 
BRANCH  14  15
ATOM     15  C   UNL     1       5.428   1.027  -4.236  1.00  0.00     0.031 A 
ATOM     16  C   UNL     1       6.224   2.267  -4.259  1.00  0.00     0.074 A 
ATOM     17  C   UNL     1       5.737  -0.052  -4.998  1.00  0.00     0.049 A 
ATOM     18  N   UNL     1       6.060   3.266  -5.055  1.00  0.00    -0.248 NA
ATOM     19  C   UNL     1       7.173   2.518  -3.166  1.00  0.00     0.031 C 
ATOM     20  C   UNL     1       5.271  -1.452  -4.910  1.00  0.00     0.029 A 
ATOM     21  N   UNL     1       6.612  -0.117  -6.034  1.00  0.00    -0.354 N 
ATOM     22  C   UNL     1       7.045   4.184  -4.719  1.00  0.00     0.074 A 
ATOM     23  C   UNL     1       7.546   3.773  -3.433  1.00  0.00     0.031 C 
ATOM     24  C   UNL     1       6.022  -2.249  -5.699  1.00  0.00     0.029 A 
ATOM     25  C   UNL     1       6.870  -1.401  -6.505  1.00  0.00     0.049 A 
ATOM     26  H   UNL     1       7.033   0.684  -6.423  1.00  0.00     0.167 HD
ATOM     27  C   UNL     1       7.524   5.045  -5.658  1.00  0.00     0.037 A 
ATOM     28  C   UNL     1       7.702  -1.733  -7.520  1.00  0.00     0.037 A 
ATOM     29  C   UNL     1       6.664   5.056  -6.822  1.00  0.00     0.049 A 
ATOM     30  C   UNL     1       7.888  -0.507  -8.337  1.00  0.00     0.074 A 
ATOM     31  C   UNL     1       5.341   5.385  -7.047  1.00  0.00     0.029 A 
ATOM     32  N   UNL     1       7.038   4.271  -7.890  1.00  0.00    -0.354 N 
ATOM     33  N   UNL     1       6.929   0.039  -9.035  1.00  0.00    -0.248 NA
ATOM     34  C   UNL     1       8.973   0.388  -7.962  1.00  0.00     0.031 C 
ATOM     35  C   UNL     1       4.863   4.397  -7.961  1.00  0.00     0.029 A 
ATOM     36  C   UNL     1       5.933   3.571  -8.310  1.00  0.00     0.049 A 
ATOM     37  H   UNL     1       7.939   4.220  -8.283  1.00  0.00     0.167 HD
ATOM     38  C   UNL     1       7.066   1.406  -8.827  1.00  0.00     0.074 A 
ATOM     39  C   UNL     1       8.387   1.562  -8.216  1.00  0.00     0.031 C 
ATOM     40  C   UNL     1       5.988   2.245  -8.890  1.00  0.00     0.037 A 
BRANCH  27  41
ATOM     41  C   UNL     1       8.940   5.563  -5.708  1.00  0.00     0.057 A 
ATOM     42  C   UNL     1      10.038   4.969  -5.055  1.00  0.00     0.134 A 
ATOM     43  C   UNL     1       9.273   6.518  -6.686  1.00  0.00     0.134 A 
ATOM     44  F   UNL     1       9.903   4.011  -4.133  1.00  0.00    -0.206 F 
ATOM     45  C   UNL     1      11.364   5.258  -5.388  1.00  0.00     0.040 A 
ATOM     46  C   UNL     1      10.596   6.778  -7.061  1.00  0.00     0.040 A 
ATOM     47  F   UNL     1       8.318   7.167  -7.369  1.00  0.00    -0.206 F 
ATOM     48  C   UNL     1      11.647   6.135  -6.422  1.00  0.00     0.006 A 
ENDBRANCH  27  41
BRANCH  28  49
ATOM     49  C   UNL     1       8.556  -2.933  -7.647  1.00  0.00     0.057 A 
ATOM     50  C   UNL     1       9.080  -3.575  -6.510  1.00  0.00     0.134 A 
ATOM     51  C   UNL     1       9.107  -3.311  -8.877  1.00  0.00     0.134 A 
ATOM     52  F   UNL     1       8.669  -3.242  -5.277  1.00  0.00    -0.206 F 
ATOM     53  C   UNL     1      10.111  -4.516  -6.589  1.00  0.00     0.040 A 
ATOM     54  C   UNL     1      10.141  -4.253  -8.972  1.00  0.00     0.040 A 
ATOM     55  F   UNL     1       8.695  -2.730 -10.013  1.00  0.00    -0.206 F 
ATOM     56  C   UNL     1      10.656  -4.848  -7.823  1.00  0.00     0.006 A 
ENDBRANCH  28  49
BRANCH  40  57
ATOM     57  C   UNL     1       4.692   1.674  -9.413  1.00  0.00     0.057 A 
ATOM     58  C   UNL     1       4.097   2.265 -10.532  1.00  0.00     0.134 A 
ATOM     59  C   UNL     1       3.959   0.659  -8.777  1.00  0.00     0.134 A 
ATOM     60  F   UNL     1       4.705   3.281 -11.161  1.00  0.00    -0.206 F 
ATOM     61  C   UNL     1       2.846   1.859 -11.006  1.00  0.00     0.040 A 
ATOM     62  C   UNL     1       2.720   0.221  -9.258  1.00  0.00     0.040 A 
ATOM     63  F   UNL     1       4.394   0.096  -7.645  1.00  0.00    -0.206 F 
ATOM     64  C   UNL     1       2.157   0.826 -10.376  1.00  0.00     0.006 A 
ENDBRANCH  40  57
ENDBRANCH  14  15
ENDBRANCH   7   9
ENDBRANCH   4   5
ENDBRANCH   3   4
ENDBRANCH   2   3
ENDBRANCH   1   2
BRANCH   1  65
ATOM     65  C   UNL     1       6.417  -4.052  -0.545  1.00  0.00     0.021 C 
BRANCH  65  66
ATOM     66  C   UNL     1       7.232  -4.685   0.583  1.00  0.00     0.116 C 
BRANCH  66  67
ATOM     67  N   UNL     1       6.898  -6.061   0.884  1.00  0.00    -0.356 N 
ATOM     68  C   UNL     1       7.596  -6.981   1.616  1.00  0.00     0.223 C 
ATOM     69  H   UNL     1       6.046  -6.380   0.508  1.00  0.00     0.163 HD
ATOM     70  O   UNL     1       7.034  -8.055   1.838  1.00  0.00    -0.275 OA
BRANCH  68  71
ATOM     71  C   UNL     1       9.033  -6.708   2.065  1.00  0.00     0.091 C 
ATOM     72  C   UNL     1       9.701  -7.966   2.653  1.00  0.00     0.014 C 
ATOM     73  C   UNL     1       9.291  -5.502   2.987  1.00  0.00     0.091 C 
ATOM     74  C   UNL     1      11.215  -7.781   2.759  1.00  0.00     0.001 C 
ATOM     75  C   UNL     1      10.821  -5.282   3.068  1.00  0.00     0.014 C 
ATOM     76  C   UNL     1      11.603  -6.518   3.520  1.00  0.00     0.001 C 
BRANCH  73  77
ATOM     77  C   UNL     1       8.674  -5.537   4.405  1.00  0.00     0.226 C 
ATOM     78  O   UNL     1       9.326  -5.757   5.421  1.00  0.00    -0.275 OA
ATOM     79  N   UNL     1       7.376  -5.064   4.480  1.00  0.00    -0.339 N 
ATOM     80  C   UNL     1       7.093  -3.915   5.336  1.00  0.00     0.141 C 
ATOM     81  C   UNL     1       6.242  -5.977   4.404  1.00  0.00     0.141 C 
ATOM     82  C   UNL     1       5.857  -3.151   4.832  1.00  0.00     0.141 C 
ATOM     83  C   UNL     1       5.084  -5.240   3.736  1.00  0.00     0.141 C 
ATOM     84  N   UNL     1       4.707  -4.013   4.462  1.00  0.00    -0.334 N 
ATOM     85  C   UNL     1       3.423  -3.423   4.514  1.00  0.00     0.265 C 
ATOM     86  O   UNL     1       3.307  -2.316   5.046  1.00  0.00    -0.268 OA
BRANCH  85  87
ATOM     87  C   UNL     1       2.283  -4.030   3.828  1.00  0.00     0.112 A 
ATOM     88  S   UNL     1       1.296  -2.978   2.881  1.00  0.00    -0.128 S 
ATOM     89  C   UNL     1       1.719  -5.288   3.858  1.00  0.00     0.072 A 
ATOM     90  C   UNL     1       0.322  -4.253   2.277  1.00  0.00     0.043 A 
ATOM     91  C   UNL     1       0.665  -5.466   2.879  1.00  0.00     0.012 A 
ATOM     92  Cl  UNL     1       2.161  -6.555   4.936  1.00  0.00    -0.082 Cl
ATOM     93  C   UNL     1      -0.722  -4.148   1.328  1.00  0.00     0.105 A 
ATOM     94  C   UNL     1      -0.061  -6.622   2.485  1.00  0.00     0.018 A 
ATOM     95  C   UNL     1      -1.426  -5.310   0.982  1.00  0.00     0.270 A 
ATOM     96  C   UNL     1      -1.092  -6.542   1.541  1.00  0.00     0.086 A 
BRANCH  95  97
ATOM     97  N   UNL     1      -2.545  -5.230   0.030  1.00  0.00     0.062 N 
ATOM     98  O   UNL     1      -2.772  -4.136  -0.504  1.00  0.00    -0.258 OA
ATOM     99  O   UNL     1      -3.196  -6.264  -0.181  1.00  0.00    -0.258 OA
ENDBRANCH  95  97
ENDBRANCH  85  87
ENDBRANCH  73  77
ENDBRANCH  68  71
ENDBRANCH  66  67
ENDBRANCH  65  66
ENDBRANCH   1  65
TORSDOF 16
