REMARK SMILES Cc1ccc([C@@H]2[C@H](C(=O)NCCCCCCNC(=O)c3ccc(-c4c5nc(c(-c6c(F)cccc6F)c6ccc([nH]6)c(-c6c(F)cccc6F)c6nc(c(-c7c(F)cccc7F)c7ccc4[nH]7)C=C6)C=C5)cc3)c3ccccc3C(=O)N2c2ccccc2)cc1
REMARK SMILES IDX 14 1 13 2 12 3 11 4 10 5 8 6 9 7 7 9 6 10 82 11 74 12 80 13
REMARK SMILES IDX 75 14 79 15 81 16 76 17 78 18 77 19 5 20 1 21 2 22 3 23
REMARK SMILES IDX 90 24 4 25 89 26 83 27 84 28 88 29 85 30 87 31 86 32 15 33
REMARK SMILES IDX 16 34 17 35 18 36 19 38 20 39 21 40 73 41 22 42 72 43 23 44
REMARK SMILES IDX 24 45 25 46 66 47 26 48 71 49 65 50 67 51 27 52 70 53 64 54
REMARK SMILES IDX 63 55 28 57 54 58 37 59 53 60 38 61 41 62 52 63 68 64 39 65
REMARK SMILES IDX 40 66 51 68 69 69 42 70 29 71 30 72 35 73 31 74 32 75 34 76
REMARK SMILES IDX 36 77 33 78 55 79 56 80 61 81 57 82 58 83 60 84 62 85 59 86
REMARK SMILES IDX 43 87 44 88 49 89 45 90 46 91 48 92 50 93 47 94
REMARK H PARENT 10 8 17 37 67 56 41 67
REMARK Flexibility Score: inf
ROOT
ATOM      1  C   UNL     1      -2.696  -6.346   6.807  1.00  0.00     0.002 C 
ENDROOT
BRANCH   1   2
ATOM      2  C   UNL     1      -3.861  -5.702   6.034  1.00  0.00     0.002 C 
BRANCH   2   3
ATOM      3  C   UNL     1      -3.971  -4.173   6.103  1.00  0.00     0.021 C 
BRANCH   3   4
ATOM      4  C   UNL     1      -2.722  -3.412   5.655  1.00  0.00     0.116 C 
BRANCH   4   5
ATOM      5  N   UNL     1      -2.838  -2.978   4.282  1.00  0.00    -0.355 N 
ATOM      6  C   UNL     1      -2.108  -1.901   3.831  1.00  0.00     0.230 C 
ATOM      7  O   UNL     1      -0.880  -1.909   3.881  1.00  0.00    -0.274 OA
ATOM      8  H   UNL     1      -3.440  -3.455   3.667  1.00  0.00     0.163 HD
BRANCH   6   9
ATOM      9  C   UNL     1      -2.901  -0.697   3.308  1.00  0.00     0.137 C 
ATOM     10  C   UNL     1      -2.873  -0.559   1.758  1.00  0.00     0.138 C 
ATOM     11  N   UNL     1      -3.896  -1.443   1.174  1.00  0.00    -0.300 N 
ATOM     12  C   UNL     1      -4.355  -0.624   3.801  1.00  0.00    -0.020 A 
ATOM     13  C   UNL     1      -5.185  -0.935   1.429  1.00  0.00     0.259 C 
ATOM     14  C   UNL     1      -4.639  -0.502   5.171  1.00  0.00     0.005 A 
ATOM     15  C   UNL     1      -5.431  -0.680   2.889  1.00  0.00     0.044 A 
ATOM     16  O   UNL     1      -6.077  -0.828   0.598  1.00  0.00    -0.269 OA
ATOM     17  C   UNL     1      -5.961  -0.489   5.620  1.00  0.00     0.000 A 
ATOM     18  C   UNL     1      -6.753  -0.621   3.342  1.00  0.00     0.014 A 
ATOM     19  C   UNL     1      -7.015  -0.542   4.709  1.00  0.00     0.001 A 
BRANCH  10  20
ATOM     20  C   UNL     1      -1.538  -0.292   1.071  1.00  0.00    -0.024 A 
ATOM     21  C   UNL     1       2.484   0.382  -0.389  1.00  0.00     0.044 C 
ATOM     22  C   UNL     1       1.052   0.230   0.026  1.00  0.00    -0.051 A 
ATOM     23  C   UNL     1       0.228  -0.743  -0.547  1.00  0.00     0.004 A 
ATOM     24  C   UNL     1       0.537   1.019   1.053  1.00  0.00     0.004 A 
ATOM     25  C   UNL     1      -1.071  -0.959  -0.065  1.00  0.00     0.006 A 
ATOM     26  C   UNL     1      -0.735   0.758   1.566  1.00  0.00     0.006 A 
ENDBRANCH  10  20
BRANCH  11  27
ATOM     27  C   UNL     1      -3.782  -2.887   1.118  1.00  0.00     0.045 A 
ATOM     28  C   UNL     1      -4.949  -3.680   1.162  1.00  0.00     0.026 A 
ATOM     29  C   UNL     1      -2.561  -3.572   1.151  1.00  0.00     0.026 A 
ATOM     30  C   UNL     1      -4.899  -5.069   1.313  1.00  0.00     0.002 A 
ATOM     31  C   UNL     1      -2.507  -4.970   1.256  1.00  0.00     0.002 A 
ATOM     32  C   UNL     1      -3.674  -5.715   1.362  1.00  0.00     0.000 A 
ENDBRANCH  11  27
ENDBRANCH   6   9
ENDBRANCH   4   5
ENDBRANCH   3   4
ENDBRANCH   2   3
ENDBRANCH   1   2
BRANCH   1  33
ATOM     33  C   UNL     1      -2.449  -5.822   8.223  1.00  0.00     0.021 C 
BRANCH  33  34
ATOM     34  C   UNL     1      -3.510  -6.226   9.242  1.00  0.00     0.116 C 
BRANCH  34  35
ATOM     35  N   UNL     1      -3.175  -7.419   9.992  1.00  0.00    -0.352 N 
ATOM     36  C   UNL     1      -3.882  -8.096  10.989  1.00  0.00     0.251 C 
ATOM     37  H   UNL     1      -2.305  -7.819   9.762  1.00  0.00     0.163 HD
ATOM     38  O   UNL     1      -3.361  -9.047  11.542  1.00  0.00    -0.269 OA
BRANCH  36  39
ATOM     39  C   UNL     1      -5.303  -7.763  11.260  1.00  0.00     0.039 A 
ATOM     40  C   UNL     1      -6.172  -8.831  11.532  1.00  0.00     0.014 A 
ATOM     41  C   UNL     1      -5.826  -6.493  11.052  1.00  0.00     0.014 A 
ATOM     42  C   UNL     1      -7.540  -8.682  11.314  1.00  0.00     0.010 A 
ATOM     43  C   UNL     1      -7.162  -6.361  10.736  1.00  0.00     0.010 A 
ATOM     44  C   UNL     1      -8.000  -7.476  10.793  1.00  0.00    -0.014 A 
BRANCH  44  45
ATOM     45  C   UNL     1      -9.290  -7.326  10.137  1.00  0.00     0.031 A 
ATOM     46  C   UNL     1     -10.389  -6.588  10.785  1.00  0.00     0.074 A 
ATOM     47  C   UNL     1      -9.420  -7.761   8.864  1.00  0.00     0.049 A 
ATOM     48  N   UNL     1     -11.634  -6.746  10.490  1.00  0.00    -0.248 NA
ATOM     49  C   UNL     1     -10.167  -5.620  11.851  1.00  0.00     0.031 C 
ATOM     50  C   UNL     1     -10.484  -7.439   7.919  1.00  0.00     0.029 A 
ATOM     51  N   UNL     1      -8.676  -8.761   8.225  1.00  0.00    -0.354 N 
ATOM     52  C   UNL     1     -12.341  -5.738  11.102  1.00  0.00     0.074 A 
ATOM     53  C   UNL     1     -11.392  -5.101  11.987  1.00  0.00     0.031 C 
ATOM     54  C   UNL     1     -10.509  -8.377   6.958  1.00  0.00     0.029 A 
ATOM     55  C   UNL     1      -9.562  -9.410   7.341  1.00  0.00     0.049 A 
ATOM     56  H   UNL     1      -7.723  -8.969   8.364  1.00  0.00     0.167 HD
ATOM     57  C   UNL     1     -13.614  -5.468  10.689  1.00  0.00     0.037 A 
ATOM     58  C   UNL     1      -9.875 -10.729   7.494  1.00  0.00     0.037 A 
ATOM     59  C   UNL     1     -14.027  -6.385   9.629  1.00  0.00     0.049 A 
ATOM     60  C   UNL     1     -11.346 -10.981   7.724  1.00  0.00     0.074 A 
ATOM     61  C   UNL     1     -14.034  -6.265   8.248  1.00  0.00     0.029 A 
ATOM     62  N   UNL     1     -14.210  -7.734   9.908  1.00  0.00    -0.354 N 
ATOM     63  N   UNL     1     -12.178 -10.079   8.165  1.00  0.00    -0.248 NA
ATOM     64  C   UNL     1     -11.992 -12.268   7.487  1.00  0.00     0.031 C 
ATOM     65  C   UNL     1     -14.184  -7.558   7.694  1.00  0.00     0.029 A 
ATOM     66  C   UNL     1     -14.285  -8.462   8.736  1.00  0.00     0.049 A 
ATOM     67  H   UNL     1     -14.277  -8.117  10.813  1.00  0.00     0.167 HD
ATOM     68  C   UNL     1     -13.429 -10.629   8.286  1.00  0.00     0.074 A 
ATOM     69  C   UNL     1     -13.263 -11.996   7.833  1.00  0.00     0.031 C 
ATOM     70  C   UNL     1     -14.489  -9.903   8.754  1.00  0.00     0.037 A 
BRANCH  57  71
ATOM     71  C   UNL     1     -14.353  -4.192  11.024  1.00  0.00     0.057 A 
ATOM     72  C   UNL     1     -15.270  -3.623  10.117  1.00  0.00     0.134 A 
ATOM     73  C   UNL     1     -14.172  -3.448  12.202  1.00  0.00     0.134 A 
ATOM     74  F   UNL     1     -15.648  -4.258   9.001  1.00  0.00    -0.206 F 
ATOM     75  C   UNL     1     -15.853  -2.363  10.307  1.00  0.00     0.040 A 
ATOM     76  C   UNL     1     -14.706  -2.163  12.384  1.00  0.00     0.040 A 
ATOM     77  F   UNL     1     -13.514  -3.954  13.254  1.00  0.00    -0.206 F 
ATOM     78  C   UNL     1     -15.538  -1.607  11.424  1.00  0.00     0.006 A 
ENDBRANCH  57  71
BRANCH  58  79
ATOM     79  C   UNL     1      -8.768 -11.532   8.075  1.00  0.00     0.057 A 
ATOM     80  C   UNL     1      -7.601 -11.711   7.312  1.00  0.00     0.134 A 
ATOM     81  C   UNL     1      -8.674 -11.768   9.449  1.00  0.00     0.134 A 
ATOM     82  F   UNL     1      -7.624 -11.499   5.986  1.00  0.00    -0.206 F 
ATOM     83  C   UNL     1      -6.369 -11.998   7.904  1.00  0.00     0.040 A 
ATOM     84  C   UNL     1      -7.446 -12.065  10.052  1.00  0.00     0.040 A 
ATOM     85  F   UNL     1      -9.739 -11.597  10.246  1.00  0.00    -0.206 F 
ATOM     86  C   UNL     1      -6.283 -12.140   9.285  1.00  0.00     0.006 A 
ENDBRANCH  58  79
BRANCH  70  87
ATOM     87  C   UNL     1     -15.841 -10.440   9.167  1.00  0.00     0.057 A 
ATOM     88  C   UNL     1     -16.080 -11.756   9.590  1.00  0.00     0.134 A 
ATOM     89  C   UNL     1     -16.952  -9.570   9.290  1.00  0.00     0.134 A 
ATOM     90  F   UNL     1     -15.101 -12.667   9.644  1.00  0.00    -0.206 F 
ATOM     91  C   UNL     1     -17.336 -12.188  10.041  1.00  0.00     0.040 A 
ATOM     92  C   UNL     1     -18.192  -9.976   9.792  1.00  0.00     0.040 A 
ATOM     93  F   UNL     1     -16.877  -8.273   8.955  1.00  0.00    -0.206 F 
ATOM     94  C   UNL     1     -18.394 -11.296  10.156  1.00  0.00     0.006 A 
ENDBRANCH  70  87
ENDBRANCH  44  45
ENDBRANCH  36  39
ENDBRANCH  34  35
ENDBRANCH  33  34
ENDBRANCH   1  33
TORSDOF 15
