REMARK SMILES Cc1cccc(O[C@H](C)C(=O)NNC(=O)[C@H]2[C@@H]3CC[C@@H](C3)[C@@H]2C(=O)NCCCCCCNC(=O)c2ccc(-c3c4nc(c(-c5c(F)cccc5F)c5ccc([nH]5)c(-c5c(F)cccc5F)c5nc(c(-c6c(F)cccc6F)c6ccc3[nH]6)C=C5)C=C4)cc2)c1
REMARK SMILES IDX 27 1 26 2 25 3 23 4 24 5 22 7 16 8 17 9 18 10 21 11 20 12
REMARK SMILES IDX 19 13 14 14 13 15 15 17 12 18 10 19 11 20 8 22 9 23 7 24
REMARK SMILES IDX 6 25 1 26 2 27 3 28 89 29 4 30 5 31 28 32 29 33 30 34 31 35
REMARK SMILES IDX 32 36 33 37 34 39 35 40 36 41 88 42 37 43 87 44 38 45 39 46
REMARK SMILES IDX 40 47 81 48 41 49 86 50 80 51 82 52 42 53 85 54 79 55 78 56
REMARK SMILES IDX 43 58 69 59 52 60 68 61 53 62 56 63 67 64 83 65 54 66 55 67
REMARK SMILES IDX 66 69 84 70 57 71 44 72 45 73 50 74 46 75 47 76 49 77 51 78
REMARK SMILES IDX 48 79 70 80 71 81 76 82 72 83 73 84 75 85 77 86 74 87 58 88
REMARK SMILES IDX 59 89 64 90 60 91 61 92 63 93 65 94 62 95
REMARK H PARENT 25 6 13 16 12 21 32 38 82 57 56 68
REMARK Flexibility Score: inf
ROOT
ATOM      1  C   UNL     1       3.598   6.089  -1.986  1.00  0.00     0.021 C 
ENDROOT
BRANCH   1   2
ATOM      2  C   UNL     1       3.747   5.062  -3.108  1.00  0.00     0.116 C 
BRANCH   2   3
ATOM      3  N   UNL     1       4.753   4.059  -2.810  1.00  0.00    -0.356 N 
ATOM      4  C   UNL     1       4.611   2.707  -2.680  1.00  0.00     0.224 C 
ATOM      5  O   UNL     1       5.601   2.025  -2.429  1.00  0.00    -0.275 OA
ATOM      6  H   UNL     1       5.667   4.403  -2.683  1.00  0.00     0.163 HD
BRANCH   4   7
ATOM      7  C   UNL     1       3.222   2.123  -2.873  1.00  0.00     0.094 C 
ATOM      8  C   UNL     1       2.992   0.754  -2.222  1.00  0.00     0.096 C 
ATOM      9  C   UNL     1       2.402  -0.095  -3.376  1.00  0.00     0.002 C 
ATOM     10  C   UNL     1       3.562  -0.460  -4.327  1.00  0.00     0.005 C 
ATOM     11  C   UNL     1       1.658   0.920  -4.241  1.00  0.00     0.009 C 
ATOM     12  C   UNL     1       2.868   1.852  -4.359  1.00  0.00     0.002 C 
ATOM     13  C   UNL     1       3.884   0.885  -5.003  1.00  0.00     0.005 C 
BRANCH   8  14
ATOM     14  C   UNL     1       2.182   0.711  -0.927  1.00  0.00     0.242 C 
ATOM     15  N   UNL     1       1.121   1.511  -0.616  1.00  0.00    -0.267 N 
ATOM     16  H   UNL     1       0.771   1.405   0.298  1.00  0.00     0.191 HD
ATOM     17  O   UNL     1       2.481  -0.144  -0.082  1.00  0.00    -0.273 OA
BRANCH  15  18
ATOM     18  N   UNL     1       0.469   2.441  -1.386  1.00  0.00    -0.264 N 
ATOM     19  C   UNL     1      -0.430   3.387  -1.005  1.00  0.00     0.279 C 
ATOM     20  O   UNL     1      -0.673   4.249  -1.868  1.00  0.00    -0.269 OA
ATOM     21  H   UNL     1       0.681   2.421  -2.347  1.00  0.00     0.191 HD
BRANCH  19  22
ATOM     22  C   UNL     1      -1.233   3.406   0.327  1.00  0.00     0.260 C 
ATOM     23  C   UNL     1      -2.635   2.816   0.125  1.00  0.00     0.064 C 
BRANCH  22  24
ATOM     24  O   UNL     1      -0.708   3.299   1.631  1.00  0.00    -0.481 OA
BRANCH  24  25
ATOM     25  C   UNL     1      -0.272   2.163   2.225  1.00  0.00     0.120 A 
ATOM     26  C   UNL     1       2.366   1.580   4.922  1.00  0.00     0.044 C 
ATOM     27  C   UNL     1       1.315   1.328   3.882  1.00  0.00    -0.047 A 
ATOM     28  C   UNL     1       0.978   0.021   3.528  1.00  0.00     0.003 A 
ATOM     29  C   UNL     1       0.678   2.390   3.229  1.00  0.00     0.049 A 
ATOM     30  C   UNL     1       0.001  -0.214   2.563  1.00  0.00     0.004 A 
ATOM     31  C   UNL     1      -0.636   0.854   1.925  1.00  0.00     0.046 A 
ENDBRANCH  24  25
ENDBRANCH  22  24
ENDBRANCH  19  22
ENDBRANCH  15  18
ENDBRANCH   8  14
ENDBRANCH   4   7
ENDBRANCH   2   3
ENDBRANCH   1   2
BRANCH   1  32
ATOM     32  C   UNL     1       4.807   7.011  -1.774  1.00  0.00     0.002 C 
BRANCH  32  33
ATOM     33  C   UNL     1       5.419   7.634  -3.039  1.00  0.00     0.002 C 
BRANCH  33  34
ATOM     34  C   UNL     1       4.435   8.297  -4.005  1.00  0.00     0.021 C 
BRANCH  34  35
ATOM     35  C   UNL     1       3.845   9.604  -3.500  1.00  0.00     0.116 C 
BRANCH  35  36
ATOM     36  N   UNL     1       4.539  10.787  -3.985  1.00  0.00    -0.352 N 
ATOM     37  C   UNL     1       4.338  12.126  -3.671  1.00  0.00     0.251 C 
ATOM     38  H   UNL     1       5.259  10.614  -4.634  1.00  0.00     0.163 HD
ATOM     39  O   UNL     1       5.003  12.984  -4.196  1.00  0.00    -0.269 OA
BRANCH  37  40
ATOM     40  C   UNL     1       3.397  12.469  -2.570  1.00  0.00     0.039 A 
ATOM     41  C   UNL     1       3.858  13.355  -1.590  1.00  0.00     0.014 A 
ATOM     42  C   UNL     1       2.209  11.769  -2.378  1.00  0.00     0.014 A 
ATOM     43  C   UNL     1       3.284  13.328  -0.323  1.00  0.00     0.010 A 
ATOM     44  C   UNL     1       1.701  11.664  -1.099  1.00  0.00     0.010 A 
ATOM     45  C   UNL     1       2.294  12.385  -0.057  1.00  0.00    -0.014 A 
BRANCH  45  46
ATOM     46  C   UNL     1       1.948  11.968   1.297  1.00  0.00     0.031 A 
ATOM     47  C   UNL     1       0.659  12.348   1.906  1.00  0.00     0.074 A 
ATOM     48  C   UNL     1       2.792  11.146   1.960  1.00  0.00     0.049 A 
ATOM     49  N   UNL     1       0.443  12.397   3.178  1.00  0.00    -0.248 NA
ATOM     50  C   UNL     1      -0.496  12.743   1.111  1.00  0.00     0.031 C 
ATOM     51  C   UNL     1       2.520  10.389   3.178  1.00  0.00     0.029 A 
ATOM     52  N   UNL     1       4.171  10.991   1.753  1.00  0.00    -0.354 N 
ATOM     53  C   UNL     1      -0.912  12.549   3.369  1.00  0.00     0.074 A 
ATOM     54  C   UNL     1      -1.441  12.825   2.052  1.00  0.00     0.031 C 
ATOM     55  C   UNL     1       3.686  10.088   3.769  1.00  0.00     0.029 A 
ATOM     56  C   UNL     1       4.735  10.766   3.027  1.00  0.00     0.049 A 
ATOM     57  H   UNL     1       4.649  11.032   0.893  1.00  0.00     0.167 HD
ATOM     58  C   UNL     1      -1.450  12.284   4.596  1.00  0.00     0.037 A 
ATOM     59  C   UNL     1       5.635  11.636   3.570  1.00  0.00     0.037 A 
ATOM     60  C   UNL     1      -0.413  11.945   5.568  1.00  0.00     0.049 A 
ATOM     61  C   UNL     1       5.189  12.251   4.876  1.00  0.00     0.074 A 
ATOM     62  C   UNL     1       0.069  10.732   6.035  1.00  0.00     0.029 A 
ATOM     63  N   UNL     1       0.501  12.911   5.972  1.00  0.00    -0.354 N 
ATOM     64  N   UNL     1       3.956  12.244   5.298  1.00  0.00    -0.248 NA
ATOM     65  C   UNL     1       6.086  12.953   5.792  1.00  0.00     0.031 C 
ATOM     66  C   UNL     1       1.309  10.966   6.675  1.00  0.00     0.029 A 
ATOM     67  C   UNL     1       1.573  12.322   6.615  1.00  0.00     0.049 A 
ATOM     68  H   UNL     1       0.399  13.879   5.822  1.00  0.00     0.167 HD
ATOM     69  C   UNL     1       3.870  12.935   6.477  1.00  0.00     0.074 A 
ATOM     70  C   UNL     1       5.234  13.339   6.759  1.00  0.00     0.031 C 
ATOM     71  C   UNL     1       2.677  13.127   7.113  1.00  0.00     0.037 A 
BRANCH  58  72
ATOM     72  C   UNL     1      -2.925  12.021   4.821  1.00  0.00     0.057 A 
ATOM     73  C   UNL     1      -3.359  11.118   5.814  1.00  0.00     0.134 A 
ATOM     74  C   UNL     1      -3.965  12.571   4.053  1.00  0.00     0.134 A 
ATOM     75  F   UNL     1      -2.518  10.606   6.721  1.00  0.00    -0.206 F 
ATOM     76  C   UNL     1      -4.689  10.690   5.931  1.00  0.00     0.040 A 
ATOM     77  C   UNL     1      -5.290  12.114   4.122  1.00  0.00     0.040 A 
ATOM     78  F   UNL     1      -3.757  13.617   3.244  1.00  0.00    -0.206 F 
ATOM     79  C   UNL     1      -5.653  11.152   5.052  1.00  0.00     0.006 A 
ENDBRANCH  58  72
BRANCH  59  80
ATOM     80  C   UNL     1       6.499  12.300   2.563  1.00  0.00     0.057 A 
ATOM     81  C   UNL     1       7.429  11.519   1.857  1.00  0.00     0.134 A 
ATOM     82  C   UNL     1       6.178  13.550   2.026  1.00  0.00     0.134 A 
ATOM     83  F   UNL     1       7.779  10.307   2.319  1.00  0.00    -0.206 F 
ATOM     84  C   UNL     1       7.937  11.914   0.617  1.00  0.00     0.040 A 
ATOM     85  C   UNL     1       6.686  13.960   0.787  1.00  0.00     0.040 A 
ATOM     86  F   UNL     1       5.280  14.341   2.629  1.00  0.00    -0.206 F 
ATOM     87  C   UNL     1       7.537  13.126   0.063  1.00  0.00     0.006 A 
ENDBRANCH  59  80
BRANCH  71  88
ATOM     88  C   UNL     1       2.441  14.021   8.301  1.00  0.00     0.057 A 
ATOM     89  C   UNL     1       3.137  15.214   8.538  1.00  0.00     0.134 A 
ATOM     90  C   UNL     1       1.364  13.767   9.180  1.00  0.00     0.134 A 
ATOM     91  F   UNL     1       4.117  15.626   7.722  1.00  0.00    -0.206 F 
ATOM     92  C   UNL     1       2.815  16.072   9.599  1.00  0.00     0.040 A 
ATOM     93  C   UNL     1       1.003  14.639  10.210  1.00  0.00     0.040 A 
ATOM     94  F   UNL     1       0.603  12.669   9.060  1.00  0.00    -0.206 F 
ATOM     95  C   UNL     1       1.738  15.793  10.431  1.00  0.00     0.006 A 
ENDBRANCH  71  88
ENDBRANCH  45  46
ENDBRANCH  37  40
ENDBRANCH  35  36
ENDBRANCH  34  35
ENDBRANCH  33  34
ENDBRANCH  32  33
ENDBRANCH   1  32
TORSDOF 18
