REMARK SMILES Cc1cccc(NC(=O)C[C@H]([NH2+]C(C)C)C(=O)NCCCCCCNC(=O)c2ccc(-c3c4nc(c(-c5c(F)cccc5F)c5ccc([nH]5)c(-c5c(F)cccc5F)c5nc(c(-c6c(F)cccc6F)c6ccc3[nH]6)C=C5)C=C4)cc2)c1
REMARK SMILES IDX 21 1 20 2 19 3 18 4 16 5 17 6 11 8 10 9 8 10 7 11 9 13 6 14
REMARK SMILES IDX 1 15 2 16 3 17 82 18 4 19 5 20 12 21 13 24 14 25 15 26 22 27
REMARK SMILES IDX 23 28 24 29 25 30 26 31 27 33 28 34 29 35 81 36 30 37 80 38
REMARK SMILES IDX 31 39 32 40 33 41 74 42 34 43 79 44 73 45 75 46 35 47 78 48
REMARK SMILES IDX 72 49 71 50 36 52 62 53 45 54 61 55 46 56 49 57 60 58 76 59
REMARK SMILES IDX 47 60 48 61 59 63 77 64 50 65 37 66 38 67 43 68 39 69 40 70
REMARK SMILES IDX 42 71 44 72 41 73 63 74 64 75 69 76 65 77 66 78 68 79 70 80
REMARK SMILES IDX 67 81 51 82 52 83 57 84 53 85 54 86 56 87 58 88 55 89
REMARK H PARENT 18 7 7 12 12 22 12 23 25 32 75 51 49 62
REMARK Flexibility Score: inf
ROOT
ATOM      1  C   UNL     1      -4.102  -3.791   3.734  1.00  0.00     0.002 C 
ENDROOT
BRANCH   1   2
ATOM      2  C   UNL     1      -3.611  -2.415   3.280  1.00  0.00     0.021 C 
BRANCH   2   3
ATOM      3  C   UNL     1      -3.216  -2.332   1.596  1.00  0.00     0.116 C 
BRANCH   3   4
ATOM      4  N   UNL     1      -4.324  -1.692  -0.038  1.00  0.00    -0.351 N 
ATOM      5  C   UNL     1      -4.582  -0.931  -1.184  1.00  0.00     0.278 C 
ATOM      6  O   UNL     1      -5.466  -1.443  -1.901  1.00  0.00    -0.268 OA
ATOM      7  H   UNL     1      -5.139  -2.239   0.036  1.00  0.00     0.163 HD
BRANCH   5   8
ATOM      8  C   UNL     1      -4.025   0.435  -1.634  1.00  0.00     0.282 C 
BRANCH   8   9
ATOM      9  C   UNL     1      -2.519   0.521  -1.999  1.00  0.00     0.175 C 
BRANCH   9  10
ATOM     10  C   UNL     1      -1.777  -0.763  -2.390  1.00  0.00     0.230 C 
ATOM     11  N   UNL     1      -1.653  -1.830  -1.542  1.00  0.00    -0.326 N 
ATOM     12  H   UNL     1      -1.020  -2.541  -1.793  1.00  0.00     0.169 HD
ATOM     13  O   UNL     1      -1.244  -0.854  -3.501  1.00  0.00    -0.274 OA
BRANCH  11  14
ATOM     14  C   UNL     1      -2.358  -1.984  -0.347  1.00  0.00     0.041 A 
ATOM     15  C   UNL     1      -5.754  -4.707   0.817  1.00  0.00     0.044 C 
ATOM     16  C   UNL     1      -4.837  -3.522   0.810  1.00  0.00    -0.049 A 
ATOM     17  C   UNL     1      -5.344  -2.009   1.676  1.00  0.00     0.003 A 
ATOM     18  C   UNL     1      -3.371  -3.489  -0.256  1.00  0.00     0.029 A 
ATOM     19  C   UNL     1      -4.286  -0.529   1.631  1.00  0.00     0.002 A 
ATOM     20  C   UNL     1      -2.790  -0.506   0.625  1.00  0.00     0.026 A 
ENDBRANCH  11  14
ENDBRANCH   9  10
ENDBRANCH   8   9
BRANCH   8  21
ATOM     21  N   UNL     1      -4.543   1.576  -0.787  1.00  0.00    -0.334 N 
ATOM     22  H   UNL     1      -4.620   2.399  -1.383  1.00  0.00     0.347 HD
ATOM     23  H   UNL     1      -3.876   1.678  -0.022  1.00  0.00     0.347 HD
BRANCH  21  24
ATOM     24  C   UNL     1      -5.861   1.356  -0.143  1.00  0.00     0.176 C 
ATOM     25  C   UNL     1      -6.015   2.294   1.063  1.00  0.00     0.075 C 
ATOM     26  C   UNL     1      -7.096   1.402  -1.033  1.00  0.00     0.075 C 
ENDBRANCH  21  24
ENDBRANCH   8  21
ENDBRANCH   5   8
ENDBRANCH   3   4
ENDBRANCH   2   3
ENDBRANCH   1   2
BRANCH   1  27
ATOM     27  C   UNL     1      -3.171  -4.942   3.357  1.00  0.00     0.002 C 
BRANCH  27  28
ATOM     28  C   UNL     1      -1.711  -4.785   3.817  1.00  0.00     0.021 C 
BRANCH  28  29
ATOM     29  C   UNL     1      -1.516  -4.794   5.327  1.00  0.00     0.116 C 
BRANCH  29  30
ATOM     30  N   UNL     1      -2.331  -5.842   5.932  1.00  0.00    -0.352 N 
ATOM     31  C   UNL     1      -2.636  -6.094   7.243  1.00  0.00     0.251 C 
ATOM     32  H   UNL     1      -2.729  -6.473   5.290  1.00  0.00     0.163 HD
ATOM     33  O   UNL     1      -2.576  -7.241   7.678  1.00  0.00    -0.269 OA
BRANCH  31  34
ATOM     34  C   UNL     1      -3.400  -5.069   7.980  1.00  0.00     0.039 A 
ATOM     35  C   UNL     1      -4.086  -5.425   9.153  1.00  0.00     0.014 A 
ATOM     36  C   UNL     1      -3.707  -3.884   7.332  1.00  0.00     0.014 A 
ATOM     37  C   UNL     1      -5.174  -4.662   9.562  1.00  0.00     0.010 A 
ATOM     38  C   UNL     1      -4.785  -3.156   7.691  1.00  0.00     0.010 A 
ATOM     39  C   UNL     1      -5.545  -3.589   8.760  1.00  0.00    -0.014 A 
BRANCH  39  40
ATOM     40  C   UNL     1      -6.643  -2.687   8.968  1.00  0.00     0.031 A 
ATOM     41  C   UNL     1      -6.375  -1.659   9.971  1.00  0.00     0.074 A 
ATOM     42  C   UNL     1      -7.603  -2.727   8.018  1.00  0.00     0.049 A 
ATOM     43  N   UNL     1      -7.215  -1.232  10.836  1.00  0.00    -0.248 NA
ATOM     44  C   UNL     1      -5.027  -1.104  10.167  1.00  0.00     0.031 C 
ATOM     45  C   UNL     1      -8.664  -1.798   7.677  1.00  0.00     0.029 A 
ATOM     46  N   UNL     1      -7.848  -3.821   7.175  1.00  0.00    -0.354 N 
ATOM     47  C   UNL     1      -6.674  -0.053  11.305  1.00  0.00     0.074 A 
ATOM     48  C   UNL     1      -5.256  -0.179  11.102  1.00  0.00     0.031 C 
ATOM     49  C   UNL     1      -9.629  -2.476   7.018  1.00  0.00     0.029 A 
ATOM     50  C   UNL     1      -9.237  -3.880   6.980  1.00  0.00     0.049 A 
ATOM     51  H   UNL     1      -7.175  -4.430   6.794  1.00  0.00     0.167 HD
ATOM     52  C   UNL     1      -7.509   1.011  11.480  1.00  0.00     0.037 A 
ATOM     53  C   UNL     1      -9.910  -4.919   7.565  1.00  0.00     0.037 A 
ATOM     54  C   UNL     1      -8.853   0.631  11.022  1.00  0.00     0.049 A 
ATOM     55  C   UNL     1     -10.693  -4.428   8.760  1.00  0.00     0.074 A 
ATOM     56  C   UNL     1      -9.529   0.881   9.838  1.00  0.00     0.029 A 
ATOM     57  N   UNL     1      -9.501  -0.441  11.623  1.00  0.00    -0.354 N 
ATOM     58  N   UNL     1     -10.367  -3.379   9.468  1.00  0.00    -0.248 NA
ATOM     59  C   UNL     1     -11.954  -5.026   9.184  1.00  0.00     0.031 C 
ATOM     60  C   UNL     1     -10.562  -0.088   9.714  1.00  0.00     0.029 A 
ATOM     61  C   UNL     1     -10.504  -0.931  10.811  1.00  0.00     0.049 A 
ATOM     62  H   UNL     1      -9.275  -0.802  12.511  1.00  0.00     0.167 HD
ATOM     63  C   UNL     1     -11.349  -3.130  10.390  1.00  0.00     0.074 A 
ATOM     64  C   UNL     1     -12.316  -4.191  10.172  1.00  0.00     0.031 C 
ATOM     65  C   UNL     1     -11.311  -2.063  11.244  1.00  0.00     0.037 A 
BRANCH  52  66
ATOM     66  C   UNL     1      -7.106   2.450  11.719  1.00  0.00     0.057 A 
ATOM     67  C   UNL     1      -8.056   3.481  11.555  1.00  0.00     0.134 A 
ATOM     68  C   UNL     1      -5.840   2.903  12.134  1.00  0.00     0.134 A 
ATOM     69  F   UNL     1      -9.331   3.221  11.238  1.00  0.00    -0.206 F 
ATOM     70  C   UNL     1      -7.758   4.838  11.730  1.00  0.00     0.040 A 
ATOM     71  C   UNL     1      -5.521   4.261  12.290  1.00  0.00     0.040 A 
ATOM     72  F   UNL     1      -4.854   2.066  12.470  1.00  0.00    -0.206 F 
ATOM     73  C   UNL     1      -6.482   5.236  12.088  1.00  0.00     0.006 A 
ENDBRANCH  52  66
BRANCH  53  74
ATOM     74  C   UNL     1      -9.108  -6.187   7.481  1.00  0.00     0.057 A 
ATOM     75  C   UNL     1      -8.840  -6.682   6.186  1.00  0.00     0.134 A 
ATOM     76  C   UNL     1      -8.214  -6.561   8.491  1.00  0.00     0.134 A 
ATOM     77  F   UNL     1      -9.674  -6.395   5.173  1.00  0.00    -0.206 F 
ATOM     78  C   UNL     1      -7.639  -7.326   5.871  1.00  0.00     0.040 A 
ATOM     79  C   UNL     1      -7.020  -7.232   8.188  1.00  0.00     0.040 A 
ATOM     80  F   UNL     1      -8.402  -6.158   9.756  1.00  0.00    -0.206 F 
ATOM     81  C   UNL     1      -6.699  -7.554   6.869  1.00  0.00     0.006 A 
ENDBRANCH  53  74
BRANCH  65  82
ATOM     82  C   UNL     1     -12.109  -1.937  12.523  1.00  0.00     0.057 A 
ATOM     83  C   UNL     1     -12.696  -3.019  13.193  1.00  0.00     0.134 A 
ATOM     84  C   UNL     1     -12.182  -0.705  13.220  1.00  0.00     0.134 A 
ATOM     85  F   UNL     1     -12.575  -4.277  12.751  1.00  0.00    -0.206 F 
ATOM     86  C   UNL     1     -13.394  -2.871  14.397  1.00  0.00     0.040 A 
ATOM     87  C   UNL     1     -12.797  -0.565  14.464  1.00  0.00     0.040 A 
ATOM     88  F   UNL     1     -11.636   0.424  12.745  1.00  0.00    -0.206 F 
ATOM     89  C   UNL     1     -13.438  -1.644  15.042  1.00  0.00     0.006 A 
ENDBRANCH  65  82
ENDBRANCH  39  40
ENDBRANCH  31  34
ENDBRANCH  29  30
ENDBRANCH  28  29
ENDBRANCH  27  28
ENDBRANCH   1  27
TORSDOF 18
