REMARK SMILES CC1(C)S[C@@H](c2cccc3c2sc2ccccc23)[NH2+][C@@H]1C(=O)NCCCCCCNC(=O)c1ccc(-c2c3nc(c(-c4c(F)cccc4F)c4ccc([nH]4)c(-c4c(F)cccc4F)c4nc(c(-c5c(F)cccc5F)c5ccc2[nH]5)C=C4)C=C3)cc1
REMARK SMILES IDX 27 1 26 2 25 3 24 4 23 5 21 6 22 7 20 9 1 10 2 11 3 12 4 13
REMARK SMILES IDX 5 14 19 15 6 18 7 19 11 20 8 21 10 22 12 23 9 24 18 25 13 26
REMARK SMILES IDX 17 27 14 28 16 29 15 30 28 31 29 32 30 33 31 34 32 36 33 37
REMARK SMILES IDX 34 38 86 39 35 40 85 41 36 42 37 43 38 44 79 45 39 46 84 47
REMARK SMILES IDX 78 48 80 49 40 50 83 51 77 52 76 53 41 55 67 56 50 57 66 58
REMARK SMILES IDX 51 59 54 60 65 61 81 62 52 63 53 64 64 66 82 67 55 68 42 69
REMARK SMILES IDX 43 70 48 71 44 72 45 73 47 74 49 75 46 76 68 77 69 78 74 79
REMARK SMILES IDX 70 80 71 81 73 82 75 83 72 84 56 85 57 86 62 87 58 88 59 89
REMARK SMILES IDX 61 90 63 91 60 92
REMARK H PARENT 23 8 19 16 19 17 30 35 80 54 54 65
REMARK Flexibility Score: inf
ROOT
ATOM      1  C   UNL     1      -4.389   2.135  -4.471  1.00  0.00     0.002 C 
ENDROOT
BRANCH   1   2
ATOM      2  C   UNL     1      -3.354   3.246  -4.281  1.00  0.00     0.002 C 
BRANCH   2   3
ATOM      3  C   UNL     1      -2.963   3.565  -2.834  1.00  0.00     0.021 C 
BRANCH   3   4
ATOM      4  C   UNL     1      -2.457   2.392  -1.997  1.00  0.00     0.116 C 
BRANCH   4   5
ATOM      5  N   UNL     1      -1.326   1.723  -2.607  1.00  0.00    -0.351 N 
ATOM      6  C   UNL     1      -0.249   1.103  -2.042  1.00  0.00     0.279 C 
ATOM      7  O   UNL     1       0.548   0.605  -2.840  1.00  0.00    -0.268 OA
ATOM      8  H   UNL     1      -1.335   1.714  -3.591  1.00  0.00     0.163 HD
BRANCH   6   9
ATOM      9  C   UNL     1       0.007   1.154  -0.506  1.00  0.00     0.289 C 
ATOM     10  C   UNL     1       1.579   0.623   1.433  1.00  0.00     0.030 C 
ATOM     11  C   UNL     1       1.029   0.133   0.076  1.00  0.00     0.077 C 
ATOM     12  C   UNL     1       2.224  -0.246  -0.801  1.00  0.00     0.030 C 
ATOM     13  S   UNL     1       0.007  -1.351   0.410  1.00  0.00    -0.081 SA
ATOM     14  C   UNL     1      -1.568  -0.459   0.257  1.00  0.00     0.276 C 
ATOM     15  N   UNL     1      -1.260   0.976   0.264  1.00  0.00    -0.320 N 
ATOM     16  H   UNL     1      -1.136   1.302   1.223  1.00  0.00     0.348 HD
ATOM     17  H   UNL     1      -2.019   1.513  -0.154  1.00  0.00     0.348 HD
BRANCH  14  18
ATOM     18  C   UNL     1      -2.576  -0.805   1.340  1.00  0.00     0.038 A 
ATOM     19  C   UNL     1      -2.214  -0.722   2.707  1.00  0.00     0.012 A 
ATOM     20  C   UNL     1      -3.924  -1.180   1.062  1.00  0.00     0.046 A 
ATOM     21  C   UNL     1      -3.105  -1.010   3.728  1.00  0.00     0.001 A 
ATOM     22  C   UNL     1      -4.839  -1.490   2.075  1.00  0.00     0.001 A 
ATOM     23  S   UNL     1      -4.680  -1.315  -0.484  1.00  0.00    -0.135 S 
ATOM     24  C   UNL     1      -4.404  -1.398   3.422  1.00  0.00     0.010 A 
ATOM     25  C   UNL     1      -6.137  -1.883   1.554  1.00  0.00     0.000 A 
ATOM     26  C   UNL     1      -6.179  -1.825   0.164  1.00  0.00     0.036 A 
ATOM     27  C   UNL     1      -7.313  -2.300   2.234  1.00  0.00     0.010 A 
ATOM     28  C   UNL     1      -7.343  -2.159  -0.558  1.00  0.00     0.019 A 
ATOM     29  C   UNL     1      -8.468  -2.642   1.524  1.00  0.00     0.001 A 
ATOM     30  C   UNL     1      -8.481  -2.569   0.140  1.00  0.00     0.002 A 
ENDBRANCH  14  18
ENDBRANCH   6   9
ENDBRANCH   4   5
ENDBRANCH   3   4
ENDBRANCH   2   3
ENDBRANCH   1   2
BRANCH   1  31
ATOM     31  C   UNL     1      -5.710   2.315  -3.720  1.00  0.00     0.021 C 
BRANCH  31  32
ATOM     32  C   UNL     1      -6.410   3.655  -3.920  1.00  0.00     0.116 C 
BRANCH  32  33
ATOM     33  N   UNL     1      -6.743   3.926  -5.308  1.00  0.00    -0.352 N 
ATOM     34  C   UNL     1      -7.873   4.489  -5.839  1.00  0.00     0.251 C 
ATOM     35  H   UNL     1      -6.055   3.666  -5.963  1.00  0.00     0.163 HD
ATOM     36  O   UNL     1      -8.013   4.538  -7.062  1.00  0.00    -0.269 OA
BRANCH  34  37
ATOM     37  C   UNL     1      -8.943   5.019  -4.963  1.00  0.00     0.039 A 
ATOM     38  C   UNL     1     -10.274   4.776  -5.319  1.00  0.00     0.014 A 
ATOM     39  C   UNL     1      -8.657   5.784  -3.828  1.00  0.00     0.014 A 
ATOM     40  C   UNL     1     -11.311   5.268  -4.524  1.00  0.00     0.010 A 
ATOM     41  C   UNL     1      -9.691   6.219  -2.999  1.00  0.00     0.010 A 
ATOM     42  C   UNL     1     -11.028   5.981  -3.348  1.00  0.00    -0.014 A 
BRANCH  42  43
ATOM     43  C   UNL     1     -12.128   6.512  -2.503  1.00  0.00     0.031 A 
ATOM     44  C   UNL     1     -12.338   7.997  -2.378  1.00  0.00     0.074 A 
ATOM     45  C   UNL     1     -12.924   5.661  -1.828  1.00  0.00     0.049 A 
ATOM     46  N   UNL     1     -13.242   8.650  -1.692  1.00  0.00    -0.248 NA
ATOM     47  C   UNL     1     -11.392   8.863  -3.099  1.00  0.00     0.031 C 
ATOM     48  C   UNL     1     -12.793   4.204  -1.823  1.00  0.00     0.029 A 
ATOM     49  N   UNL     1     -14.003   5.902  -1.016  1.00  0.00    -0.354 N 
ATOM     50  C   UNL     1     -12.966   9.997  -1.888  1.00  0.00     0.074 A 
ATOM     51  C   UNL     1     -11.781  10.069  -2.714  1.00  0.00     0.031 C 
ATOM     52  C   UNL     1     -13.772   3.678  -1.068  1.00  0.00     0.029 A 
ATOM     53  C   UNL     1     -14.584   4.761  -0.520  1.00  0.00     0.049 A 
ATOM     54  H   UNL     1     -14.330   6.808  -0.808  1.00  0.00     0.167 HD
ATOM     55  C   UNL     1     -13.652  11.077  -1.444  1.00  0.00     0.037 A 
ATOM     56  C   UNL     1     -15.657   4.606   0.278  1.00  0.00     0.037 A 
ATOM     57  C   UNL     1     -14.850  11.007  -0.650  1.00  0.00     0.049 A 
ATOM     58  C   UNL     1     -16.418   5.818   0.735  1.00  0.00     0.074 A 
ATOM     59  C   UNL     1     -15.651  12.043  -0.201  1.00  0.00     0.029 A 
ATOM     60  N   UNL     1     -15.421   9.831  -0.188  1.00  0.00    -0.354 N 
ATOM     61  N   UNL     1     -16.186   7.084   0.484  1.00  0.00    -0.248 NA
ATOM     62  C   UNL     1     -17.600   5.579   1.576  1.00  0.00     0.031 C 
ATOM     63  C   UNL     1     -16.691  11.495   0.559  1.00  0.00     0.029 A 
ATOM     64  C   UNL     1     -16.557  10.116   0.552  1.00  0.00     0.049 A 
ATOM     65  H   UNL     1     -15.072   8.927  -0.361  1.00  0.00     0.167 HD
ATOM     66  C   UNL     1     -17.201   7.789   1.116  1.00  0.00     0.074 A 
ATOM     67  C   UNL     1     -18.062   6.809   1.746  1.00  0.00     0.031 C 
ATOM     68  C   UNL     1     -17.403   9.129   1.172  1.00  0.00     0.037 A 
BRANCH  55  69
ATOM     69  C   UNL     1     -13.122  12.430  -1.818  1.00  0.00     0.057 A 
ATOM     70  C   UNL     1     -13.205  12.917  -3.130  1.00  0.00     0.134 A 
ATOM     71  C   UNL     1     -12.542  13.265  -0.855  1.00  0.00     0.134 A 
ATOM     72  F   UNL     1     -13.737  12.162  -4.102  1.00  0.00    -0.206 F 
ATOM     73  C   UNL     1     -12.706  14.174  -3.475  1.00  0.00     0.040 A 
ATOM     74  C   UNL     1     -12.062  14.534  -1.183  1.00  0.00     0.040 A 
ATOM     75  F   UNL     1     -12.436  12.863   0.421  1.00  0.00    -0.206 F 
ATOM     76  C   UNL     1     -12.137  14.989  -2.499  1.00  0.00     0.006 A 
ENDBRANCH  55  69
BRANCH  56  77
ATOM     77  C   UNL     1     -16.103   3.244   0.664  1.00  0.00     0.057 A 
ATOM     78  C   UNL     1     -17.271   2.690   0.129  1.00  0.00     0.134 A 
ATOM     79  C   UNL     1     -15.381   2.472   1.581  1.00  0.00     0.134 A 
ATOM     80  F   UNL     1     -18.014   3.392  -0.739  1.00  0.00    -0.206 F 
ATOM     81  C   UNL     1     -17.717   1.422   0.505  1.00  0.00     0.040 A 
ATOM     82  C   UNL     1     -15.803   1.193   1.949  1.00  0.00     0.040 A 
ATOM     83  F   UNL     1     -14.250   2.945   2.124  1.00  0.00    -0.206 F 
ATOM     84  C   UNL     1     -16.979   0.668   1.415  1.00  0.00     0.006 A 
ENDBRANCH  56  77
BRANCH  68  85
ATOM     85  C   UNL     1     -18.611   9.604   1.921  1.00  0.00     0.057 A 
ATOM     86  C   UNL     1     -18.674   9.564   3.320  1.00  0.00     0.134 A 
ATOM     87  C   UNL     1     -19.717  10.125   1.238  1.00  0.00     0.134 A 
ATOM     88  F   UNL     1     -17.652   9.064   4.032  1.00  0.00    -0.206 F 
ATOM     89  C   UNL     1     -19.805  10.001   4.011  1.00  0.00     0.040 A 
ATOM     90  C   UNL     1     -20.844  10.586   1.919  1.00  0.00     0.040 A 
ATOM     91  F   UNL     1     -19.717  10.198  -0.102  1.00  0.00    -0.206 F 
ATOM     92  C   UNL     1     -20.892  10.518   3.310  1.00  0.00     0.006 A 
ENDBRANCH  68  85
ENDBRANCH  42  43
ENDBRANCH  34  37
ENDBRANCH  32  33
ENDBRANCH  31  32
ENDBRANCH   1  31
TORSDOF 14
