REMARK SMILES Cc1ccc(NC(=O)c2csc(Br)c2)c(C(=O)NCCCCCCNC(=O)c2ccc(-c3c4nc(c(-c5c(F)cccc5F)c5ccc([nH]5)c(-c5c(F)cccc5F)c5nc(c(-c6c(F)cccc6F)c6ccc3[nH]6)C=C5)C=C4)cc2)c1
REMARK SMILES IDX 21 1 20 2 19 3 18 4 16 5 17 6 15 8 1 9 2 10 3 11 82 12 4 13
REMARK SMILES IDX 5 14 6 15 7 16 8 18 9 19 10 20 14 21 11 22 12 23 13 24 22 25
REMARK SMILES IDX 23 26 24 27 25 28 26 29 27 31 28 32 29 33 81 34 30 35 80 36
REMARK SMILES IDX 31 37 32 38 33 39 74 40 34 41 79 42 73 43 75 44 35 45 78 46
REMARK SMILES IDX 72 47 71 48 36 50 62 51 45 52 61 53 46 54 49 55 60 56 76 57
REMARK SMILES IDX 47 58 48 59 59 61 77 62 50 63 37 64 38 65 43 66 39 67 40 68
REMARK SMILES IDX 42 69 44 70 41 71 63 72 64 73 69 74 65 75 66 76 68 77 70 78
REMARK SMILES IDX 67 79 51 80 52 81 57 82 53 83 54 84 56 85 58 86 55 87
REMARK H PARENT 18 7 6 17 25 30 75 49 49 60
REMARK Flexibility Score: inf
ROOT
ATOM      1  C   UNL     1       0.233   6.137  -0.919  1.00  0.00     0.002 C 
ENDROOT
BRANCH   1   2
ATOM      2  C   UNL     1       0.635   4.674  -0.668  1.00  0.00     0.021 C 
BRANCH   2   3
ATOM      3  C   UNL     1      -0.040   4.022   0.545  1.00  0.00     0.116 C 
BRANCH   3   4
ATOM      4  N   UNL     1      -1.330   3.466   0.194  1.00  0.00    -0.352 N 
ATOM      5  C   UNL     1      -1.788   2.219  -0.146  1.00  0.00     0.253 C 
ATOM      6  O   UNL     1      -3.006   2.148  -0.342  1.00  0.00    -0.269 OA
ATOM      7  H   UNL     1      -2.046   4.141   0.202  1.00  0.00     0.163 HD
BRANCH   5   8
ATOM      8  C   UNL     1      -0.958   0.968  -0.279  1.00  0.00     0.063 A 
ATOM      9  C   UNL     1       2.713  -0.124  -0.399  1.00  0.00     0.044 C 
ATOM     10  C   UNL     1       1.215  -0.165  -0.458  1.00  0.00    -0.050 A 
ATOM     11  C   UNL     1       0.567  -1.385  -0.599  1.00  0.00     0.005 A 
ATOM     12  C   UNL     1       0.445   1.004  -0.373  1.00  0.00     0.019 A 
ATOM     13  C   UNL     1      -0.825  -1.440  -0.595  1.00  0.00     0.027 A 
ATOM     14  C   UNL     1      -1.606  -0.302  -0.354  1.00  0.00     0.054 A 
BRANCH  14  15
ATOM     15  N   UNL     1      -3.017  -0.382  -0.232  1.00  0.00    -0.321 N 
ATOM     16  C   UNL     1      -3.928  -1.407  -0.117  1.00  0.00     0.256 C 
ATOM     17  H   UNL     1      -3.446   0.504  -0.228  1.00  0.00     0.170 HD
ATOM     18  O   UNL     1      -5.125  -1.160  -0.256  1.00  0.00    -0.269 OA
BRANCH  16  19
ATOM     19  C   UNL     1      -3.493  -2.764   0.188  1.00  0.00     0.052 A 
ATOM     20  C   UNL     1      -3.914  -3.851  -0.562  1.00  0.00     0.080 A 
ATOM     21  C   UNL     1      -2.652  -3.190   1.275  1.00  0.00     0.041 A 
ATOM     22  S   UNL     1      -3.193  -5.318  -0.055  1.00  0.00    -0.136 S 
ATOM     23  C   UNL     1      -2.383  -4.534   1.208  1.00  0.00     0.071 A 
ATOM     24  Br  UNL     1      -1.213  -5.415   2.375  1.00  0.00    -0.039 Br
ENDBRANCH  16  19
ENDBRANCH  14  15
ENDBRANCH   5   8
ENDBRANCH   3   4
ENDBRANCH   2   3
ENDBRANCH   1   2
BRANCH   1  25
ATOM     25  C   UNL     1       0.412   7.112   0.259  1.00  0.00     0.002 C 
BRANCH  25  26
ATOM     26  C   UNL     1       1.743   7.019   1.012  1.00  0.00     0.021 C 
BRANCH  26  27
ATOM     27  C   UNL     1       2.929   7.592   0.241  1.00  0.00     0.116 C 
BRANCH  27  28
ATOM     28  N   UNL     1       3.353   8.897   0.715  1.00  0.00    -0.352 N 
ATOM     29  C   UNL     1       4.271   9.784   0.152  1.00  0.00     0.251 C 
ATOM     30  H   UNL     1       2.932   9.200   1.552  1.00  0.00     0.163 HD
ATOM     31  O   UNL     1       4.499  10.855   0.683  1.00  0.00    -0.269 OA
BRANCH  29  32
ATOM     32  C   UNL     1       4.856   9.454  -1.164  1.00  0.00     0.039 A 
ATOM     33  C   UNL     1       4.755  10.412  -2.176  1.00  0.00     0.014 A 
ATOM     34  C   UNL     1       5.284   8.160  -1.459  1.00  0.00     0.014 A 
ATOM     35  C   UNL     1       4.819  10.008  -3.507  1.00  0.00     0.010 A 
ATOM     36  C   UNL     1       5.273   7.738  -2.778  1.00  0.00     0.010 A 
ATOM     37  C   UNL     1       4.957   8.646  -3.792  1.00  0.00    -0.014 A 
BRANCH  37  38
ATOM     38  C   UNL     1       4.588   8.084  -5.088  1.00  0.00     0.031 A 
ATOM     39  C   UNL     1       5.602   7.633  -6.059  1.00  0.00     0.074 A 
ATOM     40  C   UNL     1       3.280   7.960  -5.412  1.00  0.00     0.049 A 
ATOM     41  N   UNL     1       5.413   7.643  -7.337  1.00  0.00    -0.248 NA
ATOM     42  C   UNL     1       6.923   7.154  -5.669  1.00  0.00     0.031 C 
ATOM     43  C   UNL     1       2.715   7.257  -6.560  1.00  0.00     0.029 A 
ATOM     44  N   UNL     1       2.197   8.661  -4.864  1.00  0.00    -0.354 N 
ATOM     45  C   UNL     1       6.449   6.958  -7.914  1.00  0.00     0.074 A 
ATOM     46  C   UNL     1       7.395   6.720  -6.844  1.00  0.00     0.031 C 
ATOM     47  C   UNL     1       1.505   7.772  -6.826  1.00  0.00     0.029 A 
ATOM     48  C   UNL     1       1.301   8.896  -5.931  1.00  0.00     0.049 A 
ATOM     49  H   UNL     1       2.083   8.934  -3.925  1.00  0.00     0.167 HD
ATOM     50  C   UNL     1       6.367   6.554  -9.211  1.00  0.00     0.037 A 
ATOM     51  C   UNL     1       0.983  10.166  -6.311  1.00  0.00     0.037 A 
ATOM     52  C   UNL     1       5.117   6.946  -9.850  1.00  0.00     0.049 A 
ATOM     53  C   UNL     1       1.383  10.526  -7.727  1.00  0.00     0.074 A 
ATOM     54  C   UNL     1       3.925   6.299 -10.129  1.00  0.00     0.029 A 
ATOM     55  N   UNL     1       4.873   8.291 -10.056  1.00  0.00    -0.354 N 
ATOM     56  N   UNL     1       1.993   9.722  -8.553  1.00  0.00    -0.248 NA
ATOM     57  C   UNL     1       1.218  11.872  -8.283  1.00  0.00     0.031 C 
ATOM     58  C   UNL     1       2.962   7.277 -10.508  1.00  0.00     0.029 A 
ATOM     59  C   UNL     1       3.573   8.515 -10.461  1.00  0.00     0.049 A 
ATOM     60  H   UNL     1       5.543   9.000  -9.929  1.00  0.00     0.167 HD
ATOM     61  C   UNL     1       2.369  10.424  -9.669  1.00  0.00     0.074 A 
ATOM     62  C   UNL     1       1.848  11.761  -9.463  1.00  0.00     0.031 C 
ATOM     63  C   UNL     1       3.130   9.882 -10.662  1.00  0.00     0.037 A 
BRANCH  50  64
ATOM     64  C   UNL     1       7.366   5.608  -9.807  1.00  0.00     0.057 A 
ATOM     65  C   UNL     1       6.967   4.541 -10.629  1.00  0.00     0.134 A 
ATOM     66  C   UNL     1       8.747   5.693  -9.562  1.00  0.00     0.134 A 
ATOM     67  F   UNL     1       5.690   4.374 -10.994  1.00  0.00    -0.206 F 
ATOM     68  C   UNL     1       7.865   3.574 -11.095  1.00  0.00     0.040 A 
ATOM     69  C   UNL     1       9.649   4.706  -9.980  1.00  0.00     0.040 A 
ATOM     70  F   UNL     1       9.269   6.742  -8.908  1.00  0.00    -0.206 F 
ATOM     71  C   UNL     1       9.205   3.634 -10.742  1.00  0.00     0.006 A 
ENDBRANCH  50  64
BRANCH  51  72
ATOM     72  C   UNL     1       0.933  11.118  -5.173  1.00  0.00     0.057 A 
ATOM     73  C   UNL     1      -0.039  10.929  -4.175  1.00  0.00     0.134 A 
ATOM     74  C   UNL     1       1.998  11.971  -4.873  1.00  0.00     0.134 A 
ATOM     75  F   UNL     1      -1.086  10.119  -4.397  1.00  0.00    -0.206 F 
ATOM     76  C   UNL     1       0.097  11.480  -2.899  1.00  0.00     0.040 A 
ATOM     77  C   UNL     1       2.137  12.539  -3.604  1.00  0.00     0.040 A 
ATOM     78  F   UNL     1       2.976  12.181  -5.766  1.00  0.00    -0.206 F 
ATOM     79  C   UNL     1       1.206  12.265  -2.602  1.00  0.00     0.006 A 
ENDBRANCH  51  72
BRANCH  63  80
ATOM     80  C   UNL     1       3.531  10.624 -11.904  1.00  0.00     0.057 A 
ATOM     81  C   UNL     1       2.619  11.375 -12.658  1.00  0.00     0.134 A 
ATOM     82  C   UNL     1       4.821  10.497 -12.454  1.00  0.00     0.134 A 
ATOM     83  F   UNL     1       1.345  11.514 -12.261  1.00  0.00    -0.206 F 
ATOM     84  C   UNL     1       2.978  11.993 -13.862  1.00  0.00     0.040 A 
ATOM     85  C   UNL     1       5.178  11.069 -13.678  1.00  0.00     0.040 A 
ATOM     86  F   UNL     1       5.795   9.829 -11.818  1.00  0.00    -0.206 F 
ATOM     87  C   UNL     1       4.257  11.830 -14.383  1.00  0.00     0.006 A 
ENDBRANCH  63  80
ENDBRANCH  37  38
ENDBRANCH  29  32
ENDBRANCH  27  28
ENDBRANCH  26  27
ENDBRANCH  25  26
ENDBRANCH   1  25
TORSDOF 15
