REMARK SMILES COc1ccc(S(=O)(=O)N2CCC[C@H](C(=O)N3CCC[C@H](C(=O)NCCCCCCNC(=O)c4ccc(-c5c6nc(c(-c7c(F)cccc7F)c7ccc([nH]7)c(-c7c(F)cccc7F)c7nc(c(-c8c(F)cccc8F)c8ccc5[nH]8)C=C7)C=C6)cc4)C3)C2)cc1
REMARK SMILES IDX 26 1 25 2 24 3 22 4 23 5 21 7 17 8 18 9 88 10 19 11 20 12
REMARK SMILES IDX 15 13 16 14 14 15 10 16 11 17 89 18 12 19 13 20 7 21 8 22
REMARK SMILES IDX 9 23 6 24 3 25 4 26 91 27 5 28 90 29 2 30 1 31 27 32 28 33
REMARK SMILES IDX 29 34 30 35 31 36 32 37 33 39 34 40 35 41 87 42 36 43 86 44
REMARK SMILES IDX 37 45 38 46 39 47 80 48 40 49 85 50 79 51 81 52 41 53 84 54
REMARK SMILES IDX 78 55 77 56 42 58 68 59 51 60 67 61 52 62 55 63 66 64 82 65
REMARK SMILES IDX 53 66 54 67 65 69 83 70 56 71 43 72 44 73 49 74 45 75 46 76
REMARK SMILES IDX 48 77 50 78 47 79 69 80 70 81 75 82 71 83 72 84 74 85 76 86
REMARK SMILES IDX 73 87 57 88 58 89 63 90 59 91 60 92 62 93 64 94 61 95
REMARK H PARENT 24 6 31 38 81 57 55 68
REMARK Flexibility Score: inf
ROOT
ATOM      1  C   UNL     1       8.565  11.596  -0.391  1.00  0.00     0.021 C 
ENDROOT
BRANCH   1   2
ATOM      2  C   UNL     1       8.252  10.321   0.383  1.00  0.00     0.116 C 
BRANCH   2   3
ATOM      3  N   UNL     1       8.768  10.328   1.731  1.00  0.00    -0.356 N 
ATOM      4  C   UNL     1       8.162  10.015   2.903  1.00  0.00     0.224 C 
ATOM      5  O   UNL     1       8.894   9.932   3.897  1.00  0.00    -0.275 OA
ATOM      6  H   UNL     1       9.710  10.602   1.812  1.00  0.00     0.163 HD
BRANCH   4   7
ATOM      7  C   UNL     1       6.659   9.756   3.058  1.00  0.00     0.098 C 
ATOM      8  N   UNL     1       5.540   8.592   1.138  1.00  0.00    -0.342 N 
ATOM      9  C   UNL     1       4.520   9.631   1.028  1.00  0.00     0.119 C 
ATOM     10  C   UNL     1       6.177   8.444   2.435  1.00  0.00     0.133 C 
ATOM     11  C   UNL     1       5.003  11.001   1.491  1.00  0.00     0.022 C 
ATOM     12  C   UNL     1       5.742  10.962   2.827  1.00  0.00     0.017 C 
BRANCH   8  13
ATOM     13  C   UNL     1       5.931   7.924  -0.003  1.00  0.00     0.227 C 
ATOM     14  O   UNL     1       6.074   8.539  -1.067  1.00  0.00    -0.275 OA
BRANCH  13  15
ATOM     15  C   UNL     1       5.954   6.394  -0.051  1.00  0.00     0.094 C 
ATOM     16  N   UNL     1       3.555   6.093   0.425  1.00  0.00    -0.197 NA
ATOM     17  C   UNL     1       3.786   5.602   1.794  1.00  0.00     0.102 C 
ATOM     18  C   UNL     1       4.605   5.946  -0.599  1.00  0.00     0.116 C 
ATOM     19  C   UNL     1       5.232   5.296   2.171  1.00  0.00     0.018 C 
ATOM     20  C   UNL     1       6.324   5.518   1.132  1.00  0.00     0.016 C 
BRANCH  16  21
ATOM     21  S   UNL     1       1.940   6.173  -0.100  1.00  0.00     0.243 S 
ATOM     22  O   UNL     1       1.906   6.850  -1.374  1.00  0.00    -0.207 OA
ATOM     23  O   UNL     1       1.152   6.638   1.027  1.00  0.00    -0.207 OA
BRANCH  21  24
ATOM     24  C   UNL     1       1.430   4.493  -0.401  1.00  0.00     0.082 A 
ATOM     25  C   UNL     1       0.482   1.885  -0.744  1.00  0.00     0.118 A 
ATOM     26  C   UNL     1      -0.383   2.972  -0.889  1.00  0.00     0.048 A 
ATOM     27  C   UNL     1       1.832   2.108  -0.476  1.00  0.00     0.048 A 
ATOM     28  C   UNL     1       0.084   4.276  -0.709  1.00  0.00     0.025 A 
ATOM     29  C   UNL     1       2.304   3.409  -0.299  1.00  0.00     0.025 A 
BRANCH  25  30
ATOM     30  O   UNL     1      -0.080   0.649  -0.901  1.00  0.00    -0.497 OA
ATOM     31  C   UNL     1       0.543  -0.391  -0.151  1.00  0.00     0.278 C 
ENDBRANCH  25  30
ENDBRANCH  21  24
ENDBRANCH  16  21
ENDBRANCH  13  15
ENDBRANCH   8  13
ENDBRANCH   4   7
ENDBRANCH   2   3
ENDBRANCH   1   2
BRANCH   1  32
ATOM     32  C   UNL     1       9.737  11.465  -1.365  1.00  0.00     0.002 C 
BRANCH  32  33
ATOM     33  C   UNL     1       9.591  10.383  -2.443  1.00  0.00     0.002 C 
BRANCH  33  34
ATOM     34  C   UNL     1       8.309  10.428  -3.280  1.00  0.00     0.021 C 
BRANCH  34  35
ATOM     35  C   UNL     1       8.023  11.752  -3.983  1.00  0.00     0.116 C 
BRANCH  35  36
ATOM     36  N   UNL     1       9.129  12.194  -4.816  1.00  0.00    -0.352 N 
ATOM     37  C   UNL     1       9.152  12.574  -6.132  1.00  0.00     0.251 C 
ATOM     38  H   UNL     1      10.002  12.226  -4.361  1.00  0.00     0.163 HD
ATOM     39  O   UNL     1      10.228  12.770  -6.691  1.00  0.00    -0.269 OA
BRANCH  37  40
ATOM     40  C   UNL     1       7.894  12.736  -6.892  1.00  0.00     0.039 A 
ATOM     41  C   UNL     1       7.840  12.248  -8.202  1.00  0.00     0.014 A 
ATOM     42  C   UNL     1       6.793  13.402  -6.347  1.00  0.00     0.014 A 
ATOM     43  C   UNL     1       6.666  12.381  -8.945  1.00  0.00     0.010 A 
ATOM     44  C   UNL     1       5.603  13.483  -7.068  1.00  0.00     0.010 A 
ATOM     45  C   UNL     1       5.531  12.977  -8.375  1.00  0.00    -0.014 A 
BRANCH  45  46
ATOM     46  C   UNL     1       4.262  13.089  -9.136  1.00  0.00     0.031 A 
ATOM     47  C   UNL     1       3.741  14.438  -9.544  1.00  0.00     0.074 A 
ATOM     48  C   UNL     1       3.554  11.978  -9.414  1.00  0.00     0.049 A 
ATOM     49  N   UNL     1       2.622  14.744 -10.149  1.00  0.00    -0.248 NA
ATOM     50  C   UNL     1       4.581  15.599  -9.208  1.00  0.00     0.031 C 
ATOM     51  C   UNL     1       3.937  10.615  -9.041  1.00  0.00     0.029 A 
ATOM     52  N   UNL     1       2.359  11.821 -10.068  1.00  0.00    -0.354 N 
ATOM     53  C   UNL     1       2.616  16.128 -10.254  1.00  0.00     0.074 A 
ATOM     54  C   UNL     1       3.821  16.607  -9.611  1.00  0.00     0.031 C 
ATOM     55  C   UNL     1       3.005   9.759  -9.490  1.00  0.00     0.029 A 
ATOM     56  C   UNL     1       1.946  10.514 -10.152  1.00  0.00     0.049 A 
ATOM     57  H   UNL     1       1.846  12.574 -10.441  1.00  0.00     0.167 HD
ATOM     58  C   UNL     1       1.698  16.927 -10.848  1.00  0.00     0.037 A 
ATOM     59  C   UNL     1       0.834   9.986 -10.697  1.00  0.00     0.037 A 
ATOM     60  C   UNL     1       0.511  16.449 -11.506  1.00  0.00     0.049 A 
ATOM     61  C   UNL     1      -0.171  10.893 -11.347  1.00  0.00     0.074 A 
ATOM     62  C   UNL     1      -0.460  17.177 -12.172  1.00  0.00     0.029 A 
ATOM     63  N   UNL     1       0.135  15.116 -11.582  1.00  0.00    -0.354 N 
ATOM     64  N   UNL     1      -0.144  12.198 -11.475  1.00  0.00    -0.248 NA
ATOM     65  C   UNL     1      -1.358  10.255 -11.932  1.00  0.00     0.031 C 
ATOM     66  C   UNL     1      -1.439  16.286 -12.627  1.00  0.00     0.029 A 
ATOM     67  C   UNL     1      -1.059  15.001 -12.275  1.00  0.00     0.049 A 
ATOM     68  H   UNL     1       0.641  14.364 -11.199  1.00  0.00     0.167 HD
ATOM     69  C   UNL     1      -1.295  12.534 -12.174  1.00  0.00     0.074 A 
ATOM     70  C   UNL     1      -1.993  11.296 -12.452  1.00  0.00     0.031 C 
ATOM     71  C   UNL     1      -1.735  13.760 -12.550  1.00  0.00     0.037 A 
BRANCH  58  72
ATOM     72  C   UNL     1       1.951  18.406 -10.819  1.00  0.00     0.057 A 
ATOM     73  C   UNL     1       2.955  18.995 -11.598  1.00  0.00     0.134 A 
ATOM     74  C   UNL     1       1.167  19.253 -10.025  1.00  0.00     0.134 A 
ATOM     75  F   UNL     1       3.749  18.238 -12.370  1.00  0.00    -0.206 F 
ATOM     76  C   UNL     1       3.186  20.372 -11.571  1.00  0.00     0.040 A 
ATOM     77  C   UNL     1       1.373  20.633 -10.008  1.00  0.00     0.040 A 
ATOM     78  F   UNL     1       0.186  18.753  -9.259  1.00  0.00    -0.206 F 
ATOM     79  C   UNL     1       2.390  21.195 -10.778  1.00  0.00     0.006 A 
ENDBRANCH  58  72
BRANCH  59  80
ATOM     80  C   UNL     1       0.629   8.517 -10.678  1.00  0.00     0.057 A 
ATOM     81  C   UNL     1       0.756   7.760 -11.848  1.00  0.00     0.134 A 
ATOM     82  C   UNL     1       0.308   7.837  -9.498  1.00  0.00     0.134 A 
ATOM     83  F   UNL     1       1.044   8.360 -13.012  1.00  0.00    -0.206 F 
ATOM     84  C   UNL     1       0.560   6.378 -11.848  1.00  0.00     0.040 A 
ATOM     85  C   UNL     1       0.130   6.452  -9.480  1.00  0.00     0.040 A 
ATOM     86  F   UNL     1       0.177   8.507  -8.344  1.00  0.00    -0.206 F 
ATOM     87  C   UNL     1       0.252   5.720 -10.659  1.00  0.00     0.006 A 
ENDBRANCH  59  80
BRANCH  71  88
ATOM     88  C   UNL     1      -3.012  13.817 -13.332  1.00  0.00     0.057 A 
ATOM     89  C   UNL     1      -4.258  13.623 -12.724  1.00  0.00     0.134 A 
ATOM     90  C   UNL     1      -2.996  14.107 -14.702  1.00  0.00     0.134 A 
ATOM     91  F   UNL     1      -4.338  13.330 -11.417  1.00  0.00    -0.206 F 
ATOM     92  C   UNL     1      -5.444  13.699 -13.456  1.00  0.00     0.040 A 
ATOM     93  C   UNL     1      -4.176  14.206 -15.440  1.00  0.00     0.040 A 
ATOM     94  F   UNL     1      -1.834  14.309 -15.342  1.00  0.00    -0.206 F 
ATOM     95  C   UNL     1      -5.405  13.997 -14.817  1.00  0.00     0.006 A 
ENDBRANCH  71  88
ENDBRANCH  45  46
ENDBRANCH  37  40
ENDBRANCH  35  36
ENDBRANCH  34  35
ENDBRANCH  33  34
ENDBRANCH  32  33
ENDBRANCH   1  32
TORSDOF 18
