REMARK SMILES CNC(=O)NC(=O)CCSc1csc(C(=O)NCCCCCCNC(=O)c2ccc(-c3c4nc(c(-c5c(F)cccc5F)c5ccc([nH]5)c(-c5c(F)cccc5F)c5nc(c(-c6c(F)cccc6F)c6ccc3[nH]6)C=C5)C=C4)cc2)c1
REMARK SMILES IDX 19 1 18 2 17 3 15 4 16 5 14 7 11 8 12 9 81 10 13 11 10 12
REMARK SMILES IDX 9 13 8 14 6 15 1 16 2 17 3 18 4 20 5 21 7 23 20 24 21 25
REMARK SMILES IDX 22 26 23 27 24 28 25 29 26 31 27 32 28 33 80 34 29 35 79 36
REMARK SMILES IDX 30 37 31 38 32 39 73 40 33 41 78 42 72 43 74 44 34 45 77 46
REMARK SMILES IDX 71 47 70 48 35 50 61 51 44 52 60 53 45 54 48 55 59 56 75 57
REMARK SMILES IDX 46 58 47 59 58 61 76 62 49 63 36 64 37 65 42 66 38 67 39 68
REMARK SMILES IDX 41 69 43 70 40 71 62 72 63 73 68 74 64 75 65 76 67 77 69 78
REMARK SMILES IDX 66 79 50 80 51 81 56 82 52 83 53 84 55 85 57 86 54 87
REMARK H PARENT 17 6 2 19 5 22 24 30 74 49 48 60
REMARK Flexibility Score: inf
ROOT
ATOM      1  C   UNL     1       1.777  -6.022  -1.094  1.00  0.00     0.021 C 
ENDROOT
BRANCH   1   2
ATOM      2  C   UNL     1       1.988  -5.708  -2.576  1.00  0.00     0.116 C 
BRANCH   2   3
ATOM      3  N   UNL     1       0.781  -5.975  -3.340  1.00  0.00    -0.351 N 
ATOM      4  C   UNL     1      -0.086  -5.114  -3.983  1.00  0.00     0.261 C 
ATOM      5  O   UNL     1      -0.969  -5.622  -4.669  1.00  0.00    -0.268 OA
ATOM      6  H   UNL     1       0.541  -6.928  -3.410  1.00  0.00     0.163 HD
BRANCH   4   7
ATOM      7  C   UNL     1       0.122  -3.685  -3.841  1.00  0.00     0.093 A 
ATOM      8  C   UNL     1       0.996  -1.665  -3.091  1.00  0.00     0.019 A 
ATOM      9  C   UNL     1       0.483  -1.294  -4.313  1.00  0.00     0.080 A 
ATOM     10  C   UNL     1       0.624  -2.987  -2.765  1.00  0.00     0.040 A 
ATOM     11  S   UNL     1      -0.281  -2.609  -5.110  1.00  0.00    -0.137 S 
BRANCH   8  12
ATOM     12  S   UNL     1       2.000  -0.631  -2.089  1.00  0.00    -0.125 SA
BRANCH  12  13
ATOM     13  C   UNL     1       2.172  -1.538  -0.523  1.00  0.00     0.085 C 
BRANCH  13  14
ATOM     14  C   UNL     1       1.035  -1.499   0.497  1.00  0.00     0.112 C 
BRANCH  14  15
ATOM     15  C   UNL     1      -0.359  -1.834   0.044  1.00  0.00     0.228 C 
ATOM     16  C   UNL     1       0.403   1.699   0.089  1.00  0.00     0.144 C 
ATOM     17  N   UNL     1      -0.390   1.265  -1.031  1.00  0.00    -0.341 N 
ATOM     18  C   UNL     1      -1.195   0.221  -1.254  1.00  0.00     0.321 C 
ATOM     19  H   UNL     1      -0.324   1.871  -1.804  1.00  0.00     0.165 HD
ATOM     20  O   UNL     1      -1.958   0.291  -2.222  1.00  0.00    -0.248 OA
ATOM     21  N   UNL     1      -1.231  -0.909  -0.493  1.00  0.00    -0.278 N 
ATOM     22  H   UNL     1      -2.159  -1.134  -0.254  1.00  0.00     0.174 HD
ATOM     23  O   UNL     1      -0.750  -3.005   0.142  1.00  0.00    -0.275 OA
ENDBRANCH  14  15
ENDBRANCH  13  14
ENDBRANCH  12  13
ENDBRANCH   8  12
ENDBRANCH   4   7
ENDBRANCH   2   3
ENDBRANCH   1   2
BRANCH   1  24
ATOM     24  C   UNL     1       2.055  -7.492  -0.767  1.00  0.00     0.002 C 
BRANCH  24  25
ATOM     25  C   UNL     1       3.498  -7.932  -1.052  1.00  0.00     0.002 C 
BRANCH  25  26
ATOM     26  C   UNL     1       4.566  -7.130  -0.304  1.00  0.00     0.021 C 
BRANCH  26  27
ATOM     27  C   UNL     1       4.476  -7.261   1.210  1.00  0.00     0.116 C 
BRANCH  27  28
ATOM     28  N   UNL     1       4.644  -8.643   1.628  1.00  0.00    -0.352 N 
ATOM     29  C   UNL     1       5.572  -9.186   2.476  1.00  0.00     0.251 C 
ATOM     30  H   UNL     1       3.999  -9.281   1.246  1.00  0.00     0.163 HD
ATOM     31  O   UNL     1       5.758 -10.398   2.495  1.00  0.00    -0.269 OA
BRANCH  29  32
ATOM     32  C   UNL     1       6.338  -8.304   3.376  1.00  0.00     0.039 A 
ATOM     33  C   UNL     1       7.685  -8.582   3.613  1.00  0.00     0.014 A 
ATOM     34  C   UNL     1       5.713  -7.233   4.023  1.00  0.00     0.014 A 
ATOM     35  C   UNL     1       8.409  -7.777   4.490  1.00  0.00     0.010 A 
ATOM     36  C   UNL     1       6.457  -6.377   4.823  1.00  0.00     0.010 A 
ATOM     37  C   UNL     1       7.802  -6.663   5.094  1.00  0.00    -0.014 A 
BRANCH  37  38
ATOM     38  C   UNL     1       8.545  -5.825   6.065  1.00  0.00     0.031 A 
ATOM     39  C   UNL     1       8.091  -5.757   7.498  1.00  0.00     0.074 A 
ATOM     40  C   UNL     1       9.603  -5.103   5.651  1.00  0.00     0.049 A 
ATOM     41  N   UNL     1       8.592  -5.071   8.493  1.00  0.00    -0.248 NA
ATOM     42  C   UNL     1       6.894  -6.537   7.853  1.00  0.00     0.031 C 
ATOM     43  C   UNL     1      10.105  -5.049   4.277  1.00  0.00     0.029 A 
ATOM     44  N   UNL     1      10.446  -4.277   6.348  1.00  0.00    -0.354 N 
ATOM     45  C   UNL     1       7.767  -5.327   9.581  1.00  0.00     0.074 A 
ATOM     46  C   UNL     1       6.692  -6.171   9.108  1.00  0.00     0.031 C 
ATOM     47  C   UNL     1      11.191  -4.260   4.238  1.00  0.00     0.029 A 
ATOM     48  C   UNL     1      11.438  -3.727   5.574  1.00  0.00     0.049 A 
ATOM     49  H   UNL     1      10.350  -4.096   7.310  1.00  0.00     0.167 HD
ATOM     50  C   UNL     1       7.907  -4.923  10.866  1.00  0.00     0.037 A 
ATOM     51  C   UNL     1      12.436  -2.888   5.909  1.00  0.00     0.037 A 
ATOM     52  C   UNL     1       8.993  -4.102  11.333  1.00  0.00     0.049 A 
ATOM     53  C   UNL     1      12.576  -2.457   7.343  1.00  0.00     0.074 A 
ATOM     54  C   UNL     1       9.261  -3.678  12.622  1.00  0.00     0.029 A 
ATOM     55  N   UNL     1       9.990  -3.579  10.523  1.00  0.00    -0.354 N 
ATOM     56  N   UNL     1      11.829  -2.761   8.377  1.00  0.00    -0.248 NA
ATOM     57  C   UNL     1      13.710  -1.578   7.658  1.00  0.00     0.031 C 
ATOM     58  C   UNL     1      10.390  -2.853  12.583  1.00  0.00     0.029 A 
ATOM     59  C   UNL     1      10.864  -2.818  11.281  1.00  0.00     0.049 A 
ATOM     60  H   UNL     1      10.066  -3.727   9.553  1.00  0.00     0.167 HD
ATOM     61  C   UNL     1      12.422  -2.144   9.471  1.00  0.00     0.074 A 
ATOM     62  C   UNL     1      13.598  -1.458   8.973  1.00  0.00     0.031 C 
ATOM     63  C   UNL     1      12.034  -2.147  10.770  1.00  0.00     0.037 A 
BRANCH  50  64
ATOM     64  C   UNL     1       6.857  -5.362  11.847  1.00  0.00     0.057 A 
ATOM     65  C   UNL     1       6.703  -6.705  12.222  1.00  0.00     0.134 A 
ATOM     66  C   UNL     1       5.992  -4.429  12.433  1.00  0.00     0.134 A 
ATOM     67  F   UNL     1       7.487  -7.654  11.689  1.00  0.00    -0.206 F 
ATOM     68  C   UNL     1       5.705  -7.107  13.111  1.00  0.00     0.040 A 
ATOM     69  C   UNL     1       5.013  -4.815  13.351  1.00  0.00     0.040 A 
ATOM     70  F   UNL     1       6.084  -3.127  12.126  1.00  0.00    -0.206 F 
ATOM     71  C   UNL     1       4.860  -6.159  13.684  1.00  0.00     0.006 A 
ENDBRANCH  50  64
BRANCH  51  72
ATOM     72  C   UNL     1      13.401  -2.435   4.876  1.00  0.00     0.057 A 
ATOM     73  C   UNL     1      14.733  -2.866   4.891  1.00  0.00     0.134 A 
ATOM     74  C   UNL     1      13.018  -1.563   3.850  1.00  0.00     0.134 A 
ATOM     75  F   UNL     1      15.165  -3.691   5.856  1.00  0.00    -0.206 F 
ATOM     76  C   UNL     1      15.655  -2.427   3.939  1.00  0.00     0.040 A 
ATOM     77  C   UNL     1      13.922  -1.139   2.875  1.00  0.00     0.040 A 
ATOM     78  F   UNL     1      11.753  -1.124   3.772  1.00  0.00    -0.206 F 
ATOM     79  C   UNL     1      15.248  -1.564   2.924  1.00  0.00     0.006 A 
ENDBRANCH  51  72
BRANCH  63  80
ATOM     80  C   UNL     1      12.918  -1.432  11.752  1.00  0.00     0.057 A 
ATOM     81  C   UNL     1      13.040  -0.036  11.769  1.00  0.00     0.134 A 
ATOM     82  C   UNL     1      13.643  -2.155  12.709  1.00  0.00     0.134 A 
ATOM     83  F   UNL     1      12.382   0.716  10.874  1.00  0.00    -0.206 F 
ATOM     84  C   UNL     1      13.880   0.611  12.678  1.00  0.00     0.040 A 
ATOM     85  C   UNL     1      14.458  -1.518  13.644  1.00  0.00     0.040 A 
ATOM     86  F   UNL     1      13.562  -3.493  12.757  1.00  0.00    -0.206 F 
ATOM     87  C   UNL     1      14.587  -0.131  13.623  1.00  0.00     0.006 A 
ENDBRANCH  63  80
ENDBRANCH  37  38
ENDBRANCH  29  32
ENDBRANCH  27  28
ENDBRANCH  26  27
ENDBRANCH  25  26
ENDBRANCH  24  25
ENDBRANCH   1  24
TORSDOF 17
