REMARK SMILES C#Cc1ccc2c(c1)C=C(C(=O)NCCCCCCNC(=O)c1ccc(-c3c4nc(c(-c5c(F)cccc5F)c5ccc([nH]5)c(-c5c(F)cccc5F)c5nc(c(-c6c(F)cccc6F)c6ccc3[nH]6)C=C5)C=C4)cc1)[C@@H](C(F)(F)F)O2
REMARK SMILES IDX 17 1 16 2 15 3 14 4 13 5 11 6 12 7 10 9 3 10 4 11 8 12 5 13
REMARK SMILES IDX 7 14 6 15 9 16 82 17 77 18 2 19 1 20 78 21 79 22 80 23 81 24
REMARK SMILES IDX 18 25 19 26 20 27 21 28 22 30 23 31 24 32 76 33 25 34 75 35
REMARK SMILES IDX 26 36 27 37 28 38 69 39 29 40 74 41 68 42 70 43 30 44 73 45
REMARK SMILES IDX 67 46 66 47 31 49 57 50 40 51 56 52 41 53 44 54 55 55 71 56
REMARK SMILES IDX 42 57 43 58 54 60 72 61 45 62 32 63 33 64 38 65 34 66 35 67
REMARK SMILES IDX 37 68 39 69 36 70 58 71 59 72 64 73 60 74 61 75 63 76 65 77
REMARK SMILES IDX 62 78 46 79 47 80 52 81 48 82 49 83 51 84 53 85 50 86
REMARK H PARENT 13 8 20 29 70 48 44 59
REMARK Flexibility Score: inf
ROOT
ATOM      1  C   UNL     1     -11.832   3.876   0.092  1.00  0.00     0.002 C 
ENDROOT
BRANCH   1   2
ATOM      2  C   UNL     1     -10.883   3.957   1.296  1.00  0.00     0.002 C 
BRANCH   2   3
ATOM      3  C   UNL     1      -9.855   2.828   1.372  1.00  0.00     0.021 C 
BRANCH   3   4
ATOM      4  C   UNL     1      -9.017   2.702   0.107  1.00  0.00     0.116 C 
BRANCH   4   5
ATOM      5  N   UNL     1      -7.903   3.632   0.104  1.00  0.00    -0.352 N 
ATOM      6  C   UNL     1      -6.553   3.561   0.017  1.00  0.00     0.251 C 
ATOM      7  O   UNL     1      -5.962   4.644   0.025  1.00  0.00    -0.270 OA
ATOM      8  H   UNL     1      -8.210   4.564   0.186  1.00  0.00     0.163 HD
BRANCH   6   9
ATOM      9  C   UNL     1      -5.772   2.291  -0.079  1.00  0.00     0.067 C 
ATOM     10  C   UNL     1      -1.480   0.064  -0.074  1.00  0.00     0.025 A 
ATOM     11  C   UNL     1      -2.124  -1.175  -0.076  1.00  0.00     0.021 A 
ATOM     12  C   UNL     1      -2.227   1.248  -0.053  1.00  0.00     0.029 A 
ATOM     13  C   UNL     1      -3.513  -1.234  -0.062  1.00  0.00     0.048 A 
ATOM     14  C   UNL     1      -3.624   1.192  -0.039  1.00  0.00     0.018 A 
ATOM     15  C   UNL     1      -4.251  -0.055  -0.053  1.00  0.00     0.128 A 
ATOM     16  C   UNL     1      -4.437   2.401   0.038  1.00  0.00     0.025 C 
ATOM     17  O   UNL     1      -5.601  -0.212  -0.018  1.00  0.00    -0.475 OA
ATOM     18  C   UNL     1      -6.405   0.951  -0.322  1.00  0.00     0.314 C 
BRANCH  10  19
ATOM     19  C   UNL     1      -0.053   0.108  -0.081  1.00  0.00    -0.070 C 
ATOM     20  C   UNL     1       1.149   0.112  -0.083  1.00  0.00     0.010 C 
ENDBRANCH  10  19
BRANCH  18  21
ATOM     21  C   UNL     1      -6.962   0.810  -1.752  1.00  0.00     0.429 C 
ATOM     22  F   UNL     1      -7.881  -0.186  -1.804  1.00  0.00    -0.167 F 
ATOM     23  F   UNL     1      -7.591   1.926  -2.188  1.00  0.00    -0.167 F 
ATOM     24  F   UNL     1      -6.000   0.524  -2.657  1.00  0.00    -0.167 F 
ENDBRANCH  18  21
ENDBRANCH   6   9
ENDBRANCH   4   5
ENDBRANCH   3   4
ENDBRANCH   2   3
ENDBRANCH   1   2
BRANCH   1  25
ATOM     25  C   UNL     1     -12.523   2.523  -0.089  1.00  0.00     0.021 C 
BRANCH  25  26
ATOM     26  C   UNL     1     -13.346   2.088   1.115  1.00  0.00     0.116 C 
BRANCH  26  27
ATOM     27  N   UNL     1     -14.413   3.031   1.416  1.00  0.00    -0.352 N 
ATOM     28  C   UNL     1     -15.765   2.814   1.508  1.00  0.00     0.251 C 
ATOM     29  H   UNL     1     -14.123   3.958   1.577  1.00  0.00     0.163 HD
ATOM     30  O   UNL     1     -16.547   3.756   1.563  1.00  0.00    -0.269 OA
BRANCH  28  31
ATOM     31  C   UNL     1     -16.267   1.425   1.502  1.00  0.00     0.039 A 
ATOM     32  C   UNL     1     -15.626   0.446   2.263  1.00  0.00     0.014 A 
ATOM     33  C   UNL     1     -17.341   1.091   0.677  1.00  0.00     0.014 A 
ATOM     34  C   UNL     1     -15.923  -0.891   2.044  1.00  0.00     0.010 A 
ATOM     35  C   UNL     1     -17.711  -0.248   0.543  1.00  0.00     0.010 A 
ATOM     36  C   UNL     1     -16.963  -1.256   1.176  1.00  0.00    -0.014 A 
BRANCH  36  37
ATOM     37  C   UNL     1     -17.231  -2.693   0.913  1.00  0.00     0.031 A 
ATOM     38  C   UNL     1     -17.088  -3.254  -0.478  1.00  0.00     0.074 A 
ATOM     39  C   UNL     1     -17.560  -3.505   1.935  1.00  0.00     0.049 A 
ATOM     40  N   UNL     1     -17.318  -4.469  -0.908  1.00  0.00    -0.248 NA
ATOM     41  C   UNL     1     -16.629  -2.327  -1.526  1.00  0.00     0.031 C 
ATOM     42  C   UNL     1     -17.697  -3.093   3.334  1.00  0.00     0.029 A 
ATOM     43  N   UNL     1     -17.828  -4.849   1.958  1.00  0.00    -0.354 N 
ATOM     44  C   UNL     1     -17.052  -4.449  -2.272  1.00  0.00     0.074 A 
ATOM     45  C   UNL     1     -16.683  -3.091  -2.607  1.00  0.00     0.031 C 
ATOM     46  C   UNL     1     -17.988  -4.167   4.083  1.00  0.00     0.029 A 
ATOM     47  C   UNL     1     -18.138  -5.324   3.209  1.00  0.00     0.049 A 
ATOM     48  H   UNL     1     -17.801  -5.419   1.156  1.00  0.00     0.167 HD
ATOM     49  C   UNL     1     -17.100  -5.470  -3.162  1.00  0.00     0.037 A 
ATOM     50  C   UNL     1     -18.534  -6.548   3.604  1.00  0.00     0.037 A 
ATOM     51  C   UNL     1     -17.469  -6.821  -2.824  1.00  0.00     0.049 A 
ATOM     52  C   UNL     1     -18.679  -7.635   2.574  1.00  0.00     0.074 A 
ATOM     53  C   UNL     1     -17.540  -7.928  -3.652  1.00  0.00     0.029 A 
ATOM     54  N   UNL     1     -17.839  -7.246  -1.557  1.00  0.00    -0.354 N 
ATOM     55  N   UNL     1     -18.413  -7.604   1.291  1.00  0.00    -0.248 NA
ATOM     56  C   UNL     1     -19.184  -8.928   3.053  1.00  0.00     0.031 C 
ATOM     57  C   UNL     1     -18.020  -9.005  -2.901  1.00  0.00     0.029 A 
ATOM     58  C   UNL     1     -18.171  -8.591  -1.588  1.00  0.00     0.049 A 
ATOM     59  H   UNL     1     -17.862  -6.677  -0.754  1.00  0.00     0.167 HD
ATOM     60  C   UNL     1     -18.685  -8.882   0.817  1.00  0.00     0.074 A 
ATOM     61  C   UNL     1     -19.114  -9.666   1.956  1.00  0.00     0.031 C 
ATOM     62  C   UNL     1     -18.589  -9.364  -0.446  1.00  0.00     0.037 A 
BRANCH  49  63
ATOM     63  C   UNL     1     -16.775  -5.157  -4.596  1.00  0.00     0.057 A 
ATOM     64  C   UNL     1     -17.766  -5.232  -5.584  1.00  0.00     0.134 A 
ATOM     65  C   UNL     1     -15.481  -4.811  -5.010  1.00  0.00     0.134 A 
ATOM     66  F   UNL     1     -19.024  -5.570  -5.263  1.00  0.00    -0.206 F 
ATOM     67  C   UNL     1     -17.485  -4.973  -6.926  1.00  0.00     0.040 A 
ATOM     68  C   UNL     1     -15.194  -4.515  -6.345  1.00  0.00     0.040 A 
ATOM     69  F   UNL     1     -14.485  -4.712  -4.117  1.00  0.00    -0.206 F 
ATOM     70  C   UNL     1     -16.197  -4.602  -7.308  1.00  0.00     0.006 A 
ENDBRANCH  49  63
BRANCH  50  71
ATOM     71  C   UNL     1     -18.865  -6.812   5.028  1.00  0.00     0.057 A 
ATOM     72  C   UNL     1     -19.962  -6.201   5.649  1.00  0.00     0.134 A 
ATOM     73  C   UNL     1     -18.129  -7.732   5.784  1.00  0.00     0.134 A 
ATOM     74  F   UNL     1     -20.704  -5.302   4.986  1.00  0.00    -0.206 F 
ATOM     75  C   UNL     1     -20.319  -6.501   6.964  1.00  0.00     0.040 A 
ATOM     76  C   UNL     1     -18.498  -8.070   7.086  1.00  0.00     0.040 A 
ATOM     77  F   UNL     1     -17.076  -8.362   5.241  1.00  0.00    -0.206 F 
ATOM     78  C   UNL     1     -19.596  -7.452   7.680  1.00  0.00     0.006 A 
ENDBRANCH  50  71
BRANCH  62  79
ATOM     79  C   UNL     1     -18.896 -10.821  -0.649  1.00  0.00     0.057 A 
ATOM     80  C   UNL     1     -17.879 -11.717  -1.003  1.00  0.00     0.134 A 
ATOM     81  C   UNL     1     -20.190 -11.340  -0.506  1.00  0.00     0.134 A 
ATOM     82  F   UNL     1     -16.618 -11.288  -1.169  1.00  0.00    -0.206 F 
ATOM     83  C   UNL     1     -18.135 -13.074  -1.203  1.00  0.00     0.040 A 
ATOM     84  C   UNL     1     -20.451 -12.703  -0.665  1.00  0.00     0.040 A 
ATOM     85  F   UNL     1     -21.210 -10.541  -0.157  1.00  0.00    -0.206 F 
ATOM     86  C   UNL     1     -19.423 -13.572  -1.021  1.00  0.00     0.006 A 
ENDBRANCH  62  79
ENDBRANCH  36  37
ENDBRANCH  28  31
ENDBRANCH  26  27
ENDBRANCH  25  26
ENDBRANCH   1  25
TORSDOF 15
