REMARK SMILES C[C@H]1C[N@H+]2CCCC[C@@H]2CN1C(=O)[C@H]([NH3+])CC(=O)NCCCCCCNC(=O)c1ccc(-c2c3nc(c(-c4c(F)cccc4F)c4ccc([nH]4)c(-c4c(F)cccc4F)c4nc(c(-c5c(F)cccc5F)c5ccc2[nH]5)C=C4)C=C3)cc1
REMARK SMILES IDX 22 1 21 2 20 3 19 4 17 5 18 6 16 8 14 9 12 10 13 11 11 12
REMARK SMILES IDX 1 13 2 14 3 15 4 16 10 17 5 18 9 19 6 21 8 22 7 23 15 24
REMARK SMILES IDX 23 28 24 29 25 30 26 31 27 32 28 34 29 35 30 36 82 37 31 38
REMARK SMILES IDX 81 39 32 40 33 41 34 42 75 43 35 44 80 45 74 46 76 47 36 48
REMARK SMILES IDX 79 49 73 50 72 51 37 53 63 54 46 55 62 56 47 57 50 58 61 59
REMARK SMILES IDX 77 60 48 61 49 62 60 64 78 65 51 66 38 67 39 68 44 69 40 70
REMARK SMILES IDX 41 71 43 72 45 73 42 74 64 75 65 76 70 77 66 78 67 79 69 80
REMARK SMILES IDX 71 81 68 82 52 83 53 84 58 85 54 86 55 87 57 88 59 89 56 90
REMARK H PARENT 19 7 4 20 15 25 15 26 15 27 26 33 76 52 50 63
REMARK Flexibility Score: inf
ROOT
ATOM      1  C   UNL     1       3.126   0.546  -1.463  1.00  0.00     0.002 C 
ENDROOT
BRANCH   1   2
ATOM      2  C   UNL     1       2.825  -0.185  -0.151  1.00  0.00     0.021 C 
BRANCH   2   3
ATOM      3  C   UNL     1       3.338  -1.627  -0.134  1.00  0.00     0.116 C 
BRANCH   3   4
ATOM      4  N   UNL     1       4.767  -1.644   0.127  1.00  0.00    -0.356 N 
ATOM      5  C   UNL     1       5.416  -1.951   1.288  1.00  0.00     0.226 C 
ATOM      6  O   UNL     1       6.609  -1.668   1.396  1.00  0.00    -0.275 OA
ATOM      7  H   UNL     1       5.343  -1.403  -0.634  1.00  0.00     0.163 HD
BRANCH   5   8
ATOM      8  C   UNL     1       4.686  -2.719   2.364  1.00  0.00     0.175 C 
BRANCH   8   9
ATOM      9  C   UNL     1       3.939  -1.860   3.388  1.00  0.00     0.280 C 
BRANCH   9  10
ATOM     10  C   UNL     1       3.530  -2.669   4.655  1.00  0.00     0.281 C 
ATOM     11  O   UNL     1       4.130  -2.471   5.714  1.00  0.00    -0.268 OA
BRANCH  10  12
ATOM     12  N   UNL     1       2.411  -3.526   4.570  1.00  0.00    -0.323 N 
ATOM     13  C   UNL     1       1.451  -2.971   6.811  1.00  0.00     0.037 C 
ATOM     14  C   UNL     1       1.869  -4.086   5.832  1.00  0.00     0.137 C 
ATOM     15  C   UNL     1       0.610  -4.996   5.653  1.00  0.00     0.287 C 
ATOM     16  N   UNL     1       0.577  -5.864   4.461  1.00  0.00    -0.329 N 
ATOM     17  C   UNL     1       2.191  -4.328   3.365  1.00  0.00     0.185 C 
ATOM     18  C   UNL     1      -0.745  -6.512   4.356  1.00  0.00     0.262 C 
ATOM     19  C   UNL     1       0.839  -5.046   3.267  1.00  0.00     0.203 C 
ATOM     20  H   UNL     1       1.291  -6.588   4.538  1.00  0.00     0.348 HD
ATOM     21  C   UNL     1      -0.853  -7.402   3.116  1.00  0.00     0.062 C 
ATOM     22  C   UNL     1       0.836  -5.927   2.006  1.00  0.00     0.067 C 
ATOM     23  C   UNL     1      -0.497  -6.644   1.842  1.00  0.00     0.012 C 
ENDBRANCH  10  12
ENDBRANCH   9  10
BRANCH   9  24
ATOM     24  N   UNL     1       2.741  -1.118   2.917  1.00  0.00    -0.347 N 
ATOM     25  H   UNL     1       1.998  -1.779   2.693  1.00  0.00     0.345 HD
ATOM     26  H   UNL     1       2.980  -0.579   2.085  1.00  0.00     0.345 HD
ATOM     27  H   UNL     1       2.423  -0.485   3.652  1.00  0.00     0.345 HD
ENDBRANCH   9  24
ENDBRANCH   8   9
ENDBRANCH   5   8
ENDBRANCH   3   4
ENDBRANCH   2   3
ENDBRANCH   1   2
BRANCH   1  28
ATOM     28  C   UNL     1       2.357   0.015  -2.677  1.00  0.00     0.002 C 
BRANCH  28  29
ATOM     29  C   UNL     1       0.832   0.052  -2.544  1.00  0.00     0.021 C 
BRANCH  29  30
ATOM     30  C   UNL     1       0.252   1.437  -2.271  1.00  0.00     0.116 C 
BRANCH  30  31
ATOM     31  N   UNL     1       0.533   2.365  -3.354  1.00  0.00    -0.352 N 
ATOM     32  C   UNL     1      -0.335   3.103  -4.119  1.00  0.00     0.251 C 
ATOM     33  H   UNL     1       1.487   2.482  -3.571  1.00  0.00     0.163 HD
ATOM     34  O   UNL     1       0.058   3.668  -5.133  1.00  0.00    -0.269 OA
BRANCH  32  35
ATOM     35  C   UNL     1      -1.755   3.207  -3.722  1.00  0.00     0.039 A 
ATOM     36  C   UNL     1      -2.742   3.064  -4.700  1.00  0.00     0.014 A 
ATOM     37  C   UNL     1      -2.109   3.466  -2.395  1.00  0.00     0.014 A 
ATOM     38  C   UNL     1      -4.089   3.128  -4.337  1.00  0.00     0.010 A 
ATOM     39  C   UNL     1      -3.450   3.464  -2.024  1.00  0.00     0.010 A 
ATOM     40  C   UNL     1      -4.452   3.301  -2.992  1.00  0.00    -0.014 A 
BRANCH  40  41
ATOM     41  C   UNL     1      -5.877   3.319  -2.578  1.00  0.00     0.031 A 
ATOM     42  C   UNL     1      -6.479   4.568  -1.999  1.00  0.00     0.074 A 
ATOM     43  C   UNL     1      -6.607   2.190  -2.658  1.00  0.00     0.049 A 
ATOM     44  N   UNL     1      -7.679   4.759  -1.512  1.00  0.00    -0.248 NA
ATOM     45  C   UNL     1      -5.608   5.752  -1.934  1.00  0.00     0.031 C 
ATOM     46  C   UNL     1      -6.120   0.901  -3.152  1.00  0.00     0.029 A 
ATOM     47  N   UNL     1      -7.910   1.943  -2.309  1.00  0.00    -0.354 N 
ATOM     48  C   UNL     1      -7.702   6.076  -1.072  1.00  0.00     0.074 A 
ATOM     49  C   UNL     1      -6.381   6.621  -1.301  1.00  0.00     0.031 C 
ATOM     50  C   UNL     1      -7.116   0.003  -3.087  1.00  0.00     0.029 A 
ATOM     51  C   UNL     1      -8.298   0.642  -2.517  1.00  0.00     0.049 A 
ATOM     52  H   UNL     1      -8.511   2.633  -1.944  1.00  0.00     0.167 HD
ATOM     53  C   UNL     1      -8.736   6.775  -0.547  1.00  0.00     0.037 A 
ATOM     54  C   UNL     1      -9.471   0.031  -2.268  1.00  0.00     0.037 A 
ATOM     55  C   UNL     1     -10.055   6.236  -0.340  1.00  0.00     0.049 A 
ATOM     56  C   UNL     1     -10.607   0.829  -1.692  1.00  0.00     0.074 A 
ATOM     57  C   UNL     1     -11.185   6.878   0.133  1.00  0.00     0.029 A 
ATOM     58  N   UNL     1     -10.417   4.921  -0.593  1.00  0.00    -0.354 N 
ATOM     59  N   UNL     1     -10.635   2.091  -1.341  1.00  0.00    -0.248 NA
ATOM     60  C   UNL     1     -11.877   0.119  -1.485  1.00  0.00     0.031 C 
ATOM     61  C   UNL     1     -12.223   5.942   0.203  1.00  0.00     0.029 A 
ATOM     62  C   UNL     1     -11.750   4.728  -0.269  1.00  0.00     0.049 A 
ATOM     63  H   UNL     1      -9.816   4.228  -0.950  1.00  0.00     0.167 HD
ATOM     64  C   UNL     1     -11.927   2.334  -0.894  1.00  0.00     0.074 A 
ATOM     65  C   UNL     1     -12.657   1.090  -1.032  1.00  0.00     0.031 C 
ATOM     66  C   UNL     1     -12.461   3.483  -0.412  1.00  0.00     0.037 A 
BRANCH  53  67
ATOM     67  C   UNL     1      -8.477   8.203  -0.164  1.00  0.00     0.057 A 
ATOM     68  C   UNL     1      -8.265   9.198  -1.128  1.00  0.00     0.134 A 
ATOM     69  C   UNL     1      -8.456   8.594   1.181  1.00  0.00     0.134 A 
ATOM     70  F   UNL     1      -8.260   8.889  -2.434  1.00  0.00    -0.206 F 
ATOM     71  C   UNL     1      -8.010  10.523  -0.768  1.00  0.00     0.040 A 
ATOM     72  C   UNL     1      -8.230   9.920   1.552  1.00  0.00     0.040 A 
ATOM     73  F   UNL     1      -8.658   7.694   2.155  1.00  0.00    -0.206 F 
ATOM     74  C   UNL     1      -7.997  10.887   0.576  1.00  0.00     0.006 A 
ENDBRANCH  53  67
BRANCH  54  75
ATOM     75  C   UNL     1      -9.634  -1.409  -2.585  1.00  0.00     0.057 A 
ATOM     76  C   UNL     1     -10.428  -1.827  -3.659  1.00  0.00     0.134 A 
ATOM     77  C   UNL     1      -8.994  -2.399  -1.830  1.00  0.00     0.134 A 
ATOM     78  F   UNL     1     -11.079  -0.925  -4.407  1.00  0.00    -0.206 F 
ATOM     79  C   UNL     1     -10.593  -3.179  -3.962  1.00  0.00     0.040 A 
ATOM     80  C   UNL     1      -9.132  -3.754  -2.136  1.00  0.00     0.040 A 
ATOM     81  F   UNL     1      -8.212  -2.062  -0.794  1.00  0.00    -0.206 F 
ATOM     82  C   UNL     1      -9.939  -4.147  -3.202  1.00  0.00     0.006 A 
ENDBRANCH  54  75
BRANCH  66  83
ATOM     83  C   UNL     1     -13.909   3.454  -0.023  1.00  0.00     0.057 A 
ATOM     84  C   UNL     1     -14.349   2.805   1.137  1.00  0.00     0.134 A 
ATOM     85  C   UNL     1     -14.869   4.116  -0.799  1.00  0.00     0.134 A 
ATOM     86  F   UNL     1     -13.481   2.141   1.915  1.00  0.00    -0.206 F 
ATOM     87  C   UNL     1     -15.696   2.798   1.502  1.00  0.00     0.040 A 
ATOM     88  C   UNL     1     -16.215   4.137  -0.432  1.00  0.00     0.040 A 
ATOM     89  F   UNL     1     -14.512   4.763  -1.919  1.00  0.00    -0.206 F 
ATOM     90  C   UNL     1     -16.633   3.471   0.719  1.00  0.00     0.006 A 
ENDBRANCH  66  83
ENDBRANCH  40  41
ENDBRANCH  32  35
ENDBRANCH  30  31
ENDBRANCH  29  30
ENDBRANCH  28  29
ENDBRANCH   1  28
TORSDOF 17
