REMARK SMILES O=C(NCCCCCCNC(=O)c1cc(=O)[nH]c2c(Br)cccc12)c1ccc(-c2c3nc(c(-c4c(F)cccc4F)c4ccc([nH]4)c(-c4c(F)cccc4F)c4nc(c(-c5c(F)cccc5F)c5ccc2[nH]5)C=C4)C=C3)cc1
REMARK SMILES IDX 5 1 4 2 3 3 1 4 2 5 25 7 26 8 78 9 27 10 77 11 28 12 29 13
REMARK SMILES IDX 30 14 71 15 31 16 76 17 70 18 72 19 32 20 75 21 69 22 68 23
REMARK SMILES IDX 33 25 59 26 42 27 58 28 43 29 46 30 57 31 73 32 44 33 45 34
REMARK SMILES IDX 56 36 74 37 47 38 34 39 35 40 40 41 36 42 37 43 39 44 41 45
REMARK SMILES IDX 38 46 60 47 61 48 66 49 62 50 63 51 65 52 67 53 64 54 48 55
REMARK SMILES IDX 49 56 54 57 50 58 51 59 53 60 55 61 52 62 6 63 7 64 8 65
REMARK SMILES IDX 9 66 10 67 11 68 12 70 13 71 14 72 24 73 15 74 18 75 23 76
REMARK SMILES IDX 16 77 17 78 19 79 22 80 20 82 21 83
REMARK H PARENT 3 6 72 24 46 35 10 69 17 81
REMARK Flexibility Score: inf
ROOT
ATOM      1  C   UNL     1       4.807   2.553   0.041  1.00  0.00     0.021 C 
ENDROOT
BRANCH   1   2
ATOM      2  C   UNL     1       4.496   1.127   0.482  1.00  0.00     0.116 C 
BRANCH   2   3
ATOM      3  N   UNL     1       3.069   0.888   0.607  1.00  0.00    -0.352 N 
ATOM      4  O   UNL     1       1.081  -0.066   0.164  1.00  0.00    -0.269 OA
ATOM      5  C   UNL     1       2.306  -0.130   0.097  1.00  0.00     0.251 C 
ATOM      6  H   UNL     1       2.577   1.557   1.136  1.00  0.00     0.163 HD
BRANCH   5   7
ATOM      7  C   UNL     1       2.942  -1.305  -0.538  1.00  0.00     0.039 A 
ATOM      8  C   UNL     1       2.364  -1.835  -1.696  1.00  0.00     0.014 A 
ATOM      9  C   UNL     1       4.055  -1.928   0.036  1.00  0.00     0.014 A 
ATOM     10  C   UNL     1       2.907  -2.978  -2.286  1.00  0.00     0.010 A 
ATOM     11  C   UNL     1       4.633  -3.031  -0.588  1.00  0.00     0.010 A 
ATOM     12  C   UNL     1       4.048  -3.582  -1.739  1.00  0.00    -0.014 A 
BRANCH  12  13
ATOM     13  C   UNL     1       4.599  -4.835  -2.310  1.00  0.00     0.031 A 
ATOM     14  C   UNL     1       4.524  -6.111  -1.518  1.00  0.00     0.074 A 
ATOM     15  C   UNL     1       5.200  -4.824  -3.514  1.00  0.00     0.049 A 
ATOM     16  N   UNL     1       5.007  -7.294  -1.801  1.00  0.00    -0.248 NA
ATOM     17  C   UNL     1       3.833  -6.038  -0.221  1.00  0.00     0.031 C 
ATOM     18  C   UNL     1       5.359  -3.649  -4.369  1.00  0.00     0.029 A 
ATOM     19  N   UNL     1       5.800  -5.837  -4.219  1.00  0.00    -0.354 N 
ATOM     20  C   UNL     1       4.694  -8.099  -0.712  1.00  0.00     0.074 A 
ATOM     21  C   UNL     1       4.028  -7.256   0.258  1.00  0.00     0.031 C 
ATOM     22  C   UNL     1       6.006  -4.009  -5.490  1.00  0.00     0.029 A 
ATOM     23  C   UNL     1       6.334  -5.430  -5.416  1.00  0.00     0.049 A 
ATOM     24  H   UNL     1       5.843  -6.766  -3.897  1.00  0.00     0.167 HD
ATOM     25  C   UNL     1       4.920  -9.424  -0.543  1.00  0.00     0.037 A 
ATOM     26  C   UNL     1       7.023  -6.123  -6.341  1.00  0.00     0.037 A 
ATOM     27  C   UNL     1       5.564 -10.265  -1.517  1.00  0.00     0.049 A 
ATOM     28  C   UNL     1       7.289  -7.585  -6.122  1.00  0.00     0.074 A 
ATOM     29  C   UNL     1       5.781 -11.631  -1.472  1.00  0.00     0.029 A 
ATOM     30  N   UNL     1       6.105  -9.813  -2.712  1.00  0.00    -0.354 N 
ATOM     31  N   UNL     1       6.938  -8.348  -5.115  1.00  0.00    -0.248 NA
ATOM     32  C   UNL     1       8.048  -8.283  -7.170  1.00  0.00     0.031 C 
ATOM     33  C   UNL     1       6.493 -11.998  -2.621  1.00  0.00     0.029 A 
ATOM     34  C   UNL     1       6.684 -10.868  -3.399  1.00  0.00     0.049 A 
ATOM     35  H   UNL     1       6.080  -8.881  -3.026  1.00  0.00     0.167 HD
ATOM     36  C   UNL     1       7.427  -9.614  -5.408  1.00  0.00     0.074 A 
ATOM     37  C   UNL     1       8.077  -9.522  -6.700  1.00  0.00     0.031 C 
ATOM     38  C   UNL     1       7.349 -10.751  -4.673  1.00  0.00     0.037 A 
BRANCH  25  39
ATOM     39  C   UNL     1       4.471 -10.030   0.756  1.00  0.00     0.057 A 
ATOM     40  C   UNL     1       5.406 -10.444   1.712  1.00  0.00     0.134 A 
ATOM     41  C   UNL     1       3.114 -10.184   1.071  1.00  0.00     0.134 A 
ATOM     42  F   UNL     1       6.721 -10.331   1.473  1.00  0.00    -0.206 F 
ATOM     43  C   UNL     1       5.008 -10.975   2.940  1.00  0.00     0.040 A 
ATOM     44  C   UNL     1       2.703 -10.686   2.307  1.00  0.00     0.040 A 
ATOM     45  F   UNL     1       2.166  -9.792   0.206  1.00  0.00    -0.206 F 
ATOM     46  C   UNL     1       3.653 -11.086   3.245  1.00  0.00     0.006 A 
ENDBRANCH  25  39
BRANCH  26  47
ATOM     47  C   UNL     1       7.508  -5.436  -7.564  1.00  0.00     0.057 A 
ATOM     48  C   UNL     1       8.562  -4.517  -7.514  1.00  0.00     0.134 A 
ATOM     49  C   UNL     1       6.917  -5.677  -8.809  1.00  0.00     0.134 A 
ATOM     50  F   UNL     1       9.167  -4.242  -6.349  1.00  0.00    -0.206 F 
ATOM     51  C   UNL     1       9.004  -3.851  -8.658  1.00  0.00     0.040 A 
ATOM     52  C   UNL     1       7.362  -5.033  -9.964  1.00  0.00     0.040 A 
ATOM     53  F   UNL     1       5.916  -6.563  -8.920  1.00  0.00    -0.206 F 
ATOM     54  C   UNL     1       8.405  -4.112  -9.889  1.00  0.00     0.006 A 
ENDBRANCH  26  47
BRANCH  38  55
ATOM     55  C   UNL     1       7.992 -11.978  -5.250  1.00  0.00     0.057 A 
ATOM     56  C   UNL     1       7.215 -13.028  -5.754  1.00  0.00     0.134 A 
ATOM     57  C   UNL     1       9.385 -12.124  -5.294  1.00  0.00     0.134 A 
ATOM     58  F   UNL     1       5.876 -12.954  -5.737  1.00  0.00    -0.206 F 
ATOM     59  C   UNL     1       7.801 -14.180  -6.280  1.00  0.00     0.040 A 
ATOM     60  C   UNL     1       9.982 -13.261  -5.840  1.00  0.00     0.040 A 
ATOM     61  F   UNL     1      10.185 -11.146  -4.842  1.00  0.00    -0.206 F 
ATOM     62  C   UNL     1       9.188 -14.296  -6.330  1.00  0.00     0.006 A 
ENDBRANCH  38  55
ENDBRANCH  12  13
ENDBRANCH   5   7
ENDBRANCH   2   3
ENDBRANCH   1   2
BRANCH   1  63
ATOM     63  C   UNL     1       4.339   3.650   1.001  1.00  0.00     0.002 C 
BRANCH  63  64
ATOM     64  C   UNL     1       4.857   3.538   2.437  1.00  0.00     0.002 C 
BRANCH  64  65
ATOM     65  C   UNL     1       6.379   3.454   2.589  1.00  0.00     0.021 C 
BRANCH  65  66
ATOM     66  C   UNL     1       7.166   4.574   1.911  1.00  0.00     0.116 C 
BRANCH  66  67
ATOM     67  N   UNL     1       6.822   5.884   2.437  1.00  0.00    -0.352 N 
ATOM     68  C   UNL     1       7.636   6.866   2.920  1.00  0.00     0.252 C 
ATOM     69  H   UNL     1       5.860   6.093   2.446  1.00  0.00     0.163 HD
ATOM     70  O   UNL     1       7.152   7.884   3.406  1.00  0.00    -0.269 OA
BRANCH  68  71
ATOM     71  C   UNL     1       9.104   6.664   2.869  1.00  0.00     0.054 A 
ATOM     72  C   UNL     1       9.650   6.583   1.644  1.00  0.00     0.086 A 
ATOM     73  C   UNL     1       9.957   6.631   4.069  1.00  0.00     0.012 A 
ATOM     74  C   UNL     1      11.096   6.356   1.470  1.00  0.00     0.249 A 
ATOM     75  C   UNL     1      11.339   6.442   3.903  1.00  0.00     0.063 A 
ATOM     76  C   UNL     1       9.444   6.773   5.366  1.00  0.00     0.011 A 
ATOM     77  O   UNL     1      11.572   6.212   0.348  1.00  0.00    -0.270 OA
ATOM     78  N   UNL     1      11.852   6.299   2.602  1.00  0.00    -0.321 N 
ATOM     79  C   UNL     1      12.187   6.398   5.017  1.00  0.00     0.042 A 
ATOM     80  C   UNL     1      10.293   6.734   6.475  1.00  0.00     0.002 A 
ATOM     81  H   UNL     1      12.820   6.149   2.502  1.00  0.00     0.170 HD
ATOM     82  Br  UNL     1      14.059   6.145   4.830  1.00  0.00    -0.049 Br
ATOM     83  C   UNL     1      11.664   6.546   6.302  1.00  0.00     0.018 A 
ENDBRANCH  68  71
ENDBRANCH  66  67
ENDBRANCH  65  66
ENDBRANCH  64  65
ENDBRANCH  63  64
ENDBRANCH   1  63
TORSDOF 13
