REMARK SMILES Cc1noc(C)c1[C@@H](C)NC(=O)N(CC(=O)NCCCCCCNC(=O)c1ccc(-c2c3nc(c(-c4c(F)cccc4F)c4ccc([nH]4)c(-c4c(F)cccc4F)c4nc(c(-c5c(F)cccc5F)c5ccc2[nH]5)C=C4)C=C3)cc1)C(C)C
REMARK SMILES IDX 19 1 18 2 17 3 15 4 16 5 14 7 13 8 11 9 10 10 12 12 8 13
REMARK SMILES IDX 9 14 7 15 1 16 2 17 3 18 4 19 5 20 6 21 81 22 82 23 83 24
REMARK SMILES IDX 20 25 21 26 22 27 23 28 24 29 25 30 26 32 27 33 28 34 80 35
REMARK SMILES IDX 29 36 79 37 30 38 31 39 32 40 73 41 33 42 78 43 72 44 74 45
REMARK SMILES IDX 34 46 77 47 71 48 70 49 35 51 61 52 44 53 60 54 45 55 48 56
REMARK SMILES IDX 59 57 75 58 46 59 47 60 58 62 76 63 49 64 36 65 37 66 42 67
REMARK SMILES IDX 38 68 39 69 41 70 43 71 40 72 62 73 63 74 68 75 64 76 65 77
REMARK SMILES IDX 67 78 69 79 66 80 50 81 51 82 56 83 52 84 53 85 55 86 57 87
REMARK SMILES IDX 54 88
REMARK H PARENT 17 6 10 11 24 31 74 50 48 61
REMARK Flexibility Score: inf
ROOT
ATOM      1  C   UNL     1      -0.125   7.282   0.193  1.00  0.00     0.021 C 
ENDROOT
BRANCH   1   2
ATOM      2  C   UNL     1       0.483   6.021  -0.404  1.00  0.00     0.116 C 
BRANCH   2   3
ATOM      3  N   UNL     1       1.925   6.053  -0.480  1.00  0.00    -0.355 N 
ATOM      4  C   UNL     1       2.863   5.206   0.022  1.00  0.00     0.239 C 
ATOM      5  O   UNL     1       4.016   5.350  -0.404  1.00  0.00    -0.273 OA
ATOM      6  H   UNL     1       2.291   6.818  -0.980  1.00  0.00     0.163 HD
BRANCH   4   7
ATOM      7  C   UNL     1       2.535   4.001   0.924  1.00  0.00     0.221 C 
BRANCH   7   8
ATOM      8  N   UNL     1       1.573   4.179   2.011  1.00  0.00    -0.313 N 
BRANCH   8   9
ATOM      9  C   UNL     1       0.294   3.701   2.098  1.00  0.00     0.318 C 
ATOM     10  N   UNL     1      -0.331   2.957   1.169  1.00  0.00    -0.331 N 
ATOM     11  H   UNL     1      -1.226   2.710   1.496  1.00  0.00     0.165 HD
ATOM     12  O   UNL     1      -0.425   3.955   3.072  1.00  0.00    -0.249 OA
BRANCH  10  13
ATOM     13  C   UNL     1      -0.128   2.393  -0.164  1.00  0.00     0.116 C 
ATOM     14  C   UNL     1      -1.200   2.885  -1.143  1.00  0.00     0.036 C 
BRANCH  13  15
ATOM     15  C   UNL     1      -0.100   0.901  -0.030  1.00  0.00     0.040 A 
ATOM     16  C   UNL     1      -2.641   0.201   0.102  1.00  0.00     0.071 C 
ATOM     17  C   UNL     1      -1.177  -0.034   0.076  1.00  0.00     0.086 A 
ATOM     18  N   UNL     1      -0.729  -1.292   0.154  1.00  0.00    -0.085 NA
ATOM     19  O   UNL     1       0.643  -1.208   0.128  1.00  0.00    -0.361 OA
ATOM     20  C   UNL     1       1.020   0.090   0.023  1.00  0.00     0.139 A 
ATOM     21  C   UNL     1       2.474   0.333  -0.002  1.00  0.00     0.091 C 
ENDBRANCH  13  15
ENDBRANCH  10  13
ENDBRANCH   8   9
BRANCH   8  22
ATOM     22  C   UNL     1       2.132   4.949   3.162  1.00  0.00     0.081 C 
ATOM     23  C   UNL     1       1.530   6.342   3.325  1.00  0.00     0.031 C 
ATOM     24  C   UNL     1       2.122   4.174   4.482  1.00  0.00     0.031 C 
ENDBRANCH   8  22
ENDBRANCH   7   8
ENDBRANCH   4   7
ENDBRANCH   2   3
ENDBRANCH   1   2
BRANCH   1  25
ATOM     25  C   UNL     1      -0.026   8.505  -0.718  1.00  0.00     0.002 C 
BRANCH  25  26
ATOM     26  C   UNL     1      -0.813   8.383  -2.025  1.00  0.00     0.002 C 
BRANCH  26  27
ATOM     27  C   UNL     1      -2.303   8.078  -1.853  1.00  0.00     0.021 C 
BRANCH  27  28
ATOM     28  C   UNL     1      -3.048   9.052  -0.947  1.00  0.00     0.116 C 
BRANCH  28  29
ATOM     29  N   UNL     1      -2.977  10.416  -1.444  1.00  0.00    -0.352 N 
ATOM     30  C   UNL     1      -3.995  11.291  -1.726  1.00  0.00     0.251 C 
ATOM     31  H   UNL     1      -2.068  10.761  -1.601  1.00  0.00     0.163 HD
ATOM     32  O   UNL     1      -3.772  12.324  -2.345  1.00  0.00    -0.269 OA
BRANCH  30  33
ATOM     33  C   UNL     1      -5.369  10.970  -1.290  1.00  0.00     0.039 A 
ATOM     34  C   UNL     1      -6.423  11.152  -2.187  1.00  0.00     0.014 A 
ATOM     35  C   UNL     1      -5.612  10.493   0.002  1.00  0.00     0.014 A 
ATOM     36  C   UNL     1      -7.719  10.806  -1.804  1.00  0.00     0.010 A 
ATOM     37  C   UNL     1      -6.891  10.076   0.354  1.00  0.00     0.010 A 
ATOM     38  C   UNL     1      -7.959  10.236  -0.542  1.00  0.00    -0.014 A 
BRANCH  38  39
ATOM     39  C   UNL     1      -9.322   9.807  -0.142  1.00  0.00     0.031 A 
ATOM     40  C   UNL     1     -10.012  10.471   1.017  1.00  0.00     0.074 A 
ATOM     41  C   UNL     1      -9.914   8.784  -0.786  1.00  0.00     0.049 A 
ATOM     42  N   UNL     1     -11.177  10.202   1.550  1.00  0.00    -0.248 NA
ATOM     43  C   UNL     1      -9.287  11.566   1.682  1.00  0.00     0.031 C 
ATOM     44  C   UNL     1      -9.327   8.030  -1.896  1.00  0.00     0.029 A 
ATOM     45  N   UNL     1     -11.138   8.195  -0.596  1.00  0.00    -0.354 N 
ATOM     46  C   UNL     1     -11.318  11.083   2.615  1.00  0.00     0.074 A 
ATOM     47  C   UNL     1     -10.097  11.854   2.690  1.00  0.00     0.031 C 
ATOM     48  C   UNL     1     -10.202   7.096  -2.304  1.00  0.00     0.029 A 
ATOM     49  C   UNL     1     -11.390   7.156  -1.459  1.00  0.00     0.049 A 
ATOM     50  H   UNL     1     -11.776   8.488   0.095  1.00  0.00     0.167 HD
ATOM     51  C   UNL     1     -12.379  11.252   3.439  1.00  0.00     0.037 A 
ATOM     52  C   UNL     1     -12.457   6.340  -1.554  1.00  0.00     0.037 A 
ATOM     53  C   UNL     1     -13.598  10.492   3.350  1.00  0.00     0.049 A 
ATOM     54  C   UNL     1     -13.614   6.534  -0.613  1.00  0.00     0.074 A 
ATOM     55  C   UNL     1     -14.752  10.622   4.104  1.00  0.00     0.029 A 
ATOM     56  N   UNL     1     -13.820   9.454   2.456  1.00  0.00    -0.354 N 
ATOM     57  N   UNL     1     -13.763   7.418   0.344  1.00  0.00    -0.248 NA
ATOM     58  C   UNL     1     -14.755   5.622  -0.771  1.00  0.00     0.031 C 
ATOM     59  C   UNL     1     -15.650   9.628   3.703  1.00  0.00     0.029 A 
ATOM     60  C   UNL     1     -15.081   8.918   2.658  1.00  0.00     0.049 A 
ATOM     61  H   UNL     1     -13.175   9.145   1.779  1.00  0.00     0.167 HD
ATOM     62  C   UNL     1     -15.024   7.190   0.880  1.00  0.00     0.074 A 
ATOM     63  C   UNL     1     -15.604   6.094   0.131  1.00  0.00     0.031 C 
ATOM     64  C   UNL     1     -15.647   7.831   1.899  1.00  0.00     0.037 A 
BRANCH  51  65
ATOM     65  C   UNL     1     -12.266  12.299   4.510  1.00  0.00     0.057 A 
ATOM     66  C   UNL     1     -12.236  13.667   4.208  1.00  0.00     0.134 A 
ATOM     67  C   UNL     1     -12.220  11.937   5.863  1.00  0.00     0.134 A 
ATOM     68  F   UNL     1     -12.265  14.083   2.933  1.00  0.00    -0.206 F 
ATOM     69  C   UNL     1     -12.134  14.635   5.209  1.00  0.00     0.040 A 
ATOM     70  C   UNL     1     -12.150  12.897   6.874  1.00  0.00     0.040 A 
ATOM     71  F   UNL     1     -12.252  10.646   6.225  1.00  0.00    -0.206 F 
ATOM     72  C   UNL     1     -12.099  14.251   6.548  1.00  0.00     0.006 A 
ENDBRANCH  51  65
BRANCH  52  73
ATOM     73  C   UNL     1     -12.489   5.273  -2.587  1.00  0.00     0.057 A 
ATOM     74  C   UNL     1     -13.380   5.337  -3.665  1.00  0.00     0.134 A 
ATOM     75  C   UNL     1     -11.641   4.161  -2.518  1.00  0.00     0.134 A 
ATOM     76  F   UNL     1     -14.229   6.369  -3.778  1.00  0.00    -0.206 F 
ATOM     77  C   UNL     1     -13.444   4.324  -4.623  1.00  0.00     0.040 A 
ATOM     78  C   UNL     1     -11.674   3.155  -3.485  1.00  0.00     0.040 A 
ATOM     79  F   UNL     1     -10.756   4.044  -1.517  1.00  0.00    -0.206 F 
ATOM     80  C   UNL     1     -12.585   3.230  -4.536  1.00  0.00     0.006 A 
ENDBRANCH  52  73
BRANCH  64  81
ATOM     81  C   UNL     1     -17.043   7.392   2.238  1.00  0.00     0.057 A 
ATOM     82  C   UNL     1     -17.308   6.161   2.850  1.00  0.00     0.134 A 
ATOM     83  C   UNL     1     -18.134   8.234   1.982  1.00  0.00     0.134 A 
ATOM     84  F   UNL     1     -16.310   5.303   3.112  1.00  0.00    -0.206 F 
ATOM     85  C   UNL     1     -18.609   5.771   3.172  1.00  0.00     0.040 A 
ATOM     86  C   UNL     1     -19.436   7.868   2.326  1.00  0.00     0.040 A 
ATOM     87  F   UNL     1     -17.951   9.432   1.406  1.00  0.00    -0.206 F 
ATOM     88  C   UNL     1     -19.677   6.630   2.917  1.00  0.00     0.006 A 
ENDBRANCH  64  81
ENDBRANCH  38  39
ENDBRANCH  30  33
ENDBRANCH  28  29
ENDBRANCH  27  28
ENDBRANCH  26  27
ENDBRANCH  25  26
ENDBRANCH   1  25
TORSDOF 18
