REMARK SMILES C[C@H]([C@@H]1CCCO1)n1c(SCC(=O)NCCCCCCNC(=O)c2ccc(-c3c4nc(c(-c5c(F)cccc5F)c5ccc([nH]5)c(-c5c(F)cccc5F)c5nc(c(-c6c(F)cccc6F)c6ccc3[nH]6)C=C5)C=C4)cc2)nc2cnccc21
REMARK SMILES IDX 16 1 15 2 14 3 12 4 13 5 11 7 10 8 9 9 8 10 84 11 78 12
REMARK SMILES IDX 79 13 83 14 80 15 82 16 81 17 2 18 1 19 3 20 4 21 7 22 5 23
REMARK SMILES IDX 6 24 17 25 18 26 19 27 20 28 21 29 22 30 23 32 24 33 25 34
REMARK SMILES IDX 77 35 26 36 76 37 27 38 28 39 29 40 70 41 30 42 75 43 69 44
REMARK SMILES IDX 71 45 31 46 74 47 68 48 67 49 32 51 58 52 41 53 57 54 42 55
REMARK SMILES IDX 45 56 56 57 72 58 43 59 44 60 55 62 73 63 46 64 33 65 34 66
REMARK SMILES IDX 39 67 35 68 36 69 38 70 40 71 37 72 59 73 60 74 65 75 61 76
REMARK SMILES IDX 62 77 64 78 66 79 63 80 47 81 48 82 53 83 49 84 50 85 52 86
REMARK SMILES IDX 54 87 51 88
REMARK H PARENT 14 6 21 31 71 50 45 61
REMARK Flexibility Score: inf
ROOT
ATOM      1  C   UNL     1      -1.150   1.265  -5.336  1.00  0.00     0.021 C 
ENDROOT
BRANCH   1   2
ATOM      2  C   UNL     1       0.009   0.270  -5.363  1.00  0.00     0.116 C 
BRANCH   2   3
ATOM      3  N   UNL     1       1.163   0.840  -4.721  1.00  0.00    -0.355 N 
ATOM      4  C   UNL     1       1.526   0.735  -3.425  1.00  0.00     0.230 C 
ATOM      5  O   UNL     1       2.518   1.374  -3.060  1.00  0.00    -0.274 OA
ATOM      6  H   UNL     1       1.760   1.371  -5.296  1.00  0.00     0.163 HD
BRANCH   4   7
ATOM      7  C   UNL     1       0.873  -0.268  -2.510  1.00  0.00     0.178 C 
BRANCH   7   8
ATOM      8  S   UNL     1      -0.908  -0.247  -2.278  1.00  0.00    -0.078 SA
BRANCH   8   9
ATOM      9  C   UNL     1      -1.472   0.764  -0.999  1.00  0.00     0.169 A 
ATOM     10  N   UNL     1      -0.824   1.281   0.097  1.00  0.00    -0.313 N 
ATOM     11  C   UNL     1      -1.707   2.167   0.710  1.00  0.00     0.072 A 
ATOM     12  N   UNL     1      -2.760   1.053  -0.950  1.00  0.00    -0.221 NA
ATOM     13  C   UNL     1      -2.928   1.921   0.099  1.00  0.00     0.108 A 
ATOM     14  C   UNL     1      -1.573   3.109   1.734  1.00  0.00     0.049 A 
ATOM     15  C   UNL     1      -4.070   2.563   0.590  1.00  0.00     0.141 A 
ATOM     16  C   UNL     1      -2.751   3.727   2.124  1.00  0.00     0.113 A 
ATOM     17  N   UNL     1      -3.971   3.466   1.604  1.00  0.00    -0.262 NA
BRANCH  10  18
ATOM     18  C   UNL     1       0.515   1.048   0.620  1.00  0.00     0.116 C 
ATOM     19  C   UNL     1       1.541   1.854  -0.176  1.00  0.00     0.034 C 
BRANCH  18  20
ATOM     20  C   UNL     1       0.839  -0.378   1.185  1.00  0.00     0.141 C 
ATOM     21  C   UNL     1       0.818  -1.695   0.403  1.00  0.00     0.036 C 
ATOM     22  O   UNL     1      -0.080  -0.608   2.287  1.00  0.00    -0.376 OA
ATOM     23  C   UNL     1      -0.213  -2.578   1.069  1.00  0.00     0.031 C 
ATOM     24  C   UNL     1      -1.023  -1.601   1.872  1.00  0.00     0.160 C 
ENDBRANCH  18  20
ENDBRANCH  10  18
ENDBRANCH   8   9
ENDBRANCH   7   8
ENDBRANCH   4   7
ENDBRANCH   2   3
ENDBRANCH   1   2
BRANCH   1  25
ATOM     25  C   UNL     1      -0.826   2.593  -6.026  1.00  0.00     0.002 C 
BRANCH  25  26
ATOM     26  C   UNL     1      -0.253   2.430  -7.431  1.00  0.00     0.002 C 
BRANCH  26  27
ATOM     27  C   UNL     1      -1.071   1.494  -8.325  1.00  0.00     0.021 C 
BRANCH  27  28
ATOM     28  C   UNL     1      -2.545   1.886  -8.423  1.00  0.00     0.116 C 
BRANCH  28  29
ATOM     29  N   UNL     1      -2.720   3.217  -8.951  1.00  0.00    -0.352 N 
ATOM     30  C   UNL     1      -2.641   3.741 -10.205  1.00  0.00     0.251 C 
ATOM     31  H   UNL     1      -2.941   3.885  -8.263  1.00  0.00     0.163 HD
ATOM     32  O   UNL     1      -2.828   4.963 -10.302  1.00  0.00    -0.269 OA
BRANCH  30  33
ATOM     33  C   UNL     1      -2.295   2.971 -11.429  1.00  0.00     0.039 A 
ATOM     34  C   UNL     1      -2.067   1.596 -11.491  1.00  0.00     0.014 A 
ATOM     35  C   UNL     1      -2.143   3.725 -12.606  1.00  0.00     0.014 A 
ATOM     36  C   UNL     1      -1.577   1.014 -12.649  1.00  0.00     0.010 A 
ATOM     37  C   UNL     1      -1.701   3.139 -13.786  1.00  0.00     0.010 A 
ATOM     38  C   UNL     1      -1.367   1.792 -13.789  1.00  0.00    -0.014 A 
BRANCH  38  39
ATOM     39  C   UNL     1      -0.882   1.100 -14.976  1.00  0.00     0.031 A 
ATOM     40  C   UNL     1      -1.703  -0.076 -15.387  1.00  0.00     0.074 A 
ATOM     41  C   UNL     1       0.194   1.480 -15.691  1.00  0.00     0.049 A 
ATOM     42  N   UNL     1      -1.363  -1.324 -15.372  1.00  0.00    -0.248 NA
ATOM     43  C   UNL     1      -3.114   0.157 -15.727  1.00  0.00     0.031 C 
ATOM     44  C   UNL     1       0.978   2.712 -15.605  1.00  0.00     0.029 A 
ATOM     45  N   UNL     1       0.778   0.817 -16.725  1.00  0.00    -0.354 N 
ATOM     46  C   UNL     1      -2.460  -2.031 -15.858  1.00  0.00     0.074 A 
ATOM     47  C   UNL     1      -3.544  -1.086 -15.947  1.00  0.00     0.031 C 
ATOM     48  C   UNL     1       1.788   2.801 -16.687  1.00  0.00     0.029 A 
ATOM     49  C   UNL     1       1.688   1.570 -17.452  1.00  0.00     0.049 A 
ATOM     50  H   UNL     1       0.572  -0.121 -16.940  1.00  0.00     0.167 HD
ATOM     51  C   UNL     1      -2.341  -3.305 -16.324  1.00  0.00     0.037 A 
ATOM     52  C   UNL     1       2.273   1.208 -18.621  1.00  0.00     0.037 A 
ATOM     53  C   UNL     1      -1.145  -3.938 -15.835  1.00  0.00     0.049 A 
ATOM     54  C   UNL     1       2.190  -0.270 -18.725  1.00  0.00     0.074 A 
ATOM     55  C   UNL     1      -0.659  -4.261 -14.582  1.00  0.00     0.029 A 
ATOM     56  N   UNL     1      -0.065  -4.033 -16.677  1.00  0.00    -0.354 N 
ATOM     57  N   UNL     1       2.874  -1.087 -17.974  1.00  0.00    -0.248 NA
ATOM     58  C   UNL     1       1.008  -0.840 -19.355  1.00  0.00     0.031 C 
ATOM     59  C   UNL     1       0.744  -4.012 -14.657  1.00  0.00     0.029 A 
ATOM     60  C   UNL     1       1.026  -3.611 -15.961  1.00  0.00     0.049 A 
ATOM     61  H   UNL     1      -0.072  -4.343 -17.612  1.00  0.00     0.167 HD
ATOM     62  C   UNL     1       1.996  -2.120 -17.687  1.00  0.00     0.074 A 
ATOM     63  C   UNL     1       0.891  -1.956 -18.630  1.00  0.00     0.031 C 
ATOM     64  C   UNL     1       2.104  -2.845 -16.535  1.00  0.00     0.037 A 
BRANCH  51  65
ATOM     65  C   UNL     1      -3.118  -3.850 -17.496  1.00  0.00     0.057 A 
ATOM     66  C   UNL     1      -3.712  -3.040 -18.486  1.00  0.00     0.134 A 
ATOM     67  C   UNL     1      -3.007  -5.213 -17.827  1.00  0.00     0.134 A 
ATOM     68  F   UNL     1      -3.830  -1.714 -18.351  1.00  0.00    -0.206 F 
ATOM     69  C   UNL     1      -4.125  -3.538 -19.724  1.00  0.00     0.040 A 
ATOM     70  C   UNL     1      -3.374  -5.713 -19.082  1.00  0.00     0.040 A 
ATOM     71  F   UNL     1      -2.456  -6.087 -16.971  1.00  0.00    -0.206 F 
ATOM     72  C   UNL     1      -3.923  -4.871 -20.041  1.00  0.00     0.006 A 
ENDBRANCH  51  65
BRANCH  52  73
ATOM     73  C   UNL     1       2.640   2.054 -19.778  1.00  0.00     0.057 A 
ATOM     74  C   UNL     1       1.943   3.239 -20.068  1.00  0.00     0.134 A 
ATOM     75  C   UNL     1       3.483   1.572 -20.790  1.00  0.00     0.134 A 
ATOM     76  F   UNL     1       1.057   3.752 -19.201  1.00  0.00    -0.206 F 
ATOM     77  C   UNL     1       2.057   3.893 -21.299  1.00  0.00     0.040 A 
ATOM     78  C   UNL     1       3.602   2.214 -22.030  1.00  0.00     0.040 A 
ATOM     79  F   UNL     1       4.160   0.427 -20.625  1.00  0.00    -0.206 F 
ATOM     80  C   UNL     1       2.876   3.372 -22.292  1.00  0.00     0.006 A 
ENDBRANCH  52  73
BRANCH  64  81
ATOM     81  C   UNL     1       3.325  -2.630 -15.685  1.00  0.00     0.057 A 
ATOM     82  C   UNL     1       4.125  -3.728 -15.355  1.00  0.00     0.134 A 
ATOM     83  C   UNL     1       3.654  -1.404 -15.083  1.00  0.00     0.134 A 
ATOM     84  F   UNL     1       3.835  -4.946 -15.840  1.00  0.00    -0.206 F 
ATOM     85  C   UNL     1       5.214  -3.614 -14.487  1.00  0.00     0.040 A 
ATOM     86  C   UNL     1       4.762  -1.268 -14.240  1.00  0.00     0.040 A 
ATOM     87  F   UNL     1       2.885  -0.321 -15.249  1.00  0.00    -0.206 F 
ATOM     88  C   UNL     1       5.544  -2.377 -13.937  1.00  0.00     0.006 A 
ENDBRANCH  64  81
ENDBRANCH  38  39
ENDBRANCH  30  33
ENDBRANCH  28  29
ENDBRANCH  27  28
ENDBRANCH  26  27
ENDBRANCH  25  26
ENDBRANCH   1  25
TORSDOF 17
