REMARK SMILES C[C@@H]1C(C(=O)NCCCCCCNC(=O)c2ccc(-c3c4nc(c(-c5c(F)cccc5F)c5ccc([nH]5)c(-c5c(F)cccc5F)c5nc(c(-c6c(F)cccc6F)c6ccc3[nH]6)C=C5)C=C4)cc2)=NC2=C1C(=O)C[C@H](c1ccccc1)C2
REMARK SMILES IDX 10 1 9 2 8 3 7 4 6 5 4 6 5 7 3 9 1 10 2 11 72 12 70 13 71 14
REMARK SMILES IDX 73 15 83 16 74 17 75 18 76 19 77 20 78 21 82 22 79 23 81 24
REMARK SMILES IDX 80 25 11 26 12 27 13 28 14 29 15 31 16 32 17 33 69 34 18 35
REMARK SMILES IDX 68 36 19 37 20 38 21 39 62 40 22 41 67 42 61 43 63 44 23 45
REMARK SMILES IDX 66 46 60 47 59 48 24 50 50 51 33 52 49 53 34 54 37 55 48 56
REMARK SMILES IDX 64 57 35 58 36 59 47 61 65 62 38 63 25 64 26 65 31 66 27 67
REMARK SMILES IDX 28 68 30 69 32 70 29 71 51 72 52 73 57 74 53 75 54 76 56 77
REMARK SMILES IDX 58 78 55 79 39 80 40 81 45 82 41 83 42 84 44 85 46 86 43 87
REMARK H PARENT 6 8 13 30 63 49 37 60
REMARK Flexibility Score: inf
ROOT
ATOM      1  C   UNL     1      -0.756  -0.519  -4.032  1.00  0.00     0.002 C 
ENDROOT
BRANCH   1   2
ATOM      2  C   UNL     1      -1.484  -1.565  -3.181  1.00  0.00     0.002 C 
BRANCH   2   3
ATOM      3  C   UNL     1      -0.806  -2.087  -1.917  1.00  0.00     0.021 C 
BRANCH   3   4
ATOM      4  C   UNL     1      -0.166  -1.105  -0.936  1.00  0.00     0.116 C 
BRANCH   4   5
ATOM      5  N   UNL     1      -0.934   0.043  -0.504  1.00  0.00    -0.351 N 
ATOM      6  C   UNL     1      -0.683   0.915   0.551  1.00  0.00     0.266 C 
ATOM      7  O   UNL     1      -1.195   2.030   0.547  1.00  0.00    -0.268 OA
ATOM      8  H   UNL     1      -1.746   0.234  -1.028  1.00  0.00     0.163 HD
BRANCH   6   9
ATOM      9  C   UNL     1       0.094   0.465   1.791  1.00  0.00     0.113 C 
ATOM     10  C   UNL     1       2.574   0.554   1.994  1.00  0.00     0.020 C 
ATOM     11  C   UNL     1       1.364  -0.342   1.737  1.00  0.00     0.076 C 
ATOM     12  C   UNL     1       0.964  -1.122   2.947  1.00  0.00     0.026 C 
ATOM     13  N   UNL     1      -0.362   0.667   3.003  1.00  0.00    -0.251 NA
ATOM     14  C   UNL     1       0.176  -0.376   3.730  1.00  0.00     0.049 C 
ATOM     15  C   UNL     1       0.618  -2.560   2.898  1.00  0.00     0.161 C 
ATOM     16  C   UNL     1      -0.591  -0.991   4.864  1.00  0.00     0.065 C 
ATOM     17  O   UNL     1       1.370  -3.332   2.303  1.00  0.00    -0.294 OA
ATOM     18  C   UNL     1      -0.735  -3.039   3.469  1.00  0.00     0.089 C 
ATOM     19  C   UNL     1      -1.592  -1.990   4.252  1.00  0.00     0.033 C 
BRANCH  19  20
ATOM     20  C   UNL     1      -2.732  -1.295   3.479  1.00  0.00    -0.044 A 
ATOM     21  C   UNL     1      -3.126   0.022   3.805  1.00  0.00     0.004 A 
ATOM     22  C   UNL     1      -3.428  -1.914   2.433  1.00  0.00     0.004 A 
ATOM     23  C   UNL     1      -4.024   0.746   3.019  1.00  0.00     0.000 A 
ATOM     24  C   UNL     1      -4.356  -1.200   1.660  1.00  0.00     0.000 A 
ATOM     25  C   UNL     1      -4.624   0.139   1.929  1.00  0.00     0.000 A 
ENDBRANCH  19  20
ENDBRANCH   6   9
ENDBRANCH   4   5
ENDBRANCH   3   4
ENDBRANCH   2   3
ENDBRANCH   1   2
BRANCH   1  26
ATOM     26  C   UNL     1       0.672  -0.824  -4.501  1.00  0.00     0.021 C 
BRANCH  26  27
ATOM     27  C   UNL     1       0.820  -2.067  -5.363  1.00  0.00     0.116 C 
BRANCH  27  28
ATOM     28  N   UNL     1       0.149  -1.978  -6.666  1.00  0.00    -0.352 N 
ATOM     29  C   UNL     1       0.160  -2.907  -7.690  1.00  0.00     0.251 C 
ATOM     30  H   UNL     1      -0.370  -1.158  -6.830  1.00  0.00     0.163 HD
ATOM     31  O   UNL     1      -0.146  -2.591  -8.846  1.00  0.00    -0.269 OA
BRANCH  29  32
ATOM     32  C   UNL     1       0.517  -4.300  -7.382  1.00  0.00     0.039 A 
ATOM     33  C   UNL     1       1.264  -5.117  -8.241  1.00  0.00     0.014 A 
ATOM     34  C   UNL     1       0.078  -4.780  -6.155  1.00  0.00     0.014 A 
ATOM     35  C   UNL     1       1.607  -6.402  -7.818  1.00  0.00     0.010 A 
ATOM     36  C   UNL     1       0.611  -5.925  -5.652  1.00  0.00     0.010 A 
ATOM     37  C   UNL     1       1.272  -6.789  -6.517  1.00  0.00    -0.014 A 
BRANCH  37  38
ATOM     38  C   UNL     1       1.588  -8.090  -5.949  1.00  0.00     0.031 A 
ATOM     39  C   UNL     1       3.026  -8.289  -5.617  1.00  0.00     0.074 A 
ATOM     40  C   UNL     1       0.583  -8.828  -5.418  1.00  0.00     0.049 A 
ATOM     41  N   UNL     1       3.839  -9.189  -6.063  1.00  0.00    -0.248 NA
ATOM     42  C   UNL     1       3.685  -7.263  -4.786  1.00  0.00     0.031 C 
ATOM     43  C   UNL     1      -0.851  -8.489  -5.363  1.00  0.00     0.029 A 
ATOM     44  N   UNL     1       0.643  -9.953  -4.660  1.00  0.00    -0.354 N 
ATOM     45  C   UNL     1       5.047  -8.970  -5.399  1.00  0.00     0.074 A 
ATOM     46  C   UNL     1       4.959  -7.653  -4.835  1.00  0.00     0.031 C 
ATOM     47  C   UNL     1      -1.464  -9.244  -4.426  1.00  0.00     0.029 A 
ATOM     48  C   UNL     1      -0.516 -10.223  -3.935  1.00  0.00     0.049 A 
ATOM     49  H   UNL     1       1.440 -10.531  -4.626  1.00  0.00     0.167 HD
ATOM     50  C   UNL     1       5.902  -9.995  -5.122  1.00  0.00     0.037 A 
ATOM     51  C   UNL     1      -0.649 -11.155  -2.957  1.00  0.00     0.037 A 
ATOM     52  C   UNL     1       5.561 -11.163  -5.895  1.00  0.00     0.049 A 
ATOM     53  C   UNL     1       0.511 -12.076  -3.080  1.00  0.00     0.074 A 
ATOM     54  C   UNL     1       5.473 -11.446  -7.244  1.00  0.00     0.029 A 
ATOM     55  N   UNL     1       4.861 -12.158  -5.255  1.00  0.00    -0.354 N 
ATOM     56  N   UNL     1       0.699 -12.871  -4.098  1.00  0.00    -0.248 NA
ATOM     57  C   UNL     1       1.705 -11.745  -2.316  1.00  0.00     0.031 C 
ATOM     58  C   UNL     1       4.331 -12.291  -7.365  1.00  0.00     0.029 A 
ATOM     59  C   UNL     1       3.840 -12.543  -6.083  1.00  0.00     0.049 A 
ATOM     60  H   UNL     1       5.059 -12.528  -4.365  1.00  0.00     0.167 HD
ATOM     61  C   UNL     1       2.062 -12.803  -4.355  1.00  0.00     0.074 A 
ATOM     62  C   UNL     1       2.639 -12.146  -3.183  1.00  0.00     0.031 C 
ATOM     63  C   UNL     1       2.554 -13.007  -5.613  1.00  0.00     0.037 A 
BRANCH  50  64
ATOM     64  C   UNL     1       6.778 -10.093  -3.888  1.00  0.00     0.057 A 
ATOM     65  C   UNL     1       7.648 -11.195  -3.765  1.00  0.00     0.134 A 
ATOM     66  C   UNL     1       6.610  -9.344  -2.705  1.00  0.00     0.134 A 
ATOM     67  F   UNL     1       7.909 -11.989  -4.815  1.00  0.00    -0.206 F 
ATOM     68  C   UNL     1       8.212 -11.582  -2.543  1.00  0.00     0.040 A 
ATOM     69  C   UNL     1       7.212  -9.691  -1.491  1.00  0.00     0.040 A 
ATOM     70  F   UNL     1       5.787  -8.294  -2.617  1.00  0.00    -0.206 F 
ATOM     71  C   UNL     1       7.984 -10.835  -1.396  1.00  0.00     0.006 A 
ENDBRANCH  50  64
BRANCH  51  72
ATOM     72  C   UNL     1      -1.511 -11.110  -1.754  1.00  0.00     0.057 A 
ATOM     73  C   UNL     1      -1.847 -12.274  -1.048  1.00  0.00     0.134 A 
ATOM     74  C   UNL     1      -1.820  -9.894  -1.117  1.00  0.00     0.134 A 
ATOM     75  F   UNL     1      -1.551 -13.481  -1.550  1.00  0.00    -0.206 F 
ATOM     76  C   UNL     1      -2.447 -12.231   0.220  1.00  0.00     0.040 A 
ATOM     77  C   UNL     1      -2.422  -9.837   0.145  1.00  0.00     0.040 A 
ATOM     78  F   UNL     1      -1.470  -8.720  -1.663  1.00  0.00    -0.206 F 
ATOM     79  C   UNL     1      -2.729 -11.009   0.824  1.00  0.00     0.006 A 
ENDBRANCH  51  72
BRANCH  63  80
ATOM     80  C   UNL     1       1.620 -13.528  -6.671  1.00  0.00     0.057 A 
ATOM     81  C   UNL     1       0.539 -12.799  -7.191  1.00  0.00     0.134 A 
ATOM     82  C   UNL     1       1.960 -14.710  -7.335  1.00  0.00     0.134 A 
ATOM     83  F   UNL     1       0.196 -11.611  -6.681  1.00  0.00    -0.206 F 
ATOM     84  C   UNL     1      -0.179 -13.235  -8.309  1.00  0.00     0.040 A 
ATOM     85  C   UNL     1       1.272 -15.142  -8.471  1.00  0.00     0.040 A 
ATOM     86  F   UNL     1       3.017 -15.431  -6.928  1.00  0.00    -0.206 F 
ATOM     87  C   UNL     1       0.197 -14.405  -8.960  1.00  0.00     0.006 A 
ENDBRANCH  63  80
ENDBRANCH  37  38
ENDBRANCH  29  32
ENDBRANCH  27  28
ENDBRANCH  26  27
ENDBRANCH   1  26
TORSDOF 14
