REMARK SMILES CCC(CC)(CC)NC(=O)NC[C@@H]1CC[C@H](C(=O)NCCCCCCNC(=O)c2ccc(-c3c4nc(c(-c5c(F)cccc5F)c5ccc([nH]5)c(-c5c(F)cccc5F)c5nc(c(-c6c(F)cccc6F)c6ccc3[nH]6)C=C5)C=C4)cc2)O1
REMARK SMILES IDX 21 1 20 2 19 3 17 4 18 5 16 7 13 8 14 9 83 10 15 11 12 12
REMARK SMILES IDX 11 13 8 14 9 15 10 17 3 19 2 20 1 21 4 22 5 23 6 24 7 25
REMARK SMILES IDX 22 26 23 27 24 28 25 29 26 30 27 31 28 33 29 34 30 35 82 36
REMARK SMILES IDX 31 37 81 38 32 39 33 40 34 41 75 42 35 43 80 44 74 45 76 46
REMARK SMILES IDX 36 47 79 48 73 49 72 50 37 52 63 53 46 54 62 55 47 56 50 57
REMARK SMILES IDX 61 58 77 59 48 60 49 61 60 63 78 64 51 65 38 66 39 67 44 68
REMARK SMILES IDX 40 69 41 70 43 71 45 72 42 73 64 74 65 75 70 76 66 77 67 78
REMARK SMILES IDX 69 79 71 80 68 81 52 82 53 83 58 84 54 85 55 86 57 87 59 88
REMARK SMILES IDX 56 89
REMARK H PARENT 19 6 8 16 11 18 26 32 76 51 50 62
REMARK Flexibility Score: inf
ROOT
ATOM      1  C   UNL     1       4.938   0.068  -1.429  1.00  0.00     0.021 C 
ENDROOT
BRANCH   1   2
ATOM      2  C   UNL     1       3.721   0.713  -0.767  1.00  0.00     0.116 C 
BRANCH   2   3
ATOM      3  N   UNL     1       3.247   1.877  -1.478  1.00  0.00    -0.354 N 
ATOM      4  C   UNL     1       2.110   2.025  -2.219  1.00  0.00     0.249 C 
ATOM      5  O   UNL     1       1.852   3.155  -2.646  1.00  0.00    -0.272 OA
ATOM      6  H   UNL     1       3.823   2.673  -1.421  1.00  0.00     0.163 HD
BRANCH   4   7
ATOM      7  C   UNL     1       1.182   0.828  -2.544  1.00  0.00     0.207 C 
ATOM      8  C   UNL     1       0.633  -1.236  -1.586  1.00  0.00     0.138 C 
ATOM      9  C   UNL     1       1.732  -1.522  -2.597  1.00  0.00     0.037 C 
ATOM     10  O   UNL     1       0.652   0.174  -1.396  1.00  0.00    -0.363 OA
ATOM     11  C   UNL     1       1.797  -0.247  -3.426  1.00  0.00     0.045 C 
BRANCH   8  12
ATOM     12  C   UNL     1       0.670  -1.995  -0.231  1.00  0.00     0.149 C 
BRANCH  12  13
ATOM     13  N   UNL     1       1.816  -1.767   0.652  1.00  0.00    -0.336 N 
ATOM     14  N   UNL     1       1.610  -0.141   2.431  1.00  0.00    -0.333 N 
ATOM     15  C   UNL     1       2.220  -1.042   1.683  1.00  0.00     0.315 C 
ATOM     16  H   UNL     1       2.289   0.482   2.775  1.00  0.00     0.165 HD
ATOM     17  O   UNL     1       3.406  -1.215   2.001  1.00  0.00    -0.249 OA
ATOM     18  H   UNL     1       2.548  -2.368   0.383  1.00  0.00     0.165 HD
BRANCH  14  19
ATOM     19  C   UNL     1       0.282   0.288   2.952  1.00  0.00     0.041 C 
BRANCH  19  20
ATOM     20  C   UNL     1      -0.816   0.376   1.882  1.00  0.00     0.025 C 
ATOM     21  C   UNL     1      -0.511   1.405   0.802  1.00  0.00     0.006 C 
ENDBRANCH  19  20
BRANCH  19  22
ATOM     22  C   UNL     1       0.499   1.727   3.567  1.00  0.00     0.025 C 
ATOM     23  C   UNL     1      -0.765   2.474   3.995  1.00  0.00     0.006 C 
ENDBRANCH  19  22
BRANCH  19  24
ATOM     24  C   UNL     1      -0.148  -0.646   4.130  1.00  0.00     0.025 C 
ATOM     25  C   UNL     1       0.266  -2.109   4.031  1.00  0.00     0.006 C 
ENDBRANCH  19  24
ENDBRANCH  14  19
ENDBRANCH  12  13
ENDBRANCH   8  12
ENDBRANCH   4   7
ENDBRANCH   2   3
ENDBRANCH   1   2
BRANCH   1  26
ATOM     26  C   UNL     1       6.263   0.380  -0.729  1.00  0.00     0.002 C 
BRANCH  26  27
ATOM     27  C   UNL     1       6.383  -0.121   0.717  1.00  0.00     0.002 C 
BRANCH  27  28
ATOM     28  C   UNL     1       6.127  -1.615   0.925  1.00  0.00     0.021 C 
BRANCH  28  29
ATOM     29  C   UNL     1       7.087  -2.561   0.225  1.00  0.00     0.116 C 
BRANCH  29  30
ATOM     30  N   UNL     1       8.441  -2.456   0.734  1.00  0.00    -0.352 N 
ATOM     31  C   UNL     1       9.235  -3.392   1.350  1.00  0.00     0.251 C 
ATOM     32  H   UNL     1       8.859  -1.572   0.620  1.00  0.00     0.163 HD
ATOM     33  O   UNL     1      10.290  -3.041   1.869  1.00  0.00    -0.269 OA
BRANCH  31  34
ATOM     34  C   UNL     1       8.834  -4.819   1.410  1.00  0.00     0.039 A 
ATOM     35  C   UNL     1       9.117  -5.542   2.574  1.00  0.00     0.014 A 
ATOM     36  C   UNL     1       8.239  -5.466   0.324  1.00  0.00     0.014 A 
ATOM     37  C   UNL     1       8.764  -6.892   2.664  1.00  0.00     0.010 A 
ATOM     38  C   UNL     1       7.814  -6.789   0.444  1.00  0.00     0.010 A 
ATOM     39  C   UNL     1       8.085  -7.521   1.609  1.00  0.00    -0.014 A 
BRANCH  39  40
ATOM     40  C   UNL     1       7.682  -8.949   1.694  1.00  0.00     0.031 A 
ATOM     41  C   UNL     1       8.274  -9.959   0.748  1.00  0.00     0.074 A 
ATOM     42  C   UNL     1       6.747  -9.331   2.586  1.00  0.00     0.049 A 
ATOM     43  N   UNL     1       7.997 -11.232   0.617  1.00  0.00    -0.248 NA
ATOM     44  C   UNL     1       9.293  -9.468  -0.193  1.00  0.00     0.031 C 
ATOM     45  C   UNL     1       6.066  -8.445   3.531  1.00  0.00     0.029 A 
ATOM     46  N   UNL     1       6.202 -10.566   2.835  1.00  0.00    -0.354 N 
ATOM     47  C   UNL     1       8.791 -11.686  -0.430  1.00  0.00     0.074 A 
ATOM     48  C   UNL     1       9.523 -10.544  -0.931  1.00  0.00     0.031 C 
ATOM     49  C   UNL     1       5.211  -9.168   4.273  1.00  0.00     0.029 A 
ATOM     50  C   UNL     1       5.256 -10.559   3.832  1.00  0.00     0.049 A 
ATOM     51  H   UNL     1       6.463 -11.379   2.346  1.00  0.00     0.167 HD
ATOM     52  C   UNL     1       8.917 -12.945  -0.914  1.00  0.00     0.037 A 
ATOM     53  C   UNL     1       4.506 -11.561   4.331  1.00  0.00     0.037 A 
ATOM     54  C   UNL     1       8.218 -14.089  -0.392  1.00  0.00     0.049 A 
ATOM     55  C   UNL     1       4.668 -12.949   3.778  1.00  0.00     0.074 A 
ATOM     56  C   UNL     1       8.326 -15.415  -0.775  1.00  0.00     0.029 A 
ATOM     57  N   UNL     1       7.283 -14.043   0.630  1.00  0.00    -0.354 N 
ATOM     58  N   UNL     1       5.463 -13.373   2.826  1.00  0.00    -0.248 NA
ATOM     59  C   UNL     1       3.829 -14.001   4.371  1.00  0.00     0.031 C 
ATOM     60  C   UNL     1       7.429 -16.166  -0.009  1.00  0.00     0.029 A 
ATOM     61  C   UNL     1       6.793 -15.314   0.879  1.00  0.00     0.049 A 
ATOM     62  H   UNL     1       7.008 -13.227   1.109  1.00  0.00     0.167 HD
ATOM     63  C   UNL     1       5.240 -14.739   2.723  1.00  0.00     0.074 A 
ATOM     64  C   UNL     1       4.245 -15.077   3.719  1.00  0.00     0.031 C 
ATOM     65  C   UNL     1       5.807 -15.634   1.879  1.00  0.00     0.037 A 
BRANCH  52  66
ATOM     66  C   UNL     1       9.857 -13.152  -2.066  1.00  0.00     0.057 A 
ATOM     67  C   UNL     1      11.247 -13.077  -1.906  1.00  0.00     0.134 A 
ATOM     68  C   UNL     1       9.369 -13.466  -3.341  1.00  0.00     0.134 A 
ATOM     69  F   UNL     1      11.778 -12.769  -0.714  1.00  0.00    -0.206 F 
ATOM     70  C   UNL     1      12.117 -13.283  -2.978  1.00  0.00     0.040 A 
ATOM     71  C   UNL     1      10.231 -13.699  -4.415  1.00  0.00     0.040 A 
ATOM     72  F   UNL     1       8.049 -13.559  -3.562  1.00  0.00    -0.206 F 
ATOM     73  C   UNL     1      11.609 -13.602  -4.236  1.00  0.00     0.006 A 
ENDBRANCH  52  66
BRANCH  53  74
ATOM     74  C   UNL     1       3.546 -11.293   5.431  1.00  0.00     0.057 A 
ATOM     75  C   UNL     1       3.781 -11.773   6.725  1.00  0.00     0.134 A 
ATOM     76  C   UNL     1       2.369 -10.568   5.215  1.00  0.00     0.134 A 
ATOM     77  F   UNL     1       4.882 -12.492   6.987  1.00  0.00    -0.206 F 
ATOM     78  C   UNL     1       2.872 -11.556   7.761  1.00  0.00     0.040 A 
ATOM     79  C   UNL     1       1.462 -10.323   6.248  1.00  0.00     0.040 A 
ATOM     80  F   UNL     1       2.088 -10.078   3.998  1.00  0.00    -0.206 F 
ATOM     81  C   UNL     1       1.710 -10.825   7.524  1.00  0.00     0.006 A 
ENDBRANCH  53  74
BRANCH  65  82
ATOM     82  C   UNL     1       5.386 -17.067   2.015  1.00  0.00     0.057 A 
ATOM     83  C   UNL     1       4.133 -17.512   1.577  1.00  0.00     0.134 A 
ATOM     84  C   UNL     1       6.261 -18.019   2.554  1.00  0.00     0.134 A 
ATOM     85  F   UNL     1       3.246 -16.647   1.063  1.00  0.00    -0.206 F 
ATOM     86  C   UNL     1       3.756 -18.851   1.690  1.00  0.00     0.040 A 
ATOM     87  C   UNL     1       5.904 -19.365   2.650  1.00  0.00     0.040 A 
ATOM     88  F   UNL     1       7.479 -17.659   2.985  1.00  0.00    -0.206 F 
ATOM     89  C   UNL     1       4.646 -19.783   2.221  1.00  0.00     0.006 A 
ENDBRANCH  65  82
ENDBRANCH  39  40
ENDBRANCH  31  34
ENDBRANCH  29  30
ENDBRANCH  28  29
ENDBRANCH  27  28
ENDBRANCH  26  27
ENDBRANCH   1  26
TORSDOF 19
