REMARK SMILES O=C(NCCCCCCNC(=O)c1sccc1Oc1ccc(NS(=O)(=O)Cc2ccccc2)cc1)c1ccc(-c2c3nc(c(-c4c(F)cccc4F)c4ccc([nH]4)c(-c4c(F)cccc4F)c4nc(c(-c5c(F)cccc5F)c5ccc2[nH]5)C=C4)C=C3)cc1
REMARK SMILES IDX 8 1 7 2 6 3 5 4 4 5 3 6 1 7 2 8 36 10 37 11 89 12 38 13
REMARK SMILES IDX 88 14 39 15 40 16 41 17 82 18 42 19 87 20 81 21 83 22 43 23
REMARK SMILES IDX 86 24 80 25 79 26 44 28 70 29 53 30 69 31 54 32 57 33 68 34
REMARK SMILES IDX 84 35 55 36 56 37 67 39 85 40 58 41 45 42 46 43 51 44 47 45
REMARK SMILES IDX 48 46 50 47 52 48 49 49 71 50 72 51 77 52 73 53 74 54 76 55
REMARK SMILES IDX 78 56 75 57 59 58 60 59 65 60 61 61 62 62 64 63 66 64 63 65
REMARK SMILES IDX 9 66 10 67 11 68 12 70 13 71 14 72 17 73 15 74 16 75 18 76
REMARK SMILES IDX 19 77 20 78 35 79 21 80 34 81 22 82 23 83 24 85 25 86 26 87
REMARK SMILES IDX 27 88 28 89 29 90 33 91 30 92 32 93 31 94
REMARK H PARENT 3 9 83 27 57 38 10 69 23 84
REMARK Flexibility Score: inf
ROOT
ATOM      1  C   UNL     1       6.427  -3.697   2.529  1.00  0.00     0.021 C 
ENDROOT
BRANCH   1   2
ATOM      2  C   UNL     1       4.903  -3.545   2.607  1.00  0.00     0.002 C 
BRANCH   2   3
ATOM      3  C   UNL     1       4.382  -2.179   3.054  1.00  0.00     0.002 C 
BRANCH   3   4
ATOM      4  C   UNL     1       4.875  -0.981   2.247  1.00  0.00     0.021 C 
BRANCH   4   5
ATOM      5  C   UNL     1       4.435  -0.975   0.791  1.00  0.00     0.116 C 
BRANCH   5   6
ATOM      6  N   UNL     1       2.990  -0.897   0.647  1.00  0.00    -0.352 N 
ATOM      7  O   UNL     1       1.005  -0.035   0.021  1.00  0.00    -0.269 OA
ATOM      8  C   UNL     1       2.225  -0.051  -0.116  1.00  0.00     0.251 C 
ATOM      9  H   UNL     1       2.482  -1.551   1.180  1.00  0.00     0.163 HD
BRANCH   8  10
ATOM     10  C   UNL     1       2.865   0.866  -1.084  1.00  0.00     0.039 A 
ATOM     11  C   UNL     1       3.943   0.454  -1.871  1.00  0.00     0.014 A 
ATOM     12  C   UNL     1       2.348   2.158  -1.225  1.00  0.00     0.014 A 
ATOM     13  C   UNL     1       4.590   1.366  -2.696  1.00  0.00     0.010 A 
ATOM     14  C   UNL     1       2.941   3.046  -2.123  1.00  0.00     0.010 A 
ATOM     15  C   UNL     1       4.081   2.663  -2.847  1.00  0.00    -0.014 A 
BRANCH  15  16
ATOM     16  C   UNL     1       4.699   3.596  -3.818  1.00  0.00     0.031 A 
ATOM     17  C   UNL     1       5.326   4.877  -3.357  1.00  0.00     0.074 A 
ATOM     18  C   UNL     1       4.648   3.294  -5.129  1.00  0.00     0.049 A 
ATOM     19  N   UNL     1       5.812   5.862  -4.068  1.00  0.00    -0.248 NA
ATOM     20  C   UNL     1       5.407   5.086  -1.904  1.00  0.00     0.031 C 
ATOM     21  C   UNL     1       4.060   2.075  -5.689  1.00  0.00     0.029 A 
ATOM     22  N   UNL     1       5.079   3.992  -6.227  1.00  0.00    -0.354 N 
ATOM     23  C   UNL     1       6.229   6.819  -3.154  1.00  0.00     0.074 A 
ATOM     24  C   UNL     1       5.918   6.307  -1.836  1.00  0.00     0.031 C 
ATOM     25  C   UNL     1       4.170   2.108  -7.024  1.00  0.00     0.029 A 
ATOM     26  C   UNL     1       4.768   3.379  -7.416  1.00  0.00     0.049 A 
ATOM     27  H   UNL     1       5.562   4.848  -6.169  1.00  0.00     0.167 HD
ATOM     28  C   UNL     1       6.816   8.016  -3.398  1.00  0.00     0.037 A 
ATOM     29  C   UNL     1       4.905   3.809  -8.683  1.00  0.00     0.037 A 
ATOM     30  C   UNL     1       7.115   8.510  -4.718  1.00  0.00     0.049 A 
ATOM     31  C   UNL     1       5.515   5.155  -8.932  1.00  0.00     0.074 A 
ATOM     32  C   UNL     1       7.745   9.688  -5.076  1.00  0.00     0.029 A 
ATOM     33  N   UNL     1       6.787   7.857  -5.899  1.00  0.00    -0.354 N 
ATOM     34  N   UNL     1       5.941   6.038  -8.061  1.00  0.00    -0.248 NA
ATOM     35  C   UNL     1       5.664   5.568 -10.333  1.00  0.00     0.031 C 
ATOM     36  C   UNL     1       7.742   9.778  -6.472  1.00  0.00     0.029 A 
ATOM     37  C   UNL     1       7.173   8.623  -6.987  1.00  0.00     0.049 A 
ATOM     38  H   UNL     1       6.346   6.979  -5.955  1.00  0.00     0.167 HD
ATOM     39  C   UNL     1       6.434   7.100  -8.806  1.00  0.00     0.074 A 
ATOM     40  C   UNL     1       6.254   6.749 -10.201  1.00  0.00     0.031 C 
ATOM     41  C   UNL     1       6.994   8.255  -8.371  1.00  0.00     0.037 A 
BRANCH  28  42
ATOM     42  C   UNL     1       7.128   8.887  -2.213  1.00  0.00     0.057 A 
ATOM     43  C   UNL     1       8.111   8.550  -1.273  1.00  0.00     0.134 A 
ATOM     44  C   UNL     1       6.433  10.087  -2.012  1.00  0.00     0.134 A 
ATOM     45  F   UNL     1       8.810   7.411  -1.397  1.00  0.00    -0.206 F 
ATOM     46  C   UNL     1       8.360   9.350  -0.155  1.00  0.00     0.040 A 
ATOM     47  C   UNL     1       6.694  10.911  -0.916  1.00  0.00     0.040 A 
ATOM     48  F   UNL     1       5.485  10.480  -2.877  1.00  0.00    -0.206 F 
ATOM     49  C   UNL     1       7.652  10.537   0.024  1.00  0.00     0.006 A 
ENDBRANCH  28  42
BRANCH  29  50
ATOM     50  C   UNL     1       4.431   2.946  -9.792  1.00  0.00     0.057 A 
ATOM     51  C   UNL     1       5.331   2.288 -10.635  1.00  0.00     0.134 A 
ATOM     52  C   UNL     1       3.064   2.704  -9.989  1.00  0.00     0.134 A 
ATOM     53  F   UNL     1       6.650   2.487 -10.500  1.00  0.00    -0.206 F 
ATOM     54  C   UNL     1       4.891   1.420 -11.635  1.00  0.00     0.040 A 
ATOM     55  C   UNL     1       2.612   1.819 -10.967  1.00  0.00     0.040 A 
ATOM     56  F   UNL     1       2.152   3.294  -9.202  1.00  0.00    -0.206 F 
ATOM     57  C   UNL     1       3.528   1.175 -11.796  1.00  0.00     0.006 A 
ENDBRANCH  29  50
BRANCH  41  58
ATOM     58  C   UNL     1       7.501   9.212  -9.409  1.00  0.00     0.057 A 
ATOM     59  C   UNL     1       6.638   9.994 -10.185  1.00  0.00     0.134 A 
ATOM     60  C   UNL     1       8.879   9.409  -9.573  1.00  0.00     0.134 A 
ATOM     61  F   UNL     1       5.308   9.843 -10.087  1.00  0.00    -0.206 F 
ATOM     62  C   UNL     1       7.128  10.935 -11.093  1.00  0.00     0.040 A 
ATOM     63  C   UNL     1       9.379  10.365 -10.456  1.00  0.00     0.040 A 
ATOM     64  F   UNL     1       9.758   8.695  -8.854  1.00  0.00    -0.206 F 
ATOM     65  C   UNL     1       8.502  11.131 -11.220  1.00  0.00     0.006 A 
ENDBRANCH  41  58
ENDBRANCH  15  16
ENDBRANCH   8  10
ENDBRANCH   5   6
ENDBRANCH   4   5
ENDBRANCH   3   4
ENDBRANCH   2   3
ENDBRANCH   1   2
BRANCH   1  66
ATOM     66  C   UNL     1       7.210  -3.263   3.765  1.00  0.00     0.116 C 
BRANCH  66  67
ATOM     67  N   UNL     1       6.817  -3.964   4.971  1.00  0.00    -0.351 N 
ATOM     68  C   UNL     1       7.585  -4.231   6.083  1.00  0.00     0.265 C 
ATOM     69  H   UNL     1       5.888  -4.289   5.000  1.00  0.00     0.163 HD
ATOM     70  O   UNL     1       7.058  -4.811   7.033  1.00  0.00    -0.268 OA
BRANCH  68  71
ATOM     71  C   UNL     1       8.971  -3.823   6.073  1.00  0.00     0.135 A 
ATOM     72  S   UNL     1      10.123  -5.009   5.600  1.00  0.00    -0.135 S 
ATOM     73  C   UNL     1       9.585  -2.635   6.436  1.00  0.00     0.151 A 
ATOM     74  C   UNL     1      11.423  -3.921   5.793  1.00  0.00     0.069 A 
ATOM     75  C   UNL     1      10.999  -2.692   6.241  1.00  0.00     0.059 A 
BRANCH  73  76
ATOM     76  O   UNL     1       9.018  -1.501   6.926  1.00  0.00    -0.456 OA
BRANCH  76  77
ATOM     77  C   UNL     1       7.666  -1.331   6.987  1.00  0.00     0.127 A 
ATOM     78  C   UNL     1       7.042  -0.616   5.974  1.00  0.00     0.049 A 
ATOM     79  C   UNL     1       6.934  -1.801   8.070  1.00  0.00     0.049 A 
ATOM     80  C   UNL     1       5.659  -0.441   6.003  1.00  0.00     0.030 A 
ATOM     81  C   UNL     1       5.553  -1.585   8.113  1.00  0.00     0.030 A 
ATOM     82  C   UNL     1       4.899  -0.912   7.074  1.00  0.00     0.049 A 
BRANCH  82  83
ATOM     83  N   UNL     1       3.579  -0.436   7.349  1.00  0.00    -0.283 N 
ATOM     84  H   UNL     1       3.351  -0.279   8.294  1.00  0.00     0.180 HD
BRANCH  83  85
ATOM     85  S   UNL     1       2.393  -0.123   6.234  1.00  0.00     0.236 S 
ATOM     86  O   UNL     1       2.280  -1.302   5.399  1.00  0.00    -0.206 OA
ATOM     87  O   UNL     1       1.253   0.286   7.035  1.00  0.00    -0.206 OA
BRANCH  85  88
ATOM     88  C   UNL     1       2.822   1.255   5.174  1.00  0.00     0.195 C 
BRANCH  88  89
ATOM     89  C   UNL     1       3.616   2.444   5.672  1.00  0.00    -0.031 A 
ATOM     90  C   UNL     1       4.529   2.464   6.730  1.00  0.00     0.005 A 
ATOM     91  C   UNL     1       3.576   3.591   4.849  1.00  0.00     0.005 A 
ATOM     92  C   UNL     1       5.434   3.517   6.900  1.00  0.00     0.000 A 
ATOM     93  C   UNL     1       4.445   4.668   5.045  1.00  0.00     0.000 A 
ATOM     94  C   UNL     1       5.397   4.617   6.054  1.00  0.00     0.000 A 
ENDBRANCH  88  89
ENDBRANCH  85  88
ENDBRANCH  83  85
ENDBRANCH  82  83
ENDBRANCH  76  77
ENDBRANCH  73  76
ENDBRANCH  68  71
ENDBRANCH  66  67
ENDBRANCH   1  66
TORSDOF 19
