REMARK SMILES O=C(NCCCCCCNC(=O)c1nnn(-c2cccc(C(F)(F)F)c2)c1[C@@H]1COc2ccccc2O1)c1ccc(-c2c3nc(c(-c4c(F)cccc4F)c4ccc([nH]4)c(-c4c(F)cccc4F)c4nc(c(-c5c(F)cccc5F)c5ccc2[nH]5)C=C4)C=C3)cc1
REMARK SMILES IDX 6 1 5 2 4 3 3 4 1 5 2 6 38 8 39 9 91 10 40 11 90 12 41 13
REMARK SMILES IDX 42 14 43 15 84 16 44 17 89 18 83 19 85 20 45 21 88 22 82 23
REMARK SMILES IDX 81 24 46 26 72 27 55 28 71 29 56 30 59 31 70 32 86 33 57 34
REMARK SMILES IDX 58 35 69 37 87 38 60 39 47 40 48 41 53 42 49 43 50 44 52 45
REMARK SMILES IDX 54 46 51 47 73 48 74 49 79 50 75 51 76 52 78 53 80 54 77 55
REMARK SMILES IDX 61 56 62 57 67 58 63 59 64 60 66 61 68 62 65 63 7 64 8 65
REMARK SMILES IDX 9 66 10 67 11 68 12 70 13 71 14 72 27 73 15 74 16 75 28 76
REMARK SMILES IDX 29 77 37 78 30 79 36 80 31 81 35 82 32 83 34 84 33 85 17 86
REMARK SMILES IDX 18 87 26 88 19 89 21 90 20 91 22 92 23 93 24 94 25 95
REMARK H PARENT 3 7 85 25 59 36 10 69
REMARK Flexibility Score: inf
ROOT
ATOM      1  C   UNL     1       4.018   3.296  -0.984  1.00  0.00     0.002 C 
ENDROOT
BRANCH   1   2
ATOM      2  C   UNL     1       4.699   1.925  -1.124  1.00  0.00     0.021 C 
BRANCH   2   3
ATOM      3  C   UNL     1       4.533   0.967   0.055  1.00  0.00     0.116 C 
BRANCH   3   4
ATOM      4  N   UNL     1       3.161   0.778   0.479  1.00  0.00    -0.352 N 
ATOM      5  O   UNL     1       1.097   0.101   0.810  1.00  0.00    -0.269 OA
ATOM      6  C   UNL     1       2.112  -0.018   0.116  1.00  0.00     0.251 C 
ATOM      7  H   UNL     1       2.924   1.379   1.221  1.00  0.00     0.163 HD
BRANCH   6   8
ATOM      8  C   UNL     1       2.072  -0.967  -1.033  1.00  0.00     0.039 A 
ATOM      9  C   UNL     1       3.153  -1.360  -1.821  1.00  0.00     0.014 A 
ATOM     10  C   UNL     1       0.805  -1.516  -1.324  1.00  0.00     0.014 A 
ATOM     11  C   UNL     1       2.963  -2.243  -2.892  1.00  0.00     0.010 A 
ATOM     12  C   UNL     1       0.613  -2.400  -2.384  1.00  0.00     0.010 A 
ATOM     13  C   UNL     1       1.691  -2.751  -3.188  1.00  0.00    -0.014 A 
BRANCH  13  14
ATOM     14  C   UNL     1       1.556  -3.737  -4.266  1.00  0.00     0.031 A 
ATOM     15  C   UNL     1       2.289  -5.025  -4.064  1.00  0.00     0.074 A 
ATOM     16  C   UNL     1       0.711  -3.626  -5.312  1.00  0.00     0.049 A 
ATOM     17  N   UNL     1       3.211  -5.555  -4.805  1.00  0.00    -0.248 NA
ATOM     18  C   UNL     1       1.984  -5.798  -2.851  1.00  0.00     0.031 C 
ATOM     19  C   UNL     1      -0.336  -2.626  -5.535  1.00  0.00     0.029 A 
ATOM     20  N   UNL     1       0.561  -4.469  -6.378  1.00  0.00    -0.354 N 
ATOM     21  C   UNL     1       3.499  -6.800  -4.242  1.00  0.00     0.074 A 
ATOM     22  C   UNL     1       2.788  -6.853  -2.990  1.00  0.00     0.031 C 
ATOM     23  C   UNL     1      -1.135  -3.032  -6.550  1.00  0.00     0.029 A 
ATOM     24  C   UNL     1      -0.577  -4.238  -7.138  1.00  0.00     0.049 A 
ATOM     25  H   UNL     1       1.207  -5.182  -6.589  1.00  0.00     0.167 HD
ATOM     26  C   UNL     1       4.176  -7.769  -4.920  1.00  0.00     0.037 A 
ATOM     27  C   UNL     1      -1.051  -5.005  -8.151  1.00  0.00     0.037 A 
ATOM     28  C   UNL     1       4.893  -7.233  -6.044  1.00  0.00     0.049 A 
ATOM     29  C   UNL     1       0.057  -5.859  -8.637  1.00  0.00     0.074 A 
ATOM     30  C   UNL     1       5.904  -6.306  -6.206  1.00  0.00     0.029 A 
ATOM     31  N   UNL     1       4.384  -7.442  -7.300  1.00  0.00    -0.354 N 
ATOM     32  N   UNL     1       1.096  -5.421  -9.290  1.00  0.00    -0.248 NA
ATOM     33  C   UNL     1       0.194  -7.188  -8.062  1.00  0.00     0.031 C 
ATOM     34  C   UNL     1       5.602  -5.646  -7.433  1.00  0.00     0.029 A 
ATOM     35  C   UNL     1       4.452  -6.240  -7.952  1.00  0.00     0.049 A 
ATOM     36  H   UNL     1       4.037  -8.290  -7.662  1.00  0.00     0.167 HD
ATOM     37  C   UNL     1       2.144  -6.216  -8.856  1.00  0.00     0.074 A 
ATOM     38  C   UNL     1       1.512  -7.349  -8.188  1.00  0.00     0.031 C 
ATOM     39  C   UNL     1       3.425  -5.747  -8.838  1.00  0.00     0.037 A 
BRANCH  26  40
ATOM     40  C   UNL     1       3.954  -9.254  -4.760  1.00  0.00     0.057 A 
ATOM     41  C   UNL     1       4.831 -10.162  -5.384  1.00  0.00     0.134 A 
ATOM     42  C   UNL     1       2.757  -9.816  -4.275  1.00  0.00     0.134 A 
ATOM     43  F   UNL     1       5.998  -9.749  -5.902  1.00  0.00    -0.206 F 
ATOM     44  C   UNL     1       4.507 -11.511  -5.577  1.00  0.00     0.040 A 
ATOM     45  C   UNL     1       2.446 -11.173  -4.417  1.00  0.00     0.040 A 
ATOM     46  F   UNL     1       1.789  -9.070  -3.730  1.00  0.00    -0.206 F 
ATOM     47  C   UNL     1       3.306 -12.019  -5.099  1.00  0.00     0.006 A 
ENDBRANCH  26  40
BRANCH  27  48
ATOM     48  C   UNL     1      -2.452  -5.251  -8.561  1.00  0.00     0.057 A 
ATOM     49  C   UNL     1      -2.763  -5.772  -9.826  1.00  0.00     0.134 A 
ATOM     50  C   UNL     1      -3.494  -5.251  -7.619  1.00  0.00     0.134 A 
ATOM     51  F   UNL     1      -1.824  -5.854 -10.780  1.00  0.00    -0.206 F 
ATOM     52  C   UNL     1      -4.030  -6.289 -10.127  1.00  0.00     0.040 A 
ATOM     53  C   UNL     1      -4.765  -5.758  -7.909  1.00  0.00     0.040 A 
ATOM     54  F   UNL     1      -3.285  -4.846  -6.358  1.00  0.00    -0.206 F 
ATOM     55  C   UNL     1      -5.033  -6.294  -9.162  1.00  0.00     0.006 A 
ENDBRANCH  27  48
BRANCH  39  56
ATOM     56  C   UNL     1       3.722  -4.464  -9.558  1.00  0.00     0.057 A 
ATOM     57  C   UNL     1       3.184  -3.221  -9.194  1.00  0.00     0.134 A 
ATOM     58  C   UNL     1       4.721  -4.461 -10.538  1.00  0.00     0.134 A 
ATOM     59  F   UNL     1       2.295  -3.113  -8.197  1.00  0.00    -0.206 F 
ATOM     60  C   UNL     1       3.599  -2.033  -9.803  1.00  0.00     0.040 A 
ATOM     61  C   UNL     1       5.168  -3.279 -11.131  1.00  0.00     0.040 A 
ATOM     62  F   UNL     1       5.320  -5.608 -10.896  1.00  0.00    -0.206 F 
ATOM     63  C   UNL     1       4.602  -2.059 -10.769  1.00  0.00     0.006 A 
ENDBRANCH  39  56
ENDBRANCH  13  14
ENDBRANCH   6   8
ENDBRANCH   3   4
ENDBRANCH   2   3
ENDBRANCH   1   2
BRANCH   1  64
ATOM     64  C   UNL     1       4.401   4.168   0.221  1.00  0.00     0.002 C 
BRANCH  64  65
ATOM     65  C   UNL     1       5.883   4.483   0.404  1.00  0.00     0.021 C 
BRANCH  65  66
ATOM     66  C   UNL     1       6.585   5.185  -0.757  1.00  0.00     0.116 C 
BRANCH  66  67
ATOM     67  N   UNL     1       6.695   6.621  -0.668  1.00  0.00    -0.351 N 
ATOM     68  C   UNL     1       7.675   7.558  -0.939  1.00  0.00     0.273 C 
ATOM     69  H   UNL     1       5.868   7.036  -0.332  1.00  0.00     0.163 HD
ATOM     70  O   UNL     1       7.290   8.717  -0.728  1.00  0.00    -0.267 OA
BRANCH  68  71
ATOM     71  C   UNL     1       9.064   7.335  -1.413  1.00  0.00     0.178 A 
ATOM     72  N   UNL     1       9.921   8.427  -1.324  1.00  0.00    -0.124 NA
ATOM     73  C   UNL     1       9.826   6.266  -1.905  1.00  0.00     0.122 A 
ATOM     74  N   UNL     1      11.139   8.073  -1.691  1.00  0.00    -0.061 NA
ATOM     75  N   UNL     1      11.077   6.817  -2.154  1.00  0.00    -0.213 N 
BRANCH  73  76
ATOM     76  C   UNL     1       9.562   4.797  -1.933  1.00  0.00     0.262 C 
ATOM     77  C   UNL     1       9.832   4.204  -0.530  1.00  0.00     0.281 C 
ATOM     78  O   UNL     1      10.204   4.103  -3.006  1.00  0.00    -0.477 OA
ATOM     79  O   UNL     1      11.209   3.882  -0.344  1.00  0.00    -0.485 OA
ATOM     80  C   UNL     1      10.985   3.052  -2.598  1.00  0.00     0.162 A 
ATOM     81  C   UNL     1      11.544   2.983  -1.319  1.00  0.00     0.161 A 
ATOM     82  C   UNL     1      11.278   2.068  -3.533  1.00  0.00     0.050 A 
ATOM     83  C   UNL     1      12.464   1.996  -0.995  1.00  0.00     0.050 A 
ATOM     84  C   UNL     1      12.156   1.037  -3.194  1.00  0.00     0.004 A 
ATOM     85  C   UNL     1      12.767   1.015  -1.936  1.00  0.00     0.004 A 
ENDBRANCH  73  76
BRANCH  75  86
ATOM     86  C   UNL     1      12.198   6.232  -2.771  1.00  0.00     0.067 A 
ATOM     87  C   UNL     1      13.294   5.854  -1.992  1.00  0.00     0.028 A 
ATOM     88  C   UNL     1      12.126   5.900  -4.129  1.00  0.00     0.041 A 
ATOM     89  C   UNL     1      14.275   5.039  -2.560  1.00  0.00     0.003 A 
ATOM     90  C   UNL     1      13.123   5.102  -4.707  1.00  0.00     0.058 A 
ATOM     91  C   UNL     1      14.181   4.652  -3.901  1.00  0.00     0.013 A 
BRANCH  90  92
ATOM     92  C   UNL     1      13.008   4.656  -6.143  1.00  0.00     0.416 C 
ATOM     93  F   UNL     1      14.197   4.692  -6.806  1.00  0.00    -0.166 F 
ATOM     94  F   UNL     1      12.555   3.376  -6.257  1.00  0.00    -0.166 F 
ATOM     95  F   UNL     1      12.149   5.418  -6.878  1.00  0.00    -0.166 F 
ENDBRANCH  90  92
ENDBRANCH  75  86
ENDBRANCH  68  71
ENDBRANCH  66  67
ENDBRANCH  65  66
ENDBRANCH  64  65
ENDBRANCH   1  64
TORSDOF 16
