REMARK SMILES CC(C)(C)OC(=O)N1CCC[C@H]1C(=O)N[C@@H](Cc1ccccc1)C(=O)NCCCCCCNC(=O)c1ccc(-c2c3nc(c(-c4c(F)cccc4F)c4ccc([nH]4)c(-c4c(F)cccc4F)c4nc(c(-c5c(F)cccc5F)c5ccc2[nH]5)C=C4)C=C3)cc1
REMARK SMILES IDX 28 1 27 2 26 3 24 4 25 5 16 7 15 8 13 9 14 10 12 12 8 13
REMARK SMILES IDX 9 14 10 15 11 16 6 17 7 18 5 19 2 20 1 21 3 22 4 23 17 24
REMARK SMILES IDX 18 25 19 26 23 27 20 28 22 29 21 30 29 31 30 32 31 33 32 34
REMARK SMILES IDX 33 35 34 36 35 38 36 39 37 40 89 41 38 42 88 43 39 44 40 45
REMARK SMILES IDX 41 46 82 47 42 48 87 49 81 50 83 51 43 52 86 53 80 54 79 55
REMARK SMILES IDX 44 57 70 58 53 59 69 60 54 61 57 62 68 63 84 64 55 65 56 66
REMARK SMILES IDX 67 68 85 69 58 70 45 71 46 72 51 73 47 74 48 75 50 76 52 77
REMARK SMILES IDX 49 78 71 79 72 80 77 81 73 82 74 83 76 84 78 85 75 86 59 87
REMARK SMILES IDX 60 88 65 89 61 90 62 91 64 92 66 93 63 94
REMARK H PARENT 26 6 15 11 33 37 83 56 57 67
REMARK Flexibility Score: inf
ROOT
ATOM      1  C   UNL     1      -3.593  -2.815   9.351  1.00  0.00     0.021 C 
ENDROOT
BRANCH   1   2
ATOM      2  C   UNL     1      -3.055  -4.092   8.713  1.00  0.00     0.116 C 
BRANCH   2   3
ATOM      3  N   UNL     1      -3.501  -4.348   7.359  1.00  0.00    -0.354 N 
ATOM      4  C   UNL     1      -3.014  -5.233   6.438  1.00  0.00     0.242 C 
ATOM      5  O   UNL     1      -3.833  -5.686   5.627  1.00  0.00    -0.273 OA
ATOM      6  H   UNL     1      -4.265  -3.805   7.058  1.00  0.00     0.163 HD
BRANCH   4   7
ATOM      7  C   UNL     1      -1.554  -5.766   6.411  1.00  0.00     0.175 C 
BRANCH   7   8
ATOM      8  N   UNL     1      -0.518  -4.824   6.843  1.00  0.00    -0.342 N 
ATOM      9  C   UNL     1       0.255  -3.989   6.069  1.00  0.00     0.243 C 
ATOM     10  O   UNL     1       0.943  -3.142   6.641  1.00  0.00    -0.273 OA
ATOM     11  H   UNL     1      -0.354  -4.782   7.813  1.00  0.00     0.164 HD
BRANCH   9  12
ATOM     12  C   UNL     1       0.354  -4.266   4.551  1.00  0.00     0.178 C 
ATOM     13  N   UNL     1       1.017  -3.231   3.767  1.00  0.00    -0.296 N 
ATOM     14  C   UNL     1       2.335  -3.643   3.341  1.00  0.00     0.124 C 
ATOM     15  C   UNL     1       2.214  -5.150   3.240  1.00  0.00     0.024 C 
ATOM     16  C   UNL     1       1.232  -5.516   4.349  1.00  0.00     0.037 C 
BRANCH  13  17
ATOM     17  C   UNL     1       0.348  -2.095   3.376  1.00  0.00     0.410 C 
ATOM     18  O   UNL     1      -0.718  -1.757   3.853  1.00  0.00    -0.224 OA
BRANCH  17  19
ATOM     19  O   UNL     1       0.987  -1.470   2.351  1.00  0.00    -0.444 OA
BRANCH  19  20
ATOM     20  C   UNL     1       0.475  -0.257   1.735  1.00  0.00     0.106 C 
ATOM     21  C   UNL     1       1.160  -0.188   0.359  1.00  0.00     0.056 C 
ATOM     22  C   UNL     1       0.917   0.938   2.579  1.00  0.00     0.056 C 
ATOM     23  C   UNL     1      -1.041  -0.250   1.501  1.00  0.00     0.056 C 
ENDBRANCH  19  20
ENDBRANCH  17  19
ENDBRANCH  13  17
ENDBRANCH   9  12
ENDBRANCH   7   8
BRANCH   7  24
ATOM     24  C   UNL     1      -1.361  -7.210   6.941  1.00  0.00     0.070 C 
BRANCH  24  25
ATOM     25  C   UNL     1      -1.381  -7.437   8.433  1.00  0.00    -0.045 A 
ATOM     26  C   UNL     1      -2.552  -7.242   9.167  1.00  0.00     0.004 A 
ATOM     27  C   UNL     1      -0.247  -7.907   9.112  1.00  0.00     0.004 A 
ATOM     28  C   UNL     1      -2.549  -7.330  10.561  1.00  0.00     0.000 A 
ATOM     29  C   UNL     1      -0.259  -8.054  10.502  1.00  0.00     0.000 A 
ATOM     30  C   UNL     1      -1.396  -7.718  11.232  1.00  0.00     0.000 A 
ENDBRANCH  24  25
ENDBRANCH   7  24
ENDBRANCH   4   7
ENDBRANCH   2   3
ENDBRANCH   1   2
BRANCH   1  31
ATOM     31  C   UNL     1      -5.023  -2.906   9.910  1.00  0.00     0.002 C 
BRANCH  31  32
ATOM     32  C   UNL     1      -5.337  -4.067  10.867  1.00  0.00     0.002 C 
BRANCH  32  33
ATOM     33  C   UNL     1      -4.386  -4.260  12.050  1.00  0.00     0.021 C 
BRANCH  33  34
ATOM     34  C   UNL     1      -4.238  -3.066  12.984  1.00  0.00     0.116 C 
BRANCH  34  35
ATOM     35  N   UNL     1      -5.484  -2.683  13.626  1.00  0.00    -0.352 N 
ATOM     36  C   UNL     1      -5.779  -2.501  14.955  1.00  0.00     0.251 C 
ATOM     37  H   UNL     1      -6.237  -2.529  13.010  1.00  0.00     0.163 HD
ATOM     38  O   UNL     1      -6.941  -2.298  15.298  1.00  0.00    -0.269 OA
BRANCH  36  39
ATOM     39  C   UNL     1      -4.716  -2.573  15.985  1.00  0.00     0.039 A 
ATOM     40  C   UNL     1      -4.999  -3.198  17.203  1.00  0.00     0.014 A 
ATOM     41  C   UNL     1      -3.457  -2.008  15.774  1.00  0.00     0.014 A 
ATOM     42  C   UNL     1      -4.006  -3.303  18.182  1.00  0.00     0.010 A 
ATOM     43  C   UNL     1      -2.442  -2.197  16.708  1.00  0.00     0.010 A 
ATOM     44  C   UNL     1      -2.709  -2.828  17.931  1.00  0.00    -0.014 A 
BRANCH  44  45
ATOM     45  C   UNL     1      -1.634  -2.936  18.952  1.00  0.00     0.031 A 
ATOM     46  C   UNL     1      -1.009  -1.689  19.519  1.00  0.00     0.074 A 
ATOM     47  C   UNL     1      -1.185  -4.147  19.335  1.00  0.00     0.049 A 
ATOM     48  N   UNL     1      -0.022  -1.568  20.371  1.00  0.00    -0.248 NA
ATOM     49  C   UNL     1      -1.546  -0.404  19.040  1.00  0.00     0.031 C 
ATOM     50  C   UNL     1      -1.680  -5.431  18.837  1.00  0.00     0.029 A 
ATOM     51  N   UNL     1      -0.208  -4.494  20.235  1.00  0.00    -0.354 N 
ATOM     52  C   UNL     1       0.185  -0.202  20.517  1.00  0.00     0.074 A 
ATOM     53  C   UNL     1      -0.727   0.463  19.614  1.00  0.00     0.031 C 
ATOM     54  C   UNL     1      -1.029  -6.426  19.463  1.00  0.00     0.029 A 
ATOM     55  C   UNL     1      -0.044  -5.851  20.374  1.00  0.00     0.049 A 
ATOM     56  H   UNL     1       0.326  -3.833  20.732  1.00  0.00     0.167 HD
ATOM     57  C   UNL     1       1.035   0.445  21.351  1.00  0.00     0.037 A 
ATOM     58  C   UNL     1       0.806  -6.551  21.150  1.00  0.00     0.037 A 
ATOM     59  C   UNL     1       1.928  -0.218  22.264  1.00  0.00     0.049 A 
ATOM     60  C   UNL     1       1.761  -5.812  22.047  1.00  0.00     0.074 A 
ATOM     61  C   UNL     1       2.800   0.344  23.180  1.00  0.00     0.029 A 
ATOM     62  N   UNL     1       2.063  -1.594  22.375  1.00  0.00    -0.354 N 
ATOM     63  N   UNL     1       1.906  -4.520  22.217  1.00  0.00    -0.248 NA
ATOM     64  C   UNL     1       2.666  -6.631  22.866  1.00  0.00     0.031 C 
ATOM     65  C   UNL     1       3.497  -0.691  23.811  1.00  0.00     0.029 A 
ATOM     66  C   UNL     1       3.019  -1.899  23.330  1.00  0.00     0.049 A 
ATOM     67  H   UNL     1       1.556  -2.255  21.852  1.00  0.00     0.167 HD
ATOM     68  C   UNL     1       2.889  -4.372  23.188  1.00  0.00     0.074 A 
ATOM     69  C   UNL     1       3.298  -5.707  23.575  1.00  0.00     0.031 C 
ATOM     70  C   UNL     1       3.405  -3.234  23.714  1.00  0.00     0.037 A 
BRANCH  57  71
ATOM     71  C   UNL     1       1.030   1.947  21.309  1.00  0.00     0.057 A 
ATOM     72  C   UNL     1      -0.068   2.696  21.755  1.00  0.00     0.134 A 
ATOM     73  C   UNL     1       2.137   2.656  20.825  1.00  0.00     0.134 A 
ATOM     74  F   UNL     1      -1.167   2.082  22.219  1.00  0.00    -0.206 F 
ATOM     75  C   UNL     1      -0.081   4.091  21.684  1.00  0.00     0.040 A 
ATOM     76  C   UNL     1       2.149   4.051  20.781  1.00  0.00     0.040 A 
ATOM     77  F   UNL     1       3.226   2.005  20.389  1.00  0.00    -0.206 F 
ATOM     78  C   UNL     1       1.034   4.772  21.201  1.00  0.00     0.006 A 
ENDBRANCH  57  71
BRANCH  58  79
ATOM     79  C   UNL     1       0.769  -8.037  21.144  1.00  0.00     0.057 A 
ATOM     80  C   UNL     1       0.315  -8.749  22.260  1.00  0.00     0.134 A 
ATOM     81  C   UNL     1       1.195  -8.779  20.036  1.00  0.00     0.134 A 
ATOM     82  F   UNL     1      -0.089  -8.095  23.359  1.00  0.00    -0.206 F 
ATOM     83  C   UNL     1       0.304 -10.145  22.285  1.00  0.00     0.040 A 
ATOM     84  C   UNL     1       1.165 -10.175  20.037  1.00  0.00     0.040 A 
ATOM     85  F   UNL     1       1.635  -8.158  18.932  1.00  0.00    -0.206 F 
ATOM     86  C   UNL     1       0.727 -10.862  21.167  1.00  0.00     0.006 A 
ENDBRANCH  58  79
BRANCH  70  87
ATOM     87  C   UNL     1       4.430  -3.380  24.801  1.00  0.00     0.057 A 
ATOM     88  C   UNL     1       5.728  -3.837  24.544  1.00  0.00     0.134 A 
ATOM     89  C   UNL     1       4.122  -3.017  26.119  1.00  0.00     0.134 A 
ATOM     90  F   UNL     1       6.085  -4.212  23.306  1.00  0.00    -0.206 F 
ATOM     91  C   UNL     1       6.675  -3.954  25.564  1.00  0.00     0.040 A 
ATOM     92  C   UNL     1       5.068  -3.101  27.141  1.00  0.00     0.040 A 
ATOM     93  F   UNL     1       2.899  -2.562  26.433  1.00  0.00    -0.206 F 
ATOM     94  C   UNL     1       6.348  -3.578  26.865  1.00  0.00     0.006 A 
ENDBRANCH  70  87
ENDBRANCH  44  45
ENDBRANCH  36  39
ENDBRANCH  34  35
ENDBRANCH  33  34
ENDBRANCH  32  33
ENDBRANCH  31  32
ENDBRANCH   1  31
TORSDOF 20
