REMARK SMILES C#CC[C@@]1(C(=O)NCCCCCCNC(=O)c2ccc(-c3c4nc(c(-c5c(F)cccc5F)c5ccc([nH]5)c(-c5c(F)cccc5F)c5nc(c(-c6c(F)cccc6F)c6ccc3[nH]6)C=C5)C=C4)cc2)CCCN1C(=O)OC(C)(C)C
REMARK SMILES IDX 10 1 9 2 8 3 7 4 5 5 6 6 4 8 71 9 74 10 72 11 73 12 3 13
REMARK SMILES IDX 2 14 1 15 75 16 76 17 77 18 78 19 79 20 80 21 81 22 11 23
REMARK SMILES IDX 12 24 13 25 14 26 15 27 16 29 17 30 18 31 70 32 19 33 69 34
REMARK SMILES IDX 20 35 21 36 22 37 63 38 23 39 68 40 62 41 64 42 24 43 67 44
REMARK SMILES IDX 61 45 60 46 25 48 51 49 34 50 50 51 35 52 38 53 49 54 65 55
REMARK SMILES IDX 36 56 37 57 48 59 66 60 39 61 26 62 27 63 32 64 28 65 29 66
REMARK SMILES IDX 31 67 33 68 30 69 52 70 53 71 58 72 54 73 55 74 57 75 59 76
REMARK SMILES IDX 56 77 40 78 41 79 46 80 42 81 43 82 45 83 47 84 44 85
REMARK H PARENT 7 7 14 28 64 47 38 58
REMARK Flexibility Score: inf
ROOT
ATOM      1  C   UNL     1       0.361   2.143   3.072  1.00  0.00     0.002 C 
ENDROOT
BRANCH   1   2
ATOM      2  C   UNL     1      -0.171   2.695   1.742  1.00  0.00     0.021 C 
BRANCH   2   3
ATOM      3  C   UNL     1       0.202   1.827   0.535  1.00  0.00     0.116 C 
BRANCH   3   4
ATOM      4  N   UNL     1      -0.558   0.596   0.565  1.00  0.00    -0.354 N 
ATOM      5  C   UNL     1      -1.831   0.346   0.137  1.00  0.00     0.247 C 
ATOM      6  O   UNL     1      -2.440  -0.460   0.844  1.00  0.00    -0.272 OA
ATOM      7  H   UNL     1      -0.087  -0.177   0.951  1.00  0.00     0.163 HD
BRANCH   5   8
ATOM      8  C   UNL     1      -2.382   0.917  -1.217  1.00  0.00     0.136 C 
ATOM      9  C   UNL     1      -2.242   2.469  -1.241  1.00  0.00     0.042 C 
ATOM     10  N   UNL     1      -3.878   0.786  -1.376  1.00  0.00    -0.292 N 
ATOM     11  C   UNL     1      -3.422   3.034  -2.010  1.00  0.00     0.025 C 
ATOM     12  C   UNL     1      -4.514   2.020  -1.804  1.00  0.00     0.124 C 
BRANCH   8  13
ATOM     13  C   UNL     1      -1.550   0.247  -2.382  1.00  0.00     0.128 C 
BRANCH  13  14
ATOM     14  C   UNL     1      -2.160   0.671  -3.708  1.00  0.00    -0.104 C 
ATOM     15  C   UNL     1      -2.684   1.035  -4.845  1.00  0.00     0.004 C 
ENDBRANCH  13  14
ENDBRANCH   8  13
BRANCH  10  16
ATOM     16  C   UNL     1      -4.722  -0.309  -1.296  1.00  0.00     0.411 C 
ATOM     17  O   UNL     1      -5.902  -0.234  -1.617  1.00  0.00    -0.224 OA
BRANCH  16  18
ATOM     18  O   UNL     1      -4.168  -1.414  -0.746  1.00  0.00    -0.444 OA
BRANCH  18  19
ATOM     19  C   UNL     1      -5.050  -2.418  -0.163  1.00  0.00     0.106 C 
ATOM     20  C   UNL     1      -6.050  -1.819   0.847  1.00  0.00     0.056 C 
ATOM     21  C   UNL     1      -5.771  -3.213  -1.256  1.00  0.00     0.056 C 
ATOM     22  C   UNL     1      -4.132  -3.372   0.617  1.00  0.00     0.056 C 
ENDBRANCH  18  19
ENDBRANCH  16  18
ENDBRANCH  10  16
ENDBRANCH   5   8
ENDBRANCH   3   4
ENDBRANCH   2   3
ENDBRANCH   1   2
BRANCH   1  23
ATOM     23  C   UNL     1       1.879   1.940   3.111  1.00  0.00     0.002 C 
BRANCH  23  24
ATOM     24  C   UNL     1       2.693   3.168   2.698  1.00  0.00     0.021 C 
BRANCH  24  25
ATOM     25  C   UNL     1       2.441   4.397   3.562  1.00  0.00     0.116 C 
BRANCH  25  26
ATOM     26  N   UNL     1       2.868   4.181   4.934  1.00  0.00    -0.352 N 
ATOM     27  C   UNL     1       3.740   4.922   5.689  1.00  0.00     0.251 C 
ATOM     28  H   UNL     1       2.478   3.396   5.382  1.00  0.00     0.163 HD
ATOM     29  O   UNL     1       4.177   4.481   6.746  1.00  0.00    -0.269 OA
BRANCH  27  30
ATOM     30  C   UNL     1       4.160   6.254   5.212  1.00  0.00     0.039 A 
ATOM     31  C   UNL     1       5.511   6.600   5.272  1.00  0.00     0.014 A 
ATOM     32  C   UNL     1       3.218   7.159   4.711  1.00  0.00     0.014 A 
ATOM     33  C   UNL     1       5.926   7.841   4.786  1.00  0.00     0.010 A 
ATOM     34  C   UNL     1       3.642   8.364   4.162  1.00  0.00     0.010 A 
ATOM     35  C   UNL     1       4.999   8.720   4.204  1.00  0.00    -0.014 A 
BRANCH  35  36
ATOM     36  C   UNL     1       5.427  10.025   3.643  1.00  0.00     0.031 A 
ATOM     37  C   UNL     1       4.940  11.306   4.261  1.00  0.00     0.074 A 
ATOM     38  C   UNL     1       6.202  10.054   2.542  1.00  0.00     0.049 A 
ATOM     39  N   UNL     1       5.148  12.540   3.878  1.00  0.00    -0.248 NA
ATOM     40  C   UNL     1       4.084  11.182   5.452  1.00  0.00     0.031 C 
ATOM     41  C   UNL     1       6.700   8.878   1.826  1.00  0.00     0.029 A 
ATOM     42  N   UNL     1       6.700  11.114   1.828  1.00  0.00    -0.354 N 
ATOM     43  C   UNL     1       4.439  13.335   4.770  1.00  0.00     0.074 A 
ATOM     44  C   UNL     1       3.752  12.444   5.679  1.00  0.00     0.031 C 
ATOM     45  C   UNL     1       7.449   9.282   0.788  1.00  0.00     0.029 A 
ATOM     46  C   UNL     1       7.455  10.741   0.744  1.00  0.00     0.049 A 
ATOM     47  H   UNL     1       6.531  12.054   2.070  1.00  0.00     0.167 HD
ATOM     48  C   UNL     1       4.385  14.687   4.838  1.00  0.00     0.037 A 
ATOM     49  C   UNL     1       8.078  11.492  -0.184  1.00  0.00     0.037 A 
ATOM     50  C   UNL     1       5.091  15.569   3.947  1.00  0.00     0.049 A 
ATOM     51  C   UNL     1       7.999  12.990  -0.088  1.00  0.00     0.074 A 
ATOM     52  C   UNL     1       5.149  16.951   3.969  1.00  0.00     0.029 A 
ATOM     53  N   UNL     1       5.862  15.152   2.872  1.00  0.00    -0.354 N 
ATOM     54  N   UNL     1       7.379  13.730   0.799  1.00  0.00    -0.248 NA
ATOM     55  C   UNL     1       8.713  13.757  -1.119  1.00  0.00     0.031 C 
ATOM     56  C   UNL     1       5.920  17.373   2.881  1.00  0.00     0.029 A 
ATOM     57  C   UNL     1       6.382  16.252   2.210  1.00  0.00     0.049 A 
ATOM     58  H   UNL     1       6.016  14.214   2.616  1.00  0.00     0.167 HD
ATOM     59  C   UNL     1       7.651  15.047   0.452  1.00  0.00     0.074 A 
ATOM     60  C   UNL     1       8.502  15.004  -0.719  1.00  0.00     0.031 C 
ATOM     61  C   UNL     1       7.235  16.190   1.050  1.00  0.00     0.037 A 
BRANCH  48  62
ATOM     62  C   UNL     1       3.536  15.291   5.918  1.00  0.00     0.057 A 
ATOM     63  C   UNL     1       3.898  15.219   7.270  1.00  0.00     0.134 A 
ATOM     64  C   UNL     1       2.359  15.981   5.602  1.00  0.00     0.134 A 
ATOM     65  F   UNL     1       5.007  14.562   7.643  1.00  0.00    -0.206 F 
ATOM     66  C   UNL     1       3.106  15.787   8.270  1.00  0.00     0.040 A 
ATOM     67  C   UNL     1       1.574  16.577   6.590  1.00  0.00     0.040 A 
ATOM     68  F   UNL     1       1.956  16.093   4.327  1.00  0.00    -0.206 F 
ATOM     69  C   UNL     1       1.944  16.475   7.930  1.00  0.00     0.006 A 
ENDBRANCH  48  62
BRANCH  49  70
ATOM     70  C   UNL     1       8.851  10.840  -1.271  1.00  0.00     0.057 A 
ATOM     71  C   UNL     1      10.248  10.914  -1.306  1.00  0.00     0.134 A 
ATOM     72  C   UNL     1       8.216  10.134  -2.300  1.00  0.00     0.134 A 
ATOM     73  F   UNL     1      10.911  11.591  -0.357  1.00  0.00    -0.206 F 
ATOM     74  C   UNL     1      10.986  10.328  -2.336  1.00  0.00     0.040 A 
ATOM     75  C   UNL     1       8.943   9.521  -3.322  1.00  0.00     0.040 A 
ATOM     76  F   UNL     1       6.880  10.018  -2.318  1.00  0.00    -0.206 F 
ATOM     77  C   UNL     1      10.332   9.624  -3.345  1.00  0.00     0.006 A 
ENDBRANCH  49  70
BRANCH  61  78
ATOM     78  C   UNL     1       7.724  17.485   0.471  1.00  0.00     0.057 A 
ATOM     79  C   UNL     1       7.243  17.979  -0.748  1.00  0.00     0.134 A 
ATOM     80  C   UNL     1       8.658  18.266   1.164  1.00  0.00     0.134 A 
ATOM     81  F   UNL     1       6.357  17.272  -1.466  1.00  0.00    -0.206 F 
ATOM     82  C   UNL     1       7.691  19.194  -1.268  1.00  0.00     0.040 A 
ATOM     83  C   UNL     1       9.093  19.495   0.667  1.00  0.00     0.040 A 
ATOM     84  F   UNL     1       9.151  17.854   2.341  1.00  0.00    -0.206 F 
ATOM     85  C   UNL     1       8.613  19.959  -0.556  1.00  0.00     0.006 A 
ENDBRANCH  61  78
ENDBRANCH  35  36
ENDBRANCH  27  30
ENDBRANCH  25  26
ENDBRANCH  24  25
ENDBRANCH  23  24
ENDBRANCH   1  23
TORSDOF 18
