REMARK SMILES C[C@]1(O)CC[C@@H]2[C@H]3CCC4=C/C(=N/OCC(=O)NCCCCCCNC(=O)c5ccc(-c6c7nc(c(-c8c(F)cccc8F)c8ccc([nH]8)c(-c8c(F)cccc8F)c8nc(c(-c9c(F)cccc9F)c9ccc6[nH]9)C=C8)C=C7)cc5)CC[C@@]4(C)[C@@H]3CC[C@]21C
REMARK SMILES IDX 21 1 20 2 19 3 18 4 16 5 17 6 15 8 14 9 13 10 1 11 2 12 4 13
REMARK SMILES IDX 89 14 5 15 6 16 88 17 90 18 7 19 87 20 8 21 86 22 9 23 84 24
REMARK SMILES IDX 10 25 83 26 85 27 11 28 82 29 12 30 3 31 22 33 23 34 24 35
REMARK SMILES IDX 25 36 26 37 27 39 28 40 29 41 81 42 30 43 80 44 31 45 32 46
REMARK SMILES IDX 33 47 74 48 34 49 79 50 73 51 75 52 35 53 78 54 72 55 71 56
REMARK SMILES IDX 36 58 62 59 45 60 61 61 46 62 49 63 60 64 76 65 47 66 48 67
REMARK SMILES IDX 59 69 77 70 50 71 37 72 38 73 43 74 39 75 40 76 42 77 44 78
REMARK SMILES IDX 41 79 63 80 64 81 69 82 65 83 66 84 68 85 70 86 67 87 51 88
REMARK SMILES IDX 52 89 57 90 53 91 54 92 56 93 58 94 55 95
REMARK H PARENT 18 7 3 32 25 38 75 57 49 68
REMARK Flexibility Score: inf
ROOT
ATOM      1  C   UNL     1      -2.367  11.714   9.736  1.00  0.00     0.002 C 
ENDROOT
BRANCH   1   2
ATOM      2  C   UNL     1      -1.624  10.701   8.851  1.00  0.00     0.021 C 
BRANCH   2   3
ATOM      3  C   UNL     1      -0.706   9.755   9.629  1.00  0.00     0.116 C 
BRANCH   3   4
ATOM      4  N   UNL     1      -1.462   8.935  10.556  1.00  0.00    -0.353 N 
ATOM      5  C   UNL     1      -1.779   7.608  10.485  1.00  0.00     0.260 C 
ATOM      6  O   UNL     1      -2.483   7.135  11.380  1.00  0.00    -0.271 OA
ATOM      7  H   UNL     1      -1.797   9.404  11.354  1.00  0.00     0.163 HD
BRANCH   5   8
ATOM      8  C   UNL     1      -1.164   6.725   9.405  1.00  0.00     0.363 C 
BRANCH   8   9
ATOM      9  O   UNL     1      -1.145   7.289   8.109  1.00  0.00    -0.385 OA
BRANCH   9  10
ATOM     10  N   UNL     1      -2.258   6.879   7.366  1.00  0.00    -0.091 NA
ATOM     11  C   UNL     1       1.350   1.227  -0.135  1.00  0.00     0.042 C 
ATOM     12  C   UNL     1       0.711   1.658   1.191  1.00  0.00     0.068 C 
ATOM     13  C   UNL     1      -0.654   0.927   1.342  1.00  0.00     0.036 C 
ATOM     14  C   UNL     1       0.383   3.196   1.371  1.00  0.00    -0.001 C 
ATOM     15  C   UNL     1      -1.718   2.018   1.312  1.00  0.00     0.007 C 
ATOM     16  C   UNL     1      -1.004   3.127   2.064  1.00  0.00     0.001 C 
ATOM     17  C   UNL     1       1.270   4.019   2.334  1.00  0.00     0.010 C 
ATOM     18  C   UNL     1       0.373   3.913  -0.005  1.00  0.00     0.015 C 
ATOM     19  C   UNL     1      -1.686   4.484   2.186  1.00  0.00    -0.003 C 
ATOM     20  C   UNL     1       0.693   5.436   2.609  1.00  0.00     0.005 C 
ATOM     21  C   UNL     1      -3.112   4.358   2.759  1.00  0.00     0.008 C 
ATOM     22  C   UNL     1      -0.789   5.435   3.069  1.00  0.00     0.002 C 
ATOM     23  C   UNL     1      -3.764   5.720   3.002  1.00  0.00     0.032 C 
ATOM     24  C   UNL     1      -1.468   6.851   3.219  1.00  0.00    -0.008 C 
ATOM     25  C   UNL     1      -2.828   6.543   3.850  1.00  0.00    -0.062 C 
ATOM     26  C   UNL     1      -0.684   7.881   4.075  1.00  0.00     0.018 C 
ATOM     27  C   UNL     1      -1.639   7.559   1.844  1.00  0.00     0.016 C 
ATOM     28  C   UNL     1      -3.122   6.727   5.148  1.00  0.00     0.027 C 
ATOM     29  C   UNL     1      -0.837   7.834   5.583  1.00  0.00     0.061 C 
ATOM     30  C   UNL     1      -2.079   7.147   6.103  1.00  0.00     0.080 C 
BRANCH  12  31
ATOM     31  O   UNL     1       1.561   1.198   2.243  1.00  0.00    -0.390 OA
ATOM     32  H   UNL     1       1.751   0.256   2.116  1.00  0.00     0.211 HD
ENDBRANCH  12  31
ENDBRANCH   9  10
ENDBRANCH   8   9
ENDBRANCH   5   8
ENDBRANCH   3   4
ENDBRANCH   2   3
ENDBRANCH   1   2
BRANCH   1  33
ATOM     33  C   UNL     1      -1.470  12.566  10.640  1.00  0.00     0.002 C 
BRANCH  33  34
ATOM     34  C   UNL     1      -0.421  13.404   9.905  1.00  0.00     0.021 C 
BRANCH  34  35
ATOM     35  C   UNL     1      -0.996  14.435   8.939  1.00  0.00     0.116 C 
BRANCH  35  36
ATOM     36  N   UNL     1      -1.819  15.425   9.616  1.00  0.00    -0.352 N 
ATOM     37  C   UNL     1      -1.791  16.790   9.537  1.00  0.00     0.251 C 
ATOM     38  H   UNL     1      -2.501  15.056  10.223  1.00  0.00     0.163 HD
ATOM     39  O   UNL     1      -2.450  17.463  10.335  1.00  0.00    -0.269 OA
BRANCH  37  40
ATOM     40  C   UNL     1      -0.963  17.471   8.520  1.00  0.00     0.039 A 
ATOM     41  C   UNL     1      -0.262  18.622   8.887  1.00  0.00     0.014 A 
ATOM     42  C   UNL     1      -0.893  17.002   7.204  1.00  0.00     0.014 A 
ATOM     43  C   UNL     1       0.546  19.271   7.953  1.00  0.00     0.010 A 
ATOM     44  C   UNL     1      -0.026  17.605   6.294  1.00  0.00     0.010 A 
ATOM     45  C   UNL     1       0.699  18.749   6.657  1.00  0.00    -0.014 A 
BRANCH  45  46
ATOM     46  C   UNL     1       1.627  19.391   5.691  1.00  0.00     0.031 A 
ATOM     47  C   UNL     1       1.111  20.012   4.421  1.00  0.00     0.074 A 
ATOM     48  C   UNL     1       2.949  19.391   5.951  1.00  0.00     0.049 A 
ATOM     49  N   UNL     1       1.773  20.637   3.480  1.00  0.00    -0.248 NA
ATOM     50  C   UNL     1      -0.332  19.896   4.161  1.00  0.00     0.031 C 
ATOM     51  C   UNL     1       3.581  18.768   7.115  1.00  0.00     0.029 A 
ATOM     52  N   UNL     1       3.999  19.938   5.257  1.00  0.00    -0.354 N 
ATOM     53  C   UNL     1       0.831  20.986   2.520  1.00  0.00     0.074 A 
ATOM     54  C   UNL     1      -0.438  20.448   2.961  1.00  0.00     0.031 C 
ATOM     55  C   UNL     1       4.902  19.003   7.077  1.00  0.00     0.029 A 
ATOM     56  C   UNL     1       5.215  19.762   5.871  1.00  0.00     0.049 A 
ATOM     57  H   UNL     1       3.891  20.410   4.400  1.00  0.00     0.167 HD
ATOM     58  C   UNL     1       1.002  21.710   1.388  1.00  0.00     0.037 A 
ATOM     59  C   UNL     1       6.444  20.174   5.508  1.00  0.00     0.037 A 
ATOM     60  C   UNL     1       2.264  22.255   0.957  1.00  0.00     0.049 A 
ATOM     61  C   UNL     1       6.603  20.983   4.251  1.00  0.00     0.074 A 
ATOM     62  C   UNL     1       2.531  23.044  -0.150  1.00  0.00     0.029 A 
ATOM     63  N   UNL     1       3.472  22.065   1.611  1.00  0.00    -0.354 N 
ATOM     64  N   UNL     1       5.691  21.369   3.393  1.00  0.00    -0.248 NA
ATOM     65  C   UNL     1       7.965  21.425   3.921  1.00  0.00     0.031 C 
ATOM     66  C   UNL     1       3.908  23.292  -0.190  1.00  0.00     0.029 A 
ATOM     67  C   UNL     1       4.490  22.705   0.921  1.00  0.00     0.049 A 
ATOM     68  H   UNL     1       3.589  21.551   2.442  1.00  0.00     0.167 HD
ATOM     69  C   UNL     1       6.362  22.124   2.439  1.00  0.00     0.074 A 
ATOM     70  C   UNL     1       7.753  22.160   2.840  1.00  0.00     0.031 C 
ATOM     71  C   UNL     1       5.872  22.731   1.330  1.00  0.00     0.037 A 
BRANCH  58  72
ATOM     72  C   UNL     1      -0.211  21.963   0.537  1.00  0.00     0.057 A 
ATOM     73  C   UNL     1      -1.245  22.811   0.958  1.00  0.00     0.134 A 
ATOM     74  C   UNL     1      -0.329  21.388  -0.735  1.00  0.00     0.134 A 
ATOM     75  F   UNL     1      -1.202  23.386   2.169  1.00  0.00    -0.206 F 
ATOM     76  C   UNL     1      -2.362  23.056   0.157  1.00  0.00     0.040 A 
ATOM     77  C   UNL     1      -1.427  21.649  -1.557  1.00  0.00     0.040 A 
ATOM     78  F   UNL     1       0.627  20.571  -1.205  1.00  0.00    -0.206 F 
ATOM     79  C   UNL     1      -2.451  22.480  -1.108  1.00  0.00     0.006 A 
ENDBRANCH  58  72
BRANCH  59  80
ATOM     80  C   UNL     1       7.619  19.861   6.361  1.00  0.00     0.057 A 
ATOM     81  C   UNL     1       8.296  20.869   7.058  1.00  0.00     0.134 A 
ATOM     82  C   UNL     1       8.104  18.554   6.486  1.00  0.00     0.134 A 
ATOM     83  F   UNL     1       7.890  22.144   6.964  1.00  0.00    -0.206 F 
ATOM     84  C   UNL     1       9.430  20.595   7.824  1.00  0.00     0.040 A 
ATOM     85  C   UNL     1       9.219  18.260   7.272  1.00  0.00     0.040 A 
ATOM     86  F   UNL     1       7.494  17.541   5.853  1.00  0.00    -0.206 F 
ATOM     87  C   UNL     1       9.892  19.285   7.935  1.00  0.00     0.006 A 
ENDBRANCH  59  80
BRANCH  71  88
ATOM     88  C   UNL     1       6.847  23.513   0.497  1.00  0.00     0.057 A 
ATOM     89  C   UNL     1       7.857  22.889  -0.248  1.00  0.00     0.134 A 
ATOM     90  C   UNL     1       6.778  24.911   0.444  1.00  0.00     0.134 A 
ATOM     91  F   UNL     1       7.987  21.554  -0.232  1.00  0.00    -0.206 F 
ATOM     92  C   UNL     1       8.788  23.629  -0.979  1.00  0.00     0.040 A 
ATOM     93  C   UNL     1       7.683  25.660  -0.310  1.00  0.00     0.040 A 
ATOM     94  F   UNL     1       5.829  25.573   1.123  1.00  0.00    -0.206 F 
ATOM     95  C   UNL     1       8.700  25.019  -1.014  1.00  0.00     0.006 A 
ENDBRANCH  71  88
ENDBRANCH  45  46
ENDBRANCH  37  40
ENDBRANCH  35  36
ENDBRANCH  34  35
ENDBRANCH  33  34
ENDBRANCH   1  33
TORSDOF 16
