REMARK SMILES O=C(NCCCCCCNC(=O)[C@H]1CSCN1C(=O)c1occc1-c1ccccc1)c1ccc(-c2c3nc(c(-c4c(F)cccc4F)c4ccc([nH]4)c(-c4c(F)cccc4F)c4nc(c(-c5c(F)cccc5F)c5ccc2[nH]5)C=C4)C=C3)cc1
REMARK SMILES IDX 7 1 6 2 5 3 4 4 3 5 1 6 2 7 31 9 32 10 84 11 33 12 83 13
REMARK SMILES IDX 34 14 35 15 36 16 77 17 37 18 82 19 76 20 78 21 38 22 81 23
REMARK SMILES IDX 75 24 74 25 39 27 65 28 48 29 64 30 49 31 52 32 63 33 79 34
REMARK SMILES IDX 50 35 51 36 62 38 80 39 53 40 40 41 41 42 46 43 42 44 43 45
REMARK SMILES IDX 45 46 47 47 44 48 66 49 67 50 72 51 68 52 69 53 71 54 73 55
REMARK SMILES IDX 70 56 54 57 55 58 60 59 56 60 57 61 59 62 61 63 58 64 8 65
REMARK SMILES IDX 9 66 10 67 11 68 12 70 13 71 14 72 17 73 15 74 16 75 18 76
REMARK SMILES IDX 19 77 20 78 21 79 24 80 22 81 23 82 25 83 26 84 30 85 27 86
REMARK SMILES IDX 29 87 28 88
REMARK H PARENT 3 8 78 26 52 37 10 69
REMARK Flexibility Score: inf
ROOT
ATOM      1  C   UNL     1       3.832   3.693  -3.038  1.00  0.00     0.002 C 
ENDROOT
BRANCH   1   2
ATOM      2  C   UNL     1       3.621   2.255  -3.524  1.00  0.00     0.002 C 
BRANCH   2   3
ATOM      3  C   UNL     1       4.274   1.116  -2.742  1.00  0.00     0.021 C 
BRANCH   3   4
ATOM      4  C   UNL     1       4.099   1.126  -1.230  1.00  0.00     0.116 C 
BRANCH   4   5
ATOM      5  N   UNL     1       2.726   0.924  -0.807  1.00  0.00    -0.352 N 
ATOM      6  O   UNL     1       0.954  -0.129   0.102  1.00  0.00    -0.269 OA
ATOM      7  C   UNL     1       2.175  -0.075  -0.042  1.00  0.00     0.251 C 
ATOM      8  H   UNL     1       2.090   1.609  -1.116  1.00  0.00     0.163 HD
BRANCH   7   9
ATOM      9  C   UNL     1       3.028  -1.103   0.598  1.00  0.00     0.039 A 
ATOM     10  C   UNL     1       4.221  -0.761   1.237  1.00  0.00     0.014 A 
ATOM     11  C   UNL     1       2.602  -2.437   0.597  1.00  0.00     0.014 A 
ATOM     12  C   UNL     1       5.047  -1.757   1.747  1.00  0.00     0.010 A 
ATOM     13  C   UNL     1       3.389  -3.428   1.198  1.00  0.00     0.010 A 
ATOM     14  C   UNL     1       4.631  -3.100   1.760  1.00  0.00    -0.014 A 
BRANCH  14  15
ATOM     15  C   UNL     1       5.474  -4.107   2.458  1.00  0.00     0.031 A 
ATOM     16  C   UNL     1       6.118  -5.250   1.722  1.00  0.00     0.074 A 
ATOM     17  C   UNL     1       5.692  -3.950   3.780  1.00  0.00     0.049 A 
ATOM     18  N   UNL     1       6.934  -6.167   2.182  1.00  0.00    -0.248 NA
ATOM     19  C   UNL     1       5.808  -5.389   0.292  1.00  0.00     0.031 C 
ATOM     20  C   UNL     1       5.094  -2.901   4.611  1.00  0.00     0.029 A 
ATOM     21  N   UNL     1       6.486  -4.649   4.652  1.00  0.00    -0.354 N 
ATOM     22  C   UNL     1       7.234  -6.990   1.104  1.00  0.00     0.074 A 
ATOM     23  C   UNL     1       6.483  -6.487  -0.027  1.00  0.00     0.031 C 
ATOM     24  C   UNL     1       5.583  -2.991   5.855  1.00  0.00     0.029 A 
ATOM     25  C   UNL     1       6.476  -4.141   5.929  1.00  0.00     0.049 A 
ATOM     26  H   UNL     1       7.012  -5.439   4.390  1.00  0.00     0.167 HD
ATOM     27  C   UNL     1       8.070  -8.056   1.060  1.00  0.00     0.037 A 
ATOM     28  C   UNL     1       7.102  -4.559   7.044  1.00  0.00     0.037 A 
ATOM     29  C   UNL     1       8.812  -8.558   2.191  1.00  0.00     0.049 A 
ATOM     30  C   UNL     1       8.000  -5.759   6.967  1.00  0.00     0.074 A 
ATOM     31  C   UNL     1       9.695  -9.624   2.239  1.00  0.00     0.029 A 
ATOM     32  N   UNL     1       8.754  -8.034   3.474  1.00  0.00    -0.354 N 
ATOM     33  N   UNL     1       8.308  -6.496   5.927  1.00  0.00    -0.248 NA
ATOM     34  C   UNL     1       8.641  -6.184   8.218  1.00  0.00     0.031 C 
ATOM     35  C   UNL     1      10.136  -9.772   3.558  1.00  0.00     0.029 A 
ATOM     36  C   UNL     1       9.571  -8.765   4.323  1.00  0.00     0.049 A 
ATOM     37  H   UNL     1       8.212  -7.257   3.743  1.00  0.00     0.167 HD
ATOM     38  C   UNL     1       9.185  -7.464   6.396  1.00  0.00     0.074 A 
ATOM     39  C   UNL     1       9.390  -7.195   7.804  1.00  0.00     0.031 C 
ATOM     40  C   UNL     1       9.762  -8.490   5.724  1.00  0.00     0.037 A 
BRANCH  27  41
ATOM     41  C   UNL     1       8.236  -8.764  -0.256  1.00  0.00     0.057 A 
ATOM     42  C   UNL     1       8.947  -8.188  -1.317  1.00  0.00     0.134 A 
ATOM     43  C   UNL     1       7.748 -10.065  -0.438  1.00  0.00     0.134 A 
ATOM     44  F   UNL     1       9.434  -6.942  -1.212  1.00  0.00    -0.206 F 
ATOM     45  C   UNL     1       9.157  -8.874  -2.515  1.00  0.00     0.040 A 
ATOM     46  C   UNL     1       7.973 -10.771  -1.622  1.00  0.00     0.040 A 
ATOM     47  F   UNL     1       7.067 -10.681   0.539  1.00  0.00    -0.206 F 
ATOM     48  C   UNL     1       8.677 -10.174  -2.666  1.00  0.00     0.006 A 
ENDBRANCH  27  41
BRANCH  28  49
ATOM     49  C   UNL     1       6.884  -3.852   8.332  1.00  0.00     0.057 A 
ATOM     50  C   UNL     1       7.918  -3.157   8.968  1.00  0.00     0.134 A 
ATOM     51  C   UNL     1       5.636  -3.874   8.968  1.00  0.00     0.134 A 
ATOM     52  F   UNL     1       9.141  -3.112   8.418  1.00  0.00    -0.206 F 
ATOM     53  C   UNL     1       7.729  -2.535  10.204  1.00  0.00     0.040 A 
ATOM     54  C   UNL     1       5.423  -3.228  10.185  1.00  0.00     0.040 A 
ATOM     55  F   UNL     1       4.600  -4.514   8.405  1.00  0.00    -0.206 F 
ATOM     56  C   UNL     1       6.476  -2.566  10.813  1.00  0.00     0.006 A 
ENDBRANCH  28  49
BRANCH  40  57
ATOM     57  C   UNL     1      10.685  -9.377   6.509  1.00  0.00     0.057 A 
ATOM     58  C   UNL     1      10.210 -10.250   7.497  1.00  0.00     0.134 A 
ATOM     59  C   UNL     1      12.066  -9.354   6.278  1.00  0.00     0.134 A 
ATOM     60  F   UNL     1       8.899 -10.309   7.779  1.00  0.00    -0.206 F 
ATOM     61  C   UNL     1      11.079 -11.037   8.254  1.00  0.00     0.040 A 
ATOM     62  C   UNL     1      12.942 -10.159   7.007  1.00  0.00     0.040 A 
ATOM     63  F   UNL     1      12.588  -8.548   5.341  1.00  0.00    -0.206 F 
ATOM     64  C   UNL     1      12.449 -10.996   8.007  1.00  0.00     0.006 A 
ENDBRANCH  40  57
ENDBRANCH  14  15
ENDBRANCH   7   9
ENDBRANCH   4   5
ENDBRANCH   3   4
ENDBRANCH   2   3
ENDBRANCH   1   2
BRANCH   1  65
ATOM     65  C   UNL     1       5.246   4.146  -2.671  1.00  0.00     0.021 C 
BRANCH  65  66
ATOM     66  C   UNL     1       6.364   3.860  -3.664  1.00  0.00     0.116 C 
BRANCH  66  67
ATOM     67  N   UNL     1       6.426   4.794  -4.756  1.00  0.00    -0.354 N 
ATOM     68  C   UNL     1       7.514   5.202  -5.467  1.00  0.00     0.243 C 
ATOM     69  H   UNL     1       5.567   5.193  -5.025  1.00  0.00     0.163 HD
ATOM     70  O   UNL     1       7.297   5.997  -6.392  1.00  0.00    -0.273 OA
BRANCH  68  71
ATOM     71  C   UNL     1       8.984   4.911  -5.052  1.00  0.00     0.185 C 
ATOM     72  C   UNL     1       9.492   6.194  -4.363  1.00  0.00     0.106 C 
ATOM     73  N   UNL     1       9.378   3.738  -4.242  1.00  0.00    -0.314 N 
ATOM     74  S   UNL     1      10.411   5.691  -2.888  1.00  0.00    -0.138 SA
ATOM     75  C   UNL     1      10.542   3.990  -3.431  1.00  0.00     0.191 C 
BRANCH  73  76
ATOM     76  C   UNL     1       9.053   2.465  -4.711  1.00  0.00     0.291 C 
ATOM     77  O   UNL     1       8.449   2.380  -5.784  1.00  0.00    -0.265 OA
BRANCH  76  78
ATOM     78  C   UNL     1       9.383   1.258  -3.951  1.00  0.00     0.199 A 
ATOM     79  O   UNL     1       9.610   0.148  -4.742  1.00  0.00    -0.459 OA
ATOM     80  C   UNL     1       9.456   0.850  -2.616  1.00  0.00     0.033 A 
ATOM     81  C   UNL     1       9.803  -0.923  -3.944  1.00  0.00     0.196 A 
ATOM     82  C   UNL     1       9.728  -0.552  -2.630  1.00  0.00     0.051 A 
BRANCH  80  83
ATOM     83  C   UNL     1       9.169   1.612  -1.414  1.00  0.00    -0.014 A 
ATOM     84  C   UNL     1      10.169   1.828  -0.457  1.00  0.00     0.009 A 
ATOM     85  C   UNL     1       7.869   2.027  -1.133  1.00  0.00     0.009 A 
ATOM     86  C   UNL     1       9.879   2.506   0.730  1.00  0.00     0.001 A 
ATOM     87  C   UNL     1       7.576   2.703   0.055  1.00  0.00     0.001 A 
ATOM     88  C   UNL     1       8.583   2.951   0.982  1.00  0.00     0.000 A 
ENDBRANCH  80  83
ENDBRANCH  76  78
ENDBRANCH  73  76
ENDBRANCH  68  71
ENDBRANCH  66  67
ENDBRANCH  65  66
ENDBRANCH   1  65
TORSDOF 16
