REMARK SMILES O=C(NCCCCCCNC(=O)[C@@H]1[C@H](C(=O)Nc2ccccc2OC(F)F)[C@@H]2C=C[C@H]1C2)c1ccc(-c2c3nc(c(-c4c(F)cccc4F)c4ccc([nH]4)c(-c4c(F)cccc4F)c4nc(c(-c5c(F)cccc5F)c5ccc2[nH]5)C=C4)C=C3)cc1
REMARK SMILES IDX 7 1 6 2 5 3 4 4 3 5 1 6 2 7 33 9 34 10 86 11 35 12 85 13
REMARK SMILES IDX 36 14 37 15 38 16 79 17 39 18 84 19 78 20 80 21 40 22 83 23
REMARK SMILES IDX 77 24 76 25 41 27 67 28 50 29 66 30 51 31 54 32 65 33 81 34
REMARK SMILES IDX 52 35 53 36 64 38 82 39 55 40 42 41 43 42 48 43 44 44 45 45
REMARK SMILES IDX 47 46 49 47 46 48 68 49 69 50 74 51 70 52 71 53 73 54 75 55
REMARK SMILES IDX 72 56 56 57 57 58 62 59 58 60 59 61 61 62 63 63 60 64 8 65
REMARK SMILES IDX 9 66 10 67 11 68 12 70 13 71 14 72 31 73 28 74 30 75 32 76
REMARK SMILES IDX 29 77 15 78 16 79 17 80 18 82 19 83 23 84 20 85 22 86 21 87
REMARK SMILES IDX 24 88 25 89 26 90 27 91
REMARK H PARENT 3 8 80 26 54 37 10 69 17 81
REMARK Flexibility Score: inf
ROOT
ATOM      1  C   UNL     1       5.089  -3.521  -2.470  1.00  0.00     0.002 C 
ENDROOT
BRANCH   1   2
ATOM      2  C   UNL     1       4.314  -3.679  -1.156  1.00  0.00     0.002 C 
BRANCH   2   3
ATOM      3  C   UNL     1       4.511  -2.571  -0.123  1.00  0.00     0.021 C 
BRANCH   3   4
ATOM      4  C   UNL     1       4.262  -1.157  -0.629  1.00  0.00     0.116 C 
BRANCH   4   5
ATOM      5  N   UNL     1       2.850  -0.831  -0.749  1.00  0.00    -0.352 N 
ATOM      6  O   UNL     1       0.917   0.229  -0.242  1.00  0.00    -0.269 OA
ATOM      7  C   UNL     1       2.138   0.171  -0.129  1.00  0.00     0.251 C 
ATOM      8  H   UNL     1       2.333  -1.405  -1.357  1.00  0.00     0.163 HD
BRANCH   7   9
ATOM      9  C   UNL     1       2.848   1.158   0.715  1.00  0.00     0.039 A 
ATOM     10  C   UNL     1       4.029   1.754   0.272  1.00  0.00     0.014 A 
ATOM     11  C   UNL     1       2.348   1.457   1.986  1.00  0.00     0.014 A 
ATOM     12  C   UNL     1       4.805   2.489   1.161  1.00  0.00     0.010 A 
ATOM     13  C   UNL     1       3.079   2.287   2.842  1.00  0.00     0.010 A 
ATOM     14  C   UNL     1       4.340   2.770   2.457  1.00  0.00    -0.014 A 
BRANCH  14  15
ATOM     15  C   UNL     1       5.180   3.591   3.369  1.00  0.00     0.031 A 
ATOM     16  C   UNL     1       5.705   3.034   4.667  1.00  0.00     0.074 A 
ATOM     17  C   UNL     1       5.507   4.845   2.997  1.00  0.00     0.049 A 
ATOM     18  N   UNL     1       6.478   3.606   5.557  1.00  0.00    -0.248 NA
ATOM     19  C   UNL     1       5.305   1.663   5.018  1.00  0.00     0.031 C 
ATOM     20  C   UNL     1       5.054   5.504   1.770  1.00  0.00     0.029 A 
ATOM     21  N   UNL     1       6.313   5.779   3.596  1.00  0.00    -0.354 N 
ATOM     22  C   UNL     1       6.632   2.681   6.583  1.00  0.00     0.074 A 
ATOM     23  C   UNL     1       5.854   1.517   6.217  1.00  0.00     0.031 C 
ATOM     24  C   UNL     1       5.635   6.708   1.676  1.00  0.00     0.029 A 
ATOM     25  C   UNL     1       6.445   6.936   2.867  1.00  0.00     0.049 A 
ATOM     26  H   UNL     1       6.754   5.635   4.464  1.00  0.00     0.167 HD
ATOM     27  C   UNL     1       7.360   2.790   7.721  1.00  0.00     0.037 A 
ATOM     28  C   UNL     1       7.132   8.062   3.129  1.00  0.00     0.037 A 
ATOM     29  C   UNL     1       8.154   3.942   8.072  1.00  0.00     0.049 A 
ATOM     30  C   UNL     1       7.920   8.158   4.402  1.00  0.00     0.074 A 
ATOM     31  C   UNL     1       8.959   4.129   9.183  1.00  0.00     0.029 A 
ATOM     32  N   UNL     1       8.240   5.103   7.319  1.00  0.00    -0.354 N 
ATOM     33  N   UNL     1       8.084   7.260   5.342  1.00  0.00    -0.248 NA
ATOM     34  C   UNL     1       8.619   9.426   4.649  1.00  0.00     0.031 C 
ATOM     35  C   UNL     1       9.493   5.421   9.126  1.00  0.00     0.029 A 
ATOM     36  C   UNL     1       9.067   6.018   7.952  1.00  0.00     0.049 A 
ATOM     37  H   UNL     1       7.781   5.255   6.461  1.00  0.00     0.167 HD
ATOM     38  C   UNL     1       8.927   7.843   6.279  1.00  0.00     0.074 A 
ATOM     39  C   UNL     1       9.252   9.165   5.783  1.00  0.00     0.031 C 
ATOM     40  C   UNL     1       9.390   7.328   7.444  1.00  0.00     0.037 A 
BRANCH  27  41
ATOM     41  C   UNL     1       7.318   1.641   8.690  1.00  0.00     0.057 A 
ATOM     42  C   UNL     1       7.941   0.415   8.422  1.00  0.00     0.134 A 
ATOM     43  C   UNL     1       6.680   1.780   9.931  1.00  0.00     0.134 A 
ATOM     44  F   UNL     1       8.562   0.209   7.250  1.00  0.00    -0.206 F 
ATOM     45  C   UNL     1       7.910  -0.637   9.341  1.00  0.00     0.040 A 
ATOM     46  C   UNL     1       6.665   0.745  10.867  1.00  0.00     0.040 A 
ATOM     47  F   UNL     1       6.071   2.929  10.258  1.00  0.00    -0.206 F 
ATOM     48  C   UNL     1       7.277  -0.471  10.570  1.00  0.00     0.006 A 
ENDBRANCH  27  41
BRANCH  28  49
ATOM     49  C   UNL     1       7.108   9.185   2.159  1.00  0.00     0.057 A 
ATOM     50  C   UNL     1       8.252   9.540   1.435  1.00  0.00     0.134 A 
ATOM     51  C   UNL     1       5.943   9.927   1.929  1.00  0.00     0.134 A 
ATOM     52  F   UNL     1       9.402   8.877   1.623  1.00  0.00    -0.206 F 
ATOM     53  C   UNL     1       8.243  10.602   0.531  1.00  0.00     0.040 A 
ATOM     54  C   UNL     1       5.912  10.973   1.007  1.00  0.00     0.040 A 
ATOM     55  F   UNL     1       4.811   9.630   2.585  1.00  0.00    -0.206 F 
ATOM     56  C   UNL     1       7.068  11.318   0.310  1.00  0.00     0.006 A 
ENDBRANCH  28  49
BRANCH  40  57
ATOM     57  C   UNL     1      10.340   8.180   8.234  1.00  0.00     0.057 A 
ATOM     58  C   UNL     1       9.919   9.331   8.912  1.00  0.00     0.134 A 
ATOM     59  C   UNL     1      11.694   7.834   8.326  1.00  0.00     0.134 A 
ATOM     60  F   UNL     1       8.638   9.726   8.852  1.00  0.00    -0.206 F 
ATOM     61  C   UNL     1      10.818  10.126   9.625  1.00  0.00     0.040 A 
ATOM     62  C   UNL     1      12.597   8.605   9.060  1.00  0.00     0.040 A 
ATOM     63  F   UNL     1      12.162   6.739   7.707  1.00  0.00    -0.206 F 
ATOM     64  C   UNL     1      12.160   9.760   9.705  1.00  0.00     0.006 A 
ENDBRANCH  40  57
ENDBRANCH  14  15
ENDBRANCH   7   9
ENDBRANCH   4   5
ENDBRANCH   3   4
ENDBRANCH   2   3
ENDBRANCH   1   2
BRANCH   1  65
ATOM     65  C   UNL     1       6.566  -3.147  -2.341  1.00  0.00     0.021 C 
BRANCH  65  66
ATOM     66  C   UNL     1       7.419  -4.117  -1.529  1.00  0.00     0.116 C 
BRANCH  66  67
ATOM     67  N   UNL     1       7.548  -5.469  -2.033  1.00  0.00    -0.356 N 
ATOM     68  C   UNL     1       8.136  -5.708  -3.260  1.00  0.00     0.224 C 
ATOM     69  H   UNL     1       7.213  -6.224  -1.497  1.00  0.00     0.163 HD
ATOM     70  O   UNL     1       7.797  -5.115  -4.281  1.00  0.00    -0.275 OA
BRANCH  68  71
ATOM     71  C   UNL     1       9.446  -6.459  -3.189  1.00  0.00     0.098 C 
ATOM     72  C   UNL     1      10.017  -7.442  -4.244  1.00  0.00     0.099 C 
ATOM     73  C   UNL     1       9.980  -7.006  -1.843  1.00  0.00     0.025 C 
ATOM     74  C   UNL     1      10.971  -8.319  -3.362  1.00  0.00     0.025 C 
ATOM     75  C   UNL     1       9.520  -8.417  -1.583  1.00  0.00    -0.027 C 
ATOM     76  C   UNL     1      11.421  -7.326  -2.281  1.00  0.00     0.017 C 
ATOM     77  C   UNL     1      10.155  -9.208  -2.460  1.00  0.00    -0.027 C 
BRANCH  72  78
ATOM     78  C   UNL     1       9.368  -8.300  -5.341  1.00  0.00     0.229 C 
ATOM     79  O   UNL     1       9.952  -8.344  -6.440  1.00  0.00    -0.274 OA
ATOM     80  N   UNL     1       8.380  -9.223  -5.198  1.00  0.00    -0.323 N 
ATOM     81  H   UNL     1       8.299  -9.839  -5.961  1.00  0.00     0.170 HD
BRANCH  80  82
ATOM     82  C   UNL     1       7.460  -9.466  -4.181  1.00  0.00     0.084 A 
ATOM     83  C   UNL     1       7.448 -10.763  -3.646  1.00  0.00     0.030 A 
ATOM     84  C   UNL     1       6.554  -8.525  -3.699  1.00  0.00     0.149 A 
ATOM     85  C   UNL     1       6.716 -11.046  -2.493  1.00  0.00     0.002 A 
ATOM     86  C   UNL     1       5.853  -8.799  -2.518  1.00  0.00     0.049 A 
ATOM     87  C   UNL     1       5.953 -10.046  -1.900  1.00  0.00     0.004 A 
BRANCH  84  88
ATOM     88  O   UNL     1       6.218  -7.338  -4.275  1.00  0.00    -0.433 OA
BRANCH  88  89
ATOM     89  C   UNL     1       6.132  -7.249  -5.698  1.00  0.00     0.542 C 
ATOM     90  F   UNL     1       7.340  -6.965  -6.230  1.00  0.00    -0.167 F 
ATOM     91  F   UNL     1       5.694  -8.415  -6.233  1.00  0.00    -0.167 F 
ENDBRANCH  88  89
ENDBRANCH  84  88
ENDBRANCH  80  82
ENDBRANCH  72  78
ENDBRANCH  68  71
ENDBRANCH  66  67
ENDBRANCH  65  66
ENDBRANCH   1  65
TORSDOF 17
