REMARK SMILES Cc1ccccc1OCC[NH+]1CCC(CC(=O)NCCCCCCNC(=O)c2ccc(-c3c4nc(c(-c5c(F)cccc5F)c5ccc([nH]5)c(-c5c(F)cccc5F)c5nc(c(-c6c(F)cccc6F)c6ccc3[nH]6)C=C5)C=C4)cc2)CC1
REMARK SMILES IDX 20 1 19 2 18 3 16 4 17 5 15 7 14 8 11 9 12 10 83 11 13 13
REMARK SMILES IDX 82 14 10 15 9 16 8 17 7 18 1 19 2 20 3 21 4 22 6 23 5 24
REMARK SMILES IDX 21 25 22 26 23 27 24 28 25 29 26 30 27 32 28 33 29 34 81 35
REMARK SMILES IDX 30 36 80 37 31 38 32 39 33 40 74 41 34 42 79 43 73 44 75 45
REMARK SMILES IDX 35 46 78 47 72 48 71 49 36 51 62 52 45 53 61 54 46 55 49 56
REMARK SMILES IDX 60 57 76 58 47 59 48 60 59 62 77 63 50 64 37 65 38 66 43 67
REMARK SMILES IDX 39 68 40 69 42 70 44 71 41 72 63 73 64 74 69 75 65 76 66 77
REMARK SMILES IDX 68 78 70 79 67 80 51 81 52 82 57 83 53 84 54 85 56 86 58 87
REMARK SMILES IDX 55 88
REMARK H PARENT 18 6 11 12 25 31 75 50 49 61
REMARK Flexibility Score: inf
ROOT
ATOM      1  C   UNL     1      -1.202  -1.472  -2.474  1.00  0.00     0.021 C 
ENDROOT
BRANCH   1   2
ATOM      2  C   UNL     1      -1.307  -2.686  -1.540  1.00  0.00     0.116 C 
BRANCH   2   3
ATOM      3  N   UNL     1      -0.334  -3.712  -1.884  1.00  0.00    -0.356 N 
ATOM      4  C   UNL     1       0.725  -4.204  -1.175  1.00  0.00     0.220 C 
ATOM      5  O   UNL     1       1.438  -5.059  -1.702  1.00  0.00    -0.275 OA
ATOM      6  H   UNL     1      -0.460  -4.119  -2.772  1.00  0.00     0.163 HD
BRANCH   4   7
ATOM      7  C   UNL     1       1.002  -3.717   0.237  1.00  0.00     0.104 C 
BRANCH   7   8
ATOM      8  C   UNL     1       2.040  -2.559   0.289  1.00  0.00     0.009 C 
ATOM      9  N   UNL     1       3.359   1.068   0.813  1.00  0.00    -0.332 N 
ATOM     10  C   UNL     1       2.716   0.536  -0.878  1.00  0.00     0.262 C 
ATOM     11  C   UNL     1       3.271  -0.104   2.247  1.00  0.00     0.262 C 
ATOM     12  H   UNL     1       4.331   0.995   0.510  1.00  0.00     0.348 HD
ATOM     13  C   UNL     1       1.788  -1.186  -1.087  1.00  0.00     0.066 C 
ATOM     14  C   UNL     1       2.692  -1.971   2.068  1.00  0.00     0.066 C 
BRANCH   9  15
ATOM     15  C   UNL     1       3.190   2.437   1.217  1.00  0.00     0.304 C 
BRANCH  15  16
ATOM     16  C   UNL     1       2.157   3.084   0.349  1.00  0.00     0.290 C 
BRANCH  16  17
ATOM     17  O   UNL     1       1.089   2.214  -0.020  1.00  0.00    -0.487 OA
BRANCH  17  18
ATOM     18  C   UNL     1       0.782   1.063   0.706  1.00  0.00     0.122 A 
ATOM     19  C   UNL     1       3.379  -0.964   0.325  1.00  0.00     0.048 C 
ATOM     20  C   UNL     1       1.507  -0.280   0.909  1.00  0.00    -0.009 A 
ATOM     21  C   UNL     1       0.460  -1.093   1.580  1.00  0.00     0.007 A 
ATOM     22  C   UNL     1      -0.895  -0.793   1.915  1.00  0.00     0.001 A 
ATOM     23  C   UNL     1      -0.594   1.341   1.063  1.00  0.00     0.047 A 
ATOM     24  C   UNL     1      -1.434   0.424   1.641  1.00  0.00     0.004 A 
ENDBRANCH  17  18
ENDBRANCH  16  17
ENDBRANCH  15  16
ENDBRANCH   9  15
ENDBRANCH   7   8
ENDBRANCH   4   7
ENDBRANCH   2   3
ENDBRANCH   1   2
BRANCH   1  25
ATOM     25  C   UNL     1      -2.308  -1.332  -3.515  1.00  0.00     0.002 C 
BRANCH  25  26
ATOM     26  C   UNL     1      -3.722  -1.175  -2.952  1.00  0.00     0.002 C 
BRANCH  26  27
ATOM     27  C   UNL     1      -3.901  -0.080  -1.903  1.00  0.00     0.021 C 
BRANCH  27  28
ATOM     28  C   UNL     1      -3.707   1.336  -2.424  1.00  0.00     0.116 C 
BRANCH  28  29
ATOM     29  N   UNL     1      -4.824   1.782  -3.251  1.00  0.00    -0.352 N 
ATOM     30  C   UNL     1      -5.200   3.031  -3.701  1.00  0.00     0.251 C 
ATOM     31  H   UNL     1      -5.421   1.056  -3.542  1.00  0.00     0.163 HD
ATOM     32  O   UNL     1      -6.253   3.143  -4.326  1.00  0.00    -0.269 OA
BRANCH  30  33
ATOM     33  C   UNL     1      -4.260   4.178  -3.644  1.00  0.00     0.039 A 
ATOM     34  C   UNL     1      -4.215   4.984  -4.792  1.00  0.00     0.014 A 
ATOM     35  C   UNL     1      -3.198   4.176  -2.754  1.00  0.00     0.014 A 
ATOM     36  C   UNL     1      -2.992   5.470  -5.224  1.00  0.00     0.010 A 
ATOM     37  C   UNL     1      -1.964   4.498  -3.249  1.00  0.00     0.010 A 
ATOM     38  C   UNL     1      -1.866   5.082  -4.513  1.00  0.00    -0.014 A 
BRANCH  38  39
ATOM     39  C   UNL     1      -0.510   5.302  -4.951  1.00  0.00     0.031 A 
ATOM     40  C   UNL     1       0.175   6.483  -4.414  1.00  0.00     0.074 A 
ATOM     41  C   UNL     1       0.114   4.342  -5.665  1.00  0.00     0.049 A 
ATOM     42  N   UNL     1       1.216   7.012  -4.944  1.00  0.00    -0.248 NA
ATOM     43  C   UNL     1      -0.305   7.212  -3.243  1.00  0.00     0.031 C 
ATOM     44  C   UNL     1       1.544   4.187  -5.897  1.00  0.00     0.029 A 
ATOM     45  N   UNL     1      -0.476   3.384  -6.497  1.00  0.00    -0.354 N 
ATOM     46  C   UNL     1       1.723   7.918  -4.040  1.00  0.00     0.074 A 
ATOM     47  C   UNL     1       0.684   8.089  -3.058  1.00  0.00     0.031 C 
ATOM     48  C   UNL     1       1.728   3.427  -6.991  1.00  0.00     0.029 A 
ATOM     49  C   UNL     1       0.418   3.201  -7.577  1.00  0.00     0.049 A 
ATOM     50  H   UNL     1      -1.338   2.930  -6.359  1.00  0.00     0.167 HD
ATOM     51  C   UNL     1       3.030   8.277  -4.170  1.00  0.00     0.037 A 
ATOM     52  C   UNL     1       0.060   3.559  -8.847  1.00  0.00     0.037 A 
ATOM     53  C   UNL     1       3.596   7.647  -5.362  1.00  0.00     0.049 A 
ATOM     54  C   UNL     1       0.939   4.650  -9.414  1.00  0.00     0.074 A 
ATOM     55  C   UNL     1       4.329   6.485  -5.541  1.00  0.00     0.029 A 
ATOM     56  N   UNL     1       3.115   8.010  -6.612  1.00  0.00    -0.354 N 
ATOM     57  N   UNL     1       1.598   5.506  -8.680  1.00  0.00    -0.248 NA
ATOM     58  C   UNL     1       1.179   4.842 -10.841  1.00  0.00     0.031 C 
ATOM     59  C   UNL     1       4.263   6.135  -6.913  1.00  0.00     0.029 A 
ATOM     60  C   UNL     1       3.506   7.093  -7.565  1.00  0.00     0.049 A 
ATOM     61  H   UNL     1       2.571   8.810  -6.794  1.00  0.00     0.167 HD
ATOM     62  C   UNL     1       2.351   6.325  -9.486  1.00  0.00     0.074 A 
ATOM     63  C   UNL     1       2.050   5.868 -10.830  1.00  0.00     0.031 C 
ATOM     64  C   UNL     1       3.167   7.292  -8.966  1.00  0.00     0.037 A 
BRANCH  51  65
ATOM     65  C   UNL     1       3.880   8.942  -3.113  1.00  0.00     0.057 A 
ATOM     66  C   UNL     1       5.286   8.822  -3.163  1.00  0.00     0.134 A 
ATOM     67  C   UNL     1       3.408   9.673  -2.010  1.00  0.00     0.134 A 
ATOM     68  F   UNL     1       5.910   8.224  -4.186  1.00  0.00    -0.206 F 
ATOM     69  C   UNL     1       6.135   9.309  -2.163  1.00  0.00     0.040 A 
ATOM     70  C   UNL     1       4.244  10.140  -0.985  1.00  0.00     0.040 A 
ATOM     71  F   UNL     1       2.125  10.024  -1.885  1.00  0.00    -0.206 F 
ATOM     72  C   UNL     1       5.614   9.953  -1.054  1.00  0.00     0.006 A 
ENDBRANCH  51  65
BRANCH  52  73
ATOM     73  C   UNL     1      -1.405   3.393  -9.076  1.00  0.00     0.057 A 
ATOM     74  C   UNL     1      -1.927   2.088  -8.989  1.00  0.00     0.134 A 
ATOM     75  C   UNL     1      -2.295   4.449  -8.856  1.00  0.00     0.134 A 
ATOM     76  F   UNL     1      -1.131   1.029  -9.210  1.00  0.00    -0.206 F 
ATOM     77  C   UNL     1      -3.218   1.840  -8.514  1.00  0.00     0.040 A 
ATOM     78  C   UNL     1      -3.600   4.210  -8.406  1.00  0.00     0.040 A 
ATOM     79  F   UNL     1      -1.879   5.721  -8.931  1.00  0.00    -0.206 F 
ATOM     80  C   UNL     1      -4.042   2.908  -8.174  1.00  0.00     0.006 A 
ENDBRANCH  52  73
BRANCH  64  81
ATOM     81  C   UNL     1       3.810   8.463  -9.689  1.00  0.00     0.057 A 
ATOM     82  C   UNL     1       3.423   8.938 -10.948  1.00  0.00     0.134 A 
ATOM     83  C   UNL     1       4.778   9.271  -9.034  1.00  0.00     0.134 A 
ATOM     84  F   UNL     1       2.448   8.358 -11.656  1.00  0.00    -0.206 F 
ATOM     85  C   UNL     1       3.984  10.088 -11.528  1.00  0.00     0.040 A 
ATOM     86  C   UNL     1       5.290  10.454  -9.572  1.00  0.00     0.040 A 
ATOM     87  F   UNL     1       5.260   8.972  -7.819  1.00  0.00    -0.206 F 
ATOM     88  C   UNL     1       4.906  10.860 -10.835  1.00  0.00     0.006 A 
ENDBRANCH  64  81
ENDBRANCH  38  39
ENDBRANCH  30  33
ENDBRANCH  28  29
ENDBRANCH  27  28
ENDBRANCH  26  27
ENDBRANCH  25  26
ENDBRANCH   1  25
TORSDOF 18
