REMARK SMILES Cc1ccc(NC(=O)C[C@@H](C(=O)NCCCCCCNC(=O)c2ccc(-c3c4nc(c(-c5c(F)cccc5F)c5ccc([nH]5)c(-c5c(F)cccc5F)c5nc(c(-c6c(F)cccc6F)c6ccc3[nH]6)C=C5)C=C4)cc2)[NH+]2CCOCC2)cc1
REMARK SMILES IDX 16 1 15 2 14 3 13 4 11 5 12 6 10 8 9 9 7 10 6 11 8 13 5 14
REMARK SMILES IDX 1 15 2 16 3 17 84 18 4 19 83 20 77 21 78 22 82 23 79 25
REMARK SMILES IDX 81 26 80 27 17 28 18 29 19 30 20 31 21 32 22 34 23 35 24 36
REMARK SMILES IDX 76 37 25 38 75 39 26 40 27 41 28 42 69 43 29 44 74 45 68 46
REMARK SMILES IDX 70 47 30 48 73 49 67 50 66 51 31 53 57 54 40 55 56 56 41 57
REMARK SMILES IDX 44 58 55 59 71 60 42 61 43 62 54 64 72 65 45 66 32 67 33 68
REMARK SMILES IDX 38 69 34 70 35 71 37 72 39 73 36 74 58 75 59 76 64 77 60 78
REMARK SMILES IDX 61 79 63 80 65 81 62 82 46 83 47 84 52 85 48 86 49 87 51 88
REMARK SMILES IDX 53 89 50 90
REMARK H PARENT 13 7 6 12 77 24 20 33 70 52 44 63
REMARK Flexibility Score: inf
ROOT
ATOM      1  C   UNL     1      -3.021   2.566  -0.920  1.00  0.00     0.002 C 
ENDROOT
BRANCH   1   2
ATOM      2  C   UNL     1      -3.949   1.344  -0.794  1.00  0.00     0.021 C 
BRANCH   2   3
ATOM      3  C   UNL     1      -3.708   0.202  -1.793  1.00  0.00     0.116 C 
BRANCH   3   4
ATOM      4  N   UNL     1      -2.311  -0.165  -1.850  1.00  0.00    -0.351 N 
ATOM      5  C   UNL     1      -1.624  -1.320  -1.687  1.00  0.00     0.278 C 
ATOM      6  O   UNL     1      -0.404  -1.198  -1.865  1.00  0.00    -0.268 OA
ATOM      7  H   UNL     1      -1.726   0.600  -2.053  1.00  0.00     0.163 HD
BRANCH   5   8
ATOM      8  C   UNL     1      -2.300  -2.713  -1.430  1.00  0.00     0.283 C 
BRANCH   8   9
ATOM      9  C   UNL     1      -2.858  -2.943  -0.009  1.00  0.00     0.175 C 
BRANCH   9  10
ATOM     10  C   UNL     1      -3.361  -1.791   0.823  1.00  0.00     0.230 C 
ATOM     11  N   UNL     1      -2.535  -0.935   1.492  1.00  0.00    -0.326 N 
ATOM     12  H   UNL     1      -2.993  -0.341   2.130  1.00  0.00     0.169 HD
ATOM     13  O   UNL     1      -4.579  -1.593   0.907  1.00  0.00    -0.274 OA
BRANCH  11  14
ATOM     14  C   UNL     1      -1.145  -0.759   1.424  1.00  0.00     0.041 A 
ATOM     15  C   UNL     1       2.873   0.126   0.204  1.00  0.00     0.044 C 
ATOM     16  C   UNL     1       1.514  -0.164   0.764  1.00  0.00    -0.051 A 
ATOM     17  C   UNL     1       1.099  -1.490   0.912  1.00  0.00     0.005 A 
ATOM     18  C   UNL     1       0.622   0.864   1.074  1.00  0.00     0.005 A 
ATOM     19  C   UNL     1      -0.223  -1.785   1.251  1.00  0.00     0.026 A 
ATOM     20  C   UNL     1      -0.694   0.565   1.432  1.00  0.00     0.026 A 
ENDBRANCH  11  14
ENDBRANCH   9  10
ENDBRANCH   8   9
BRANCH   8  21
ATOM     21  N   UNL     1      -1.309  -3.773  -1.808  1.00  0.00    -0.320 N 
ATOM     22  C   UNL     1      -0.885  -3.763  -3.224  1.00  0.00     0.291 C 
ATOM     23  C   UNL     1      -1.434  -5.152  -1.323  1.00  0.00     0.291 C 
ATOM     24  H   UNL     1      -0.571  -3.408  -1.206  1.00  0.00     0.348 HD
ATOM     25  C   UNL     1      -1.650  -4.755  -4.111  1.00  0.00     0.221 C 
ATOM     26  C   UNL     1      -2.156  -6.116  -2.272  1.00  0.00     0.221 C 
ATOM     27  O   UNL     1      -1.592  -6.083  -3.586  1.00  0.00    -0.370 OA
ENDBRANCH   8  21
ENDBRANCH   5   8
ENDBRANCH   3   4
ENDBRANCH   2   3
ENDBRANCH   1   2
BRANCH   1  28
ATOM     28  C   UNL     1      -3.094   3.351  -2.236  1.00  0.00     0.002 C 
BRANCH  28  29
ATOM     29  C   UNL     1      -4.494   3.763  -2.689  1.00  0.00     0.021 C 
BRANCH  29  30
ATOM     30  C   UNL     1      -5.265   4.591  -1.673  1.00  0.00     0.116 C 
BRANCH  30  31
ATOM     31  N   UNL     1      -4.974   6.012  -1.695  1.00  0.00    -0.352 N 
ATOM     32  C   UNL     1      -5.500   7.038  -0.937  1.00  0.00     0.251 C 
ATOM     33  H   UNL     1      -4.296   6.287  -2.354  1.00  0.00     0.163 HD
ATOM     34  O   UNL     1      -5.225   8.198  -1.254  1.00  0.00    -0.269 OA
BRANCH  32  35
ATOM     35  C   UNL     1      -6.239   6.788   0.334  1.00  0.00     0.039 A 
ATOM     36  C   UNL     1      -6.196   7.796   1.314  1.00  0.00     0.014 A 
ATOM     37  C   UNL     1      -6.758   5.543   0.674  1.00  0.00     0.014 A 
ATOM     38  C   UNL     1      -6.399   7.475   2.654  1.00  0.00     0.010 A 
ATOM     39  C   UNL     1      -6.849   5.191   2.000  1.00  0.00     0.010 A 
ATOM     40  C   UNL     1      -6.592   6.142   2.985  1.00  0.00    -0.014 A 
BRANCH  40  41
ATOM     41  C   UNL     1      -6.511   5.604   4.328  1.00  0.00     0.031 A 
ATOM     42  C   UNL     1      -7.754   5.316   5.060  1.00  0.00     0.074 A 
ATOM     43  C   UNL     1      -5.304   5.183   4.766  1.00  0.00     0.049 A 
ATOM     44  N   UNL     1      -7.797   4.999   6.306  1.00  0.00    -0.248 NA
ATOM     45  C   UNL     1      -9.079   5.421   4.448  1.00  0.00     0.031 C 
ATOM     46  C   UNL     1      -5.012   4.263   5.861  1.00  0.00     0.029 A 
ATOM     47  N   UNL     1      -4.053   5.708   4.412  1.00  0.00    -0.354 N 
ATOM     48  C   UNL     1      -9.066   4.542   6.562  1.00  0.00     0.074 A 
ATOM     49  C   UNL     1      -9.855   4.973   5.439  1.00  0.00     0.031 C 
ATOM     50  C   UNL     1      -3.757   4.486   6.289  1.00  0.00     0.029 A 
ATOM     51  C   UNL     1      -3.284   5.674   5.598  1.00  0.00     0.049 A 
ATOM     52  H   UNL     1      -3.771   6.032   3.527  1.00  0.00     0.167 HD
ATOM     53  C   UNL     1      -9.245   3.703   7.617  1.00  0.00     0.037 A 
ATOM     54  C   UNL     1      -2.919   6.834   6.223  1.00  0.00     0.037 A 
ATOM     55  C   UNL     1      -8.079   3.744   8.502  1.00  0.00     0.049 A 
ATOM     56  C   UNL     1      -3.464   6.956   7.628  1.00  0.00     0.074 A 
ATOM     57  C   UNL     1      -7.034   2.871   8.740  1.00  0.00     0.029 A 
ATOM     58  N   UNL     1      -7.715   4.963   9.073  1.00  0.00    -0.354 N 
ATOM     59  N   UNL     1      -4.510   6.307   8.064  1.00  0.00    -0.248 NA
ATOM     60  C   UNL     1      -2.871   7.812   8.652  1.00  0.00     0.031 C 
ATOM     61  C   UNL     1      -5.977   3.619   9.333  1.00  0.00     0.029 A 
ATOM     62  C   UNL     1      -6.406   4.924   9.511  1.00  0.00     0.049 A 
ATOM     63  H   UNL     1      -8.309   5.744   9.153  1.00  0.00     0.167 HD
ATOM     64  C   UNL     1      -4.738   6.634   9.374  1.00  0.00     0.074 A 
ATOM     65  C   UNL     1      -3.679   7.572   9.700  1.00  0.00     0.031 C 
ATOM     66  C   UNL     1      -5.780   6.109  10.085  1.00  0.00     0.037 A 
BRANCH  53  67
ATOM     67  C   UNL     1     -10.362   2.688   7.741  1.00  0.00     0.057 A 
ATOM     68  C   UNL     1     -10.465   1.895   8.900  1.00  0.00     0.134 A 
ATOM     69  C   UNL     1     -11.271   2.336   6.720  1.00  0.00     0.134 A 
ATOM     70  F   UNL     1      -9.658   2.091   9.952  1.00  0.00    -0.206 F 
ATOM     71  C   UNL     1     -11.385   0.841   9.026  1.00  0.00     0.040 A 
ATOM     72  C   UNL     1     -12.228   1.320   6.854  1.00  0.00     0.040 A 
ATOM     73  F   UNL     1     -11.253   2.901   5.509  1.00  0.00    -0.206 F 
ATOM     74  C   UNL     1     -12.279   0.556   8.006  1.00  0.00     0.006 A 
ENDBRANCH  53  67
BRANCH  54  75
ATOM     75  C   UNL     1      -2.729   7.963   5.268  1.00  0.00     0.057 A 
ATOM     76  C   UNL     1      -1.714   7.849   4.299  1.00  0.00     0.134 A 
ATOM     77  C   UNL     1      -3.745   8.889   5.016  1.00  0.00     0.134 A 
ATOM     78  F   UNL     1      -0.704   6.982   4.482  1.00  0.00    -0.206 F 
ATOM     79  C   UNL     1      -1.785   8.513   3.072  1.00  0.00     0.040 A 
ATOM     80  C   UNL     1      -3.813   9.578   3.798  1.00  0.00     0.040 A 
ATOM     81  F   UNL     1      -4.754   9.051   5.884  1.00  0.00    -0.206 F 
ATOM     82  C   UNL     1      -2.861   9.353   2.804  1.00  0.00     0.006 A 
ENDBRANCH  54  75
BRANCH  66  83
ATOM     83  C   UNL     1      -6.261   6.614  11.425  1.00  0.00     0.057 A 
ATOM     84  C   UNL     1      -6.136   7.943  11.858  1.00  0.00     0.134 A 
ATOM     85  C   UNL     1      -7.022   5.779  12.273  1.00  0.00     0.134 A 
ATOM     86  F   UNL     1      -5.546   8.877  11.100  1.00  0.00    -0.206 F 
ATOM     87  C   UNL     1      -6.667   8.391  13.075  1.00  0.00     0.040 A 
ATOM     88  C   UNL     1      -7.604   6.229  13.461  1.00  0.00     0.040 A 
ATOM     89  F   UNL     1      -7.255   4.493  11.972  1.00  0.00    -0.206 F 
ATOM     90  C   UNL     1      -7.413   7.537  13.876  1.00  0.00     0.006 A 
ENDBRANCH  66  83
ENDBRANCH  40  41
ENDBRANCH  32  35
ENDBRANCH  30  31
ENDBRANCH  29  30
ENDBRANCH  28  29
ENDBRANCH   1  28
TORSDOF 17
