REMARK SMILES O=C(CSc1nc2c([nH]1)CCCCCC2)NCCCCCCNC(=O)c1ccc(-c2c3nc(c(-c4c(F)cccc4F)c4ccc([nH]4)c(-c4c(F)cccc4F)c4nc(c(-c5c(F)cccc5F)c5ccc2[nH]5)C=C4)C=C3)cc1
REMARK SMILES IDX 18 1 17 2 16 3 1 4 2 5 3 7 4 8 5 9 6 10 9 11 7 12 8 13 15 15
REMARK SMILES IDX 14 16 13 17 10 19 11 20 12 21 19 23 20 24 21 25 22 26 23 27
REMARK SMILES IDX 24 28 25 30 26 31 27 32 79 33 28 34 78 35 29 36 30 37 31 38
REMARK SMILES IDX 72 39 32 40 77 41 71 42 73 43 33 44 76 45 70 46 69 47 34 49
REMARK SMILES IDX 60 50 43 51 59 52 44 53 47 54 58 55 74 56 45 57 46 58 57 60
REMARK SMILES IDX 75 61 48 62 35 63 36 64 41 65 37 66 38 67 40 68 42 69 39 70
REMARK SMILES IDX 61 71 62 72 67 73 63 74 64 75 66 76 68 77 65 78 49 79 50 80
REMARK SMILES IDX 55 81 51 82 52 83 54 84 56 85 53 86
REMARK H PARENT 16 6 9 14 23 29 73 48 47 59
REMARK Flexibility Score: 90.00
ROOT
ATOM      1  C   UNL     1       2.795   1.932   2.598  1.00  0.00     0.021 C 
ENDROOT
BRANCH   1   2
ATOM      2  C   UNL     1       2.247   1.930   1.170  1.00  0.00     0.116 C 
BRANCH   2   3
ATOM      3  N   UNL     1       2.843   0.897   0.346  1.00  0.00    -0.355 N 
ATOM      4  O   UNL     1       0.857   0.021  -0.415  1.00  0.00    -0.274 OA
ATOM      5  C   UNL     1       2.087   0.022  -0.405  1.00  0.00     0.230 C 
ATOM      6  H   UNL     1       3.824   0.817   0.321  1.00  0.00     0.163 HD
BRANCH   5   7
ATOM      7  C   UNL     1       2.873  -1.041  -1.147  1.00  0.00     0.178 C 
BRANCH   7   8
ATOM      8  S   UNL     1       4.040  -0.378  -2.352  1.00  0.00    -0.078 SA
BRANCH   8   9
ATOM      9  C   UNL     1       3.081   0.694  -3.299  1.00  0.00     0.166 A 
ATOM     10  N   UNL     1       3.306   1.975  -3.432  1.00  0.00    -0.227 NA
ATOM     11  N   UNL     1       2.077   0.267  -4.117  1.00  0.00    -0.337 N 
ATOM     12  C   UNL     1       2.427   2.410  -4.402  1.00  0.00     0.063 A 
ATOM     13  C   UNL     1       1.644   1.354  -4.845  1.00  0.00     0.039 A 
ATOM     14  H   UNL     1       1.726  -0.651  -4.177  1.00  0.00     0.168 HD
BRANCH  12  15
ATOM     15  C   UNL     1       2.466   3.851  -4.798  1.00  0.00     0.058 C 
BRANCH  15  16
ATOM     16  C   UNL     1       1.612   4.262  -5.996  1.00  0.00     0.006 C 
BRANCH  16  17
ATOM     17  C   UNL     1       0.114   4.438  -5.719  1.00  0.00     0.000 CG0
ATOM     18  G   UNL     1      -0.593   3.381  -4.870  1.00  0.00     0.000 G0
ENDBRANCH  16  17
ENDBRANCH  15  16
ENDBRANCH  12  15
BRANCH  13  19
ATOM     19  C   UNL     1       0.575   1.268  -5.877  1.00  0.00     0.056 C 
BRANCH  19  20
ATOM     20  C   UNL     1      -0.717   1.982  -5.480  1.00  0.00     0.006 C 
BRANCH  20  21
ATOM     21  C   UNL     1      -0.593   3.381  -4.870  1.00  0.00     0.000 CG0
ATOM     22  G   UNL     1       0.114   4.438  -5.719  1.00  0.00     0.000 G0
ENDBRANCH  20  21
ENDBRANCH  19  20
ENDBRANCH  13  19
ENDBRANCH   8   9
ENDBRANCH   7   8
ENDBRANCH   5   7
ENDBRANCH   2   3
ENDBRANCH   1   2
BRANCH   1  23
ATOM     23  C   UNL     1       4.290   2.249   2.732  1.00  0.00     0.002 C 
BRANCH  23  24
ATOM     24  C   UNL     1       4.770   3.564   2.100  1.00  0.00     0.002 C 
BRANCH  24  25
ATOM     25  C   UNL     1       4.056   4.848   2.543  1.00  0.00     0.021 C 
BRANCH  25  26
ATOM     26  C   UNL     1       4.195   5.176   4.024  1.00  0.00     0.116 C 
BRANCH  26  27
ATOM     27  N   UNL     1       5.566   5.512   4.414  1.00  0.00    -0.352 N 
ATOM     28  C   UNL     1       6.045   5.826   5.669  1.00  0.00     0.251 C 
ATOM     29  H   UNL     1       6.230   5.515   3.688  1.00  0.00     0.163 HD
ATOM     30  O   UNL     1       7.103   6.439   5.805  1.00  0.00    -0.269 OA
BRANCH  28  31
ATOM     31  C   UNL     1       5.274   5.422   6.857  1.00  0.00     0.039 A 
ATOM     32  C   UNL     1       5.162   6.256   7.974  1.00  0.00     0.014 A 
ATOM     33  C   UNL     1       4.638   4.184   6.835  1.00  0.00     0.014 A 
ATOM     34  C   UNL     1       4.332   5.870   9.025  1.00  0.00     0.010 A 
ATOM     35  C   UNL     1       3.704   3.879   7.792  1.00  0.00     0.010 A 
ATOM     36  C   UNL     1       3.583   4.689   8.916  1.00  0.00    -0.014 A 
BRANCH  36  37
ATOM     37  C   UNL     1       2.568   4.347   9.909  1.00  0.00     0.031 A 
ATOM     38  C   UNL     1       1.554   5.410  10.154  1.00  0.00     0.074 A 
ATOM     39  C   UNL     1       2.404   3.094  10.390  1.00  0.00     0.049 A 
ATOM     40  N   UNL     1       1.337   6.051  11.254  1.00  0.00    -0.248 NA
ATOM     41  C   UNL     1       0.767   5.905   9.013  1.00  0.00     0.031 C 
ATOM     42  C   UNL     1       3.134   1.878  10.014  1.00  0.00     0.029 A 
ATOM     43  N   UNL     1       1.453   2.614  11.239  1.00  0.00    -0.354 N 
ATOM     44  C   UNL     1       0.244   6.878  11.007  1.00  0.00     0.074 A 
ATOM     45  C   UNL     1       0.059   6.884   9.580  1.00  0.00     0.031 C 
ATOM     46  C   UNL     1       2.451   0.790  10.432  1.00  0.00     0.029 A 
ATOM     47  C   UNL     1       1.334   1.228  11.246  1.00  0.00     0.049 A 
ATOM     48  H   UNL     1       0.896   3.200  11.802  1.00  0.00     0.167 HD
ATOM     49  C   UNL     1      -0.574   7.276  12.022  1.00  0.00     0.037 A 
ATOM     50  C   UNL     1       0.372   0.491  11.856  1.00  0.00     0.037 A 
ATOM     51  C   UNL     1       0.060   7.082  13.304  1.00  0.00     0.049 A 
ATOM     52  C   UNL     1      -0.244   1.350  12.895  1.00  0.00     0.074 A 
ATOM     53  C   UNL     1       1.238   7.510  13.885  1.00  0.00     0.029 A 
ATOM     54  N   UNL     1      -0.366   6.025  14.072  1.00  0.00    -0.354 N 
ATOM     55  N   UNL     1       0.370   1.730  13.979  1.00  0.00    -0.248 NA
ATOM     56  C   UNL     1      -1.397   2.152  12.516  1.00  0.00     0.031 C 
ATOM     57  C   UNL     1       1.704   6.393  14.640  1.00  0.00     0.029 A 
ATOM     58  C   UNL     1       0.750   5.381  14.536  1.00  0.00     0.049 A 
ATOM     59  H   UNL     1      -1.301   5.777  14.255  1.00  0.00     0.167 HD
ATOM     60  C   UNL     1      -0.016   3.050  14.151  1.00  0.00     0.074 A 
ATOM     61  C   UNL     1      -1.185   3.220  13.290  1.00  0.00     0.031 C 
ATOM     62  C   UNL     1       0.821   3.954  14.740  1.00  0.00     0.037 A 
BRANCH  49  63
ATOM     63  C   UNL     1      -2.073   7.440  11.896  1.00  0.00     0.057 A 
ATOM     64  C   UNL     1      -2.797   7.933  12.999  1.00  0.00     0.134 A 
ATOM     65  C   UNL     1      -2.858   6.848  10.886  1.00  0.00     0.134 A 
ATOM     66  F   UNL     1      -2.168   8.519  14.029  1.00  0.00    -0.206 F 
ATOM     67  C   UNL     1      -4.179   7.751  13.134  1.00  0.00     0.040 A 
ATOM     68  C   UNL     1      -4.246   6.710  10.987  1.00  0.00     0.040 A 
ATOM     69  F   UNL     1      -2.329   6.277   9.799  1.00  0.00    -0.206 F 
ATOM     70  C   UNL     1      -4.906   7.126  12.131  1.00  0.00     0.006 A 
ENDBRANCH  49  63
BRANCH  50  71
ATOM     71  C   UNL     1      -0.211  -0.814  11.467  1.00  0.00     0.057 A 
ATOM     72  C   UNL     1      -1.007  -1.545  12.363  1.00  0.00     0.134 A 
ATOM     73  C   UNL     1      -0.242  -1.242  10.129  1.00  0.00     0.134 A 
ATOM     74  F   UNL     1      -1.072  -1.198  13.657  1.00  0.00    -0.206 F 
ATOM     75  C   UNL     1      -1.817  -2.610  11.946  1.00  0.00     0.040 A 
ATOM     76  C   UNL     1      -1.039  -2.310   9.701  1.00  0.00     0.040 A 
ATOM     77  F   UNL     1       0.429  -0.584   9.173  1.00  0.00    -0.206 F 
ATOM     78  C   UNL     1      -1.846  -2.986  10.608  1.00  0.00     0.006 A 
ENDBRANCH  50  71
BRANCH  62  79
ATOM     79  C   UNL     1       2.040   3.428  15.446  1.00  0.00     0.057 A 
ATOM     80  C   UNL     1       3.085   2.735  14.815  1.00  0.00     0.134 A 
ATOM     81  C   UNL     1       2.226   3.760  16.791  1.00  0.00     0.134 A 
ATOM     82  F   UNL     1       3.047   2.458  13.507  1.00  0.00    -0.206 F 
ATOM     83  C   UNL     1       4.238   2.350  15.506  1.00  0.00     0.040 A 
ATOM     84  C   UNL     1       3.388   3.413  17.484  1.00  0.00     0.040 A 
ATOM     85  F   UNL     1       1.295   4.471  17.447  1.00  0.00    -0.206 F 
ATOM     86  C   UNL     1       4.395   2.695  16.844  1.00  0.00     0.006 A 
ENDBRANCH  62  79
ENDBRANCH  36  37
ENDBRANCH  28  31
ENDBRANCH  26  27
ENDBRANCH  25  26
ENDBRANCH  24  25
ENDBRANCH  23  24
ENDBRANCH   1  23
TORSDOF 15
