REMARK SMILES O=C(NCCCCCCNC(=O)[C@@H]1CC[C@@H](CNC(=O)c2ccno2)O1)c1ccc(-c2c3nc(c(-c4c(F)cccc4F)c4ccc([nH]4)c(-c4c(F)cccc4F)c4nc(c(-c5c(F)cccc5F)c5ccc2[nH]5)C=C4)C=C3)cc1
REMARK SMILES IDX 7 1 6 2 5 3 4 4 3 5 1 6 2 7 27 9 28 10 80 11 29 12 79 13
REMARK SMILES IDX 30 14 31 15 32 16 73 17 33 18 78 19 72 20 74 21 34 22 77 23
REMARK SMILES IDX 71 24 70 25 35 27 61 28 44 29 60 30 45 31 48 32 59 33 75 34
REMARK SMILES IDX 46 35 47 36 58 38 76 39 49 40 36 41 37 42 42 43 38 44 39 45
REMARK SMILES IDX 41 46 43 47 40 48 62 49 63 50 68 51 64 52 65 53 67 54 69 55
REMARK SMILES IDX 66 56 50 57 51 58 56 59 52 60 53 61 55 62 57 63 54 64 8 65
REMARK SMILES IDX 9 66 10 67 11 68 12 70 13 71 14 72 26 73 15 74 16 75 17 76
REMARK SMILES IDX 18 77 19 78 20 80 21 81 22 82 25 83 23 84 24 85
REMARK H PARENT 3 8 74 26 48 37 10 69 18 79
REMARK Flexibility Score: inf
ROOT
ATOM      1  C   UNL     1       5.006  -3.125  -3.268  1.00  0.00     0.002 C 
ENDROOT
BRANCH   1   2
ATOM      2  C   UNL     1       4.128  -3.632  -2.118  1.00  0.00     0.002 C 
BRANCH   2   3
ATOM      3  C   UNL     1       4.418  -3.072  -0.722  1.00  0.00     0.021 C 
BRANCH   3   4
ATOM      4  C   UNL     1       4.402  -1.553  -0.582  1.00  0.00     0.116 C 
BRANCH   4   5
ATOM      5  N   UNL     1       3.084  -0.973  -0.758  1.00  0.00    -0.352 N 
ATOM      6  O   UNL     1       1.316   0.346  -0.300  1.00  0.00    -0.269 OA
ATOM      7  C   UNL     1       2.488   0.058  -0.070  1.00  0.00     0.251 C 
ATOM      8  H   UNL     1       2.538  -1.374  -1.473  1.00  0.00     0.163 HD
BRANCH   7   9
ATOM      9  C   UNL     1       3.230   0.805   0.976  1.00  0.00     0.039 A 
ATOM     10  C   UNL     1       4.540   1.250   0.776  1.00  0.00     0.014 A 
ATOM     11  C   UNL     1       2.573   1.099   2.179  1.00  0.00     0.014 A 
ATOM     12  C   UNL     1       5.225   1.891   1.810  1.00  0.00     0.010 A 
ATOM     13  C   UNL     1       3.248   1.774   3.202  1.00  0.00     0.010 A 
ATOM     14  C   UNL     1       4.589   2.146   3.036  1.00  0.00    -0.014 A 
BRANCH  14  15
ATOM     15  C   UNL     1       5.347   2.802   4.128  1.00  0.00     0.031 A 
ATOM     16  C   UNL     1       5.865   2.002   5.290  1.00  0.00     0.074 A 
ATOM     17  C   UNL     1       5.614   4.119   4.055  1.00  0.00     0.049 A 
ATOM     18  N   UNL     1       6.633   2.387   6.278  1.00  0.00    -0.248 NA
ATOM     19  C   UNL     1       5.466   0.588   5.351  1.00  0.00     0.031 C 
ATOM     20  C   UNL     1       5.151   5.017   2.997  1.00  0.00     0.029 A 
ATOM     21  N   UNL     1       6.362   4.923   4.877  1.00  0.00    -0.354 N 
ATOM     22  C   UNL     1       6.798   1.271   7.087  1.00  0.00     0.074 A 
ATOM     23  C   UNL     1       6.047   0.193   6.477  1.00  0.00     0.031 C 
ATOM     24  C   UNL     1       5.663   6.241   3.210  1.00  0.00     0.029 A 
ATOM     25  C   UNL     1       6.483   6.210   4.418  1.00  0.00     0.049 A 
ATOM     26  H   UNL     1       6.773   4.606   5.714  1.00  0.00     0.167 HD
ATOM     27  C   UNL     1       7.512   1.151   8.231  1.00  0.00     0.037 A 
ATOM     28  C   UNL     1       7.197   7.243   4.901  1.00  0.00     0.037 A 
ATOM     29  C   UNL     1       8.287   2.202   8.833  1.00  0.00     0.049 A 
ATOM     30  C   UNL     1       8.030   7.069   6.134  1.00  0.00     0.074 A 
ATOM     31  C   UNL     1       9.061   2.157   9.980  1.00  0.00     0.029 A 
ATOM     32  N   UNL     1       8.393   3.487   8.329  1.00  0.00    -0.354 N 
ATOM     33  N   UNL     1       8.196   6.001   6.873  1.00  0.00    -0.248 NA
ATOM     34  C   UNL     1       8.781   8.246   6.597  1.00  0.00     0.031 C 
ATOM     35  C   UNL     1       9.637   3.419  10.171  1.00  0.00     0.029 A 
ATOM     36  C   UNL     1       9.222   4.245   9.140  1.00  0.00     0.049 A 
ATOM     37  H   UNL     1       7.945   3.814   7.516  1.00  0.00     0.167 HD
ATOM     38  C   UNL     1       9.073   6.372   7.882  1.00  0.00     0.074 A 
ATOM     39  C   UNL     1       9.408   7.763   7.662  1.00  0.00     0.031 C 
ATOM     40  C   UNL     1       9.554   5.623   8.902  1.00  0.00     0.037 A 
BRANCH  27  41
ATOM     41  C   UNL     1       7.485  -0.181   8.910  1.00  0.00     0.057 A 
ATOM     42  C   UNL     1       8.388  -1.191   8.559  1.00  0.00     0.134 A 
ATOM     43  C   UNL     1       6.571  -0.443   9.937  1.00  0.00     0.134 A 
ATOM     44  F   UNL     1       9.277  -0.997   7.574  1.00  0.00    -0.206 F 
ATOM     45  C   UNL     1       8.379  -2.426   9.208  1.00  0.00     0.040 A 
ATOM     46  C   UNL     1       6.554  -1.672  10.596  1.00  0.00     0.040 A 
ATOM     47  F   UNL     1       5.680   0.489  10.308  1.00  0.00    -0.206 F 
ATOM     48  C   UNL     1       7.461  -2.667  10.231  1.00  0.00     0.006 A 
ENDBRANCH  27  41
BRANCH  28  49
ATOM     49  C   UNL     1       7.193   8.531   4.176  1.00  0.00     0.057 A 
ATOM     50  C   UNL     1       8.184   8.822   3.232  1.00  0.00     0.134 A 
ATOM     51  C   UNL     1       6.199   9.488   4.404  1.00  0.00     0.134 A 
ATOM     52  F   UNL     1       9.164   7.939   2.989  1.00  0.00    -0.206 F 
ATOM     53  C   UNL     1       8.188  10.028   2.534  1.00  0.00     0.040 A 
ATOM     54  C   UNL     1       6.188  10.697   3.710  1.00  0.00     0.040 A 
ATOM     55  F   UNL     1       5.232   9.257   5.303  1.00  0.00    -0.206 F 
ATOM     56  C   UNL     1       7.186  10.969   2.772  1.00  0.00     0.006 A 
ENDBRANCH  28  49
BRANCH  40  57
ATOM     57  C   UNL     1      10.499   6.293   9.847  1.00  0.00     0.057 A 
ATOM     58  C   UNL     1      10.028   7.004  10.957  1.00  0.00     0.134 A 
ATOM     59  C   UNL     1      11.883   6.209   9.658  1.00  0.00     0.134 A 
ATOM     60  F   UNL     1       8.711   7.124  11.179  1.00  0.00    -0.206 F 
ATOM     61  C   UNL     1      10.908   7.617  11.850  1.00  0.00     0.040 A 
ATOM     62  C   UNL     1      12.773   6.814  10.545  1.00  0.00     0.040 A 
ATOM     63  F   UNL     1      12.387   5.546   8.606  1.00  0.00    -0.206 F 
ATOM     64  C   UNL     1      12.284   7.520  11.645  1.00  0.00     0.006 A 
ENDBRANCH  40  57
ENDBRANCH  14  15
ENDBRANCH   7   9
ENDBRANCH   4   5
ENDBRANCH   3   4
ENDBRANCH   2   3
ENDBRANCH   1   2
BRANCH   1  65
ATOM     65  C   UNL     1       6.524  -3.131  -3.044  1.00  0.00     0.021 C 
BRANCH  65  66
ATOM     66  C   UNL     1       7.130  -4.457  -2.589  1.00  0.00     0.116 C 
BRANCH  66  67
ATOM     67  N   UNL     1       7.040  -5.497  -3.594  1.00  0.00    -0.354 N 
ATOM     68  C   UNL     1       8.034  -6.087  -4.325  1.00  0.00     0.249 C 
ATOM     69  H   UNL     1       6.131  -5.827  -3.778  1.00  0.00     0.163 HD
ATOM     70  O   UNL     1       7.735  -7.045  -5.043  1.00  0.00    -0.272 OA
BRANCH  68  71
ATOM     71  C   UNL     1       9.462  -5.509  -4.288  1.00  0.00     0.207 C 
ATOM     72  C   UNL     1       9.592  -4.418  -5.349  1.00  0.00     0.045 C 
ATOM     73  O   UNL     1      10.457  -6.507  -4.582  1.00  0.00    -0.363 OA
ATOM     74  C   UNL     1      10.893  -4.740  -6.047  1.00  0.00     0.037 C 
ATOM     75  C   UNL     1      10.974  -6.248  -5.893  1.00  0.00     0.138 C 
BRANCH  75  76
ATOM     76  C   UNL     1      12.371  -6.864  -6.068  1.00  0.00     0.148 C 
BRANCH  76  77
ATOM     77  N   UNL     1      13.441  -6.133  -5.402  1.00  0.00    -0.347 N 
ATOM     78  C   UNL     1      13.763  -6.019  -4.069  1.00  0.00     0.289 C 
ATOM     79  H   UNL     1      14.035  -5.635  -6.009  1.00  0.00     0.164 HD
ATOM     80  O   UNL     1      14.534  -5.100  -3.786  1.00  0.00    -0.266 OA
BRANCH  78  81
ATOM     81  C   UNL     1      13.227  -6.923  -3.082  1.00  0.00     0.224 A 
ATOM     82  C   UNL     1      12.831  -8.243  -3.072  1.00  0.00     0.079 A 
ATOM     83  O   UNL     1      13.117  -6.438  -1.806  1.00  0.00    -0.351 OA
ATOM     84  C   UNL     1      12.456  -8.492  -1.740  1.00  0.00     0.159 A 
ATOM     85  N   UNL     1      12.613  -7.419  -0.967  1.00  0.00    -0.088 NA
ENDBRANCH  78  81
ENDBRANCH  76  77
ENDBRANCH  75  76
ENDBRANCH  68  71
ENDBRANCH  66  67
ENDBRANCH  65  66
ENDBRANCH   1  65
TORSDOF 16
