REMARK SMILES C[C@@H]1CC[C@H](C)[N@H+]1Cc1cc2c(cc1Cl)C=C(C(=O)NCCCCCCNC(=O)c1ccc(-c3c4nc(c(-c5c(F)cccc5F)c5ccc([nH]5)c(-c5c(F)cccc5F)c5nc(c(-c6c(F)cccc6F)c6ccc3[nH]6)C=C5)C=C4)cc1)[C@@H](C(F)(F)F)O2
REMARK SMILES IDX 23 1 22 2 21 3 20 4 18 5 19 6 17 8 9 9 10 10 14 11 11 12
REMARK SMILES IDX 13 13 15 14 12 15 89 16 16 17 84 18 8 19 7 20 6 21 5 22 4 23
REMARK SMILES IDX 3 24 2 25 1 27 85 28 86 29 87 30 88 31 24 32 25 33 26 34
REMARK SMILES IDX 27 35 28 36 29 38 30 39 31 40 83 41 32 42 82 43 33 44 34 45
REMARK SMILES IDX 35 46 76 47 36 48 81 49 75 50 77 51 37 52 80 53 74 54 73 55
REMARK SMILES IDX 38 57 64 58 47 59 63 60 48 61 51 62 62 63 78 64 49 65 50 66
REMARK SMILES IDX 61 68 79 69 52 70 39 71 40 72 45 73 41 74 42 75 44 76 46 77
REMARK SMILES IDX 43 78 65 79 66 80 71 81 67 82 68 83 70 84 72 85 69 86 53 87
REMARK SMILES IDX 54 88 59 89 55 90 56 91 58 92 60 93 57 94
REMARK H PARENT 20 7 7 26 27 37 77 56 51 67
REMARK Flexibility Score: inf
ROOT
ATOM      1  C   UNL     1     -10.734  -0.942   2.133  1.00  0.00     0.002 C 
ENDROOT
BRANCH   1   2
ATOM      2  C   UNL     1      -9.301  -0.508   1.807  1.00  0.00     0.021 C 
BRANCH   2   3
ATOM      3  C   UNL     1      -8.649   0.349   2.888  1.00  0.00     0.116 C 
BRANCH   3   4
ATOM      4  N   UNL     1      -8.126  -0.468   3.967  1.00  0.00    -0.352 N 
ATOM      5  C   UNL     1      -6.928  -0.697   4.548  1.00  0.00     0.251 C 
ATOM      6  O   UNL     1      -6.950  -1.497   5.489  1.00  0.00    -0.270 OA
ATOM      7  H   UNL     1      -8.838  -1.000   4.390  1.00  0.00     0.163 HD
BRANCH   5   8
ATOM      8  C   UNL     1      -5.635  -0.074   4.145  1.00  0.00     0.067 C 
ATOM      9  C   UNL     1      -0.727   1.071   3.738  1.00  0.00     0.029 A 
ATOM     10  C   UNL     1      -1.843   1.173   2.885  1.00  0.00     0.058 A 
ATOM     11  C   UNL     1      -0.948   0.623   5.052  1.00  0.00     0.050 A 
ATOM     12  C   UNL     1      -3.099   0.744   3.300  1.00  0.00     0.128 A 
ATOM     13  C   UNL     1      -2.200   0.130   5.440  1.00  0.00     0.033 A 
ATOM     14  Cl  UNL     1       0.257   0.714   6.288  1.00  0.00    -0.084 Cl
ATOM     15  C   UNL     1      -3.273   0.165   4.553  1.00  0.00     0.019 A 
ATOM     16  O   UNL     1      -4.128   0.878   2.412  1.00  0.00    -0.475 OA
ATOM     17  C   UNL     1      -4.568  -0.412   4.893  1.00  0.00     0.025 C 
ATOM     18  C   UNL     1      -5.456   0.897   3.011  1.00  0.00     0.314 C 
BRANCH   9  19
ATOM     19  C   UNL     1       0.639   1.415   3.170  1.00  0.00     0.301 C 
BRANCH  19  20
ATOM     20  N   UNL     1       1.384   0.316   2.533  1.00  0.00    -0.327 N 
ATOM     21  C   UNL     1       1.101   0.260   0.071  1.00  0.00     0.075 C 
ATOM     22  C   UNL     1       0.732  -0.371   1.407  1.00  0.00     0.181 C 
ATOM     23  C   UNL     1       1.205  -1.821   1.497  1.00  0.00     0.071 C 
ATOM     24  C   UNL     1       1.387  -2.020   2.986  1.00  0.00     0.071 C 
ATOM     25  C   UNL     1       1.946  -0.681   3.451  1.00  0.00     0.181 C 
ATOM     26  H   UNL     1       2.151   0.859   2.135  1.00  0.00     0.348 HD
ATOM     27  C   UNL     1       3.470  -0.628   3.361  1.00  0.00     0.075 C 
ENDBRANCH  19  20
ENDBRANCH   9  19
BRANCH  18  28
ATOM     28  C   UNL     1      -5.836   2.335   3.418  1.00  0.00     0.429 C 
ATOM     29  F   UNL     1      -5.954   3.128   2.325  1.00  0.00    -0.167 F 
ATOM     30  F   UNL     1      -7.030   2.389   4.058  1.00  0.00    -0.167 F 
ATOM     31  F   UNL     1      -4.927   2.908   4.239  1.00  0.00    -0.167 F 
ENDBRANCH  18  28
ENDBRANCH   5   8
ENDBRANCH   3   4
ENDBRANCH   2   3
ENDBRANCH   1   2
BRANCH   1  32
ATOM     32  C   UNL     1     -11.722   0.199   2.413  1.00  0.00     0.002 C 
BRANCH  32  33
ATOM     33  C   UNL     1     -11.721   1.339   1.391  1.00  0.00     0.021 C 
BRANCH  33  34
ATOM     34  C   UNL     1     -11.992   0.910  -0.046  1.00  0.00     0.116 C 
BRANCH  34  35
ATOM     35  N   UNL     1     -13.329   0.369  -0.226  1.00  0.00    -0.352 N 
ATOM     36  C   UNL     1     -14.294   0.735  -1.135  1.00  0.00     0.251 C 
ATOM     37  H   UNL     1     -13.578  -0.359   0.388  1.00  0.00     0.163 HD
ATOM     38  O   UNL     1     -15.426   0.279  -1.069  1.00  0.00    -0.269 OA
BRANCH  36  39
ATOM     39  C   UNL     1     -13.952   1.729  -2.174  1.00  0.00     0.039 A 
ATOM     40  C   UNL     1     -12.806   1.567  -2.958  1.00  0.00     0.014 A 
ATOM     41  C   UNL     1     -14.747   2.869  -2.302  1.00  0.00     0.014 A 
ATOM     42  C   UNL     1     -12.363   2.623  -3.748  1.00  0.00     0.010 A 
ATOM     43  C   UNL     1     -14.335   3.900  -3.148  1.00  0.00     0.010 A 
ATOM     44  C   UNL     1     -13.110   3.808  -3.830  1.00  0.00    -0.014 A 
BRANCH  44  45
ATOM     45  C   UNL     1     -12.570   4.979  -4.565  1.00  0.00     0.031 A 
ATOM     46  C   UNL     1     -12.191   6.227  -3.814  1.00  0.00     0.074 A 
ATOM     47  C   UNL     1     -12.389   4.915  -5.896  1.00  0.00     0.049 A 
ATOM     48  N   UNL     1     -11.787   7.384  -4.276  1.00  0.00    -0.248 NA
ATOM     49  C   UNL     1     -12.281   6.167  -2.346  1.00  0.00     0.031 C 
ATOM     50  C   UNL     1     -12.678   3.750  -6.733  1.00  0.00     0.029 A 
ATOM     51  N   UNL     1     -11.915   5.852  -6.778  1.00  0.00    -0.354 N 
ATOM     52  C   UNL     1     -11.600   8.193  -3.162  1.00  0.00     0.074 A 
ATOM     53  C   UNL     1     -11.957   7.405  -2.002  1.00  0.00     0.031 C 
ATOM     54  C   UNL     1     -12.360   4.036  -8.005  1.00  0.00     0.029 A 
ATOM     55  C   UNL     1     -11.904   5.420  -8.081  1.00  0.00     0.049 A 
ATOM     56  H   UNL     1     -11.613   6.748  -6.503  1.00  0.00     0.167 HD
ATOM     57  C   UNL     1     -11.162   9.475  -3.109  1.00  0.00     0.037 A 
ATOM     58  C   UNL     1     -11.591   6.077  -9.213  1.00  0.00     0.037 A 
ATOM     59  C   UNL     1     -10.793  10.252  -4.263  1.00  0.00     0.049 A 
ATOM     60  C   UNL     1     -11.168   7.516  -9.136  1.00  0.00     0.074 A 
ATOM     61  C   UNL     1     -10.345  11.561  -4.317  1.00  0.00     0.029 A 
ATOM     62  N   UNL     1     -10.825   9.787  -5.569  1.00  0.00    -0.354 N 
ATOM     63  N   UNL     1     -11.020   8.278  -8.080  1.00  0.00    -0.248 NA
ATOM     64  C   UNL     1     -10.878   8.188 -10.410  1.00  0.00     0.031 C 
ATOM     65  C   UNL     1     -10.135  11.896  -5.659  1.00  0.00     0.029 A 
ATOM     66  C   UNL     1     -10.415  10.784  -6.437  1.00  0.00     0.049 A 
ATOM     67  H   UNL     1     -11.099   8.880  -5.838  1.00  0.00     0.167 HD
ATOM     68  C   UNL     1     -10.601   9.512  -8.559  1.00  0.00     0.074 A 
ATOM     69  C   UNL     1     -10.508   9.393  -9.999  1.00  0.00     0.031 C 
ATOM     70  C   UNL     1     -10.319  10.643  -7.867  1.00  0.00     0.037 A 
BRANCH  57  71
ATOM     71  C   UNL     1     -11.082  10.118  -1.756  1.00  0.00     0.057 A 
ATOM     72  C   UNL     1     -11.999  11.108  -1.380  1.00  0.00     0.134 A 
ATOM     73  C   UNL     1     -10.095   9.766  -0.826  1.00  0.00     0.134 A 
ATOM     74  F   UNL     1     -12.967  11.495  -2.224  1.00  0.00    -0.206 F 
ATOM     75  C   UNL     1     -11.939  11.722  -0.128  1.00  0.00     0.040 A 
ATOM     76  C   UNL     1     -10.039  10.356   0.438  1.00  0.00     0.040 A 
ATOM     77  F   UNL     1      -9.197   8.812  -1.117  1.00  0.00    -0.206 F 
ATOM     78  C   UNL     1     -10.961  11.340   0.788  1.00  0.00     0.006 A 
ENDBRANCH  57  71
BRANCH  58  79
ATOM     79  C   UNL     1     -11.694   5.381 -10.519  1.00  0.00     0.057 A 
ATOM     80  C   UNL     1     -12.938   5.036 -11.062  1.00  0.00     0.134 A 
ATOM     81  C   UNL     1     -10.552   5.041 -11.250  1.00  0.00     0.134 A 
ATOM     82  F   UNL     1     -14.069   5.332 -10.406  1.00  0.00    -0.206 F 
ATOM     83  C   UNL     1     -13.041   4.365 -12.281  1.00  0.00     0.040 A 
ATOM     84  C   UNL     1     -10.641   4.391 -12.481  1.00  0.00     0.040 A 
ATOM     85  F   UNL     1      -9.334   5.363 -10.788  1.00  0.00    -0.206 F 
ATOM     86  C   UNL     1     -11.889   4.046 -12.997  1.00  0.00     0.006 A 
ENDBRANCH  58  79
BRANCH  70  87
ATOM     87  C   UNL     1      -9.844  11.825  -8.657  1.00  0.00     0.057 A 
ATOM     88  C   UNL     1      -8.499  12.211  -8.618  1.00  0.00     0.134 A 
ATOM     89  C   UNL     1     -10.721  12.599  -9.425  1.00  0.00     0.134 A 
ATOM     90  F   UNL     1      -7.610  11.513  -7.896  1.00  0.00    -0.206 F 
ATOM     91  C   UNL     1      -8.043  13.331  -9.314  1.00  0.00     0.040 A 
ATOM     92  C   UNL     1     -10.273  13.709 -10.143  1.00  0.00     0.040 A 
ATOM     93  F   UNL     1     -12.019  12.270  -9.514  1.00  0.00    -0.206 F 
ATOM     94  C   UNL     1      -8.931  14.081 -10.083  1.00  0.00     0.006 A 
ENDBRANCH  70  87
ENDBRANCH  44  45
ENDBRANCH  36  39
ENDBRANCH  34  35
ENDBRANCH  33  34
ENDBRANCH  32  33
ENDBRANCH   1  32
TORSDOF 16
