REMARK SMILES Cc1ccccc1/[NH+]=C1\S[C@@H](CC(=O)Nc2ccc(C(=O)NCCCCCCNC(=O)c3ccc(-c4c5nc(c(-c6c(F)cccc6F)c6ccc([nH]6)c(-c6c(F)cccc6F)c6nc(c(-c7c(F)cccc7F)c7ccc4[nH]7)C=C6)C=C5)cc3)cc2)C(=O)N1C
REMARK SMILES IDX 24 1 23 2 22 3 20 4 21 5 19 7 16 8 17 9 87 10 18 11 86 12
REMARK SMILES IDX 15 13 13 14 14 15 12 17 11 18 8 19 9 20 10 22 90 23 88 24
REMARK SMILES IDX 91 25 89 26 7 27 1 28 2 29 3 30 4 31 6 32 5 33 25 34 26 35
REMARK SMILES IDX 27 36 28 37 29 38 30 39 31 41 32 42 33 43 85 44 34 45 84 46
REMARK SMILES IDX 35 47 36 48 37 49 78 50 38 51 83 52 77 53 79 54 39 55 82 56
REMARK SMILES IDX 76 57 75 58 40 60 66 61 49 62 65 63 50 64 53 65 64 66 80 67
REMARK SMILES IDX 51 68 52 69 63 71 81 72 54 73 41 74 42 75 47 76 43 77 44 78
REMARK SMILES IDX 46 79 48 80 45 81 67 82 68 83 73 84 69 85 70 86 72 87 74 88
REMARK SMILES IDX 71 89 55 90 56 91 61 92 57 93 58 94 60 95 62 96 59 97
REMARK H PARENT 22 6 15 16 8 21 29 40 79 59 53 70
REMARK Flexibility Score: inf
ROOT
ATOM      1  C   UNL     1       2.062   6.266  -2.261  1.00  0.00     0.021 C 
ENDROOT
BRANCH   1   2
ATOM      2  C   UNL     1       3.121   5.370  -2.913  1.00  0.00     0.116 C 
BRANCH   2   3
ATOM      3  N   UNL     1       4.197   6.149  -3.512  1.00  0.00    -0.352 N 
ATOM      4  C   UNL     1       5.543   6.226  -3.237  1.00  0.00     0.251 C 
ATOM      5  O   UNL     1       6.271   6.824  -4.026  1.00  0.00    -0.269 OA
ATOM      6  H   UNL     1       3.906   6.729  -4.252  1.00  0.00     0.163 HD
BRANCH   4   7
ATOM      7  C   UNL     1       6.154   5.584  -2.045  1.00  0.00     0.039 A 
ATOM      8  C   UNL     1       7.322   4.210   0.095  1.00  0.00     0.041 A 
ATOM      9  C   UNL     1       6.088   4.843   0.241  1.00  0.00     0.027 A 
ATOM     10  C   UNL     1       8.061   4.410  -1.062  1.00  0.00     0.027 A 
ATOM     11  C   UNL     1       5.503   5.530  -0.818  1.00  0.00     0.016 A 
ATOM     12  C   UNL     1       7.467   5.084  -2.139  1.00  0.00     0.016 A 
BRANCH   8  13
ATOM     13  N   UNL     1       7.786   3.351   1.099  1.00  0.00    -0.326 N 
ATOM     14  C   UNL     1       7.118   2.236   1.564  1.00  0.00     0.226 C 
ATOM     15  O   UNL     1       7.452   1.688   2.614  1.00  0.00    -0.275 OA
ATOM     16  H   UNL     1       8.658   3.558   1.505  1.00  0.00     0.169 HD
BRANCH  14  17
ATOM     17  C   UNL     1       6.106   1.588   0.631  1.00  0.00     0.128 C 
BRANCH  17  18
ATOM     18  C   UNL     1       4.678   1.537   1.127  1.00  0.00     0.183 C 
ATOM     19  N   UNL     1       1.017   1.857   0.605  1.00  0.00    -0.234 N 
ATOM     20  C   UNL     1       2.281   2.065   0.534  1.00  0.00     0.319 C 
ATOM     21  H   UNL     1       0.503   2.556   1.069  1.00  0.00     0.313 HD
ATOM     22  S   UNL     1       3.543   1.203  -0.278  1.00  0.00    -0.022 SA
ATOM     23  N   UNL     1       2.852   3.085   1.235  1.00  0.00    -0.193 N 
ATOM     24  C   UNL     1       4.103   2.802   1.740  1.00  0.00     0.324 C 
ATOM     25  C   UNL     1       2.131   4.269   1.656  1.00  0.00     0.301 C 
ATOM     26  O   UNL     1       4.628   3.419   2.659  1.00  0.00    -0.245 OA
BRANCH  19  27
ATOM     27  C   UNL     1       0.260   0.780   0.120  1.00  0.00     0.128 A 
ATOM     28  C   UNL     1       1.821  -1.187   0.761  1.00  0.00     0.049 C 
ATOM     29  C   UNL     1       0.540  -0.599   0.241  1.00  0.00    -0.004 A 
ATOM     30  C   UNL     1      -0.445  -1.540  -0.129  1.00  0.00     0.008 A 
ATOM     31  C   UNL     1      -1.720  -1.144  -0.521  1.00  0.00     0.001 A 
ATOM     32  C   UNL     1      -1.034   1.149  -0.294  1.00  0.00     0.052 A 
ATOM     33  C   UNL     1      -2.019   0.207  -0.595  1.00  0.00     0.004 A 
ENDBRANCH  19  27
ENDBRANCH  17  18
ENDBRANCH  14  17
ENDBRANCH   8  13
ENDBRANCH   4   7
ENDBRANCH   2   3
ENDBRANCH   1   2
BRANCH   1  34
ATOM     34  C   UNL     1       1.097   6.960  -3.238  1.00  0.00     0.002 C 
BRANCH  34  35
ATOM     35  C   UNL     1       0.280   6.049  -4.171  1.00  0.00     0.002 C 
BRANCH  35  36
ATOM     36  C   UNL     1      -0.513   4.932  -3.489  1.00  0.00     0.021 C 
BRANCH  36  37
ATOM     37  C   UNL     1      -1.759   5.409  -2.749  1.00  0.00     0.116 C 
BRANCH  37  38
ATOM     38  N   UNL     1      -2.951   5.496  -3.584  1.00  0.00    -0.352 N 
ATOM     39  C   UNL     1      -4.233   5.948  -3.291  1.00  0.00     0.251 C 
ATOM     40  H   UNL     1      -2.828   5.182  -4.509  1.00  0.00     0.163 HD
ATOM     41  O   UNL     1      -5.103   5.879  -4.130  1.00  0.00    -0.269 OA
BRANCH  39  42
ATOM     42  C   UNL     1      -4.496   6.650  -2.004  1.00  0.00     0.039 A 
ATOM     43  C   UNL     1      -5.315   7.789  -2.039  1.00  0.00     0.014 A 
ATOM     44  C   UNL     1      -3.801   6.336  -0.844  1.00  0.00     0.014 A 
ATOM     45  C   UNL     1      -5.211   8.742  -1.027  1.00  0.00     0.010 A 
ATOM     46  C   UNL     1      -3.614   7.319   0.103  1.00  0.00     0.010 A 
ATOM     47  C   UNL     1      -4.260   8.552  -0.031  1.00  0.00    -0.014 A 
BRANCH  47  48
ATOM     48  C   UNL     1      -3.764   9.603   0.846  1.00  0.00     0.031 A 
ATOM     49  C   UNL     1      -4.054   9.575   2.292  1.00  0.00     0.074 A 
ATOM     50  C   UNL     1      -2.881  10.502   0.355  1.00  0.00     0.049 A 
ATOM     51  N   UNL     1      -3.813  10.559   3.089  1.00  0.00    -0.248 NA
ATOM     52  C   UNL     1      -4.717   8.457   2.952  1.00  0.00     0.031 C 
ATOM     53  C   UNL     1      -1.955  11.338   1.115  1.00  0.00     0.029 A 
ATOM     54  N   UNL     1      -2.787  10.986  -0.957  1.00  0.00    -0.354 N 
ATOM     55  C   UNL     1      -4.014  10.126   4.377  1.00  0.00     0.074 A 
ATOM     56  C   UNL     1      -4.702   8.867   4.225  1.00  0.00     0.031 C 
ATOM     57  C   UNL     1      -1.593  12.384   0.359  1.00  0.00     0.029 A 
ATOM     58  C   UNL     1      -2.404  12.345  -0.842  1.00  0.00     0.049 A 
ATOM     59  H   UNL     1      -2.953  10.484  -1.787  1.00  0.00     0.167 HD
ATOM     60  C   UNL     1      -3.465  10.848   5.396  1.00  0.00     0.037 A 
ATOM     61  C   UNL     1      -3.231  13.349  -1.260  1.00  0.00     0.037 A 
ATOM     62  C   UNL     1      -2.947  12.132   4.907  1.00  0.00     0.049 A 
ATOM     63  C   UNL     1      -3.655  14.325  -0.180  1.00  0.00     0.074 A 
ATOM     64  C   UNL     1      -1.691  12.667   4.675  1.00  0.00     0.029 A 
ATOM     65  N   UNL     1      -3.846  13.030   4.362  1.00  0.00    -0.354 N 
ATOM     66  N   UNL     1      -3.349  14.204   1.081  1.00  0.00    -0.248 NA
ATOM     67  C   UNL     1      -4.546  15.462  -0.424  1.00  0.00     0.031 C 
ATOM     68  C   UNL     1      -1.858  13.906   3.986  1.00  0.00     0.029 A 
ATOM     69  C   UNL     1      -3.212  14.124   3.815  1.00  0.00     0.049 A 
ATOM     70  H   UNL     1      -4.822  12.903   4.364  1.00  0.00     0.167 HD
ATOM     71  C   UNL     1      -4.043  15.133   1.810  1.00  0.00     0.074 A 
ATOM     72  C   UNL     1      -4.762  15.915   0.823  1.00  0.00     0.031 C 
ATOM     73  C   UNL     1      -4.025  15.146   3.174  1.00  0.00     0.037 A 
BRANCH  60  74
ATOM     74  C   UNL     1      -3.239  10.381   6.823  1.00  0.00     0.057 A 
ATOM     75  C   UNL     1      -2.531  11.204   7.728  1.00  0.00     0.134 A 
ATOM     76  C   UNL     1      -3.588   9.127   7.359  1.00  0.00     0.134 A 
ATOM     77  F   UNL     1      -2.160  12.451   7.407  1.00  0.00    -0.206 F 
ATOM     78  C   UNL     1      -2.153  10.790   9.014  1.00  0.00     0.040 A 
ATOM     79  C   UNL     1      -3.237   8.710   8.652  1.00  0.00     0.040 A 
ATOM     80  F   UNL     1      -4.271   8.210   6.676  1.00  0.00    -0.206 F 
ATOM     81  C   UNL     1      -2.499   9.534   9.480  1.00  0.00     0.006 A 
ENDBRANCH  60  74
BRANCH  61  82
ATOM     82  C   UNL     1      -4.072  12.948  -2.416  1.00  0.00     0.057 A 
ATOM     83  C   UNL     1      -3.444  12.673  -3.642  1.00  0.00     0.134 A 
ATOM     84  C   UNL     1      -5.365  12.449  -2.230  1.00  0.00     0.134 A 
ATOM     85  F   UNL     1      -2.200  13.119  -3.878  1.00  0.00    -0.206 F 
ATOM     86  C   UNL     1      -4.029  11.836  -4.595  1.00  0.00     0.040 A 
ATOM     87  C   UNL     1      -5.965  11.620  -3.183  1.00  0.00     0.040 A 
ATOM     88  F   UNL     1      -6.015  12.652  -1.075  1.00  0.00    -0.206 F 
ATOM     89  C   UNL     1      -5.280  11.279  -4.349  1.00  0.00     0.006 A 
ENDBRANCH  61  82
BRANCH  73  90
ATOM     90  C   UNL     1      -4.810  16.108   4.022  1.00  0.00     0.057 A 
ATOM     91  C   UNL     1      -4.832  17.487   3.784  1.00  0.00     0.134 A 
ATOM     92  C   UNL     1      -5.469  15.681   5.195  1.00  0.00     0.134 A 
ATOM     93  F   UNL     1      -4.202  18.014   2.723  1.00  0.00    -0.206 F 
ATOM     94  C   UNL     1      -5.483  18.381   4.645  1.00  0.00     0.040 A 
ATOM     95  C   UNL     1      -6.077  16.567   6.087  1.00  0.00     0.040 A 
ATOM     96  F   UNL     1      -5.572  14.383   5.512  1.00  0.00    -0.206 F 
ATOM     97  C   UNL     1      -6.093  17.925   5.810  1.00  0.00     0.006 A 
ENDBRANCH  73  90
ENDBRANCH  47  48
ENDBRANCH  39  42
ENDBRANCH  37  38
ENDBRANCH  36  37
ENDBRANCH  35  36
ENDBRANCH  34  35
ENDBRANCH   1  34
TORSDOF 17
