REMARK SMILES O=C(Cc1ccccc1-c1ccn(C(F)F)c(=O)c1)NCCCCCCNC(=O)c1ccc(-c2c3nc(c(-c4c(F)cccc4F)c4ccc([nH]4)c(-c4c(F)cccc4F)c4nc(c(-c5c(F)cccc5F)c5ccc2[nH]5)C=C4)C=C3)cc1
REMARK SMILES IDX 23 1 22 2 21 3 20 4 1 5 2 6 3 8 4 9 5 10 9 11 6 12 8 13 7 14
REMARK SMILES IDX 10 15 11 16 19 17 12 18 17 19 13 20 18 21 14 22 15 23 16 24
REMARK SMILES IDX 24 25 25 26 26 27 27 28 28 29 29 31 30 32 31 33 83 34 32 35
REMARK SMILES IDX 82 36 33 37 34 38 35 39 76 40 36 41 81 42 75 43 77 44 37 45
REMARK SMILES IDX 80 46 74 47 73 48 38 50 64 51 47 52 63 53 48 54 51 55 62 56
REMARK SMILES IDX 78 57 49 58 50 59 61 61 79 62 52 63 39 64 40 65 45 66 41 67
REMARK SMILES IDX 42 68 44 69 46 70 43 71 65 72 66 73 71 74 67 75 68 76 70 77
REMARK SMILES IDX 72 78 69 79 53 80 54 81 59 82 55 83 56 84 58 85 60 86 57 87
REMARK H PARENT 20 7 27 30 77 49 51 60
REMARK Flexibility Score: inf
ROOT
ATOM      1  C   UNL     1       4.167  -2.623   2.681  1.00  0.00     0.002 C 
ENDROOT
BRANCH   1   2
ATOM      2  C   UNL     1       2.661  -2.554   2.384  1.00  0.00     0.021 C 
BRANCH   2   3
ATOM      3  C   UNL     1       2.119  -1.147   2.127  1.00  0.00     0.116 C 
BRANCH   3   4
ATOM      4  N   UNL     1       2.841  -0.496   1.056  1.00  0.00    -0.356 N 
ATOM      5  O   UNL     1       1.114  -0.376  -0.448  1.00  0.00    -0.275 OA
ATOM      6  C   UNL     1       2.295  -0.187  -0.171  1.00  0.00     0.224 C 
ATOM      7  H   UNL     1       3.784  -0.260   1.213  1.00  0.00     0.163 HD
BRANCH   6   8
ATOM      8  C   UNL     1       3.301   0.337  -1.190  1.00  0.00     0.136 C 
BRANCH   8   9
ATOM      9  C   UNL     1       3.979   1.629  -0.771  1.00  0.00    -0.031 A 
ATOM     10  C   UNL     1       5.168   1.549  -0.019  1.00  0.00     0.005 A 
ATOM     11  C   UNL     1       3.457   2.902  -1.088  1.00  0.00    -0.014 A 
ATOM     12  C   UNL     1       5.798   2.698   0.457  1.00  0.00     0.000 A 
ATOM     13  C   UNL     1       4.101   4.051  -0.594  1.00  0.00     0.009 A 
ATOM     14  C   UNL     1       5.257   3.948   0.179  1.00  0.00     0.001 A 
BRANCH  11  15
ATOM     15  C   UNL     1       2.304   3.075  -1.997  1.00  0.00    -0.011 A 
ATOM     16  C   UNL     1       0.944   2.716  -1.651  1.00  0.00     0.027 A 
ATOM     17  C   UNL     1       2.566   3.520  -3.239  1.00  0.00     0.080 A 
ATOM     18  C   UNL     1      -0.020   2.743  -2.579  1.00  0.00     0.095 A 
ATOM     19  C   UNL     1       1.492   3.609  -4.266  1.00  0.00     0.255 A 
ATOM     20  N   UNL     1       0.243   3.160  -3.871  1.00  0.00    -0.258 N 
ATOM     21  O   UNL     1       1.781   4.040  -5.377  1.00  0.00    -0.269 OA
BRANCH  20  22
ATOM     22  C   UNL     1      -0.789   3.138  -4.873  1.00  0.00     0.451 C 
ATOM     23  F   UNL     1      -1.044   4.384  -5.341  1.00  0.00    -0.185 F 
ATOM     24  F   UNL     1      -0.427   2.362  -5.926  1.00  0.00    -0.185 F 
ENDBRANCH  20  22
ENDBRANCH  11  15
ENDBRANCH   8   9
ENDBRANCH   6   8
ENDBRANCH   3   4
ENDBRANCH   2   3
ENDBRANCH   1   2
BRANCH   1  25
ATOM     25  C   UNL     1       4.647  -1.795   3.877  1.00  0.00     0.002 C 
BRANCH  25  26
ATOM     26  C   UNL     1       3.985  -2.131   5.214  1.00  0.00     0.021 C 
BRANCH  26  27
ATOM     27  C   UNL     1       4.120  -3.585   5.657  1.00  0.00     0.116 C 
BRANCH  27  28
ATOM     28  N   UNL     1       5.500  -3.974   5.900  1.00  0.00    -0.352 N 
ATOM     29  C   UNL     1       6.039  -4.647   6.968  1.00  0.00     0.251 C 
ATOM     30  H   UNL     1       6.140  -3.716   5.198  1.00  0.00     0.163 HD
ATOM     31  O   UNL     1       7.261  -4.759   7.069  1.00  0.00    -0.269 OA
BRANCH  29  32
ATOM     32  C   UNL     1       5.162  -5.218   8.014  1.00  0.00     0.039 A 
ATOM     33  C   UNL     1       5.523  -5.060   9.355  1.00  0.00     0.014 A 
ATOM     34  C   UNL     1       3.999  -5.919   7.681  1.00  0.00     0.014 A 
ATOM     35  C   UNL     1       4.691  -5.555  10.362  1.00  0.00     0.010 A 
ATOM     36  C   UNL     1       3.135  -6.349   8.686  1.00  0.00     0.010 A 
ATOM     37  C   UNL     1       3.474  -6.178  10.037  1.00  0.00    -0.014 A 
BRANCH  37  38
ATOM     38  C   UNL     1       2.557  -6.671  11.097  1.00  0.00     0.031 A 
ATOM     39  C   UNL     1       2.270  -8.142  11.225  1.00  0.00     0.074 A 
ATOM     40  C   UNL     1       1.944  -5.793  11.914  1.00  0.00     0.049 A 
ATOM     41  N   UNL     1       1.455  -8.759  12.044  1.00  0.00    -0.248 NA
ATOM     42  C   UNL     1       2.974  -9.038  10.293  1.00  0.00     0.031 C 
ATOM     43  C   UNL     1       2.101  -4.338  11.866  1.00  0.00     0.029 A 
ATOM     44  N   UNL     1       1.056  -5.996  12.941  1.00  0.00    -0.354 N 
ATOM     45  C   UNL     1       1.545 -10.108  11.724  1.00  0.00     0.074 A 
ATOM     46  C   UNL     1       2.446 -10.214  10.596  1.00  0.00     0.031 C 
ATOM     47  C   UNL     1       1.350  -3.782  12.831  1.00  0.00     0.029 A 
ATOM     48  C   UNL     1       0.634  -4.835  13.544  1.00  0.00     0.049 A 
ATOM     49  H   UNL     1       0.750  -6.889  13.220  1.00  0.00     0.167 HD
ATOM     50  C   UNL     1       0.956 -11.166  12.331  1.00  0.00     0.037 A 
ATOM     51  C   UNL     1      -0.236  -4.642  14.554  1.00  0.00     0.037 A 
ATOM     52  C   UNL     1       0.072 -11.063  13.462  1.00  0.00     0.049 A 
ATOM     53  C   UNL     1      -0.882  -5.834  15.206  1.00  0.00     0.074 A 
ATOM     54  C   UNL     1      -0.557 -12.079  14.162  1.00  0.00     0.029 A 
ATOM     55  N   UNL     1      -0.305  -9.872  14.062  1.00  0.00    -0.354 N 
ATOM     56  N   UNL     1      -0.746  -7.107  14.925  1.00  0.00    -0.248 NA
ATOM     57  C   UNL     1      -1.794  -5.561  16.327  1.00  0.00     0.031 C 
ATOM     58  C   UNL     1      -1.340 -11.500  15.166  1.00  0.00     0.029 A 
ATOM     59  C   UNL     1      -1.163 -10.127  15.120  1.00  0.00     0.049 A 
ATOM     60  H   UNL     1      -0.008  -8.977  13.779  1.00  0.00     0.167 HD
ATOM     61  C   UNL     1      -1.525  -7.787  15.852  1.00  0.00     0.074 A 
ATOM     62  C   UNL     1      -2.119  -6.786  16.713  1.00  0.00     0.031 C 
ATOM     63  C   UNL     1      -1.731  -9.120  15.980  1.00  0.00     0.037 A 
BRANCH  50  64
ATOM     64  C   UNL     1       1.266 -12.531  11.789  1.00  0.00     0.057 A 
ATOM     65  C   UNL     1       2.530 -13.116  11.950  1.00  0.00     0.134 A 
ATOM     66  C   UNL     1       0.287 -13.284  11.129  1.00  0.00     0.134 A 
ATOM     67  F   UNL     1       3.516 -12.443  12.562  1.00  0.00    -0.206 F 
ATOM     68  C   UNL     1       2.816 -14.387  11.452  1.00  0.00     0.040 A 
ATOM     69  C   UNL     1       0.553 -14.569  10.650  1.00  0.00     0.040 A 
ATOM     70  F   UNL     1      -0.946 -12.788  10.945  1.00  0.00    -0.206 F 
ATOM     71  C   UNL     1       1.823 -15.121  10.806  1.00  0.00     0.006 A 
ENDBRANCH  50  64
BRANCH  51  72
ATOM     72  C   UNL     1      -0.536  -3.268  15.030  1.00  0.00     0.057 A 
ATOM     73  C   UNL     1      -0.111  -2.830  16.291  1.00  0.00     0.134 A 
ATOM     74  C   UNL     1      -1.278  -2.371  14.253  1.00  0.00     0.134 A 
ATOM     75  F   UNL     1       0.587  -3.650  17.090  1.00  0.00    -0.206 F 
ATOM     76  C   UNL     1      -0.438  -1.562  16.773  1.00  0.00     0.040 A 
ATOM     77  C   UNL     1      -1.589  -1.090  14.711  1.00  0.00     0.040 A 
ATOM     78  F   UNL     1      -1.706  -2.726  13.032  1.00  0.00    -0.206 F 
ATOM     79  C   UNL     1      -1.177  -0.687  15.980  1.00  0.00     0.006 A 
ENDBRANCH  51  72
BRANCH  63  80
ATOM     80  C   UNL     1      -2.593  -9.575  17.122  1.00  0.00     0.057 A 
ATOM     81  C   UNL     1      -3.979  -9.376  17.132  1.00  0.00     0.134 A 
ATOM     82  C   UNL     1      -2.027 -10.243  18.215  1.00  0.00     0.134 A 
ATOM     83  F   UNL     1      -4.580  -8.731  16.121  1.00  0.00    -0.206 F 
ATOM     84  C   UNL     1      -4.768  -9.800  18.202  1.00  0.00     0.040 A 
ATOM     85  C   UNL     1      -2.809 -10.696  19.278  1.00  0.00     0.040 A 
ATOM     86  F   UNL     1      -0.706 -10.475  18.264  1.00  0.00    -0.206 F 
ATOM     87  C   UNL     1      -4.183 -10.467  19.277  1.00  0.00     0.006 A 
ENDBRANCH  63  80
ENDBRANCH  37  38
ENDBRANCH  29  32
ENDBRANCH  27  28
ENDBRANCH  26  27
ENDBRANCH  25  26
ENDBRANCH   1  25
TORSDOF 16
