REMARK SMILES Cc1cccc(O[C@H](C)C(=O)N2CCC[C@@H](C(=O)NCCCCCCNC(=O)c3ccc(-c4c5nc(c(-c6c(F)cccc6F)c6ccc([nH]6)c(-c6c(F)cccc6F)c6nc(c(-c7c(F)cccc7F)c7ccc4[nH]7)C=C6)C=C5)cc3)C2)c1
REMARK SMILES IDX 21 1 20 2 19 3 17 4 18 5 16 7 12 8 13 9 83 10 14 11 15 12
REMARK SMILES IDX 10 13 11 14 8 15 9 16 7 17 6 18 1 19 2 20 3 21 84 22 4 23
REMARK SMILES IDX 5 24 22 25 23 26 24 27 25 28 26 29 27 30 28 32 29 33 30 34
REMARK SMILES IDX 82 35 31 36 81 37 32 38 33 39 34 40 75 41 35 42 80 43 74 44
REMARK SMILES IDX 76 45 36 46 79 47 73 48 72 49 37 51 63 52 46 53 62 54 47 55
REMARK SMILES IDX 50 56 61 57 77 58 48 59 49 60 60 62 78 63 51 64 38 65 39 66
REMARK SMILES IDX 44 67 40 68 41 69 43 70 45 71 42 72 64 73 65 74 70 75 66 76
REMARK SMILES IDX 67 77 69 78 71 79 68 80 52 81 53 82 58 83 54 84 55 85 57 86
REMARK SMILES IDX 59 87 56 88
REMARK H PARENT 19 6 26 31 76 50 50 61
REMARK Flexibility Score: inf
ROOT
ATOM      1  C   UNL     1       0.713  -1.669   0.738  1.00  0.00     0.021 C 
ENDROOT
BRANCH   1   2
ATOM      2  C   UNL     1       1.482  -1.797  -0.575  1.00  0.00     0.116 C 
BRANCH   2   3
ATOM      3  N   UNL     1       0.573  -1.874  -1.699  1.00  0.00    -0.356 N 
ATOM      4  C   UNL     1       0.070  -0.917  -2.517  1.00  0.00     0.224 C 
ATOM      5  O   UNL     1      -0.806  -1.272  -3.312  1.00  0.00    -0.275 OA
ATOM      6  H   UNL     1       0.265  -2.786  -1.907  1.00  0.00     0.163 HD
BRANCH   4   7
ATOM      7  C   UNL     1       0.572   0.521  -2.540  1.00  0.00     0.098 C 
ATOM      8  N   UNL     1       0.852   2.700  -1.411  1.00  0.00    -0.339 N 
ATOM      9  C   UNL     1       2.190   2.864  -1.992  1.00  0.00     0.119 C 
ATOM     10  C   UNL     1       0.426   1.308  -1.230  1.00  0.00     0.133 C 
ATOM     11  C   UNL     1       2.366   2.091  -3.294  1.00  0.00     0.022 C 
ATOM     12  C   UNL     1       1.988   0.623  -3.116  1.00  0.00     0.017 C 
BRANCH   8  13
ATOM     13  C   UNL     1       0.177   3.850  -1.029  1.00  0.00     0.263 C 
ATOM     14  O   UNL     1       0.539   4.947  -1.485  1.00  0.00    -0.271 OA
BRANCH  13  15
ATOM     15  C   UNL     1      -0.980   3.860   0.013  1.00  0.00     0.259 C 
ATOM     16  C   UNL     1      -2.292   3.167  -0.333  1.00  0.00     0.064 C 
BRANCH  15  17
ATOM     17  O   UNL     1      -0.604   3.877   1.390  1.00  0.00    -0.481 OA
BRANCH  17  18
ATOM     18  C   UNL     1      -0.166   2.774   2.049  1.00  0.00     0.120 A 
ATOM     19  C   UNL     1       2.563   2.174   4.656  1.00  0.00     0.044 C 
ATOM     20  C   UNL     1       1.394   1.955   3.742  1.00  0.00    -0.047 A 
ATOM     21  C   UNL     1       0.709   0.739   3.761  1.00  0.00     0.003 A 
ATOM     22  C   UNL     1       0.957   2.960   2.867  1.00  0.00     0.049 A 
ATOM     23  C   UNL     1      -0.435   0.567   2.987  1.00  0.00     0.004 A 
ATOM     24  C   UNL     1      -0.876   1.585   2.139  1.00  0.00     0.046 A 
ENDBRANCH  17  18
ENDBRANCH  15  17
ENDBRANCH  13  15
ENDBRANCH   8  13
ENDBRANCH   4   7
ENDBRANCH   2   3
ENDBRANCH   1   2
BRANCH   1  25
ATOM     25  C   UNL     1      -0.003  -2.938   1.219  1.00  0.00     0.002 C 
BRANCH  25  26
ATOM     26  C   UNL     1       0.886  -4.155   1.505  1.00  0.00     0.002 C 
BRANCH  26  27
ATOM     27  C   UNL     1       2.087  -3.902   2.416  1.00  0.00     0.021 C 
BRANCH  27  28
ATOM     28  C   UNL     1       1.739  -3.600   3.870  1.00  0.00     0.116 C 
BRANCH  28  29
ATOM     29  N   UNL     1       1.645  -4.789   4.708  1.00  0.00    -0.352 N 
ATOM     30  C   UNL     1       1.371  -4.922   6.060  1.00  0.00     0.251 C 
ATOM     31  H   UNL     1       1.801  -5.638   4.236  1.00  0.00     0.163 HD
ATOM     32  O   UNL     1       1.347  -6.032   6.563  1.00  0.00    -0.269 OA
BRANCH  30  33
ATOM     33  C   UNL     1       0.979  -3.738   6.869  1.00  0.00     0.039 A 
ATOM     34  C   UNL     1      -0.058  -3.891   7.802  1.00  0.00     0.014 A 
ATOM     35  C   UNL     1       1.500  -2.473   6.626  1.00  0.00     0.014 A 
ATOM     36  C   UNL     1      -0.731  -2.767   8.280  1.00  0.00     0.010 A 
ATOM     37  C   UNL     1       0.787  -1.363   7.030  1.00  0.00     0.010 A 
ATOM     38  C   UNL     1      -0.374  -1.514   7.789  1.00  0.00    -0.014 A 
BRANCH  38  39
ATOM     39  C   UNL     1      -1.227  -0.336   7.878  1.00  0.00     0.031 A 
ATOM     40  C   UNL     1      -0.882   0.803   8.748  1.00  0.00     0.074 A 
ATOM     41  C   UNL     1      -2.287  -0.232   7.045  1.00  0.00     0.049 A 
ATOM     42  N   UNL     1      -1.759   1.616   9.233  1.00  0.00    -0.248 NA
ATOM     43  C   UNL     1       0.484   1.112   9.157  1.00  0.00     0.031 C 
ATOM     44  C   UNL     1      -3.061   0.970   6.745  1.00  0.00     0.029 A 
ATOM     45  N   UNL     1      -3.003  -1.269   6.434  1.00  0.00    -0.354 N 
ATOM     46  C   UNL     1      -1.077   2.687   9.754  1.00  0.00     0.074 A 
ATOM     47  C   UNL     1       0.314   2.296   9.754  1.00  0.00     0.031 C 
ATOM     48  C   UNL     1      -4.261   0.605   6.269  1.00  0.00     0.029 A 
ATOM     49  C   UNL     1      -4.347  -0.839   6.384  1.00  0.00     0.049 A 
ATOM     50  H   UNL     1      -2.643  -2.124   6.105  1.00  0.00     0.167 HD
ATOM     51  C   UNL     1      -1.726   3.860   9.995  1.00  0.00     0.037 A 
ATOM     52  C   UNL     1      -5.340  -1.514   7.031  1.00  0.00     0.037 A 
ATOM     53  C   UNL     1      -3.127   3.799   9.606  1.00  0.00     0.049 A 
ATOM     54  C   UNL     1      -6.102  -0.678   8.030  1.00  0.00     0.074 A 
ATOM     55  C   UNL     1      -3.793   4.208   8.461  1.00  0.00     0.029 A 
ATOM     56  N   UNL     1      -4.005   2.972  10.295  1.00  0.00    -0.354 N 
ATOM     57  N   UNL     1      -5.642   0.423   8.555  1.00  0.00    -0.248 NA
ATOM     58  C   UNL     1      -7.430  -1.019   8.528  1.00  0.00     0.031 C 
ATOM     59  C   UNL     1      -5.078   3.618   8.459  1.00  0.00     0.029 A 
ATOM     60  C   UNL     1      -5.197   2.857   9.607  1.00  0.00     0.049 A 
ATOM     61  H   UNL     1      -3.806   2.531  11.152  1.00  0.00     0.167 HD
ATOM     62  C   UNL     1      -6.561   0.933   9.441  1.00  0.00     0.074 A 
ATOM     63  C   UNL     1      -7.670   0.001   9.372  1.00  0.00     0.031 C 
ATOM     64  C   UNL     1      -6.306   2.079  10.142  1.00  0.00     0.037 A 
BRANCH  51  65
ATOM     65  C   UNL     1      -0.978   5.130  10.291  1.00  0.00     0.057 A 
ATOM     66  C   UNL     1      -1.344   6.359   9.712  1.00  0.00     0.134 A 
ATOM     67  C   UNL     1       0.153   5.181  11.123  1.00  0.00     0.134 A 
ATOM     68  F   UNL     1      -2.444   6.486   8.960  1.00  0.00    -0.206 F 
ATOM     69  C   UNL     1      -0.583   7.523   9.862  1.00  0.00     0.040 A 
ATOM     70  C   UNL     1       0.951   6.327  11.246  1.00  0.00     0.040 A 
ATOM     71  F   UNL     1       0.522   4.116  11.852  1.00  0.00    -0.206 F 
ATOM     72  C   UNL     1       0.590   7.502  10.602  1.00  0.00     0.006 A 
ENDBRANCH  51  65
BRANCH  52  73
ATOM     73  C   UNL     1      -5.073  -2.969   7.156  1.00  0.00     0.057 A 
ATOM     74  C   UNL     1      -5.044  -3.747   5.985  1.00  0.00     0.134 A 
ATOM     75  C   UNL     1      -4.461  -3.503   8.293  1.00  0.00     0.134 A 
ATOM     76  F   UNL     1      -5.609  -3.287   4.857  1.00  0.00    -0.206 F 
ATOM     77  C   UNL     1      -4.333  -4.947   5.914  1.00  0.00     0.040 A 
ATOM     78  C   UNL     1      -3.755  -4.712   8.236  1.00  0.00     0.040 A 
ATOM     79  F   UNL     1      -4.426  -2.810   9.439  1.00  0.00    -0.206 F 
ATOM     80  C   UNL     1      -3.655  -5.415   7.036  1.00  0.00     0.006 A 
ENDBRANCH  52  73
BRANCH  64  81
ATOM     81  C   UNL     1      -7.088   2.663  11.305  1.00  0.00     0.057 A 
ATOM     82  C   UNL     1      -7.992   1.954  12.108  1.00  0.00     0.134 A 
ATOM     83  C   UNL     1      -6.833   3.989  11.745  1.00  0.00     0.134 A 
ATOM     84  F   UNL     1      -8.263   0.661  11.896  1.00  0.00    -0.206 F 
ATOM     85  C   UNL     1      -8.627   2.527  13.222  1.00  0.00     0.040 A 
ATOM     86  C   UNL     1      -7.417   4.550  12.884  1.00  0.00     0.040 A 
ATOM     87  F   UNL     1      -5.981   4.802  11.104  1.00  0.00    -0.206 F 
ATOM     88  C   UNL     1      -8.331   3.823  13.623  1.00  0.00     0.006 A 
ENDBRANCH  64  81
ENDBRANCH  38  39
ENDBRANCH  30  33
ENDBRANCH  28  29
ENDBRANCH  27  28
ENDBRANCH  26  27
ENDBRANCH  25  26
ENDBRANCH   1  25
TORSDOF 17
