REMARK SMILES CCCC1(CCC)SC[C@@H]2C(=O)N(Cc3ccc(C(=O)NCCCCCCNC(=O)c4ccc(-c5c6nc(c(-c7c(F)cccc7F)c7ccc([nH]7)c(-c7c(F)cccc7F)c7nc(c(-c8c(F)cccc8F)c8ccc5[nH]8)C=C7)C=C6)cc4)cc3)CC(=O)N21
REMARK SMILES IDX 23 1 22 2 21 3 19 4 20 5 18 7 15 8 16 9 86 10 17 11 85 12
REMARK SMILES IDX 14 13 13 14 4 15 8 16 90 17 9 18 10 19 88 20 11 21 87 22
REMARK SMILES IDX 89 23 12 24 3 25 2 26 1 27 5 28 6 29 7 30 24 31 25 32 26 33
REMARK SMILES IDX 27 34 28 35 29 36 30 38 31 39 32 40 84 41 33 42 83 43 34 44
REMARK SMILES IDX 35 45 36 46 77 47 37 48 82 49 76 50 78 51 38 52 81 53 75 54
REMARK SMILES IDX 74 55 39 57 65 58 48 59 64 60 49 61 52 62 63 63 79 64 50 65
REMARK SMILES IDX 51 66 62 68 80 69 53 70 40 71 41 72 46 73 42 74 43 75 45 76
REMARK SMILES IDX 47 77 44 78 66 79 67 80 72 81 68 82 69 83 71 84 73 85 70 86
REMARK SMILES IDX 54 87 55 88 60 89 56 90 57 91 59 92 61 93 58 94
REMARK H PARENT 21 6 28 37 78 56 52 67
REMARK Flexibility Score: inf
ROOT
ATOM      1  C   UNL     1       1.920  -1.886 -11.162  1.00  0.00     0.021 C 
ENDROOT
BRANCH   1   2
ATOM      2  C   UNL     1       0.702  -2.163 -10.278  1.00  0.00     0.116 C 
BRANCH   2   3
ATOM      3  N   UNL     1       0.405  -3.586 -10.253  1.00  0.00    -0.352 N 
ATOM      4  C   UNL     1       0.568  -4.518  -9.259  1.00  0.00     0.251 C 
ATOM      5  O   UNL     1       0.187  -5.673  -9.447  1.00  0.00    -0.269 OA
ATOM      6  H   UNL     1       0.023  -3.940 -11.089  1.00  0.00     0.163 HD
BRANCH   4   7
ATOM      7  C   UNL     1       1.121  -4.141  -7.939  1.00  0.00     0.039 A 
ATOM      8  C   UNL     1       1.929  -3.283  -5.392  1.00  0.00    -0.029 A 
ATOM      9  C   UNL     1       0.879  -4.200  -5.525  1.00  0.00     0.006 A 
ATOM     10  C   UNL     1       2.624  -2.878  -6.541  1.00  0.00     0.006 A 
ATOM     11  C   UNL     1       0.481  -4.630  -6.794  1.00  0.00     0.014 A 
ATOM     12  C   UNL     1       2.238  -3.318  -7.804  1.00  0.00     0.014 A 
BRANCH   8  13
ATOM     13  C   UNL     1       2.320  -2.718  -4.051  1.00  0.00     0.155 C 
BRANCH  13  14
ATOM     14  N   UNL     1       1.582  -1.521  -3.660  1.00  0.00    -0.327 N 
ATOM     15  C   UNL     1       0.177   2.025  -1.645  1.00  0.00     0.090 C 
ATOM     16  S   UNL     1       0.979   3.339  -2.792  1.00  0.00    -0.131 SA
ATOM     17  N   UNL     1       0.427   0.770  -2.392  1.00  0.00    -0.314 N 
ATOM     18  C   UNL     1       1.401   2.164  -4.091  1.00  0.00     0.107 C 
ATOM     19  C   UNL     1       1.556   0.874  -3.315  1.00  0.00     0.186 C 
ATOM     20  C   UNL     1      -0.046  -0.475  -2.017  1.00  0.00     0.244 C 
ATOM     21  C   UNL     1       1.855  -0.295  -4.251  1.00  0.00     0.247 C 
ATOM     22  C   UNL     1       0.349  -1.663  -2.906  1.00  0.00     0.220 C 
ATOM     23  O   UNL     1      -0.858  -0.658  -1.115  1.00  0.00    -0.273 OA
ATOM     24  O   UNL     1       2.552  -0.152  -5.251  1.00  0.00    -0.272 OA
BRANCH  15  25
ATOM     25  C   UNL     1       1.015   2.159  -0.339  1.00  0.00     0.040 C 
BRANCH  25  26
ATOM     26  C   UNL     1       0.897   1.056   0.723  1.00  0.00    -0.000 C 
ATOM     27  C   UNL     1       1.942  -0.046   0.578  1.00  0.00     0.004 C 
ENDBRANCH  25  26
ENDBRANCH  15  25
BRANCH  15  28
ATOM     28  C   UNL     1      -1.294   2.543  -1.615  1.00  0.00     0.040 C 
BRANCH  28  29
ATOM     29  C   UNL     1      -2.342   1.966  -0.662  1.00  0.00    -0.000 C 
ATOM     30  C   UNL     1      -2.259   2.451   0.777  1.00  0.00     0.004 C 
ENDBRANCH  28  29
ENDBRANCH  15  28
ENDBRANCH  13  14
ENDBRANCH   8  13
ENDBRANCH   4   7
ENDBRANCH   2   3
ENDBRANCH   1   2
BRANCH   1  31
ATOM     31  C   UNL     1       1.624  -2.000 -12.662  1.00  0.00     0.002 C 
BRANCH  31  32
ATOM     32  C   UNL     1       0.620  -0.975 -13.200  1.00  0.00     0.002 C 
BRANCH  32  33
ATOM     33  C   UNL     1       0.990   0.488 -12.944  1.00  0.00     0.021 C 
BRANCH  33  34
ATOM     34  C   UNL     1       2.317   0.920 -13.558  1.00  0.00     0.116 C 
BRANCH  34  35
ATOM     35  N   UNL     1       2.286   0.861 -15.012  1.00  0.00    -0.352 N 
ATOM     36  C   UNL     1       2.603   1.832 -15.921  1.00  0.00     0.251 C 
ATOM     37  H   UNL     1       1.995   0.001 -15.394  1.00  0.00     0.163 HD
ATOM     38  O   UNL     1       2.311   1.683 -17.112  1.00  0.00    -0.269 OA
BRANCH  36  39
ATOM     39  C   UNL     1       3.289   3.064 -15.486  1.00  0.00     0.039 A 
ATOM     40  C   UNL     1       2.876   4.293 -16.009  1.00  0.00     0.014 A 
ATOM     41  C   UNL     1       4.363   3.006 -14.592  1.00  0.00     0.014 A 
ATOM     42  C   UNL     1       3.520   5.466 -15.612  1.00  0.00     0.010 A 
ATOM     43  C   UNL     1       4.956   4.181 -14.144  1.00  0.00     0.010 A 
ATOM     44  C   UNL     1       4.555   5.421 -14.664  1.00  0.00    -0.014 A 
BRANCH  44  45
ATOM     45  C   UNL     1       5.266   6.653 -14.243  1.00  0.00     0.031 A 
ATOM     46  C   UNL     1       6.724   6.824 -14.573  1.00  0.00     0.074 A 
ATOM     47  C   UNL     1       4.620   7.592 -13.526  1.00  0.00     0.049 A 
ATOM     48  N   UNL     1       7.543   7.787 -14.236  1.00  0.00    -0.248 NA
ATOM     49  C   UNL     1       7.352   5.753 -15.365  1.00  0.00     0.031 C 
ATOM     50  C   UNL     1       3.217   7.525 -13.112  1.00  0.00     0.029 A 
ATOM     51  N   UNL     1       5.063   8.783 -13.011  1.00  0.00    -0.354 N 
ATOM     52  C   UNL     1       8.781   7.430 -14.757  1.00  0.00     0.074 A 
ATOM     53  C   UNL     1       8.619   6.137 -15.385  1.00  0.00     0.031 C 
ATOM     54  C   UNL     1       2.910   8.638 -12.425  1.00  0.00     0.029 A 
ATOM     55  C   UNL     1       4.099   9.478 -12.321  1.00  0.00     0.049 A 
ATOM     56  H   UNL     1       5.985   9.110 -13.125  1.00  0.00     0.167 HD
ATOM     57  C   UNL     1       9.941   8.128 -14.738  1.00  0.00     0.037 A 
ATOM     58  C   UNL     1       4.171  10.657 -11.675  1.00  0.00     0.037 A 
ATOM     59  C   UNL     1      10.091   9.428 -14.140  1.00  0.00     0.049 A 
ATOM     60  C   UNL     1       5.471  11.413 -11.669  1.00  0.00     0.074 A 
ATOM     61  C   UNL     1      11.212  10.239 -14.107  1.00  0.00     0.029 A 
ATOM     62  N   UNL     1       9.084  10.109 -13.473  1.00  0.00    -0.354 N 
ATOM     63  N   UNL     1       6.620  11.089 -12.212  1.00  0.00    -0.248 NA
ATOM     64  C   UNL     1       5.482  12.704 -10.967  1.00  0.00     0.031 C 
ATOM     65  C   UNL     1      10.893  11.396 -13.390  1.00  0.00     0.029 A 
ATOM     66  C   UNL     1       9.560  11.326 -13.015  1.00  0.00     0.049 A 
ATOM     67  H   UNL     1       8.166   9.777 -13.345  1.00  0.00     0.167 HD
ATOM     68  C   UNL     1       7.478  12.149 -11.950  1.00  0.00     0.074 A 
ATOM     69  C   UNL     1       6.715  13.130 -11.207  1.00  0.00     0.031 C 
ATOM     70  C   UNL     1       8.780  12.298 -12.294  1.00  0.00     0.037 A 
BRANCH  57  71
ATOM     71  C   UNL     1      11.137   7.499 -15.392  1.00  0.00     0.057 A 
ATOM     72  C   UNL     1      11.226   7.353 -16.783  1.00  0.00     0.134 A 
ATOM     73  C   UNL     1      12.224   7.059 -14.627  1.00  0.00     0.134 A 
ATOM     74  F   UNL     1      10.213   7.742 -17.573  1.00  0.00    -0.206 F 
ATOM     75  C   UNL     1      12.339   6.767 -17.387  1.00  0.00     0.040 A 
ATOM     76  C   UNL     1      13.355   6.497 -15.222  1.00  0.00     0.040 A 
ATOM     77  F   UNL     1      12.208   7.173 -13.290  1.00  0.00    -0.206 F 
ATOM     78  C   UNL     1      13.412   6.343 -16.605  1.00  0.00     0.006 A 
ENDBRANCH  57  71
BRANCH  58  79
ATOM     79  C   UNL     1       2.969  11.214 -11.005  1.00  0.00     0.057 A 
ATOM     80  C   UNL     1       2.323  12.348 -11.512  1.00  0.00     0.134 A 
ATOM     81  C   UNL     1       2.448  10.643  -9.839  1.00  0.00     0.134 A 
ATOM     82  F   UNL     1       2.786  12.952 -12.617  1.00  0.00    -0.206 F 
ATOM     83  C   UNL     1       1.217  12.908 -10.871  1.00  0.00     0.040 A 
ATOM     84  C   UNL     1       1.327  11.177  -9.201  1.00  0.00     0.040 A 
ATOM     85  F   UNL     1       3.016   9.550  -9.308  1.00  0.00    -0.206 F 
ATOM     86  C   UNL     1       0.713  12.319  -9.713  1.00  0.00     0.006 A 
ENDBRANCH  58  79
BRANCH  70  87
ATOM     87  C   UNL     1       9.447  13.588 -11.918  1.00  0.00     0.057 A 
ATOM     88  C   UNL     1       9.795  13.885 -10.594  1.00  0.00     0.134 A 
ATOM     89  C   UNL     1       9.780  14.528 -12.902  1.00  0.00     0.134 A 
ATOM     90  F   UNL     1       9.492  13.032  -9.604  1.00  0.00    -0.206 F 
ATOM     91  C   UNL     1      10.431  15.082 -10.260  1.00  0.00     0.040 A 
ATOM     92  C   UNL     1      10.439  15.715 -12.584  1.00  0.00     0.040 A 
ATOM     93  F   UNL     1       9.482  14.300 -14.190  1.00  0.00    -0.206 F 
ATOM     94  C   UNL     1      10.761  15.998 -11.258  1.00  0.00     0.006 A 
ENDBRANCH  70  87
ENDBRANCH  44  45
ENDBRANCH  36  39
ENDBRANCH  34  35
ENDBRANCH  33  34
ENDBRANCH  32  33
ENDBRANCH  31  32
ENDBRANCH   1  31
TORSDOF 19
