REMARK SMILES Cc1ccc(/C=C(\NC(=O)c2cccc(C)c2)C(=O)NCCCCCCNC(=O)c2ccc(-c3c4nc(c(-c5c(F)cccc5F)c5ccc([nH]5)c(-c5c(F)cccc5F)c5nc(c(-c6c(F)cccc6F)c6ccc3[nH]6)C=C5)C=C4)cc2)cc1
REMARK SMILES IDX 23 1 22 2 21 3 20 4 18 5 19 6 7 8 6 9 5 10 1 11 2 12 3 13
REMARK SMILES IDX 85 14 4 15 84 16 8 17 9 18 10 20 11 21 12 22 17 23 13 24
REMARK SMILES IDX 15 25 14 26 16 27 24 28 25 29 26 30 27 31 28 32 29 34 30 35
REMARK SMILES IDX 31 36 83 37 32 38 82 39 33 40 34 41 35 42 76 43 36 44 81 45
REMARK SMILES IDX 75 46 77 47 37 48 80 49 74 50 73 51 38 53 64 54 47 55 63 56
REMARK SMILES IDX 48 57 51 58 62 59 78 60 49 61 50 62 61 64 79 65 52 66 39 67
REMARK SMILES IDX 40 68 45 69 41 70 42 71 44 72 46 73 43 74 65 75 66 76 71 77
REMARK SMILES IDX 67 78 68 79 70 80 72 81 69 82 53 83 54 84 59 85 55 86 56 87
REMARK SMILES IDX 58 88 60 89 57 90
REMARK H PARENT 20 7 8 19 27 33 77 52 51 63
REMARK Flexibility Score: inf
ROOT
ATOM      1  C   UNL     1      -8.262  -4.555   1.492  1.00  0.00     0.002 C 
ENDROOT
BRANCH   1   2
ATOM      2  C   UNL     1      -6.855  -4.267   2.038  1.00  0.00     0.021 C 
BRANCH   2   3
ATOM      3  C   UNL     1      -5.831  -3.601   1.121  1.00  0.00     0.116 C 
BRANCH   3   4
ATOM      4  N   UNL     1      -6.176  -2.289   0.620  1.00  0.00    -0.351 N 
ATOM      5  C   UNL     1      -5.372  -1.344   0.036  1.00  0.00     0.267 C 
ATOM      6  O   UNL     1      -5.893  -0.297  -0.353  1.00  0.00    -0.268 OA
ATOM      7  H   UNL     1      -7.124  -2.038   0.712  1.00  0.00     0.163 HD
BRANCH   5   8
ATOM      8  C   UNL     1      -3.868  -1.550  -0.090  1.00  0.00     0.107 C 
ATOM      9  C   UNL     1      -3.103  -0.442   0.049  1.00  0.00     0.040 C 
BRANCH   9  10
ATOM     10  C   UNL     1      -1.624  -0.240  -0.035  1.00  0.00    -0.023 A 
ATOM     11  C   UNL     1       2.656   0.549  -0.006  1.00  0.00     0.044 C 
ATOM     12  C   UNL     1       1.178   0.306  -0.056  1.00  0.00    -0.051 A 
ATOM     13  C   UNL     1       0.696  -0.970  -0.335  1.00  0.00     0.004 A 
ATOM     14  C   UNL     1       0.256   1.323   0.198  1.00  0.00     0.004 A 
ATOM     15  C   UNL     1      -0.681  -1.227  -0.356  1.00  0.00     0.008 A 
ATOM     16  C   UNL     1      -1.123   1.051   0.211  1.00  0.00     0.008 A 
ENDBRANCH   9  10
BRANCH   8  17
ATOM     17  N   UNL     1      -3.295  -2.779  -0.282  1.00  0.00    -0.317 N 
ATOM     18  C   UNL     1      -3.555  -3.848  -1.101  1.00  0.00     0.255 C 
ATOM     19  H   UNL     1      -2.517  -2.929   0.302  1.00  0.00     0.170 HD
ATOM     20  O   UNL     1      -2.862  -4.855  -0.935  1.00  0.00    -0.269 OA
BRANCH  18  21
ATOM     21  C   UNL     1      -4.607  -3.870  -2.155  1.00  0.00     0.040 A 
ATOM     22  C   UNL     1      -5.064  -5.138  -2.549  1.00  0.00     0.014 A 
ATOM     23  C   UNL     1      -5.173  -2.737  -2.745  1.00  0.00     0.017 A 
ATOM     24  C   UNL     1      -6.122  -5.270  -3.445  1.00  0.00     0.001 A 
ATOM     25  C   UNL     1      -6.267  -2.860  -3.616  1.00  0.00    -0.050 A 
ATOM     26  C   UNL     1      -6.743  -4.133  -3.951  1.00  0.00     0.003 A 
ATOM     27  C   UNL     1      -6.968  -1.642  -4.143  1.00  0.00     0.044 C 
ENDBRANCH  18  21
ENDBRANCH   8  17
ENDBRANCH   5   8
ENDBRANCH   3   4
ENDBRANCH   2   3
ENDBRANCH   1   2
BRANCH   1  28
ATOM     28  C   UNL     1      -8.423  -5.121   0.074  1.00  0.00     0.002 C 
BRANCH  28  29
ATOM     29  C   UNL     1      -7.568  -6.322  -0.321  1.00  0.00     0.021 C 
BRANCH  29  30
ATOM     30  C   UNL     1      -7.854  -7.628   0.405  1.00  0.00     0.116 C 
BRANCH  30  31
ATOM     31  N   UNL     1      -8.632  -8.585  -0.384  1.00  0.00    -0.352 N 
ATOM     32  C   UNL     1      -8.899  -9.917  -0.097  1.00  0.00     0.251 C 
ATOM     33  H   UNL     1      -9.015  -8.240  -1.223  1.00  0.00     0.163 HD
ATOM     34  O   UNL     1      -9.651 -10.580  -0.788  1.00  0.00    -0.269 OA
BRANCH  32  35
ATOM     35  C   UNL     1      -8.339 -10.472   1.158  1.00  0.00     0.039 A 
ATOM     36  C   UNL     1      -9.247 -10.809   2.163  1.00  0.00     0.014 A 
ATOM     37  C   UNL     1      -6.985 -10.306   1.437  1.00  0.00     0.014 A 
ATOM     38  C   UNL     1      -8.851 -10.680   3.490  1.00  0.00     0.010 A 
ATOM     39  C   UNL     1      -6.614 -10.092   2.753  1.00  0.00     0.010 A 
ATOM     40  C   UNL     1      -7.574 -10.184   3.768  1.00  0.00    -0.014 A 
BRANCH  40  41
ATOM     41  C   UNL     1      -7.262  -9.538   5.042  1.00  0.00     0.031 A 
ATOM     42  C   UNL     1      -6.372 -10.170   6.034  1.00  0.00     0.074 A 
ATOM     43  C   UNL     1      -7.801  -8.331   5.338  1.00  0.00     0.049 A 
ATOM     44  N   UNL     1      -6.483  -9.980   7.307  1.00  0.00    -0.248 NA
ATOM     45  C   UNL     1      -5.299 -11.088   5.672  1.00  0.00     0.031 C 
ATOM     46  C   UNL     1      -7.466  -7.467   6.468  1.00  0.00     0.029 A 
ATOM     47  N   UNL     1      -8.946  -7.745   4.782  1.00  0.00    -0.354 N 
ATOM     48  C   UNL     1      -5.380 -10.530   7.905  1.00  0.00     0.074 A 
ATOM     49  C   UNL     1      -4.697 -11.256   6.855  1.00  0.00     0.031 C 
ATOM     50  C   UNL     1      -8.510  -6.664   6.721  1.00  0.00     0.029 A 
ATOM     51  C   UNL     1      -9.589  -7.053   5.833  1.00  0.00     0.049 A 
ATOM     52  H   UNL     1      -9.244  -7.803   3.845  1.00  0.00     0.167 HD
ATOM     53  C   UNL     1      -5.082 -10.235   9.200  1.00  0.00     0.037 A 
ATOM     54  C   UNL     1     -10.857  -7.373   6.216  1.00  0.00     0.037 A 
ATOM     55  C   UNL     1      -6.044  -9.330   9.814  1.00  0.00     0.049 A 
ATOM     56  C   UNL     1     -10.985  -7.873   7.640  1.00  0.00     0.074 A 
ATOM     57  C   UNL     1      -6.072  -7.968  10.070  1.00  0.00     0.029 A 
ATOM     58  N   UNL     1      -7.335  -9.777  10.018  1.00  0.00    -0.354 N 
ATOM     59  N   UNL     1      -9.992  -7.988   8.478  1.00  0.00    -0.248 NA
ATOM     60  C   UNL     1     -12.240  -8.388   8.193  1.00  0.00     0.031 C 
ATOM     61  C   UNL     1      -7.400  -7.608  10.436  1.00  0.00     0.029 A 
ATOM     62  C   UNL     1      -8.175  -8.751  10.403  1.00  0.00     0.049 A 
ATOM     63  H   UNL     1      -7.621 -10.712   9.902  1.00  0.00     0.167 HD
ATOM     64  C   UNL     1     -10.424  -8.652   9.598  1.00  0.00     0.074 A 
ATOM     65  C   UNL     1     -11.841  -8.865   9.383  1.00  0.00     0.031 C 
ATOM     66  C   UNL     1      -9.583  -9.039  10.600  1.00  0.00     0.037 A 
BRANCH  53  67
ATOM     67  C   UNL     1      -3.771 -10.627   9.814  1.00  0.00     0.057 A 
ATOM     68  C   UNL     1      -3.049  -9.743  10.632  1.00  0.00     0.134 A 
ATOM     69  C   UNL     1      -3.159 -11.872   9.590  1.00  0.00     0.134 A 
ATOM     70  F   UNL     1      -3.542  -8.547  10.981  1.00  0.00    -0.206 F 
ATOM     71  C   UNL     1      -1.768 -10.037  11.111  1.00  0.00     0.040 A 
ATOM     72  C   UNL     1      -1.857 -12.160  10.018  1.00  0.00     0.040 A 
ATOM     73  F   UNL     1      -3.808 -12.856   8.948  1.00  0.00    -0.206 F 
ATOM     74  C   UNL     1      -1.151 -11.233  10.774  1.00  0.00     0.006 A 
ENDBRANCH  53  67
BRANCH  54  75
ATOM     75  C   UNL     1     -11.715  -7.801   5.082  1.00  0.00     0.057 A 
ATOM     76  C   UNL     1     -12.014  -6.869   4.072  1.00  0.00     0.134 A 
ATOM     77  C   UNL     1     -11.950  -9.148   4.798  1.00  0.00     0.134 A 
ATOM     78  F   UNL     1     -11.808  -5.558   4.281  1.00  0.00    -0.206 F 
ATOM     79  C   UNL     1     -12.427  -7.267   2.800  1.00  0.00     0.040 A 
ATOM     80  C   UNL     1     -12.378  -9.558   3.532  1.00  0.00     0.040 A 
ATOM     81  F   UNL     1     -11.667 -10.096   5.702  1.00  0.00    -0.206 F 
ATOM     82  C   UNL     1     -12.580  -8.621   2.518  1.00  0.00     0.006 A 
ENDBRANCH  54  75
BRANCH  66  83
ATOM     83  C   UNL     1     -10.038  -9.746  11.844  1.00  0.00     0.057 A 
ATOM     84  C   UNL     1     -11.148  -9.321  12.586  1.00  0.00     0.134 A 
ATOM     85  C   UNL     1      -9.294 -10.801  12.408  1.00  0.00     0.134 A 
ATOM     86  F   UNL     1     -11.897  -8.286  12.177  1.00  0.00    -0.206 F 
ATOM     87  C   UNL     1     -11.517  -9.930  13.792  1.00  0.00     0.040 A 
ATOM     88  C   UNL     1      -9.624 -11.386  13.633  1.00  0.00     0.040 A 
ATOM     89  F   UNL     1      -8.227 -11.321  11.784  1.00  0.00    -0.206 F 
ATOM     90  C   UNL     1     -10.746 -10.958  14.326  1.00  0.00     0.006 A 
ENDBRANCH  66  83
ENDBRANCH  40  41
ENDBRANCH  32  35
ENDBRANCH  30  31
ENDBRANCH  29  30
ENDBRANCH  28  29
ENDBRANCH   1  28
TORSDOF 16
