REMARK SMILES O=C1CC[C@@H](CC(=O)N2CCC(Oc3ccccc3)(C(=O)NCCCCCCNC(=O)c3ccc(-c4c5nc(c(-c6c(F)cccc6F)c6ccc([nH]6)c(-c6c(F)cccc6F)c6nc(c(-c7c(F)cccc7F)c7ccc4[nH]7)C=C6)C=C5)cc3)CC2)N1
REMARK SMILES IDX 25 1 24 2 23 3 22 4 20 5 21 6 12 8 7 9 8 10 9 11 10 12 87 13
REMARK SMILES IDX 11 14 86 15 6 16 5 17 1 18 2 19 3 20 88 21 4 22 13 24 14 25
REMARK SMILES IDX 15 26 19 27 16 28 18 29 17 30 26 31 27 32 28 33 29 34 30 35
REMARK SMILES IDX 31 37 32 38 33 39 85 40 34 41 84 42 35 43 36 44 37 45 78 46
REMARK SMILES IDX 38 47 83 48 77 49 79 50 39 51 82 52 76 53 75 54 40 56 66 57
REMARK SMILES IDX 49 58 65 59 50 60 53 61 64 62 80 63 51 64 52 65 63 67 81 68
REMARK SMILES IDX 54 69 41 70 42 71 47 72 43 73 44 74 46 75 48 76 45 77 67 78
REMARK SMILES IDX 68 79 73 80 69 81 70 82 72 83 74 84 71 85 55 86 56 87 61 88
REMARK SMILES IDX 57 89 58 90 60 91 62 92 59 93
REMARK H PARENT 22 7 88 23 29 36 79 55 53 66
REMARK Flexibility Score: inf
ROOT
ATOM      1  C   UNL     1       0.053   3.144  -8.237  1.00  0.00     0.002 C 
ENDROOT
BRANCH   1   2
ATOM      2  C   UNL     1       0.495   1.728  -7.845  1.00  0.00     0.021 C 
BRANCH   2   3
ATOM      3  C   UNL     1       1.717   1.707  -6.934  1.00  0.00     0.116 C 
BRANCH   3   4
ATOM      4  N   UNL     1       1.396   2.351  -5.686  1.00  0.00    -0.353 N 
ATOM      5  C   UNL     1       1.289   1.832  -4.440  1.00  0.00     0.264 C 
ATOM      6  O   UNL     1       0.995   2.646  -3.557  1.00  0.00    -0.270 OA
ATOM      7  H   UNL     1       1.228   3.319  -5.749  1.00  0.00     0.163 HD
BRANCH   5   8
ATOM      8  C   UNL     1       1.558   0.326  -4.151  1.00  0.00     0.190 C 
ATOM      9  C   UNL     1      -1.583  -1.647  -2.246  1.00  0.00     0.224 C 
ATOM     10  O   UNL     1      -1.862  -2.672  -2.884  1.00  0.00    -0.275 OA
ATOM     11  N   UNL     1      -0.897  -0.624  -2.869  1.00  0.00    -0.342 N 
ATOM     12  C   UNL     1      -0.851  -0.543  -4.328  1.00  0.00     0.124 C 
ATOM     13  C   UNL     1      -0.023   0.310  -2.205  1.00  0.00     0.124 C 
ATOM     14  C   UNL     1       0.577  -0.642  -4.853  1.00  0.00     0.080 C 
ATOM     15  C   UNL     1       1.430   0.133  -2.635  1.00  0.00     0.080 C 
BRANCH   9  16
ATOM     16  C   UNL     1      -2.236  -1.486  -0.859  1.00  0.00     0.125 C 
BRANCH  16  17
ATOM     17  C   UNL     1      -1.650  -0.869   0.413  1.00  0.00     0.091 C 
ATOM     18  O   UNL     1       1.607  -0.166   1.529  1.00  0.00    -0.275 OA
ATOM     19  C   UNL     1       0.437  -0.118   1.181  1.00  0.00     0.220 C 
ATOM     20  C   UNL     1      -0.423   1.120   1.127  1.00  0.00     0.102 C 
ATOM     21  N   UNL     1      -0.289  -1.192   0.719  1.00  0.00    -0.353 N 
ATOM     22  C   UNL     1      -1.752   0.654   0.526  1.00  0.00     0.035 C 
ATOM     23  H   UNL     1       0.090  -2.095   0.611  1.00  0.00     0.163 HD
ENDBRANCH  16  17
ENDBRANCH   9  16
BRANCH   8  24
ATOM     24  O   UNL     1       2.933   0.220  -4.605  1.00  0.00    -0.477 OA
BRANCH  24  25
ATOM     25  C   UNL     1       3.593  -0.952  -4.397  1.00  0.00     0.120 A 
ATOM     26  C   UNL     1       4.573  -0.992  -3.408  1.00  0.00     0.046 A 
ATOM     27  C   UNL     1       3.419  -2.036  -5.255  1.00  0.00     0.046 A 
ATOM     28  C   UNL     1       5.327  -2.152  -3.226  1.00  0.00     0.004 A 
ATOM     29  C   UNL     1       4.157  -3.202  -5.061  1.00  0.00     0.004 A 
ATOM     30  C   UNL     1       5.108  -3.262  -4.043  1.00  0.00     0.000 A 
ENDBRANCH  24  25
ENDBRANCH   8  24
ENDBRANCH   5   8
ENDBRANCH   3   4
ENDBRANCH   2   3
ENDBRANCH   1   2
BRANCH   1  31
ATOM     31  C   UNL     1       1.161   4.016  -8.838  1.00  0.00     0.002 C 
BRANCH  31  32
ATOM     32  C   UNL     1       1.923   3.365  -9.993  1.00  0.00     0.021 C 
BRANCH  32  33
ATOM     33  C   UNL     1       1.034   2.916 -11.143  1.00  0.00     0.116 C 
BRANCH  33  34
ATOM     34  N   UNL     1       0.373   4.040 -11.780  1.00  0.00    -0.352 N 
ATOM     35  C   UNL     1       0.377   4.398 -13.104  1.00  0.00     0.251 C 
ATOM     36  H   UNL     1      -0.147   4.624 -11.182  1.00  0.00     0.163 HD
ATOM     37  O   UNL     1      -0.043   5.495 -13.454  1.00  0.00    -0.269 OA
BRANCH  35  38
ATOM     38  C   UNL     1       0.911   3.452 -14.103  1.00  0.00     0.039 A 
ATOM     39  C   UNL     1       1.782   3.927 -15.085  1.00  0.00     0.014 A 
ATOM     40  C   UNL     1       0.562   2.098 -14.060  1.00  0.00     0.014 A 
ATOM     41  C   UNL     1       2.344   3.032 -15.996  1.00  0.00     0.010 A 
ATOM     42  C   UNL     1       1.185   1.197 -14.915  1.00  0.00     0.010 A 
ATOM     43  C   UNL     1       2.074   1.657 -15.899  1.00  0.00    -0.014 A 
BRANCH  43  44
ATOM     44  C   UNL     1       2.709   0.684 -16.822  1.00  0.00     0.031 A 
ATOM     45  C   UNL     1       1.862  -0.126 -17.763  1.00  0.00     0.074 A 
ATOM     46  C   UNL     1       4.040   0.491 -16.771  1.00  0.00     0.049 A 
ATOM     47  N   UNL     1       2.225  -1.058 -18.608  1.00  0.00    -0.248 NA
ATOM     48  C   UNL     1       0.412   0.123 -17.731  1.00  0.00     0.031 C 
ATOM     49  C   UNL     1       4.963   1.183 -15.869  1.00  0.00     0.029 A 
ATOM     50  N   UNL     1       4.849  -0.351 -17.491  1.00  0.00    -0.354 N 
ATOM     51  C   UNL     1       1.052  -1.512 -19.195  1.00  0.00     0.074 A 
ATOM     52  C   UNL     1      -0.039  -0.798 -18.569  1.00  0.00     0.031 C 
ATOM     53  C   UNL     1       6.213   0.760 -16.111  1.00  0.00     0.029 A 
ATOM     54  C   UNL     1       6.177  -0.262 -17.152  1.00  0.00     0.049 A 
ATOM     55  H   UNL     1       4.510  -0.962 -18.185  1.00  0.00     0.167 HD
ATOM     56  C   UNL     1       0.898  -2.424 -20.185  1.00  0.00     0.037 A 
ATOM     57  C   UNL     1       7.245  -0.933 -17.624  1.00  0.00     0.037 A 
ATOM     58  C   UNL     1       1.989  -3.120 -20.815  1.00  0.00     0.049 A 
ATOM     59  C   UNL     1       7.047  -1.956 -18.708  1.00  0.00     0.074 A 
ATOM     60  C   UNL     1       1.946  -4.019 -21.867  1.00  0.00     0.029 A 
ATOM     61  N   UNL     1       3.321  -3.002 -20.446  1.00  0.00    -0.354 N 
ATOM     62  N   UNL     1       5.940  -2.324 -19.307  1.00  0.00    -0.248 NA
ATOM     63  C   UNL     1       8.249  -2.654 -19.185  1.00  0.00     0.031 C 
ATOM     64  C   UNL     1       3.243  -4.487 -22.096  1.00  0.00     0.029 A 
ATOM     65  C   UNL     1       4.105  -3.834 -21.228  1.00  0.00     0.049 A 
ATOM     66  H   UNL     1       3.659  -2.413 -19.733  1.00  0.00     0.167 HD
ATOM     67  C   UNL     1       6.314  -3.272 -20.251  1.00  0.00     0.074 A 
ATOM     68  C   UNL     1       7.753  -3.412 -20.153  1.00  0.00     0.031 C 
ATOM     69  C   UNL     1       5.537  -3.962 -21.121  1.00  0.00     0.037 A 
BRANCH  56  70
ATOM     70  C   UNL     1      -0.502  -2.724 -20.638  1.00  0.00     0.057 A 
ATOM     71  C   UNL     1      -1.279  -1.780 -21.325  1.00  0.00     0.134 A 
ATOM     72  C   UNL     1      -1.076  -3.980 -20.403  1.00  0.00     0.134 A 
ATOM     73  F   UNL     1      -0.796  -0.553 -21.573  1.00  0.00    -0.206 F 
ATOM     74  C   UNL     1      -2.585  -2.063 -21.730  1.00  0.00     0.040 A 
ATOM     75  C   UNL     1      -2.369  -4.285 -20.832  1.00  0.00     0.040 A 
ATOM     76  F   UNL     1      -0.388  -4.934 -19.758  1.00  0.00    -0.206 F 
ATOM     77  C   UNL     1      -3.131  -3.322 -21.489  1.00  0.00     0.006 A 
ENDBRANCH  56  70
BRANCH  57  78
ATOM     78  C   UNL     1       8.599  -0.640 -17.091  1.00  0.00     0.057 A 
ATOM     79  C   UNL     1       9.562  -0.003 -17.882  1.00  0.00     0.134 A 
ATOM     80  C   UNL     1       8.964  -0.986 -15.784  1.00  0.00     0.134 A 
ATOM     81  F   UNL     1       9.279   0.337 -19.148  1.00  0.00    -0.206 F 
ATOM     82  C   UNL     1      10.845   0.264 -17.400  1.00  0.00     0.040 A 
ATOM     83  C   UNL     1      10.234  -0.701 -15.280  1.00  0.00     0.040 A 
ATOM     84  F   UNL     1       8.084  -1.590 -14.973  1.00  0.00    -0.206 F 
ATOM     85  C   UNL     1      11.181  -0.081 -16.092  1.00  0.00     0.006 A 
ENDBRANCH  57  78
BRANCH  69  86
ATOM     86  C   UNL     1       6.229  -4.904 -22.063  1.00  0.00     0.057 A 
ATOM     87  C   UNL     1       6.803  -6.105 -21.626  1.00  0.00     0.134 A 
ATOM     88  C   UNL     1       6.287  -4.623 -23.435  1.00  0.00     0.134 A 
ATOM     89  F   UNL     1       6.794  -6.428 -20.323  1.00  0.00    -0.206 F 
ATOM     90  C   UNL     1       7.432  -6.979 -22.514  1.00  0.00     0.040 A 
ATOM     91  C   UNL     1       6.886  -5.504 -24.337  1.00  0.00     0.040 A 
ATOM     92  F   UNL     1       5.749  -3.496 -23.923  1.00  0.00    -0.206 F 
ATOM     93  C   UNL     1       7.467  -6.683 -23.875  1.00  0.00     0.006 A 
ENDBRANCH  69  86
ENDBRANCH  43  44
ENDBRANCH  35  38
ENDBRANCH  33  34
ENDBRANCH  32  33
ENDBRANCH  31  32
ENDBRANCH   1  31
TORSDOF 17
