REMARK SMILES COC[C@@H](NS(=O)(=O)c1ccc(C(=O)NCCCCCCNC(=O)c2ccc(-c3c4nc(c(-c5c(F)cccc5F)c5ccc([nH]5)c(-c5c(F)cccc5F)c5nc(c(-c6c(F)cccc6F)c6ccc3[nH]6)C=C5)C=C4)cc2)cc1F)C(C)C
REMARK SMILES IDX 17 1 16 2 15 3 13 4 14 5 12 7 9 8 10 9 80 10 11 11 79 12
REMARK SMILES IDX 81 13 6 14 7 15 8 16 5 17 4 19 3 20 2 21 1 22 82 23 83 24
REMARK SMILES IDX 84 25 18 26 19 27 20 28 21 29 22 30 23 31 24 33 25 34 26 35
REMARK SMILES IDX 78 36 27 37 77 38 28 39 29 40 30 41 71 42 31 43 76 44 70 45
REMARK SMILES IDX 72 46 32 47 75 48 69 49 68 50 33 52 59 53 42 54 58 55 43 56
REMARK SMILES IDX 46 57 57 58 73 59 44 60 45 61 56 63 74 64 47 65 34 66 35 67
REMARK SMILES IDX 40 68 36 69 37 70 39 71 41 72 38 73 60 74 61 75 66 76 62 77
REMARK SMILES IDX 63 78 65 79 67 80 64 81 48 82 49 83 54 84 50 85 51 86 53 87
REMARK SMILES IDX 55 88 52 89
REMARK H PARENT 15 6 5 18 22 32 72 51 46 62
REMARK Flexibility Score: inf
ROOT
ATOM      1  C   UNL     1       4.383   3.297   9.768  1.00  0.00     0.021 C 
ENDROOT
BRANCH   1   2
ATOM      2  C   UNL     1       2.863   3.281   9.629  1.00  0.00     0.116 C 
BRANCH   2   3
ATOM      3  N   UNL     1       2.421   4.459   8.915  1.00  0.00    -0.352 N 
ATOM      4  C   UNL     1       1.675   4.573   7.778  1.00  0.00     0.251 C 
ATOM      5  O   UNL     1       1.360   5.687   7.367  1.00  0.00    -0.269 OA
ATOM      6  H   UNL     1       2.703   5.314   9.312  1.00  0.00     0.163 HD
BRANCH   4   7
ATOM      7  C   UNL     1       1.218   3.382   7.034  1.00  0.00     0.042 A 
ATOM      8  C   UNL     1       0.376   1.462   5.211  1.00  0.00     0.118 A 
ATOM      9  C   UNL     1      -0.540   2.412   5.674  1.00  0.00     0.026 A 
ATOM     10  C   UNL     1       1.663   1.400   5.737  1.00  0.00     0.144 A 
ATOM     11  C   UNL     1      -0.109   3.381   6.580  1.00  0.00     0.015 A 
ATOM     12  C   UNL     1       2.099   2.373   6.633  1.00  0.00     0.054 A 
ATOM     13  F   UNL     1       2.551   0.495   5.306  1.00  0.00    -0.205 F 
BRANCH   8  14
ATOM     14  S   UNL     1       0.011   0.506   3.772  1.00  0.00     0.243 S 
ATOM     15  O   UNL     1      -1.350   0.806   3.370  1.00  0.00    -0.207 OA
ATOM     16  O   UNL     1       0.440  -0.846   4.022  1.00  0.00    -0.207 OA
BRANCH  14  17
ATOM     17  N   UNL     1       1.082   1.169   2.637  1.00  0.00    -0.205 NA
ATOM     18  H   UNL     1       1.853   1.575   3.167  1.00  0.00     0.141 HD
BRANCH  17  19
ATOM     19  C   UNL     1       0.626   2.218   1.677  1.00  0.00     0.098 C 
BRANCH  19  20
ATOM     20  C   UNL     1       0.963   1.750   0.234  1.00  0.00     0.180 C 
BRANCH  20  21
ATOM     21  O   UNL     1       0.199   0.617  -0.169  1.00  0.00    -0.383 OA
ATOM     22  C   UNL     1       0.934  -0.594  -0.253  1.00  0.00     0.194 C 
ENDBRANCH  20  21
ENDBRANCH  19  20
BRANCH  19  23
ATOM     23  C   UNL     1       1.338   3.585   1.918  1.00  0.00     0.003 C 
ATOM     24  C   UNL     1       0.573   4.721   1.221  1.00  0.00     0.009 C 
ATOM     25  C   UNL     1       1.510   3.988   3.375  1.00  0.00     0.009 C 
ENDBRANCH  19  23
ENDBRANCH  17  19
ENDBRANCH  14  17
ENDBRANCH   8  14
ENDBRANCH   4   7
ENDBRANCH   2   3
ENDBRANCH   1   2
BRANCH   1  26
ATOM     26  C   UNL     1       4.882   4.280  10.835  1.00  0.00     0.002 C 
BRANCH  26  27
ATOM     27  C   UNL     1       4.347   4.016  12.248  1.00  0.00     0.002 C 
BRANCH  27  28
ATOM     28  C   UNL     1       4.532   2.580  12.743  1.00  0.00     0.021 C 
BRANCH  28  29
ATOM     29  C   UNL     1       5.984   2.120  12.778  1.00  0.00     0.116 C 
BRANCH  29  30
ATOM     30  N   UNL     1       6.763   2.889  13.735  1.00  0.00    -0.352 N 
ATOM     31  C   UNL     1       7.519   2.437  14.786  1.00  0.00     0.251 C 
ATOM     32  H   UNL     1       6.745   3.865  13.611  1.00  0.00     0.163 HD
ATOM     33  O   UNL     1       7.919   3.214  15.646  1.00  0.00    -0.269 OA
BRANCH  31  34
ATOM     34  C   UNL     1       7.838   0.999  14.878  1.00  0.00     0.039 A 
ATOM     35  C   UNL     1       7.688   0.347  16.103  1.00  0.00     0.014 A 
ATOM     36  C   UNL     1       8.286   0.302  13.752  1.00  0.00     0.014 A 
ATOM     37  C   UNL     1       7.942  -1.022  16.187  1.00  0.00     0.010 A 
ATOM     38  C   UNL     1       8.470  -1.075  13.821  1.00  0.00     0.010 A 
ATOM     39  C   UNL     1       8.307  -1.748  15.041  1.00  0.00    -0.014 A 
BRANCH  39  40
ATOM     40  C   UNL     1       8.530  -3.212  15.098  1.00  0.00     0.031 A 
ATOM     41  C   UNL     1       9.895  -3.777  14.823  1.00  0.00     0.074 A 
ATOM     42  C   UNL     1       7.492  -4.034  15.343  1.00  0.00     0.049 A 
ATOM     43  N   UNL     1      10.273  -5.028  14.760  1.00  0.00    -0.248 NA
ATOM     44  C   UNL     1      10.974  -2.811  14.558  1.00  0.00     0.031 C 
ATOM     45  C   UNL     1       6.114  -3.603  15.586  1.00  0.00     0.029 A 
ATOM     46  N   UNL     1       7.432  -5.402  15.423  1.00  0.00    -0.354 N 
ATOM     47  C   UNL     1      11.624  -4.998  14.440  1.00  0.00     0.074 A 
ATOM     48  C   UNL     1      11.990  -3.610  14.267  1.00  0.00     0.031 C 
ATOM     49  C   UNL     1       5.351  -4.684  15.817  1.00  0.00     0.029 A 
ATOM     50  C   UNL     1       6.175  -5.883  15.699  1.00  0.00     0.049 A 
ATOM     51  H   UNL     1       8.216  -5.984  15.295  1.00  0.00     0.167 HD
ATOM     52  C   UNL     1      12.486  -6.035  14.328  1.00  0.00     0.037 A 
ATOM     53  C   UNL     1       5.736  -7.148  15.837  1.00  0.00     0.037 A 
ATOM     54  C   UNL     1      12.122  -7.412  14.531  1.00  0.00     0.049 A 
ATOM     55  C   UNL     1       6.710  -8.283  15.695  1.00  0.00     0.074 A 
ATOM     56  C   UNL     1      12.937  -8.530  14.493  1.00  0.00     0.029 A 
ATOM     57  N   UNL     1      10.839  -7.859  14.810  1.00  0.00    -0.354 N 
ATOM     58  N   UNL     1       7.996  -8.238  15.443  1.00  0.00    -0.248 NA
ATOM     59  C   UNL     1       6.177  -9.643  15.856  1.00  0.00     0.031 C 
ATOM     60  C   UNL     1      12.139  -9.658  14.705  1.00  0.00     0.029 A 
ATOM     61  C   UNL     1      10.836  -9.238  14.926  1.00  0.00     0.049 A 
ATOM     62  H   UNL     1      10.049  -7.280  14.911  1.00  0.00     0.167 HD
ATOM     63  C   UNL     1       8.430  -9.557  15.439  1.00  0.00     0.074 A 
ATOM     64  C   UNL     1       7.273 -10.379  15.726  1.00  0.00     0.031 C 
ATOM     65  C   UNL     1       9.676 -10.042  15.218  1.00  0.00     0.037 A 
BRANCH  52  66
ATOM     66  C   UNL     1      13.914  -5.725  13.988  1.00  0.00     0.057 A 
ATOM     67  C   UNL     1      14.456  -6.104  12.753  1.00  0.00     0.134 A 
ATOM     68  C   UNL     1      14.773  -5.111  14.909  1.00  0.00     0.134 A 
ATOM     69  F   UNL     1      13.689  -6.701  11.827  1.00  0.00    -0.206 F 
ATOM     70  C   UNL     1      15.803  -5.897  12.452  1.00  0.00     0.040 A 
ATOM     71  C   UNL     1      16.116  -4.874  14.609  1.00  0.00     0.040 A 
ATOM     72  F   UNL     1      14.315  -4.713  16.105  1.00  0.00    -0.206 F 
ATOM     73  C   UNL     1      16.636  -5.277  13.381  1.00  0.00     0.006 A 
ENDBRANCH  52  66
BRANCH  53  74
ATOM     74  C   UNL     1       4.309  -7.399  16.160  1.00  0.00     0.057 A 
ATOM     75  C   UNL     1       3.291  -7.156  15.230  1.00  0.00     0.134 A 
ATOM     76  C   UNL     1       3.929  -7.859  17.426  1.00  0.00     0.134 A 
ATOM     77  F   UNL     1       3.589  -6.705  14.002  1.00  0.00    -0.206 F 
ATOM     78  C   UNL     1       1.946  -7.346  15.552  1.00  0.00     0.040 A 
ATOM     79  C   UNL     1       2.589  -8.076  17.754  1.00  0.00     0.040 A 
ATOM     80  F   UNL     1       4.859  -8.124  18.355  1.00  0.00    -0.206 F 
ATOM     81  C   UNL     1       1.593  -7.811  16.817  1.00  0.00     0.006 A 
ENDBRANCH  53  74
BRANCH  65  82
ATOM     82  C   UNL     1       9.869 -11.527  15.295  1.00  0.00     0.057 A 
ATOM     83  C   UNL     1      10.598 -12.097  16.347  1.00  0.00     0.134 A 
ATOM     84  C   UNL     1       9.412 -12.382  14.285  1.00  0.00     0.134 A 
ATOM     85  F   UNL     1      11.073 -11.331  17.340  1.00  0.00    -0.206 F 
ATOM     86  C   UNL     1      10.880 -13.463  16.383  1.00  0.00     0.040 A 
ATOM     87  C   UNL     1       9.666 -13.754  14.323  1.00  0.00     0.040 A 
ATOM     88  F   UNL     1       8.701 -11.899  13.255  1.00  0.00    -0.206 F 
ATOM     89  C   UNL     1      10.412 -14.296  15.368  1.00  0.00     0.006 A 
ENDBRANCH  65  82
ENDBRANCH  39  40
ENDBRANCH  31  34
ENDBRANCH  29  30
ENDBRANCH  28  29
ENDBRANCH  27  28
ENDBRANCH  26  27
ENDBRANCH   1  26
TORSDOF 19
