REMARK SMILES O=C(C[C@@H](C(=O)NCCCCCCNC(=O)c1ccc(-c2c3nc(c(-c4c(F)cccc4F)c4ccc([nH]4)c(-c4c(F)cccc4F)c4nc(c(-c5c(F)cccc5F)c5ccc2[nH]5)C=C4)C=C3)cc1)c1ccccc1)Nc1cc(C(F)(F)F)ccc1-n1cncn1
REMARK SMILES IDX 9 1 8 2 7 3 5 4 6 5 4 7 3 8 2 9 1 10 77 11 78 13 79 14 87 15
REMARK SMILES IDX 80 16 86 17 85 18 88 19 89 20 92 21 90 22 91 23 81 24 82 25
REMARK SMILES IDX 83 26 84 27 71 28 72 29 76 30 73 31 75 32 74 33 10 34 11 35
REMARK SMILES IDX 12 36 13 37 14 38 15 39 16 41 17 42 18 43 70 44 19 45 69 46
REMARK SMILES IDX 20 47 21 48 22 49 63 50 23 51 68 52 62 53 64 54 24 55 67 56
REMARK SMILES IDX 61 57 60 58 25 60 51 61 34 62 50 63 35 64 38 65 49 66 65 67
REMARK SMILES IDX 36 68 37 69 48 71 66 72 39 73 26 74 27 75 32 76 28 77 29 78
REMARK SMILES IDX 31 79 33 80 30 81 52 82 53 83 58 84 54 85 55 86 57 87 59 88
REMARK SMILES IDX 56 89 40 90 41 91 46 92 42 93 43 94 45 95 47 96 44 97
REMARK H PARENT 7 6 77 12 14 40 64 59 38 70
REMARK Flexibility Score: inf
ROOT
ATOM      1  C   UNL     1       4.675   2.757  -1.746  1.00  0.00     0.021 C 
ENDROOT
BRANCH   1   2
ATOM      2  C   UNL     1       4.118   1.648  -2.634  1.00  0.00     0.116 C 
BRANCH   2   3
ATOM      3  N   UNL     1       4.883   0.409  -2.405  1.00  0.00    -0.356 N 
ATOM      4  C   UNL     1       4.850  -0.219  -1.177  1.00  0.00     0.228 C 
ATOM      5  O   UNL     1       5.564   0.179  -0.257  1.00  0.00    -0.274 OA
ATOM      6  H   UNL     1       5.423   0.026  -3.134  1.00  0.00     0.163 HD
BRANCH   4   7
ATOM      7  C   UNL     1       3.888  -1.399  -1.030  1.00  0.00     0.118 C 
BRANCH   7   8
ATOM      8  C   UNL     1       3.062  -1.200   0.254  1.00  0.00     0.118 C 
BRANCH   8   9
ATOM      9  C   UNL     1       2.121   0.007   0.212  1.00  0.00     0.225 C 
ATOM     10  O   UNL     1       1.083   0.009  -0.424  1.00  0.00    -0.275 OA
ATOM     11  N   UNL     1       2.601   1.085   0.941  1.00  0.00    -0.324 N 
ATOM     12  H   UNL     1       3.543   1.039   1.223  1.00  0.00     0.170 HD
BRANCH  11  13
ATOM     13  C   UNL     1       1.883   2.244   1.324  1.00  0.00     0.067 A 
ATOM     14  C   UNL     1       2.518   3.450   1.048  1.00  0.00     0.041 A 
ATOM     15  C   UNL     1       0.736   2.293   2.124  1.00  0.00     0.090 A 
ATOM     16  C   UNL     1       2.162   4.665   1.635  1.00  0.00     0.058 A 
ATOM     17  C   UNL     1       0.264   3.533   2.616  1.00  0.00     0.031 A 
ATOM     18  C   UNL     1       1.011   4.702   2.416  1.00  0.00     0.015 A 
BRANCH  15  19
ATOM     19  N   UNL     1       0.203   1.131   2.710  1.00  0.00    -0.219 N 
ATOM     20  C   UNL     1       0.913   0.129   3.328  1.00  0.00     0.226 A 
ATOM     21  N   UNL     1      -1.117   0.954   2.947  1.00  0.00    -0.155 NA
ATOM     22  N   UNL     1       0.099  -0.792   3.784  1.00  0.00    -0.223 NA
ATOM     23  C   UNL     1      -1.126  -0.267   3.490  1.00  0.00     0.246 A 
ENDBRANCH  15  19
BRANCH  16  24
ATOM     24  C   UNL     1       3.139   5.811   1.505  1.00  0.00     0.416 C 
ATOM     25  F   UNL     1       4.362   5.461   1.996  1.00  0.00    -0.166 F 
ATOM     26  F   UNL     1       3.379   6.176   0.220  1.00  0.00    -0.166 F 
ATOM     27  F   UNL     1       2.766   6.933   2.165  1.00  0.00    -0.166 F 
ENDBRANCH  16  24
ENDBRANCH  11  13
ENDBRANCH   8   9
ENDBRANCH   7   8
BRANCH   7  28
ATOM     28  C   UNL     1       4.613  -2.761  -0.990  1.00  0.00    -0.035 A 
ATOM     29  C   UNL     1       3.888  -3.930  -1.287  1.00  0.00     0.004 A 
ATOM     30  C   UNL     1       5.968  -2.915  -0.639  1.00  0.00     0.004 A 
ATOM     31  C   UNL     1       4.495  -5.194  -1.252  1.00  0.00     0.000 A 
ATOM     32  C   UNL     1       6.576  -4.178  -0.612  1.00  0.00     0.000 A 
ATOM     33  C   UNL     1       5.840  -5.318  -0.919  1.00  0.00     0.000 A 
ENDBRANCH   7  28
ENDBRANCH   4   7
ENDBRANCH   2   3
ENDBRANCH   1   2
BRANCH   1  34
ATOM     34  C   UNL     1       4.381   4.256  -1.975  1.00  0.00     0.002 C 
BRANCH  34  35
ATOM     35  C   UNL     1       3.259   4.851  -2.845  1.00  0.00     0.002 C 
BRANCH  35  36
ATOM     36  C   UNL     1       1.751   4.899  -2.517  1.00  0.00     0.021 C 
BRANCH  36  37
ATOM     37  C   UNL     1       1.021   5.896  -1.570  1.00  0.00     0.116 C 
BRANCH  37  38
ATOM     38  N   UNL     1       1.631   7.163  -1.219  1.00  0.00    -0.352 N 
ATOM     39  C   UNL     1       1.057   8.223  -0.537  1.00  0.00     0.251 C 
ATOM     40  H   UNL     1       2.567   7.285  -1.499  1.00  0.00     0.163 HD
ATOM     41  O   UNL     1       1.750   9.171  -0.156  1.00  0.00    -0.269 OA
BRANCH  39  42
ATOM     42  C   UNL     1      -0.400   8.267  -0.271  1.00  0.00     0.039 A 
ATOM     43  C   UNL     1      -1.158   9.287  -0.853  1.00  0.00     0.014 A 
ATOM     44  C   UNL     1      -1.022   7.348   0.578  1.00  0.00     0.014 A 
ATOM     45  C   UNL     1      -2.546   9.321  -0.669  1.00  0.00     0.010 A 
ATOM     46  C   UNL     1      -2.413   7.361   0.737  1.00  0.00     0.010 A 
ATOM     47  C   UNL     1      -3.194   8.328   0.087  1.00  0.00    -0.014 A 
BRANCH  47  48
ATOM     48  C   UNL     1      -4.683   8.246   0.104  1.00  0.00     0.031 A 
ATOM     49  C   UNL     1      -5.473   8.492   1.359  1.00  0.00     0.074 A 
ATOM     50  C   UNL     1      -5.321   7.903  -1.034  1.00  0.00     0.049 A 
ATOM     51  N   UNL     1      -6.772   8.482   1.534  1.00  0.00    -0.248 NA
ATOM     52  C   UNL     1      -4.706   8.765   2.582  1.00  0.00     0.031 C 
ATOM     53  C   UNL     1      -4.660   7.579  -2.301  1.00  0.00     0.029 A 
ATOM     54  N   UNL     1      -6.658   7.770  -1.318  1.00  0.00    -0.354 N 
ATOM     55  C   UNL     1      -6.979   8.742   2.884  1.00  0.00     0.074 A 
ATOM     56  C   UNL     1      -5.669   8.857   3.490  1.00  0.00     0.031 C 
ATOM     57  C   UNL     1      -5.591   7.327  -3.233  1.00  0.00     0.029 A 
ATOM     58  C   UNL     1      -6.913   7.433  -2.627  1.00  0.00     0.049 A 
ATOM     59  H   UNL     1      -7.367   7.904  -0.648  1.00  0.00     0.167 HD
ATOM     60  C   UNL     1      -8.151   8.890   3.549  1.00  0.00     0.037 A 
ATOM     61  C   UNL     1      -8.080   7.234  -3.269  1.00  0.00     0.037 A 
ATOM     62  C   UNL     1      -9.450   8.779   2.932  1.00  0.00     0.049 A 
ATOM     63  C   UNL     1      -9.366   7.405  -2.509  1.00  0.00     0.074 A 
ATOM     64  C   UNL     1     -10.698   8.967   3.502  1.00  0.00     0.029 A 
ATOM     65  N   UNL     1      -9.667   8.439   1.604  1.00  0.00    -0.354 N 
ATOM     66  N   UNL     1      -9.544   7.737  -1.253  1.00  0.00    -0.248 NA
ATOM     67  C   UNL     1     -10.612   7.183  -3.255  1.00  0.00     0.031 C 
ATOM     68  C   UNL     1     -11.669   8.690   2.534  1.00  0.00     0.029 A 
ATOM     69  C   UNL     1     -11.027   8.387   1.343  1.00  0.00     0.049 A 
ATOM     70  H   UNL     1      -8.959   8.261   0.944  1.00  0.00     0.167 HD
ATOM     71  C   UNL     1     -10.919   7.790  -1.064  1.00  0.00     0.074 A 
ATOM     72  C   UNL     1     -11.527   7.474  -2.341  1.00  0.00     0.031 C 
ATOM     73  C   UNL     1     -11.615   8.073   0.064  1.00  0.00     0.037 A 
BRANCH  60  74
ATOM     74  C   UNL     1      -8.084   9.184   5.024  1.00  0.00     0.057 A 
ATOM     75  C   UNL     1      -7.603  10.405   5.515  1.00  0.00     0.134 A 
ATOM     76  C   UNL     1      -8.533   8.247   5.965  1.00  0.00     0.134 A 
ATOM     77  F   UNL     1      -7.155  11.348   4.672  1.00  0.00    -0.206 F 
ATOM     78  C   UNL     1      -7.536  10.670   6.885  1.00  0.00     0.040 A 
ATOM     79  C   UNL     1      -8.498   8.512   7.336  1.00  0.00     0.040 A 
ATOM     80  F   UNL     1      -9.020   7.062   5.569  1.00  0.00    -0.206 F 
ATOM     81  C   UNL     1      -7.989   9.722   7.800  1.00  0.00     0.006 A 
ENDBRANCH  60  74
BRANCH  61  82
ATOM     82  C   UNL     1      -8.087   6.886  -4.715  1.00  0.00     0.057 A 
ATOM     83  C   UNL     1      -8.564   7.787  -5.675  1.00  0.00     0.134 A 
ATOM     84  C   UNL     1      -7.617   5.649  -5.174  1.00  0.00     0.134 A 
ATOM     85  F   UNL     1      -9.043   8.982  -5.300  1.00  0.00    -0.206 F 
ATOM     86  C   UNL     1      -8.590   7.466  -7.034  1.00  0.00     0.040 A 
ATOM     87  C   UNL     1      -7.612   5.325  -6.532  1.00  0.00     0.040 A 
ATOM     88  F   UNL     1      -7.139   4.743  -4.309  1.00  0.00    -0.206 F 
ATOM     89  C   UNL     1      -8.107   6.233  -7.466  1.00  0.00     0.006 A 
ENDBRANCH  61  82
BRANCH  73  90
ATOM     90  C   UNL     1     -13.113   8.085  -0.042  1.00  0.00     0.057 A 
ATOM     91  C   UNL     1     -13.855   6.909  -0.202  1.00  0.00     0.134 A 
ATOM     92  C   UNL     1     -13.822   9.290   0.055  1.00  0.00     0.134 A 
ATOM     93  F   UNL     1     -13.236   5.724  -0.315  1.00  0.00    -0.206 F 
ATOM     94  C   UNL     1     -15.248   6.931  -0.286  1.00  0.00     0.040 A 
ATOM     95  C   UNL     1     -15.216   9.322   0.002  1.00  0.00     0.040 A 
ATOM     96  F   UNL     1     -13.173  10.452   0.217  1.00  0.00    -0.206 F 
ATOM     97  C   UNL     1     -15.933   8.140  -0.176  1.00  0.00     0.006 A 
ENDBRANCH  73  90
ENDBRANCH  47  48
ENDBRANCH  39  42
ENDBRANCH  37  38
ENDBRANCH  36  37
ENDBRANCH  35  36
ENDBRANCH  34  35
ENDBRANCH   1  34
TORSDOF 19
