REMARK SMILES NC(=O)c1c(-c2ccc(Cl)cc2)csc1NC(=O)[C@H]1[C@@H](C(=O)NCCCCCCNC(=O)c2ccc(-c3c4nc(c(-c5c(F)cccc5F)c5ccc([nH]5)c(-c5c(F)cccc5F)c5nc(c(-c6c(F)cccc6F)c6ccc3[nH]6)C=C5)C=C4)cc2)[C@@H]2CC[C@H]1O2
REMARK SMILES IDX 26 1 25 2 24 3 23 4 21 5 22 6 20 8 19 9 90 10 87 11 89 12
REMARK SMILES IDX 91 13 88 14 17 15 16 16 18 18 15 19 4 20 5 21 13 22 14 23
REMARK SMILES IDX 2 24 1 25 3 28 6 29 7 30 12 31 8 32 11 33 9 34 10 35 27 36
REMARK SMILES IDX 28 37 29 38 30 39 31 40 32 42 33 43 34 44 86 45 35 46 85 47
REMARK SMILES IDX 36 48 37 49 38 50 79 51 39 52 84 53 78 54 80 55 40 56 83 57
REMARK SMILES IDX 77 58 76 59 41 61 67 62 50 63 66 64 51 65 54 66 65 67 81 68
REMARK SMILES IDX 52 69 53 70 64 72 82 73 55 74 42 75 43 76 48 77 44 78 45 79
REMARK SMILES IDX 47 80 49 81 46 82 68 83 69 84 74 85 70 86 71 87 73 88 75 89
REMARK SMILES IDX 72 90 56 91 57 92 62 93 58 94 59 95 61 96 63 97 60 98
REMARK H PARENT 23 7 16 17 1 26 1 27 30 41 80 60 54 71
REMARK Flexibility Score: inf
ROOT
ATOM      1  C   UNL     1       5.250   7.513  -1.085  1.00  0.00     0.002 C 
ENDROOT
BRANCH   1   2
ATOM      2  C   UNL     1       3.869   8.171  -1.190  1.00  0.00     0.021 C 
BRANCH   2   3
ATOM      3  C   UNL     1       2.697   7.397  -0.602  1.00  0.00     0.116 C 
BRANCH   3   4
ATOM      4  N   UNL     1       2.690   7.273   0.828  1.00  0.00    -0.356 N 
ATOM      5  C   UNL     1       1.658   6.991   1.658  1.00  0.00     0.226 C 
ATOM      6  O   UNL     1       1.971   6.769   2.837  1.00  0.00    -0.275 OA
ATOM      7  H   UNL     1       3.559   7.414   1.268  1.00  0.00     0.163 HD
BRANCH   5   8
ATOM      8  C   UNL     1       0.172   7.077   1.314  1.00  0.00     0.122 C 
ATOM      9  C   UNL     1      -0.577   6.486   0.097  1.00  0.00     0.123 C 
ATOM     10  C   UNL     1      -1.515   7.626  -0.251  1.00  0.00     0.132 C 
ATOM     11  C   UNL     1      -0.304   8.541   1.310  1.00  0.00     0.132 C 
ATOM     12  C   UNL     1      -2.544   7.918   0.849  1.00  0.00     0.035 C 
ATOM     13  O   UNL     1      -0.633   8.760  -0.078  1.00  0.00    -0.373 OA
ATOM     14  C   UNL     1      -1.709   8.656   1.898  1.00  0.00     0.035 C 
BRANCH   9  15
ATOM     15  C   UNL     1       0.216   5.699  -0.946  1.00  0.00     0.231 C 
ATOM     16  N   UNL     1       0.449   5.894  -2.271  1.00  0.00    -0.317 N 
ATOM     17  H   UNL     1       0.852   5.086  -2.665  1.00  0.00     0.170 HD
ATOM     18  O   UNL     1       0.740   4.652  -0.512  1.00  0.00    -0.274 OA
BRANCH  16  19
ATOM     19  C   UNL     1       0.299   6.875  -3.247  1.00  0.00     0.108 A 
ATOM     20  C   UNL     1       0.718   6.799  -4.587  1.00  0.00     0.082 A 
ATOM     21  C   UNL     1       0.322   7.997  -5.323  1.00  0.00     0.007 A 
ATOM     22  C   UNL     1      -0.332   8.891  -4.503  1.00  0.00     0.076 A 
ATOM     23  S   UNL     1      -0.291   8.407  -2.902  1.00  0.00    -0.125 S 
BRANCH  20  24
ATOM     24  C   UNL     1       1.462   5.635  -5.080  1.00  0.00     0.252 C 
ATOM     25  N   UNL     1       2.224   5.811  -6.198  1.00  0.00    -0.365 N 
ATOM     26  H   UNL     1       2.741   5.058  -6.565  1.00  0.00     0.159 HD
ATOM     27  H   UNL     1       2.258   6.691  -6.638  1.00  0.00     0.159 HD
ATOM     28  O   UNL     1       1.481   4.563  -4.491  1.00  0.00    -0.269 OA
ENDBRANCH  20  24
BRANCH  21  29
ATOM     29  C   UNL     1       0.486   8.394  -6.718  1.00  0.00    -0.017 A 
ATOM     30  C   UNL     1       1.022   9.663  -7.004  1.00  0.00     0.010 A 
ATOM     31  C   UNL     1       0.053   7.582  -7.771  1.00  0.00     0.010 A 
ATOM     32  C   UNL     1       1.106  10.122  -8.317  1.00  0.00     0.021 A 
ATOM     33  C   UNL     1       0.160   8.035  -9.091  1.00  0.00     0.021 A 
ATOM     34  C   UNL     1       0.677   9.304  -9.357  1.00  0.00     0.041 A 
ATOM     35  Cl  UNL     1       0.780   9.873 -10.975  1.00  0.00    -0.084 Cl
ENDBRANCH  21  29
ENDBRANCH  16  19
ENDBRANCH   9  15
ENDBRANCH   5   8
ENDBRANCH   3   4
ENDBRANCH   2   3
ENDBRANCH   1   2
BRANCH   1  36
ATOM     36  C   UNL     1       5.387   6.061  -1.558  1.00  0.00     0.002 C 
BRANCH  36  37
ATOM     37  C   UNL     1       4.827   5.712  -2.939  1.00  0.00     0.021 C 
BRANCH  37  38
ATOM     38  C   UNL     1       5.305   6.564  -4.109  1.00  0.00     0.116 C 
BRANCH  38  39
ATOM     39  N   UNL     1       6.737   6.495  -4.333  1.00  0.00    -0.352 N 
ATOM     40  C   UNL     1       7.441   6.245  -5.486  1.00  0.00     0.251 C 
ATOM     41  H   UNL     1       7.290   6.653  -3.534  1.00  0.00     0.163 HD
ATOM     42  O   UNL     1       8.664   6.138  -5.441  1.00  0.00    -0.269 OA
BRANCH  40  43
ATOM     43  C   UNL     1       6.748   6.071  -6.785  1.00  0.00     0.039 A 
ATOM     44  C   UNL     1       7.159   5.026  -7.620  1.00  0.00     0.014 A 
ATOM     45  C   UNL     1       5.736   6.938  -7.208  1.00  0.00     0.014 A 
ATOM     46  C   UNL     1       6.516   4.810  -8.842  1.00  0.00     0.010 A 
ATOM     47  C   UNL     1       5.059   6.690  -8.404  1.00  0.00     0.010 A 
ATOM     48  C   UNL     1       5.437   5.619  -9.229  1.00  0.00    -0.014 A 
BRANCH  48  49
ATOM     49  C   UNL     1       4.687   5.349 -10.484  1.00  0.00     0.031 A 
ATOM     50  C   UNL     1       4.715   6.334 -11.620  1.00  0.00     0.074 A 
ATOM     51  C   UNL     1       3.926   4.240 -10.581  1.00  0.00     0.049 A 
ATOM     52  N   UNL     1       4.054   6.310 -12.750  1.00  0.00    -0.248 NA
ATOM     53  C   UNL     1       5.583   7.509 -11.454  1.00  0.00     0.031 C 
ATOM     54  C   UNL     1       3.790   3.214  -9.546  1.00  0.00     0.029 A 
ATOM     55  N   UNL     1       3.115   3.798 -11.596  1.00  0.00    -0.354 N 
ATOM     56  C   UNL     1       4.412   7.472 -13.422  1.00  0.00     0.074 A 
ATOM     57  C   UNL     1       5.319   8.196 -12.556  1.00  0.00     0.031 C 
ATOM     58  C   UNL     1       2.955   2.257  -9.984  1.00  0.00     0.029 A 
ATOM     59  C   UNL     1       2.471   2.618 -11.313  1.00  0.00     0.049 A 
ATOM     60  H   UNL     1       3.004   4.281 -12.447  1.00  0.00     0.167 HD
ATOM     61  C   UNL     1       4.037   7.888 -14.655  1.00  0.00     0.037 A 
ATOM     62  C   UNL     1       1.584   1.909 -12.037  1.00  0.00     0.037 A 
ATOM     63  C   UNL     1       3.164   7.155 -15.534  1.00  0.00     0.049 A 
ATOM     64  C   UNL     1       1.171   2.399 -13.396  1.00  0.00     0.074 A 
ATOM     65  C   UNL     1       2.782   7.469 -16.828  1.00  0.00     0.029 A 
ATOM     66  N   UNL     1       2.537   5.963 -15.211  1.00  0.00    -0.354 N 
ATOM     67  N   UNL     1       1.559   3.474 -14.037  1.00  0.00    -0.248 NA
ATOM     68  C   UNL     1       0.197   1.579 -14.131  1.00  0.00     0.031 C 
ATOM     69  C   UNL     1       1.892   6.486 -17.273  1.00  0.00     0.029 A 
ATOM     70  C   UNL     1       1.750   5.541 -16.270  1.00  0.00     0.049 A 
ATOM     71  H   UNL     1       2.635   5.487 -14.355  1.00  0.00     0.167 HD
ATOM     72  C   UNL     1       0.896   3.449 -15.257  1.00  0.00     0.074 A 
ATOM     73  C   UNL     1       0.088   2.247 -15.271  1.00  0.00     0.031 C 
ATOM     74  C   UNL     1       0.952   4.342 -16.274  1.00  0.00     0.037 A 
BRANCH  61  75
ATOM     75  C   UNL     1       4.574   9.205 -15.134  1.00  0.00     0.057 A 
ATOM     76  C   UNL     1       5.911   9.359 -15.522  1.00  0.00     0.134 A 
ATOM     77  C   UNL     1       3.733  10.319 -15.249  1.00  0.00     0.134 A 
ATOM     78  F   UNL     1       6.769   8.333 -15.426  1.00  0.00    -0.206 F 
ATOM     79  C   UNL     1       6.398  10.582 -15.987  1.00  0.00     0.040 A 
ATOM     80  C   UNL     1       4.204  11.540 -15.734  1.00  0.00     0.040 A 
ATOM     81  F   UNL     1       2.440  10.236 -14.904  1.00  0.00    -0.206 F 
ATOM     82  C   UNL     1       5.542  11.675 -16.100  1.00  0.00     0.006 A 
ENDBRANCH  61  75
BRANCH  62  83
ATOM     83  C   UNL     1       1.024   0.648 -11.490  1.00  0.00     0.057 A 
ATOM     84  C   UNL     1       1.394  -0.594 -12.018  1.00  0.00     0.134 A 
ATOM     85  C   UNL     1       0.104   0.655 -10.435  1.00  0.00     0.134 A 
ATOM     86  F   UNL     1       2.256  -0.661 -13.044  1.00  0.00    -0.206 F 
ATOM     87  C   UNL     1       0.859  -1.785 -11.526  1.00  0.00     0.040 A 
ATOM     88  C   UNL     1      -0.422  -0.529  -9.918  1.00  0.00     0.040 A 
ATOM     89  F   UNL     1      -0.286   1.815  -9.886  1.00  0.00    -0.206 F 
ATOM     90  C   UNL     1      -0.049  -1.754 -10.468  1.00  0.00     0.006 A 
ENDBRANCH  62  83
BRANCH  74  91
ATOM     91  C   UNL     1       0.134   4.047 -17.495  1.00  0.00     0.057 A 
ATOM     92  C   UNL     1      -1.256   4.214 -17.508  1.00  0.00     0.134 A 
ATOM     93  C   UNL     1       0.749   3.633 -18.684  1.00  0.00     0.134 A 
ATOM     94  F   UNL     1      -1.904   4.594 -16.397  1.00  0.00    -0.206 F 
ATOM     95  C   UNL     1      -2.009   3.967 -18.657  1.00  0.00     0.040 A 
ATOM     96  C   UNL     1       0.010   3.404 -19.845  1.00  0.00     0.040 A 
ATOM     97  F   UNL     1       2.078   3.460 -18.739  1.00  0.00    -0.206 F 
ATOM     98  C   UNL     1      -1.374   3.567 -19.832  1.00  0.00     0.006 A 
ENDBRANCH  74  91
ENDBRANCH  48  49
ENDBRANCH  40  43
ENDBRANCH  38  39
ENDBRANCH  37  38
ENDBRANCH  36  37
ENDBRANCH   1  36
TORSDOF 17
