REMARK SMILES CC[C@@H]1C=CCN1S(=O)(=O)c1sc2c(c1C(=O)NCCCCCCNC(=O)c1ccc(-c3c4nc(c(-c5c(F)cccc5F)c5ccc([nH]5)c(-c5c(F)cccc5F)c5nc(c(-c6c(F)cccc6F)c6ccc3[nH]6)C=C5)C=C4)cc1)CC[NH2+]C2
REMARK SMILES IDX 21 1 20 2 19 3 18 4 16 5 17 6 15 8 11 9 12 10 13 11 14 12
REMARK SMILES IDX 85 13 82 14 84 15 83 16 8 19 9 20 10 21 7 22 3 23 4 24 5 25
REMARK SMILES IDX 6 26 2 27 1 28 22 29 23 30 24 31 25 32 26 33 27 35 28 36
REMARK SMILES IDX 29 37 81 38 30 39 80 40 31 41 32 42 33 43 74 44 34 45 79 46
REMARK SMILES IDX 73 47 75 48 35 49 78 50 72 51 71 52 36 54 62 55 45 56 61 57
REMARK SMILES IDX 46 58 49 59 60 60 76 61 47 62 48 63 59 65 77 66 50 67 37 68
REMARK SMILES IDX 38 69 43 70 39 71 40 72 42 73 44 74 41 75 63 76 64 77 69 78
REMARK SMILES IDX 65 79 66 80 68 81 70 82 67 83 51 84 52 85 57 86 53 87 54 88
REMARK SMILES IDX 56 89 58 90 55 91
REMARK H PARENT 18 7 84 17 84 18 25 34 75 53 49 64
REMARK Flexibility Score: inf
ROOT
ATOM      1  C   UNL     1       5.138   2.459   2.370  1.00  0.00     0.002 C 
ENDROOT
BRANCH   1   2
ATOM      2  C   UNL     1       4.515   3.113   1.137  1.00  0.00     0.021 C 
BRANCH   2   3
ATOM      3  C   UNL     1       3.320   4.027   1.348  1.00  0.00     0.116 C 
BRANCH   3   4
ATOM      4  N   UNL     1       3.587   5.356   1.789  1.00  0.00    -0.352 N 
ATOM      5  C   UNL     1       2.860   6.508   1.647  1.00  0.00     0.253 C 
ATOM      6  O   UNL     1       3.292   7.423   2.358  1.00  0.00    -0.269 OA
ATOM      7  H   UNL     1       4.436   5.464   2.276  1.00  0.00     0.163 HD
BRANCH   5   8
ATOM      8  C   UNL     1       1.742   6.774   0.692  1.00  0.00     0.074 A 
ATOM      9  C   UNL     1       0.754   5.963   0.079  1.00  0.00     0.148 A 
ATOM     10  S   UNL     1      -0.284   6.912  -0.946  1.00  0.00    -0.120 S 
ATOM     11  C   UNL     1       0.493   8.349  -0.626  1.00  0.00     0.064 A 
ATOM     12  C   UNL     1       1.510   8.197   0.286  1.00  0.00    -0.009 A 
ATOM     13  C   UNL     1       0.035   9.635  -1.247  1.00  0.00     0.308 C 
ATOM     14  C   UNL     1       2.268   9.441   0.715  1.00  0.00     0.099 C 
ATOM     15  N   UNL     1       1.060  10.681  -1.121  1.00  0.00    -0.342 N 
ATOM     16  C   UNL     1       1.545  10.738   0.270  1.00  0.00     0.265 C 
ATOM     17  H   UNL     1       1.840  10.468  -1.743  1.00  0.00     0.346 HD
ATOM     18  H   UNL     1       0.656  11.582  -1.374  1.00  0.00     0.346 HD
BRANCH   9  19
ATOM     19  S   UNL     1       0.149   4.229   0.001  1.00  0.00     0.254 S 
ATOM     20  O   UNL     1      -1.289   4.288  -0.104  1.00  0.00    -0.206 OA
ATOM     21  O   UNL     1       0.723   3.532   1.135  1.00  0.00    -0.206 OA
BRANCH  19  22
ATOM     22  N   UNL     1       0.760   3.523  -1.454  1.00  0.00    -0.186 NA
ATOM     23  C   UNL     1       0.733   2.019  -1.508  1.00  0.00     0.096 C 
ATOM     24  C   UNL     1      -0.175   1.711  -2.652  1.00  0.00    -0.010 C 
ATOM     25  C   UNL     1      -0.499   2.814  -3.325  1.00  0.00    -0.013 C 
ATOM     26  C   UNL     1       0.085   4.027  -2.696  1.00  0.00     0.130 C 
BRANCH  23  27
ATOM     27  C   UNL     1       2.143   1.450  -1.761  1.00  0.00     0.021 C 
ATOM     28  C   UNL     1       2.787   1.788  -3.107  1.00  0.00     0.006 C 
ENDBRANCH  23  27
ENDBRANCH  19  22
ENDBRANCH   9  19
ENDBRANCH   5   8
ENDBRANCH   3   4
ENDBRANCH   2   3
ENDBRANCH   1   2
BRANCH   1  29
ATOM     29  C   UNL     1       4.212   1.798   3.406  1.00  0.00     0.002 C 
BRANCH  29  30
ATOM     30  C   UNL     1       3.108   0.844   2.927  1.00  0.00     0.021 C 
BRANCH  30  31
ATOM     31  C   UNL     1       3.577  -0.355   2.120  1.00  0.00     0.116 C 
BRANCH  31  32
ATOM     32  N   UNL     1       4.446  -1.267   2.864  1.00  0.00    -0.352 N 
ATOM     33  C   UNL     1       5.076  -2.409   2.402  1.00  0.00     0.251 C 
ATOM     34  H   UNL     1       4.603  -1.039   3.809  1.00  0.00     0.163 HD
ATOM     35  O   UNL     1       5.479  -3.271   3.174  1.00  0.00    -0.269 OA
BRANCH  33  36
ATOM     36  C   UNL     1       5.256  -2.574   0.949  1.00  0.00     0.039 A 
ATOM     37  C   UNL     1       5.064  -3.804   0.315  1.00  0.00     0.014 A 
ATOM     38  C   UNL     1       5.585  -1.441   0.214  1.00  0.00     0.014 A 
ATOM     39  C   UNL     1       5.120  -3.855  -1.077  1.00  0.00     0.010 A 
ATOM     40  C   UNL     1       5.450  -1.453  -1.148  1.00  0.00     0.010 A 
ATOM     41  C   UNL     1       5.289  -2.666  -1.804  1.00  0.00    -0.014 A 
BRANCH  41  42
ATOM     42  C   UNL     1       5.218  -2.651  -3.260  1.00  0.00     0.031 A 
ATOM     43  C   UNL     1       3.991  -3.264  -3.836  1.00  0.00     0.074 A 
ATOM     44  C   UNL     1       6.079  -1.950  -4.031  1.00  0.00     0.049 A 
ATOM     45  N   UNL     1       3.903  -4.348  -4.531  1.00  0.00    -0.248 NA
ATOM     46  C   UNL     1       2.688  -2.670  -3.496  1.00  0.00     0.031 C 
ATOM     47  C   UNL     1       7.150  -1.032  -3.621  1.00  0.00     0.029 A 
ATOM     48  N   UNL     1       6.107  -1.844  -5.386  1.00  0.00    -0.354 N 
ATOM     49  C   UNL     1       2.564  -4.472  -4.891  1.00  0.00     0.074 A 
ATOM     50  C   UNL     1       1.844  -3.517  -4.089  1.00  0.00     0.031 C 
ATOM     51  C   UNL     1       7.554  -0.299  -4.682  1.00  0.00     0.029 A 
ATOM     52  C   UNL     1       6.914  -0.823  -5.872  1.00  0.00     0.049 A 
ATOM     53  H   UNL     1       5.596  -2.444  -5.976  1.00  0.00     0.167 HD
ATOM     54  C   UNL     1       2.194  -5.190  -5.988  1.00  0.00     0.037 A 
ATOM     55  C   UNL     1       7.037  -0.435  -7.164  1.00  0.00     0.037 A 
ATOM     56  C   UNL     1       3.265  -6.049  -6.430  1.00  0.00     0.049 A 
ATOM     57  C   UNL     1       6.554  -1.556  -8.006  1.00  0.00     0.074 A 
ATOM     58  C   UNL     1       3.989  -7.075  -5.853  1.00  0.00     0.029 A 
ATOM     59  N   UNL     1       4.003  -5.643  -7.515  1.00  0.00    -0.354 N 
ATOM     60  N   UNL     1       7.172  -2.699  -8.113  1.00  0.00    -0.248 NA
ATOM     61  C   UNL     1       5.144  -1.571  -8.361  1.00  0.00     0.031 C 
ATOM     62  C   UNL     1       5.328  -6.878  -6.306  1.00  0.00     0.029 A 
ATOM     63  C   UNL     1       5.325  -5.795  -7.186  1.00  0.00     0.049 A 
ATOM     64  H   UNL     1       3.649  -5.307  -8.370  1.00  0.00     0.167 HD
ATOM     65  C   UNL     1       6.160  -3.647  -8.117  1.00  0.00     0.074 A 
ATOM     66  C   UNL     1       4.932  -2.890  -8.357  1.00  0.00     0.031 C 
ATOM     67  C   UNL     1       6.372  -4.908  -7.639  1.00  0.00     0.037 A 
BRANCH  54  68
ATOM     68  C   UNL     1       1.028  -4.850  -6.886  1.00  0.00     0.057 A 
ATOM     69  C   UNL     1       0.683  -5.736  -7.925  1.00  0.00     0.134 A 
ATOM     70  C   UNL     1       0.433  -3.575  -6.969  1.00  0.00     0.134 A 
ATOM     71  F   UNL     1       1.186  -6.979  -7.965  1.00  0.00    -0.206 F 
ATOM     72  C   UNL     1      -0.116  -5.351  -9.008  1.00  0.00     0.040 A 
ATOM     73  C   UNL     1      -0.408  -3.197  -8.020  1.00  0.00     0.040 A 
ATOM     74  F   UNL     1       0.709  -2.593  -6.103  1.00  0.00    -0.206 F 
ATOM     75  C   UNL     1      -0.656  -4.073  -9.064  1.00  0.00     0.006 A 
ENDBRANCH  54  68
BRANCH  55  76
ATOM     76  C   UNL     1       7.278   0.916  -7.715  1.00  0.00     0.057 A 
ATOM     77  C   UNL     1       7.696   1.092  -9.042  1.00  0.00     0.134 A 
ATOM     78  C   UNL     1       6.824   2.069  -7.051  1.00  0.00     0.134 A 
ATOM     79  F   UNL     1       8.114   0.044  -9.767  1.00  0.00    -0.206 F 
ATOM     80  C   UNL     1       7.631   2.334  -9.685  1.00  0.00     0.040 A 
ATOM     81  C   UNL     1       6.758   3.317  -7.680  1.00  0.00     0.040 A 
ATOM     82  F   UNL     1       6.340   2.002  -5.802  1.00  0.00    -0.206 F 
ATOM     83  C   UNL     1       7.147   3.450  -9.008  1.00  0.00     0.006 A 
ENDBRANCH  55  76
BRANCH  67  84
ATOM     84  C   UNL     1       7.787  -5.320  -7.335  1.00  0.00     0.057 A 
ATOM     85  C   UNL     1       8.593  -4.722  -6.354  1.00  0.00     0.134 A 
ATOM     86  C   UNL     1       8.299  -6.465  -7.955  1.00  0.00     0.134 A 
ATOM     87  F   UNL     1       8.156  -3.681  -5.635  1.00  0.00    -0.206 F 
ATOM     88  C   UNL     1       9.863  -5.216  -6.036  1.00  0.00     0.040 A 
ATOM     89  C   UNL     1       9.551  -6.989  -7.624  1.00  0.00     0.040 A 
ATOM     90  F   UNL     1       7.564  -7.125  -8.865  1.00  0.00    -0.206 F 
ATOM     91  C   UNL     1      10.342  -6.358  -6.668  1.00  0.00     0.006 A 
ENDBRANCH  67  84
ENDBRANCH  41  42
ENDBRANCH  33  36
ENDBRANCH  31  32
ENDBRANCH  30  31
ENDBRANCH  29  30
ENDBRANCH   1  29
TORSDOF 16
