REMARK SMILES O=C(NCCCCCCNC(=O)[C@@H]1CN(c2ncccn2)CCN1C(=O)C1CCOCC1)c1ccc(-c2c3nc(c(-c4c(F)cccc4F)c4ccc([nH]4)c(-c4c(F)cccc4F)c4nc(c(-c5c(F)cccc5F)c5ccc2[nH]5)C=C4)C=C3)cc1
REMARK SMILES IDX 6 1 5 2 4 3 3 4 1 5 2 6 33 8 34 9 86 10 35 11 85 12 36 13
REMARK SMILES IDX 37 14 38 15 79 16 39 17 84 18 78 19 80 20 40 21 83 22 77 23
REMARK SMILES IDX 76 24 41 26 67 27 50 28 66 29 51 30 54 31 65 32 81 33 52 34
REMARK SMILES IDX 53 35 64 37 82 38 55 39 42 40 43 41 48 42 44 43 45 44 47 45
REMARK SMILES IDX 49 46 46 47 68 48 69 49 74 50 70 51 71 52 73 53 75 54 72 55
REMARK SMILES IDX 56 56 57 57 62 58 58 59 59 60 61 61 63 62 60 63 7 64 8 65
REMARK SMILES IDX 9 66 10 67 11 68 12 70 13 71 14 72 24 73 15 74 23 75 22 76
REMARK SMILES IDX 25 77 26 78 27 79 28 80 32 81 29 82 31 83 30 84 16 85 17 86
REMARK SMILES IDX 21 87 18 88 20 89 19 90
REMARK H PARENT 3 7 80 25 54 36 10 69
REMARK Flexibility Score: inf
ROOT
ATOM      1  C   UNL     1       4.187  -3.750  -0.870  1.00  0.00     0.002 C 
ENDROOT
BRANCH   1   2
ATOM      2  C   UNL     1       4.474  -2.622   0.114  1.00  0.00     0.021 C 
BRANCH   2   3
ATOM      3  C   UNL     1       4.290  -1.230  -0.469  1.00  0.00     0.116 C 
BRANCH   3   4
ATOM      4  N   UNL     1       2.890  -0.895  -0.675  1.00  0.00    -0.352 N 
ATOM      5  O   UNL     1       0.948   0.190  -0.257  1.00  0.00    -0.269 OA
ATOM      6  C   UNL     1       2.167   0.139  -0.130  1.00  0.00     0.251 C 
ATOM      7  H   UNL     1       2.394  -1.488  -1.285  1.00  0.00     0.163 HD
BRANCH   6   8
ATOM      8  C   UNL     1       2.877   1.177   0.648  1.00  0.00     0.039 A 
ATOM      9  C   UNL     1       4.062   1.732   0.164  1.00  0.00     0.014 A 
ATOM     10  C   UNL     1       2.378   1.559   1.895  1.00  0.00     0.014 A 
ATOM     11  C   UNL     1       4.840   2.523   0.999  1.00  0.00     0.010 A 
ATOM     12  C   UNL     1       3.111   2.445   2.690  1.00  0.00     0.010 A 
ATOM     13  C   UNL     1       4.371   2.898   2.268  1.00  0.00    -0.014 A 
BRANCH  13  14
ATOM     14  C   UNL     1       5.205   3.791   3.115  1.00  0.00     0.031 A 
ATOM     15  C   UNL     1       5.732   3.337   4.449  1.00  0.00     0.074 A 
ATOM     16  C   UNL     1       5.519   5.016   2.648  1.00  0.00     0.049 A 
ATOM     17  N   UNL     1       6.500   3.980   5.294  1.00  0.00    -0.248 NA
ATOM     18  C   UNL     1       5.344   1.992   4.901  1.00  0.00     0.031 C 
ATOM     19  C   UNL     1       5.061   5.574   1.373  1.00  0.00     0.029 A 
ATOM     20  N   UNL     1       6.311   6.002   3.175  1.00  0.00    -0.354 N 
ATOM     21  C   UNL     1       6.660   3.135   6.386  1.00  0.00     0.074 A 
ATOM     22  C   UNL     1       5.892   1.941   6.107  1.00  0.00     0.031 C 
ATOM     23  C   UNL     1       5.625   6.775   1.189  1.00  0.00     0.029 A 
ATOM     24  C   UNL     1       6.428   7.103   2.361  1.00  0.00     0.049 A 
ATOM     25  H   UNL     1       6.754   5.929   4.051  1.00  0.00     0.167 HD
ATOM     26  C   UNL     1       7.386   3.336   7.513  1.00  0.00     0.037 A 
ATOM     27  C   UNL     1       7.095   8.257   2.542  1.00  0.00     0.037 A 
ATOM     28  C   UNL     1       8.166   4.520   7.776  1.00  0.00     0.049 A 
ATOM     29  C   UNL     1       7.876   8.457   3.807  1.00  0.00     0.074 A 
ATOM     30  C   UNL     1       8.969   4.799   8.869  1.00  0.00     0.029 A 
ATOM     31  N   UNL     1       8.234   5.625   6.940  1.00  0.00    -0.354 N 
ATOM     32  N   UNL     1       8.051   7.632   4.810  1.00  0.00    -0.248 NA
ATOM     33  C   UNL     1       8.552   9.751   3.963  1.00  0.00     0.031 C 
ATOM     34  C   UNL     1       9.482   6.092   8.718  1.00  0.00     0.029 A 
ATOM     35  C   UNL     1       9.048   6.596   7.503  1.00  0.00     0.049 A 
ATOM     36  H   UNL     1       7.773   5.708   6.074  1.00  0.00     0.167 HD
ATOM     37  C   UNL     1       8.883   8.293   5.703  1.00  0.00     0.074 A 
ATOM     38  C   UNL     1       9.187   9.581   5.114  1.00  0.00     0.031 C 
ATOM     39  C   UNL     1       9.353   7.870   6.902  1.00  0.00     0.037 A 
BRANCH  26  40
ATOM     40  C   UNL     1       7.354   2.262   8.564  1.00  0.00     0.057 A 
ATOM     41  C   UNL     1       7.979   1.022   8.384  1.00  0.00     0.134 A 
ATOM     42  C   UNL     1       6.718   2.489   9.793  1.00  0.00     0.134 A 
ATOM     43  F   UNL     1       8.598   0.733   7.229  1.00  0.00    -0.206 F 
ATOM     44  C   UNL     1       7.952   0.038   9.376  1.00  0.00     0.040 A 
ATOM     45  C   UNL     1       6.707   1.525  10.802  1.00  0.00     0.040 A 
ATOM     46  F   UNL     1       6.107   3.658  10.037  1.00  0.00    -0.206 F 
ATOM     47  C   UNL     1       7.320   0.291  10.592  1.00  0.00     0.006 A 
ENDBRANCH  26  40
BRANCH  27  48
ATOM     48  C   UNL     1       7.058   9.305   1.492  1.00  0.00     0.057 A 
ATOM     49  C   UNL     1       8.202   9.624   0.751  1.00  0.00     0.134 A 
ATOM     50  C   UNL     1       5.883  10.007   1.201  1.00  0.00     0.134 A 
ATOM     51  F   UNL     1       9.361   8.995   0.993  1.00  0.00    -0.206 F 
ATOM     52  C   UNL     1       8.183  10.618  -0.228  1.00  0.00     0.040 A 
ATOM     53  C   UNL     1       5.842  10.983   0.204  1.00  0.00     0.040 A 
ATOM     54  F   UNL     1       4.751   9.740   1.869  1.00  0.00    -0.206 F 
ATOM     55  C   UNL     1       6.998  11.296  -0.507  1.00  0.00     0.006 A 
ENDBRANCH  27  48
BRANCH  39  56
ATOM     56  C   UNL     1      10.293   8.789   7.627  1.00  0.00     0.057 A 
ATOM     57  C   UNL     1       9.862   9.985   8.214  1.00  0.00     0.134 A 
ATOM     58  C   UNL     1      11.650   8.461   7.748  1.00  0.00     0.134 A 
ATOM     59  F   UNL     1       8.579  10.365   8.121  1.00  0.00    -0.206 F 
ATOM     60  C   UNL     1      10.753  10.839   8.867  1.00  0.00     0.040 A 
ATOM     61  C   UNL     1      12.544   9.292   8.424  1.00  0.00     0.040 A 
ATOM     62  F   UNL     1      12.127   7.326   7.216  1.00  0.00    -0.206 F 
ATOM     63  C   UNL     1      12.098  10.490   8.978  1.00  0.00     0.006 A 
ENDBRANCH  39  56
ENDBRANCH  13  14
ENDBRANCH   6   8
ENDBRANCH   3   4
ENDBRANCH   2   3
ENDBRANCH   1   2
BRANCH   1  64
ATOM     64  C   UNL     1       4.995  -3.679  -2.167  1.00  0.00     0.002 C 
BRANCH  64  65
ATOM     65  C   UNL     1       6.512  -3.506  -1.982  1.00  0.00     0.021 C 
BRANCH  65  66
ATOM     66  C   UNL     1       7.181  -4.582  -1.109  1.00  0.00     0.116 C 
BRANCH  66  67
ATOM     67  N   UNL     1       6.898  -5.910  -1.619  1.00  0.00    -0.354 N 
ATOM     68  C   UNL     1       7.405  -6.275  -2.841  1.00  0.00     0.244 C 
ATOM     69  H   UNL     1       6.351  -6.541  -1.096  1.00  0.00     0.163 HD
ATOM     70  O   UNL     1       6.636  -6.285  -3.795  1.00  0.00    -0.273 OA
BRANCH  68  71
ATOM     71  C   UNL     1       8.915  -6.484  -2.951  1.00  0.00     0.193 C 
ATOM     72  C   UNL     1       9.400  -5.236  -3.726  1.00  0.00     0.155 C 
ATOM     73  N   UNL     1       9.597  -7.704  -3.516  1.00  0.00    -0.327 N 
ATOM     74  N   UNL     1      10.847  -5.136  -3.696  1.00  0.00    -0.336 N 
ATOM     75  C   UNL     1      11.079  -7.565  -3.439  1.00  0.00     0.142 C 
ATOM     76  C   UNL     1      11.609  -6.289  -4.143  1.00  0.00     0.141 C 
BRANCH  73  77
ATOM     77  C   UNL     1       9.123  -8.819  -4.186  1.00  0.00     0.226 C 
ATOM     78  O   UNL     1       9.928  -9.565  -4.767  1.00  0.00    -0.275 OA
BRANCH  77  79
ATOM     79  C   UNL     1       7.659  -9.259  -4.263  1.00  0.00     0.083 C 
ATOM     80  C   UNL     1       6.881  -8.536  -5.362  1.00  0.00     0.042 C 
ATOM     81  C   UNL     1       6.973  -9.445  -2.912  1.00  0.00     0.042 C 
ATOM     82  C   UNL     1       5.363  -8.563  -5.183  1.00  0.00     0.161 C 
ATOM     83  C   UNL     1       5.471  -9.602  -3.065  1.00  0.00     0.161 C 
ATOM     84  O   UNL     1       4.939  -8.526  -3.822  1.00  0.00    -0.381 OA
ENDBRANCH  77  79
ENDBRANCH  73  77
BRANCH  74  85
ATOM     85  C   UNL     1      11.437  -4.098  -3.035  1.00  0.00     0.225 A 
ATOM     86  N   UNL     1      12.434  -3.446  -3.650  1.00  0.00    -0.221 NA
ATOM     87  N   UNL     1      10.927  -3.717  -1.849  1.00  0.00    -0.221 NA
ATOM     88  C   UNL     1      12.890  -2.323  -3.064  1.00  0.00     0.117 A 
ATOM     89  C   UNL     1      11.467  -2.628  -1.267  1.00  0.00     0.117 A 
ATOM     90  C   UNL     1      12.445  -1.864  -1.851  1.00  0.00     0.040 A 
ENDBRANCH  74  85
ENDBRANCH  68  71
ENDBRANCH  66  67
ENDBRANCH  65  66
ENDBRANCH  64  65
ENDBRANCH   1  64
TORSDOF 16
