REMARK SMILES C#CCN(CC(=O)NCCCCCCNC(=O)c1ccc(-c2c3nc(c(-c4c(F)cccc4F)c4ccc([nH]4)c(-c4c(F)cccc4F)c4nc(c(-c5c(F)cccc5F)c5ccc2[nH]5)C=C4)C=C3)cc1)C(=O)[C@H](c1ccc(Cl)cc1)C(C)C
REMARK SMILES IDX 10 1 9 2 8 3 6 4 7 5 5 7 4 8 3 9 2 10 1 11 72 12 73 13 74 14
REMARK SMILES IDX 82 15 83 16 84 17 75 18 76 19 81 20 77 21 80 22 78 23 79 24
REMARK SMILES IDX 11 25 12 26 13 27 14 28 15 29 16 30 17 32 18 33 19 34 71 35
REMARK SMILES IDX 20 36 70 37 21 38 22 39 23 40 64 41 24 42 69 43 63 44 65 45
REMARK SMILES IDX 25 46 68 47 62 48 61 49 26 51 52 52 35 53 51 54 36 55 39 56
REMARK SMILES IDX 50 57 66 58 37 59 38 60 49 62 67 63 40 64 27 65 28 66 33 67
REMARK SMILES IDX 29 68 30 69 32 70 34 71 31 72 53 73 54 74 59 75 55 76 56 77
REMARK SMILES IDX 58 78 60 79 57 80 41 81 42 82 47 83 43 84 44 85 46 86 48 87
REMARK SMILES IDX 45 88
REMARK H PARENT 8 6 15 31 65 50 39 61
REMARK Flexibility Score: inf
ROOT
ATOM      1  C   UNL     1       1.606   3.504  -1.354  1.00  0.00     0.021 C 
ENDROOT
BRANCH   1   2
ATOM      2  C   UNL     1       0.761   2.955  -2.519  1.00  0.00     0.116 C 
BRANCH   2   3
ATOM      3  N   UNL     1       0.004   1.782  -2.158  1.00  0.00    -0.355 N 
ATOM      4  C   UNL     1      -0.826   1.840  -1.080  1.00  0.00     0.239 C 
ATOM      5  O   UNL     1      -0.355   1.387  -0.044  1.00  0.00    -0.273 OA
ATOM      6  H   UNL     1       0.086   0.952  -2.681  1.00  0.00     0.163 HD
BRANCH   4   7
ATOM      7  C   UNL     1      -2.159   2.595  -1.181  1.00  0.00     0.220 C 
BRANCH   7   8
ATOM      8  N   UNL     1      -2.120   3.878  -0.500  1.00  0.00    -0.322 N 
BRANCH   8   9
ATOM      9  C   UNL     1      -1.709   5.021  -1.355  1.00  0.00     0.209 C 
BRANCH   9  10
ATOM     10  C   UNL     1      -2.626   6.217  -1.157  1.00  0.00    -0.085 C 
ATOM     11  C   UNL     1      -3.413   7.243  -0.987  1.00  0.00     0.006 C 
ENDBRANCH   9  10
ENDBRANCH   8   9
BRANCH   8  12
ATOM     12  C   UNL     1      -2.065   3.994   0.897  1.00  0.00     0.231 C 
ATOM     13  O   UNL     1      -1.506   4.992   1.382  1.00  0.00    -0.274 OA
BRANCH  12  14
ATOM     14  C   UNL     1      -2.781   3.011   1.919  1.00  0.00     0.111 C 
BRANCH  14  15
ATOM     15  C   UNL     1      -4.327   3.196   1.988  1.00  0.00    -0.000 C 
ATOM     16  C   UNL     1      -4.974   2.326   3.087  1.00  0.00     0.008 C 
ATOM     17  C   UNL     1      -4.689   4.655   2.308  1.00  0.00     0.008 C 
ENDBRANCH  14  15
BRANCH  14  18
ATOM     18  C   UNL     1      -2.298   1.557   1.952  1.00  0.00    -0.035 A 
ATOM     19  C   UNL     1      -2.919   0.523   1.226  1.00  0.00     0.006 A 
ATOM     20  C   UNL     1      -1.153   1.232   2.707  1.00  0.00     0.006 A 
ATOM     21  C   UNL     1      -2.318  -0.735   1.107  1.00  0.00     0.021 A 
ATOM     22  C   UNL     1      -0.569  -0.038   2.618  1.00  0.00     0.021 A 
ATOM     23  C   UNL     1      -1.125  -0.997   1.776  1.00  0.00     0.041 A 
ATOM     24  Cl  UNL     1      -0.307  -2.487   1.508  1.00  0.00    -0.084 Cl
ENDBRANCH  14  18
ENDBRANCH  12  14
ENDBRANCH   8  12
ENDBRANCH   7   8
ENDBRANCH   4   7
ENDBRANCH   2   3
ENDBRANCH   1   2
BRANCH   1  25
ATOM     25  C   UNL     1       2.615   2.521  -0.738  1.00  0.00     0.002 C 
BRANCH  25  26
ATOM     26  C   UNL     1       3.516   1.805  -1.743  1.00  0.00     0.002 C 
BRANCH  26  27
ATOM     27  C   UNL     1       4.202   2.736  -2.739  1.00  0.00     0.021 C 
BRANCH  27  28
ATOM     28  C   UNL     1       5.050   3.813  -2.083  1.00  0.00     0.116 C 
BRANCH  28  29
ATOM     29  N   UNL     1       6.245   3.250  -1.482  1.00  0.00    -0.352 N 
ATOM     30  C   UNL     1       7.555   3.492  -1.815  1.00  0.00     0.251 C 
ATOM     31  H   UNL     1       6.098   2.615  -0.745  1.00  0.00     0.163 HD
ATOM     32  O   UNL     1       8.449   2.757  -1.419  1.00  0.00    -0.269 OA
BRANCH  30  33
ATOM     33  C   UNL     1       7.866   4.648  -2.681  1.00  0.00     0.039 A 
ATOM     34  C   UNL     1       8.730   4.471  -3.762  1.00  0.00     0.014 A 
ATOM     35  C   UNL     1       7.274   5.893  -2.441  1.00  0.00     0.014 A 
ATOM     36  C   UNL     1       8.957   5.532  -4.638  1.00  0.00     0.010 A 
ATOM     37  C   UNL     1       7.433   6.921  -3.363  1.00  0.00     0.010 A 
ATOM     38  C   UNL     1       8.281   6.753  -4.467  1.00  0.00    -0.014 A 
BRANCH  38  39
ATOM     39  C   UNL     1       8.444   7.859  -5.441  1.00  0.00     0.031 A 
ATOM     40  C   UNL     1       9.050   9.165  -5.011  1.00  0.00     0.074 A 
ATOM     41  C   UNL     1       7.995   7.703  -6.701  1.00  0.00     0.049 A 
ATOM     42  N   UNL     1       9.242  10.256  -5.709  1.00  0.00    -0.248 NA
ATOM     43  C   UNL     1       9.470   9.270  -3.605  1.00  0.00     0.031 C 
ATOM     44  C   UNL     1       7.344   6.500  -7.224  1.00  0.00     0.029 A 
ATOM     45  N   UNL     1       8.012   8.563  -7.770  1.00  0.00    -0.354 N 
ATOM     46  C   UNL     1       9.798  11.174  -4.827  1.00  0.00     0.074 A 
ATOM     47  C   UNL     1       9.854  10.535  -3.531  1.00  0.00     0.031 C 
ATOM     48  C   UNL     1       7.055   6.686  -8.521  1.00  0.00     0.029 A 
ATOM     49  C   UNL     1       7.458   8.034  -8.910  1.00  0.00     0.049 A 
ATOM     50  H   UNL     1       8.386   9.472  -7.725  1.00  0.00     0.167 HD
ATOM     51  C   UNL     1      10.245  12.427  -5.081  1.00  0.00     0.037 A 
ATOM     52  C   UNL     1       7.287   8.576 -10.130  1.00  0.00     0.037 A 
ATOM     53  C   UNL     1      10.193  13.055  -6.376  1.00  0.00     0.049 A 
ATOM     54  C   UNL     1       7.763   9.980 -10.380  1.00  0.00     0.074 A 
ATOM     55  C   UNL     1      10.675  14.296  -6.752  1.00  0.00     0.029 A 
ATOM     56  N   UNL     1       9.614  12.492  -7.504  1.00  0.00    -0.354 N 
ATOM     57  N   UNL     1       8.360  10.809  -9.559  1.00  0.00    -0.248 NA
ATOM     58  C   UNL     1       7.540  10.523 -11.727  1.00  0.00     0.031 C 
ATOM     59  C   UNL     1      10.333  14.509  -8.092  1.00  0.00     0.029 A 
ATOM     60  C   UNL     1       9.692  13.377  -8.568  1.00  0.00     0.049 A 
ATOM     61  H   UNL     1       9.208  11.596  -7.543  1.00  0.00     0.167 HD
ATOM     62  C   UNL     1       8.604  11.963 -10.292  1.00  0.00     0.074 A 
ATOM     63  C   UNL     1       8.108  11.717 -11.631  1.00  0.00     0.031 C 
ATOM     64  C   UNL     1       9.184  13.122  -9.893  1.00  0.00     0.037 A 
BRANCH  51  65
ATOM     65  C   UNL     1      10.819  13.202  -3.929  1.00  0.00     0.057 A 
ATOM     66  C   UNL     1      12.029  12.841  -3.321  1.00  0.00     0.134 A 
ATOM     67  C   UNL     1      10.162  14.335  -3.431  1.00  0.00     0.134 A 
ATOM     68  F   UNL     1      12.705  11.760  -3.740  1.00  0.00    -0.206 F 
ATOM     69  C   UNL     1      12.547  13.556  -2.240  1.00  0.00     0.040 A 
ATOM     70  C   UNL     1      10.687  15.078  -2.371  1.00  0.00     0.040 A 
ATOM     71  F   UNL     1       9.003  14.743  -3.969  1.00  0.00    -0.206 F 
ATOM     72  C   UNL     1      11.878  14.683  -1.766  1.00  0.00     0.006 A 
ENDBRANCH  51  65
BRANCH  52  73
ATOM     73  C   UNL     1       6.654   7.780 -11.212  1.00  0.00     0.057 A 
ATOM     74  C   UNL     1       7.398   7.338 -12.312  1.00  0.00     0.134 A 
ATOM     75  C   UNL     1       5.298   7.436 -11.171  1.00  0.00     0.134 A 
ATOM     76  F   UNL     1       8.698   7.651 -12.417  1.00  0.00    -0.206 F 
ATOM     77  C   UNL     1       6.814   6.596 -13.340  1.00  0.00     0.040 A 
ATOM     78  C   UNL     1       4.706   6.672 -12.178  1.00  0.00     0.040 A 
ATOM     79  F   UNL     1       4.532   7.822 -10.140  1.00  0.00    -0.206 F 
ATOM     80  C   UNL     1       5.465   6.255 -13.270  1.00  0.00     0.006 A 
ENDBRANCH  52  73
BRANCH  64  81
ATOM     81  C   UNL     1       9.326  14.207 -10.922  1.00  0.00     0.057 A 
ATOM     82  C   UNL     1       8.219  14.918 -11.403  1.00  0.00     0.134 A 
ATOM     83  C   UNL     1      10.588  14.567 -11.412  1.00  0.00     0.134 A 
ATOM     84  F   UNL     1       6.981  14.613 -10.986  1.00  0.00    -0.206 F 
ATOM     85  C   UNL     1       8.360  15.932 -12.352  1.00  0.00     0.040 A 
ATOM     86  C   UNL     1      10.744  15.599 -12.338  1.00  0.00     0.040 A 
ATOM     87  F   UNL     1      11.691  13.933 -10.987  1.00  0.00    -0.206 F 
ATOM     88  C   UNL     1       9.627  16.280 -12.816  1.00  0.00     0.006 A 
ENDBRANCH  64  81
ENDBRANCH  38  39
ENDBRANCH  30  33
ENDBRANCH  28  29
ENDBRANCH  27  28
ENDBRANCH  26  27
ENDBRANCH  25  26
ENDBRANCH   1  25
TORSDOF 20
