REMARK SMILES O=C(NCCCCCCNC(=O)[C@@H]1[C@@H](C(=O)Nc2nc(-c3ccc(F)cc3)cs2)[C@H]2C=C[C@@H]1O2)c1ccc(-c2c3nc(c(-c4c(F)cccc4F)c4ccc([nH]4)c(-c4c(F)cccc4F)c4nc(c(-c5c(F)cccc5F)c5ccc2[nH]5)C=C4)C=C3)cc1
REMARK SMILES IDX 7 1 6 2 5 3 4 4 3 5 1 6 2 7 35 9 36 10 88 11 37 12 87 13
REMARK SMILES IDX 38 14 39 15 40 16 81 17 41 18 86 19 80 20 82 21 42 22 85 23
REMARK SMILES IDX 79 24 78 25 43 27 69 28 52 29 68 30 53 31 56 32 67 33 83 34
REMARK SMILES IDX 54 35 55 36 66 38 84 39 57 40 44 41 45 42 50 43 46 44 47 45
REMARK SMILES IDX 49 46 51 47 48 48 70 49 71 50 76 51 72 52 73 53 75 54 77 55
REMARK SMILES IDX 74 56 58 57 59 58 64 59 60 60 61 61 63 62 65 63 62 64 8 65
REMARK SMILES IDX 9 66 10 67 11 68 12 70 13 71 14 72 33 73 30 74 32 75 34 76
REMARK SMILES IDX 31 77 15 78 16 79 17 80 18 82 19 83 29 84 20 85 28 86 21 87
REMARK SMILES IDX 22 88 27 89 23 90 26 91 24 92 25 93
REMARK H PARENT 3 8 82 26 56 37 10 69 17 81
REMARK Flexibility Score: inf
ROOT
ATOM      1  C   UNL     1       4.802  -0.728   4.362  1.00  0.00     0.002 C 
ENDROOT
BRANCH   1   2
ATOM      2  C   UNL     1       4.189   0.592   3.885  1.00  0.00     0.002 C 
BRANCH   2   3
ATOM      3  C   UNL     1       4.633   1.046   2.495  1.00  0.00     0.021 C 
BRANCH   3   4
ATOM      4  C   UNL     1       4.395   0.024   1.393  1.00  0.00     0.116 C 
BRANCH   4   5
ATOM      5  N   UNL     1       2.981  -0.227   1.168  1.00  0.00    -0.352 N 
ATOM      6  O   UNL     1       1.038  -0.206   0.014  1.00  0.00    -0.269 OA
ATOM      7  C   UNL     1       2.263  -0.129   0.002  1.00  0.00     0.251 C 
ATOM      8  H   UNL     1       2.467  -0.506   1.961  1.00  0.00     0.163 HD
BRANCH   7   9
ATOM      9  C   UNL     1       2.978   0.091  -1.272  1.00  0.00     0.039 A 
ATOM     10  C   UNL     1       4.122  -0.650  -1.579  1.00  0.00     0.014 A 
ATOM     11  C   UNL     1       2.496   1.048  -2.169  1.00  0.00     0.014 A 
ATOM     12  C   UNL     1       4.857  -0.344  -2.716  1.00  0.00     0.010 A 
ATOM     13  C   UNL     1       3.188   1.292  -3.357  1.00  0.00     0.010 A 
ATOM     14  C   UNL     1       4.385   0.613  -3.630  1.00  0.00    -0.014 A 
BRANCH  14  15
ATOM     15  C   UNL     1       5.113   0.817  -4.906  1.00  0.00     0.031 A 
ATOM     16  C   UNL     1       5.767   2.126  -5.234  1.00  0.00     0.074 A 
ATOM     17  C   UNL     1       5.182  -0.213  -5.771  1.00  0.00     0.049 A 
ATOM     18  N   UNL     1       6.437   2.461  -6.309  1.00  0.00    -0.248 NA
ATOM     19  C   UNL     1       5.653   3.202  -4.238  1.00  0.00     0.031 C 
ATOM     20  C   UNL     1       4.571  -1.528  -5.560  1.00  0.00     0.029 A 
ATOM     21  N   UNL     1       5.802  -0.326  -6.988  1.00  0.00    -0.354 N 
ATOM     22  C   UNL     1       6.806   3.788  -6.129  1.00  0.00     0.074 A 
ATOM     23  C   UNL     1       6.269   4.205  -4.851  1.00  0.00     0.031 C 
ATOM     24  C   UNL     1       4.881  -2.327  -6.589  1.00  0.00     0.029 A 
ATOM     25  C   UNL     1       5.653  -1.564  -7.564  1.00  0.00     0.049 A 
ATOM     26  H   UNL     1       6.305   0.408  -7.409  1.00  0.00     0.167 HD
ATOM     27  C   UNL     1       7.532   4.577  -6.957  1.00  0.00     0.037 A 
ATOM     28  C   UNL     1       6.069  -2.033  -8.754  1.00  0.00     0.037 A 
ATOM     29  C   UNL     1       8.076   4.143  -8.219  1.00  0.00     0.049 A 
ATOM     30  C   UNL     1       6.847  -1.131  -9.662  1.00  0.00     0.074 A 
ATOM     31  C   UNL     1       8.872   4.854  -9.100  1.00  0.00     0.029 A 
ATOM     32  N   UNL     1       7.873   2.892  -8.784  1.00  0.00    -0.354 N 
ATOM     33  N   UNL     1       7.223   0.109  -9.462  1.00  0.00    -0.248 NA
ATOM     34  C   UNL     1       7.253  -1.683 -10.960  1.00  0.00     0.031 C 
ATOM     35  C   UNL     1       9.102   4.055 -10.224  1.00  0.00     0.029 A 
ATOM     36  C   UNL     1       8.500   2.824 -10.018  1.00  0.00     0.049 A 
ATOM     37  H   UNL     1       7.359   2.162  -8.370  1.00  0.00     0.167 HD
ATOM     38  C   UNL     1       7.918   0.484 -10.602  1.00  0.00     0.074 A 
ATOM     39  C   UNL     1       7.927  -0.667 -11.483  1.00  0.00     0.031 C 
ATOM     40  C   UNL     1       8.495   1.676 -10.890  1.00  0.00     0.037 A 
BRANCH  27  41
ATOM     41  C   UNL     1       7.774   6.000  -6.542  1.00  0.00     0.057 A 
ATOM     42  C   UNL     1       7.178   7.056  -7.244  1.00  0.00     0.134 A 
ATOM     43  C   UNL     1       8.655   6.331  -5.505  1.00  0.00     0.134 A 
ATOM     44  F   UNL     1       6.332   6.809  -8.255  1.00  0.00    -0.206 F 
ATOM     45  C   UNL     1       7.459   8.389  -6.939  1.00  0.00     0.040 A 
ATOM     46  C   UNL     1       8.925   7.661  -5.173  1.00  0.00     0.040 A 
ATOM     47  F   UNL     1       9.254   5.369  -4.786  1.00  0.00    -0.206 F 
ATOM     48  C   UNL     1       8.334   8.694  -5.898  1.00  0.00     0.006 A 
ENDBRANCH  27  41
BRANCH  28  49
ATOM     49  C   UNL     1       5.743  -3.430  -9.131  1.00  0.00     0.057 A 
ATOM     50  C   UNL     1       4.424  -3.822  -9.399  1.00  0.00     0.134 A 
ATOM     51  C   UNL     1       6.729  -4.421  -9.156  1.00  0.00     0.134 A 
ATOM     52  F   UNL     1       3.432  -2.919  -9.377  1.00  0.00    -0.206 F 
ATOM     53  C   UNL     1       4.093  -5.154  -9.645  1.00  0.00     0.040 A 
ATOM     54  C   UNL     1       6.416  -5.754  -9.427  1.00  0.00     0.040 A 
ATOM     55  F   UNL     1       8.011  -4.104  -8.920  1.00  0.00    -0.206 F 
ATOM     56  C   UNL     1       5.093  -6.125  -9.660  1.00  0.00     0.006 A 
ENDBRANCH  28  49
BRANCH  40  57
ATOM     57  C   UNL     1       9.195   1.804 -12.210  1.00  0.00     0.057 A 
ATOM     58  C   UNL     1      10.591   1.904 -12.271  1.00  0.00     0.134 A 
ATOM     59  C   UNL     1       8.485   1.909 -13.412  1.00  0.00     0.134 A 
ATOM     60  F   UNL     1      11.329   1.820 -11.153  1.00  0.00    -0.206 F 
ATOM     61  C   UNL     1      11.255   2.122 -13.478  1.00  0.00     0.040 A 
ATOM     62  C   UNL     1       9.139   2.101 -14.630  1.00  0.00     0.040 A 
ATOM     63  F   UNL     1       7.147   1.809 -13.422  1.00  0.00    -0.206 F 
ATOM     64  C   UNL     1      10.528   2.219 -14.663  1.00  0.00     0.006 A 
ENDBRANCH  40  57
ENDBRANCH  14  15
ENDBRANCH   7   9
ENDBRANCH   4   5
ENDBRANCH   3   4
ENDBRANCH   2   3
ENDBRANCH   1   2
BRANCH   1  65
ATOM     65  C   UNL     1       6.333  -0.800   4.301  1.00  0.00     0.021 C 
BRANCH  65  66
ATOM     66  C   UNL     1       7.047   0.316   5.059  1.00  0.00     0.116 C 
BRANCH  66  67
ATOM     67  N   UNL     1       6.757   0.245   6.478  1.00  0.00    -0.356 N 
ATOM     68  C   UNL     1       7.590   0.119   7.545  1.00  0.00     0.227 C 
ATOM     69  H   UNL     1       5.800   0.298   6.706  1.00  0.00     0.163 HD
ATOM     70  O   UNL     1       7.073  -0.030   8.651  1.00  0.00    -0.275 OA
BRANCH  68  71
ATOM     71  C   UNL     1       9.085   0.188   7.336  1.00  0.00     0.127 C 
ATOM     72  C   UNL     1       9.796  -1.173   7.660  1.00  0.00     0.127 C 
ATOM     73  C   UNL     1       9.701   1.138   8.375  1.00  0.00     0.155 C 
ATOM     74  C   UNL     1      10.753  -0.708   8.782  1.00  0.00     0.155 C 
ATOM     75  C   UNL     1      11.138   1.391   8.006  1.00  0.00     0.004 C 
ATOM     76  O   UNL     1       9.915   0.243   9.486  1.00  0.00    -0.365 OA
ATOM     77  C   UNL     1      11.789   0.248   8.260  1.00  0.00     0.004 C 
BRANCH  72  78
ATOM     78  C   UNL     1      10.473  -1.737   6.407  1.00  0.00     0.233 C 
ATOM     79  O   UNL     1      10.105  -1.395   5.276  1.00  0.00    -0.274 OA
ATOM     80  N   UNL     1      11.516  -2.610   6.477  1.00  0.00    -0.302 N 
ATOM     81  H   UNL     1      12.051  -2.741   5.661  1.00  0.00     0.172 HD
BRANCH  80  82
ATOM     82  C   UNL     1      11.878  -3.315   7.579  1.00  0.00     0.189 A 
ATOM     83  N   UNL     1      11.138  -3.607   8.612  1.00  0.00    -0.220 NA
ATOM     84  S   UNL     1      13.506  -3.812   7.632  1.00  0.00    -0.105 S 
ATOM     85  C   UNL     1      11.930  -4.182   9.584  1.00  0.00     0.084 A 
ATOM     86  C   UNL     1      13.267  -4.312   9.263  1.00  0.00     0.097 A 
BRANCH  85  87
ATOM     87  C   UNL     1      11.354  -4.598  10.844  1.00  0.00     0.001 A 
ATOM     88  C   UNL     1      10.525  -5.726  10.873  1.00  0.00     0.013 A 
ATOM     89  C   UNL     1      11.566  -3.853  12.011  1.00  0.00     0.013 A 
ATOM     90  C   UNL     1       9.925  -6.122  12.069  1.00  0.00     0.040 A 
ATOM     91  C   UNL     1      10.957  -4.247  13.204  1.00  0.00     0.040 A 
ATOM     92  C   UNL     1      10.147  -5.378  13.222  1.00  0.00     0.123 A 
ATOM     93  F   UNL     1       9.565  -5.754  14.368  1.00  0.00    -0.207 F 
ENDBRANCH  85  87
ENDBRANCH  80  82
ENDBRANCH  72  78
ENDBRANCH  68  71
ENDBRANCH  66  67
ENDBRANCH  65  66
ENDBRANCH   1  65
TORSDOF 16
