REMARK SMILES COc1cc(/C=C2/S/C(=[NH+]\C(C)=O)NC2=O)cc(Br)c1OCC(=O)NCCCCCCNC(=O)c1ccc(-c2c3nc(c(-c4c(F)cccc4F)c4ccc([nH]4)c(-c4c(F)cccc4F)c4nc(c(-c5c(F)cccc5F)c5ccc2[nH]5)C=C4)C=C3)cc1
REMARK SMILES IDX 28 1 27 2 26 3 25 4 23 5 24 6 22 8 21 9 20 10 3 11 4 12 5 13
REMARK SMILES IDX 18 14 17 15 19 16 2 17 1 18 6 19 7 20 8 21 15 22 9 23 14 24
REMARK SMILES IDX 16 25 10 26 11 28 12 30 13 31 29 32 30 33 31 34 32 35 33 36
REMARK SMILES IDX 34 38 35 39 36 40 88 41 37 42 87 43 38 44 39 45 40 46 81 47
REMARK SMILES IDX 41 48 86 49 80 50 82 51 42 52 85 53 79 54 78 55 43 57 69 58
REMARK SMILES IDX 52 59 68 60 53 61 56 62 67 63 83 64 54 65 55 66 66 68 84 69
REMARK SMILES IDX 57 70 44 71 45 72 50 73 46 74 47 75 49 76 51 77 48 78 70 79
REMARK SMILES IDX 71 80 76 81 72 82 73 83 75 84 77 85 74 86 58 87 59 88 64 89
REMARK SMILES IDX 60 90 61 91 63 92 65 93 62 94
REMARK H PARENT 25 7 14 27 10 29 32 37 82 56 56 67
REMARK Flexibility Score: inf
ROOT
ATOM      1  C   UNL     1      -2.535  -3.507   2.725  1.00  0.00     0.002 C 
ENDROOT
BRANCH   1   2
ATOM      2  C   UNL     1      -2.241  -2.117   2.145  1.00  0.00     0.021 C 
BRANCH   2   3
ATOM      3  C   UNL     1      -3.189  -1.012   2.605  1.00  0.00     0.116 C 
BRANCH   3   4
ATOM      4  N   UNL     1      -3.176  -0.863   4.044  1.00  0.00    -0.353 N 
ATOM      5  C   UNL     1      -2.897   0.245   4.786  1.00  0.00     0.257 C 
ATOM      6  O   UNL     1      -3.014   0.164   6.010  1.00  0.00    -0.271 OA
ATOM      7  H   UNL     1      -3.399  -1.673   4.557  1.00  0.00     0.163 HD
BRANCH   5   8
ATOM      8  C   UNL     1      -2.545   1.567   4.085  1.00  0.00     0.329 C 
BRANCH   8   9
ATOM      9  O   UNL     1      -1.411   1.701   3.253  1.00  0.00    -0.479 OA
BRANCH   9  10
ATOM     10  C   UNL     1      -0.184   1.226   3.637  1.00  0.00     0.176 A 
ATOM     11  C   UNL     1       0.598   0.724   2.564  1.00  0.00     0.162 A 
ATOM     12  C   UNL     1       1.891   0.233   2.789  1.00  0.00     0.058 A 
ATOM     13  C   UNL     1       2.421   0.212   4.077  1.00  0.00    -0.019 A 
ATOM     14  C   UNL     1       0.390   1.272   4.915  1.00  0.00     0.064 A 
ATOM     15  C   UNL     1       1.673   0.742   5.130  1.00  0.00     0.028 A 
ATOM     16  Br  UNL     1      -0.351   2.158   6.424  1.00  0.00    -0.047 Br
BRANCH  11  17
ATOM     17  O   UNL     1       0.018   0.779   1.314  1.00  0.00    -0.493 OA
ATOM     18  C   UNL     1       0.664   0.076   0.260  1.00  0.00     0.278 C 
ENDBRANCH  11  17
BRANCH  13  19
ATOM     19  C   UNL     1       3.763  -0.333   4.309  1.00  0.00     0.032 C 
ATOM     20  C   UNL     1       4.011  -1.474   4.966  1.00  0.00     0.110 C 
ATOM     21  S   UNL     1       5.604  -2.043   5.353  1.00  0.00     0.007 SA
ATOM     22  C   UNL     1       3.010  -2.407   5.556  1.00  0.00     0.346 C 
ATOM     23  C   UNL     1       5.003  -3.176   6.526  1.00  0.00     0.324 C 
ATOM     24  N   UNL     1       3.650  -3.246   6.423  1.00  0.00    -0.199 N 
ATOM     25  O   UNL     1       1.819  -2.443   5.313  1.00  0.00    -0.240 OA
ATOM     26  N   UNL     1       5.565  -3.914   7.407  1.00  0.00    -0.204 N 
ATOM     27  H   UNL     1       3.140  -3.891   6.965  1.00  0.00     0.316 HD
ATOM     28  C   UNL     1       6.896  -4.083   7.675  1.00  0.00     0.304 C 
ATOM     29  H   UNL     1       4.952  -4.435   7.973  1.00  0.00     0.316 HD
ATOM     30  C   UNL     1       7.922  -3.004   7.461  1.00  0.00     0.144 C 
ATOM     31  O   UNL     1       7.282  -5.136   8.187  1.00  0.00    -0.247 OA
ENDBRANCH  13  19
ENDBRANCH   9  10
ENDBRANCH   8   9
ENDBRANCH   5   8
ENDBRANCH   3   4
ENDBRANCH   2   3
ENDBRANCH   1   2
BRANCH   1  32
ATOM     32  C   UNL     1      -3.961  -4.027   2.519  1.00  0.00     0.002 C 
BRANCH  32  33
ATOM     33  C   UNL     1      -4.443  -4.054   1.068  1.00  0.00     0.021 C 
BRANCH  33  34
ATOM     34  C   UNL     1      -3.574  -4.875   0.122  1.00  0.00     0.116 C 
BRANCH  34  35
ATOM     35  N   UNL     1      -3.572  -6.292   0.455  1.00  0.00    -0.352 N 
ATOM     36  C   UNL     1      -3.863  -7.371  -0.343  1.00  0.00     0.251 C 
ATOM     37  H   UNL     1      -3.328  -6.507   1.384  1.00  0.00     0.163 HD
ATOM     38  O   UNL     1      -3.980  -8.492   0.143  1.00  0.00    -0.269 OA
BRANCH  36  39
ATOM     39  C   UNL     1      -4.064  -7.173  -1.794  1.00  0.00     0.039 A 
ATOM     40  C   UNL     1      -5.173  -7.757  -2.411  1.00  0.00     0.014 A 
ATOM     41  C   UNL     1      -3.172  -6.395  -2.538  1.00  0.00     0.014 A 
ATOM     42  C   UNL     1      -5.432  -7.495  -3.758  1.00  0.00     0.010 A 
ATOM     43  C   UNL     1      -3.472  -6.075  -3.858  1.00  0.00     0.010 A 
ATOM     44  C   UNL     1      -4.608  -6.616  -4.480  1.00  0.00    -0.014 A 
BRANCH  44  45
ATOM     45  C   UNL     1      -4.926  -6.229  -5.878  1.00  0.00     0.031 A 
ATOM     46  C   UNL     1      -3.979  -6.576  -6.993  1.00  0.00     0.074 A 
ATOM     47  C   UNL     1      -6.027  -5.495  -6.133  1.00  0.00     0.049 A 
ATOM     48  N   UNL     1      -4.029  -6.237  -8.256  1.00  0.00    -0.248 NA
ATOM     49  C   UNL     1      -2.808  -7.393  -6.635  1.00  0.00     0.031 C 
ATOM     50  C   UNL     1      -7.007  -5.063  -5.133  1.00  0.00     0.029 A 
ATOM     51  N   UNL     1      -6.501  -4.968  -7.309  1.00  0.00    -0.354 N 
ATOM     52  C   UNL     1      -2.896  -6.789  -8.840  1.00  0.00     0.074 A 
ATOM     53  C   UNL     1      -2.150  -7.438  -7.784  1.00  0.00     0.031 C 
ATOM     54  C   UNL     1      -7.972  -4.356  -5.740  1.00  0.00     0.029 A 
ATOM     55  C   UNL     1      -7.657  -4.240  -7.160  1.00  0.00     0.049 A 
ATOM     56  H   UNL     1      -6.055  -5.100  -8.176  1.00  0.00     0.167 HD
ATOM     57  C   UNL     1      -2.523  -6.775 -10.142  1.00  0.00     0.037 A 
ATOM     58  C   UNL     1      -8.373  -3.542  -8.063  1.00  0.00     0.037 A 
ATOM     59  C   UNL     1      -3.276  -6.140 -11.192  1.00  0.00     0.049 A 
ATOM     60  C   UNL     1      -7.912  -3.504  -9.494  1.00  0.00     0.074 A 
ATOM     61  C   UNL     1      -3.009  -6.116 -12.550  1.00  0.00     0.029 A 
ATOM     62  N   UNL     1      -4.441  -5.412 -11.001  1.00  0.00    -0.354 N 
ATOM     63  N   UNL     1      -6.873  -4.085 -10.044  1.00  0.00    -0.248 NA
ATOM     64  C   UNL     1      -8.721  -2.711 -10.431  1.00  0.00     0.031 C 
ATOM     65  C   UNL     1      -3.980  -5.326 -13.172  1.00  0.00     0.029 A 
ATOM     66  C   UNL     1      -4.885  -4.906 -12.211  1.00  0.00     0.049 A 
ATOM     67  H   UNL     1      -4.886  -5.274 -10.133  1.00  0.00     0.167 HD
ATOM     68  C   UNL     1      -6.920  -3.752 -11.392  1.00  0.00     0.074 A 
ATOM     69  C   UNL     1      -8.098  -2.931 -11.580  1.00  0.00     0.031 C 
ATOM     70  C   UNL     1      -6.064  -4.096 -12.385  1.00  0.00     0.037 A 
BRANCH  57  71
ATOM     71  C   UNL     1      -1.242  -7.468 -10.505  1.00  0.00     0.057 A 
ATOM     72  C   UNL     1      -1.116  -8.863 -10.457  1.00  0.00     0.134 A 
ATOM     73  C   UNL     1      -0.133  -6.736 -10.950  1.00  0.00     0.134 A 
ATOM     74  F   UNL     1      -2.136  -9.623 -10.031  1.00  0.00    -0.206 F 
ATOM     75  C   UNL     1       0.073  -9.502 -10.812  1.00  0.00     0.040 A 
ATOM     76  C   UNL     1       1.051  -7.366 -11.336  1.00  0.00     0.040 A 
ATOM     77  F   UNL     1      -0.186  -5.398 -11.028  1.00  0.00    -0.206 F 
ATOM     78  C   UNL     1       1.159  -8.753 -11.261  1.00  0.00     0.006 A 
ENDBRANCH  57  71
BRANCH  58  79
ATOM     79  C   UNL     1      -9.604  -2.822  -7.645  1.00  0.00     0.057 A 
ATOM     80  C   UNL     1     -10.866  -3.232  -8.089  1.00  0.00     0.134 A 
ATOM     81  C   UNL     1      -9.550  -1.698  -6.811  1.00  0.00     0.134 A 
ATOM     82  F   UNL     1     -10.983  -4.290  -8.906  1.00  0.00    -0.206 F 
ATOM     83  C   UNL     1     -12.027  -2.540  -7.739  1.00  0.00     0.040 A 
ATOM     84  C   UNL     1     -10.704  -1.014  -6.429  1.00  0.00     0.040 A 
ATOM     85  F   UNL     1      -8.372  -1.256  -6.345  1.00  0.00    -0.206 F 
ATOM     86  C   UNL     1     -11.947  -1.429  -6.902  1.00  0.00     0.006 A 
ENDBRANCH  58  79
BRANCH  70  87
ATOM     87  C   UNL     1      -6.382  -3.614 -13.771  1.00  0.00     0.057 A 
ATOM     88  C   UNL     1      -6.236  -2.270 -14.139  1.00  0.00     0.134 A 
ATOM     89  C   UNL     1      -6.784  -4.516 -14.764  1.00  0.00     0.134 A 
ATOM     90  F   UNL     1      -5.867  -1.353 -13.232  1.00  0.00    -0.206 F 
ATOM     91  C   UNL     1      -6.493  -1.839 -15.441  1.00  0.00     0.040 A 
ATOM     92  C   UNL     1      -7.017  -4.102 -16.076  1.00  0.00     0.040 A 
ATOM     93  F   UNL     1      -6.936  -5.819 -14.481  1.00  0.00    -0.206 F 
ATOM     94  C   UNL     1      -6.875  -2.759 -16.416  1.00  0.00     0.006 A 
ENDBRANCH  70  87
ENDBRANCH  44  45
ENDBRANCH  36  39
ENDBRANCH  34  35
ENDBRANCH  33  34
ENDBRANCH  32  33
ENDBRANCH   1  32
TORSDOF 17
