REMARK SMILES Cc1c(C(=O)NCCCCCCNC(=O)c2ccc(-c3c4nc(c(-c5c(F)cccc5F)c5ccc([nH]5)c(-c5c(F)cccc5F)c5nc(c(-c6c(F)cccc6F)c6ccc3[nH]6)C=C5)C=C4)cc2)cccc1-n1c(C)cc(/C=C2/C(=O)NC(=S)N=C2O)c1C
REMARK SMILES IDX 9 1 8 2 7 3 6 4 4 5 5 6 3 8 1 9 2 10 73 11 70 12 72 13 71 14
REMARK SMILES IDX 74 15 75 16 89 17 76 18 77 19 78 20 90 21 79 22 80 23 81 24
REMARK SMILES IDX 87 25 82 26 83 27 86 28 84 29 85 31 88 32 10 34 11 35 12 36
REMARK SMILES IDX 13 37 14 38 15 40 16 41 17 42 69 43 18 44 68 45 19 46 20 47
REMARK SMILES IDX 21 48 62 49 22 50 67 51 61 52 63 53 23 54 66 55 60 56 59 57
REMARK SMILES IDX 24 59 50 60 33 61 49 62 34 63 37 64 48 65 64 66 35 67 36 68
REMARK SMILES IDX 47 70 65 71 38 72 25 73 26 74 31 75 27 76 28 77 30 78 32 79
REMARK SMILES IDX 29 80 51 81 52 82 57 83 53 84 54 85 56 86 58 87 55 88 39 89
REMARK SMILES IDX 40 90 45 91 41 92 42 93 44 94 46 95 43 96
REMARK H PARENT 6 7 83 30 88 33 13 39 63 58 37 69
REMARK Flexibility Score: inf
ROOT
ATOM      1  C   UNL     1       5.477  -3.220   0.962  1.00  0.00     0.002 C 
ENDROOT
BRANCH   1   2
ATOM      2  C   UNL     1       4.240  -2.314   0.938  1.00  0.00     0.021 C 
BRANCH   2   3
ATOM      3  C   UNL     1       3.260  -2.556  -0.225  1.00  0.00     0.116 C 
BRANCH   3   4
ATOM      4  N   UNL     1       1.978  -2.998   0.285  1.00  0.00    -0.352 N 
ATOM      5  C   UNL     1       0.720  -2.480   0.402  1.00  0.00     0.251 C 
ATOM      6  O   UNL     1      -0.113  -3.254   0.890  1.00  0.00    -0.269 OA
ATOM      7  H   UNL     1       2.026  -3.914   0.642  1.00  0.00     0.163 HD
BRANCH   5   8
ATOM      8  C   UNL     1       0.234  -1.129  -0.035  1.00  0.00     0.044 A 
ATOM      9  C   UNL     1       2.269   0.291   0.611  1.00  0.00     0.047 C 
ATOM     10  C   UNL     1       0.879   0.122   0.077  1.00  0.00    -0.014 A 
ATOM     11  C   UNL     1       0.143   1.281  -0.296  1.00  0.00     0.049 A 
ATOM     12  C   UNL     1      -1.125  -1.148  -0.447  1.00  0.00     0.014 A 
ATOM     13  C   UNL     1      -1.197   1.236  -0.695  1.00  0.00     0.027 A 
ATOM     14  C   UNL     1      -1.836   0.012  -0.761  1.00  0.00     0.003 A 
BRANCH  11  15
ATOM     15  N   UNL     1       0.704   2.572  -0.157  1.00  0.00    -0.318 N 
ATOM     16  C   UNL     1       1.396   3.250  -1.142  1.00  0.00     0.020 A 
ATOM     17  C   UNL     1       0.703   3.322   1.015  1.00  0.00     0.027 A 
ATOM     18  C   UNL     1       1.716   2.666  -2.473  1.00  0.00     0.065 C 
ATOM     19  C   UNL     1       1.718   4.491  -0.632  1.00  0.00     0.031 A 
ATOM     20  C   UNL     1       1.271   4.551   0.716  1.00  0.00    -0.003 A 
ATOM     21  C   UNL     1       0.186   2.741   2.292  1.00  0.00     0.065 C 
BRANCH  20  22
ATOM     22  C   UNL     1       1.570   5.650   1.579  1.00  0.00     0.029 C 
ATOM     23  C   UNL     1       0.913   6.196   2.619  1.00  0.00     0.102 C 
ATOM     24  C   UNL     1       1.657   7.233   3.381  1.00  0.00     0.262 C 
ATOM     25  C   UNL     1      -0.394   5.879   3.193  1.00  0.00     0.226 C 
ATOM     26  O   UNL     1       2.656   7.813   2.971  1.00  0.00    -0.269 OA
ATOM     27  N   UNL     1       1.158   7.462   4.635  1.00  0.00    -0.297 N 
ATOM     28  N   UNL     1      -0.815   6.189   4.365  1.00  0.00    -0.184 NA
ATOM     29  C   UNL     1       0.017   6.918   5.172  1.00  0.00     0.203 C 
ATOM     30  H   UNL     1       1.668   8.078   5.210  1.00  0.00     0.172 HD
ATOM     31  S   UNL     1      -0.312   7.242   6.783  1.00  0.00    -0.038 S 
BRANCH  25  32
ATOM     32  O   UNL     1      -1.264   5.267   2.387  1.00  0.00    -0.493 OA
ATOM     33  H   UNL     1      -1.007   5.020   1.521  1.00  0.00     0.295 HD
ENDBRANCH  25  32
ENDBRANCH  20  22
ENDBRANCH  11  15
ENDBRANCH   5   8
ENDBRANCH   3   4
ENDBRANCH   2   3
ENDBRANCH   1   2
BRANCH   1  34
ATOM     34  C   UNL     1       6.333  -3.232  -0.312  1.00  0.00     0.002 C 
BRANCH  34  35
ATOM     35  C   UNL     1       6.699  -1.857  -0.872  1.00  0.00     0.021 C 
BRANCH  35  36
ATOM     36  C   UNL     1       7.807  -1.155  -0.097  1.00  0.00     0.116 C 
BRANCH  36  37
ATOM     37  N   UNL     1       9.142  -1.493  -0.579  1.00  0.00    -0.352 N 
ATOM     38  C   UNL     1      10.389  -1.133  -0.087  1.00  0.00     0.251 C 
ATOM     39  H   UNL     1       9.162  -2.066  -1.379  1.00  0.00     0.163 HD
ATOM     40  O   UNL     1      11.399  -1.508  -0.639  1.00  0.00    -0.269 OA
BRANCH  38  41
ATOM     41  C   UNL     1      10.465  -0.419   1.212  1.00  0.00     0.039 A 
ATOM     42  C   UNL     1      11.324  -0.955   2.179  1.00  0.00     0.014 A 
ATOM     43  C   UNL     1       9.540   0.562   1.552  1.00  0.00     0.014 A 
ATOM     44  C   UNL     1      11.054  -0.727   3.523  1.00  0.00     0.010 A 
ATOM     45  C   UNL     1       9.211   0.718   2.883  1.00  0.00     0.010 A 
ATOM     46  C   UNL     1       9.913  -0.002   3.856  1.00  0.00    -0.014 A 
BRANCH  46  47
ATOM     47  C   UNL     1       9.293  -0.072   5.172  1.00  0.00     0.031 A 
ATOM     48  C   UNL     1       9.403   1.058   6.110  1.00  0.00     0.074 A 
ATOM     49  C   UNL     1       8.547  -1.156   5.482  1.00  0.00     0.049 A 
ATOM     50  N   UNL     1       9.210   0.974   7.382  1.00  0.00    -0.248 NA
ATOM     51  C   UNL     1       9.823   2.383   5.679  1.00  0.00     0.031 C 
ATOM     52  C   UNL     1       7.616  -1.306   6.595  1.00  0.00     0.029 A 
ATOM     53  N   UNL     1       8.658  -2.446   4.941  1.00  0.00    -0.354 N 
ATOM     54  C   UNL     1       9.194   2.254   7.892  1.00  0.00     0.074 A 
ATOM     55  C   UNL     1       9.688   3.074   6.813  1.00  0.00     0.031 C 
ATOM     56  C   UNL     1       7.449  -2.614   6.845  1.00  0.00     0.029 A 
ATOM     57  C   UNL     1       8.386  -3.336   6.002  1.00  0.00     0.049 A 
ATOM     58  H   UNL     1       8.880  -2.682   4.011  1.00  0.00     0.167 HD
ATOM     59  C   UNL     1       8.624   2.463   9.115  1.00  0.00     0.037 A 
ATOM     60  C   UNL     1       9.338  -4.198   6.464  1.00  0.00     0.037 A 
ATOM     61  C   UNL     1       8.333   1.184   9.774  1.00  0.00     0.049 A 
ATOM     62  C   UNL     1       9.697  -3.996   7.918  1.00  0.00     0.074 A 
ATOM     63  C   UNL     1       7.172   0.442   9.926  1.00  0.00     0.029 A 
ATOM     64  N   UNL     1       9.384   0.342  10.129  1.00  0.00    -0.354 N 
ATOM     65  N   UNL     1       9.428  -2.911   8.589  1.00  0.00    -0.248 NA
ATOM     66  C   UNL     1      10.409  -4.986   8.722  1.00  0.00     0.031 C 
ATOM     67  C   UNL     1       7.538  -0.877  10.299  1.00  0.00     0.029 A 
ATOM     68  C   UNL     1       8.918  -0.930  10.402  1.00  0.00     0.049 A 
ATOM     69  H   UNL     1      10.328   0.615  10.179  1.00  0.00     0.167 HD
ATOM     70  C   UNL     1       9.931  -3.020   9.859  1.00  0.00     0.074 A 
ATOM     71  C   UNL     1      10.515  -4.348   9.901  1.00  0.00     0.031 C 
ATOM     72  C   UNL     1       9.838  -2.000  10.762  1.00  0.00     0.037 A 
BRANCH  59  73
ATOM     73  C   UNL     1       8.045   3.793   9.584  1.00  0.00     0.057 A 
ATOM     74  C   UNL     1       7.053   3.827  10.588  1.00  0.00     0.134 A 
ATOM     75  C   UNL     1       8.330   5.059   9.040  1.00  0.00     0.134 A 
ATOM     76  F   UNL     1       6.729   2.738  11.297  1.00  0.00    -0.206 F 
ATOM     77  C   UNL     1       6.331   4.984  10.923  1.00  0.00     0.040 A 
ATOM     78  C   UNL     1       7.596   6.218   9.340  1.00  0.00     0.040 A 
ATOM     79  F   UNL     1       9.368   5.272   8.231  1.00  0.00    -0.206 F 
ATOM     80  C   UNL     1       6.577   6.181  10.273  1.00  0.00     0.006 A 
ENDBRANCH  59  73
BRANCH  60  81
ATOM     81  C   UNL     1      10.271  -4.669   5.409  1.00  0.00     0.057 A 
ATOM     82  C   UNL     1       9.766  -5.484   4.380  1.00  0.00     0.134 A 
ATOM     83  C   UNL     1      11.503  -4.049   5.183  1.00  0.00     0.134 A 
ATOM     84  F   UNL     1       8.587  -6.108   4.534  1.00  0.00    -0.206 F 
ATOM     85  C   UNL     1      10.400  -5.588   3.140  1.00  0.00     0.040 A 
ATOM     86  C   UNL     1      12.153  -4.154   3.946  1.00  0.00     0.040 A 
ATOM     87  F   UNL     1      12.039  -3.239   6.106  1.00  0.00    -0.206 F 
ATOM     88  C   UNL     1      11.582  -4.892   2.909  1.00  0.00     0.006 A 
ENDBRANCH  60  81
BRANCH  72  89
ATOM     89  C   UNL     1      10.539  -1.938  12.096  1.00  0.00     0.057 A 
ATOM     90  C   UNL     1      11.786  -2.524  12.360  1.00  0.00     0.134 A 
ATOM     91  C   UNL     1      10.025  -1.130  13.135  1.00  0.00     0.134 A 
ATOM     92  F   UNL     1      12.441  -3.229  11.427  1.00  0.00    -0.206 F 
ATOM     93  C   UNL     1      12.450  -2.360  13.584  1.00  0.00     0.040 A 
ATOM     94  C   UNL     1      10.702  -0.917  14.339  1.00  0.00     0.040 A 
ATOM     95  F   UNL     1       8.850  -0.493  13.014  1.00  0.00    -0.206 F 
ATOM     96  C   UNL     1      11.915  -1.544  14.573  1.00  0.00     0.006 A 
ENDBRANCH  72  89
ENDBRANCH  46  47
ENDBRANCH  38  41
ENDBRANCH  36  37
ENDBRANCH  35  36
ENDBRANCH  34  35
ENDBRANCH   1  34
TORSDOF 16
