REMARK SMILES Cc1cc(C)n2nc(SCC(=O)N3CCC(C(=O)NCCCCCCNC(=O)c4ccc(-c5c6nc(c(-c7c(F)cccc7F)c7ccc([nH]7)c(-c7c(F)cccc7F)c7nc(c(-c8c(F)cccc8F)c8ccc5[nH]8)C=C7)C=C6)cc4)CC3)nc2n1
REMARK SMILES IDX 22 1 21 2 20 3 19 4 17 5 18 6 16 8 11 9 12 10 13 11 14 12
REMARK SMILES IDX 84 13 15 14 83 15 10 16 9 17 8 18 1 19 2 20 3 21 87 22 4 23
REMARK SMILES IDX 86 24 5 25 6 26 85 27 7 28 23 29 24 30 25 31 26 32 27 33
REMARK SMILES IDX 28 35 29 36 30 37 82 38 31 39 81 40 32 41 33 42 34 43 75 44
REMARK SMILES IDX 35 45 80 46 74 47 76 48 36 49 79 50 73 51 72 52 37 54 63 55
REMARK SMILES IDX 46 56 62 57 47 58 50 59 61 60 77 61 48 62 49 63 60 65 78 66
REMARK SMILES IDX 51 67 38 68 39 69 44 70 40 71 41 72 43 73 45 74 42 75 64 76
REMARK SMILES IDX 65 77 70 78 66 79 67 80 69 81 71 82 68 83 52 84 53 85 58 86
REMARK SMILES IDX 54 87 55 88 57 89 59 90 56 91
REMARK H PARENT 19 7 26 34 76 53 50 64
REMARK Flexibility Score: inf
ROOT
ATOM      1  C   UNL     1      -5.821   3.441  -2.377  1.00  0.00     0.002 C 
ENDROOT
BRANCH   1   2
ATOM      2  C   UNL     1      -5.216   4.684  -1.715  1.00  0.00     0.021 C 
BRANCH   2   3
ATOM      3  C   UNL     1      -3.872   5.100  -2.308  1.00  0.00     0.116 C 
BRANCH   3   4
ATOM      4  N   UNL     1      -4.030   5.584  -3.668  1.00  0.00    -0.356 N 
ATOM      5  C   UNL     1      -3.776   6.805  -4.211  1.00  0.00     0.223 C 
ATOM      6  O   UNL     1      -4.061   6.982  -5.397  1.00  0.00    -0.275 OA
ATOM      7  H   UNL     1      -4.380   4.918  -4.303  1.00  0.00     0.163 HD
BRANCH   5   8
ATOM      8  C   UNL     1      -3.134   7.915  -3.395  1.00  0.00     0.082 C 
ATOM      9  C   UNL     1      -1.842   8.001   0.376  1.00  0.00     0.233 C 
ATOM     10  O   UNL     1      -2.820   7.525   0.965  1.00  0.00    -0.274 OA
ATOM     11  N   UNL     1      -2.004   8.628  -0.857  1.00  0.00    -0.342 N 
ATOM     12  C   UNL     1      -3.300   9.197  -1.198  1.00  0.00     0.120 C 
ATOM     13  C   UNL     1      -1.098   8.500  -1.989  1.00  0.00     0.120 C 
ATOM     14  C   UNL     1      -4.040   8.373  -2.240  1.00  0.00     0.035 C 
ATOM     15  C   UNL     1      -1.695   7.534  -3.006  1.00  0.00     0.035 C 
BRANCH   9  16
ATOM     16  C   UNL     1      -0.529   8.194   1.126  1.00  0.00     0.178 C 
BRANCH  16  17
ATOM     17  S   UNL     1       0.943   7.391   0.502  1.00  0.00    -0.074 SA
BRANCH  17  18
ATOM     18  C   UNL     1       0.560   5.700   0.517  1.00  0.00     0.211 A 
ATOM     19  C   UNL     1       1.060   0.009  -0.079  1.00  0.00     0.067 C 
ATOM     20  C   UNL     1       0.590   1.400   0.267  1.00  0.00     0.043 A 
ATOM     21  C   UNL     1      -0.657   1.515   1.091  1.00  0.00     0.047 A 
ATOM     22  N   UNL     1       1.279   2.405  -0.185  1.00  0.00    -0.216 NA
ATOM     23  C   UNL     1      -1.056   2.760   1.408  1.00  0.00     0.045 A 
ATOM     24  C   UNL     1       0.845   3.649   0.165  1.00  0.00     0.253 A 
ATOM     25  C   UNL     1      -2.271   3.044   2.233  1.00  0.00     0.067 C 
ATOM     26  N   UNL     1      -0.296   3.845   0.953  1.00  0.00    -0.200 N 
ATOM     27  N   UNL     1       1.373   4.815  -0.120  1.00  0.00    -0.183 NA
ATOM     28  N   UNL     1      -0.478   5.173   1.160  1.00  0.00    -0.138 NA
ENDBRANCH  17  18
ENDBRANCH  16  17
ENDBRANCH   9  16
ENDBRANCH   5   8
ENDBRANCH   3   4
ENDBRANCH   2   3
ENDBRANCH   1   2
BRANCH   1  29
ATOM     29  C   UNL     1      -4.889   2.220  -2.447  1.00  0.00     0.002 C 
BRANCH  29  30
ATOM     30  C   UNL     1      -4.248   1.788  -1.120  1.00  0.00     0.021 C 
BRANCH  30  31
ATOM     31  C   UNL     1      -5.266   1.312  -0.102  1.00  0.00     0.116 C 
BRANCH  31  32
ATOM     32  N   UNL     1      -5.913   0.061  -0.508  1.00  0.00    -0.352 N 
ATOM     33  C   UNL     1      -6.790  -0.719   0.217  1.00  0.00     0.251 C 
ATOM     34  H   UNL     1      -5.694  -0.263  -1.411  1.00  0.00     0.163 HD
ATOM     35  O   UNL     1      -6.984  -1.899  -0.069  1.00  0.00    -0.269 OA
BRANCH  33  36
ATOM     36  C   UNL     1      -7.522  -0.090   1.325  1.00  0.00     0.039 A 
ATOM     37  C   UNL     1      -7.806  -0.747   2.526  1.00  0.00     0.014 A 
ATOM     38  C   UNL     1      -7.907   1.231   1.125  1.00  0.00     0.014 A 
ATOM     39  C   UNL     1      -8.469  -0.038   3.526  1.00  0.00     0.010 A 
ATOM     40  C   UNL     1      -8.299   1.984   2.186  1.00  0.00     0.010 A 
ATOM     41  C   UNL     1      -8.718   1.327   3.330  1.00  0.00    -0.014 A 
BRANCH  41  42
ATOM     42  C   UNL     1      -9.342   2.182   4.323  1.00  0.00     0.031 A 
ATOM     43  C   UNL     1      -8.511   2.357   5.539  1.00  0.00     0.074 A 
ATOM     44  C   UNL     1     -10.406   2.954   3.998  1.00  0.00     0.049 A 
ATOM     45  N   UNL     1      -8.770   1.939   6.731  1.00  0.00    -0.248 NA
ATOM     46  C   UNL     1      -7.144   2.891   5.381  1.00  0.00     0.031 C 
ATOM     47  C   UNL     1     -11.089   3.077   2.700  1.00  0.00     0.029 A 
ATOM     48  N   UNL     1     -11.040   3.897   4.747  1.00  0.00    -0.354 N 
ATOM     49  C   UNL     1      -7.707   2.370   7.516  1.00  0.00     0.074 A 
ATOM     50  C   UNL     1      -6.650   2.730   6.610  1.00  0.00     0.031 C 
ATOM     51  C   UNL     1     -11.870   4.183   2.692  1.00  0.00     0.029 A 
ATOM     52  C   UNL     1     -11.870   4.759   4.021  1.00  0.00     0.049 A 
ATOM     53  H   UNL     1     -10.925   3.967   5.723  1.00  0.00     0.167 HD
ATOM     54  C   UNL     1      -7.881   2.662   8.834  1.00  0.00     0.037 A 
ATOM     55  C   UNL     1     -12.463   5.882   4.507  1.00  0.00     0.037 A 
ATOM     56  C   UNL     1      -9.144   2.159   9.311  1.00  0.00     0.049 A 
ATOM     57  C   UNL     1     -12.441   5.765   5.991  1.00  0.00     0.074 A 
ATOM     58  C   UNL     1      -9.698   0.898   9.413  1.00  0.00     0.029 A 
ATOM     59  N   UNL     1     -10.196   3.042   9.353  1.00  0.00    -0.354 N 
ATOM     60  N   UNL     1     -13.123   4.865   6.647  1.00  0.00    -0.248 NA
ATOM     61  C   UNL     1     -11.264   6.285   6.673  1.00  0.00     0.031 C 
ATOM     62  C   UNL     1     -11.056   1.062   9.015  1.00  0.00     0.029 A 
ATOM     63  C   UNL     1     -11.286   2.421   8.795  1.00  0.00     0.049 A 
ATOM     64  H   UNL     1     -10.173   3.955   9.719  1.00  0.00     0.167 HD
ATOM     65  C   UNL     1     -12.243   4.392   7.612  1.00  0.00     0.074 A 
ATOM     66  C   UNL     1     -11.124   5.335   7.603  1.00  0.00     0.031 C 
ATOM     67  C   UNL     1     -12.344   3.122   8.102  1.00  0.00     0.037 A 
BRANCH  54  68
ATOM     68  C   UNL     1      -7.101   3.709   9.579  1.00  0.00     0.057 A 
ATOM     69  C   UNL     1      -7.177   3.757  10.981  1.00  0.00     0.134 A 
ATOM     70  C   UNL     1      -6.490   4.824   8.970  1.00  0.00     0.134 A 
ATOM     71  F   UNL     1      -7.768   2.770  11.671  1.00  0.00    -0.206 F 
ATOM     72  C   UNL     1      -6.714   4.854  11.717  1.00  0.00     0.040 A 
ATOM     73  C   UNL     1      -5.975   5.899   9.698  1.00  0.00     0.040 A 
ATOM     74  F   UNL     1      -6.452   4.984   7.642  1.00  0.00    -0.206 F 
ATOM     75  C   UNL     1      -6.109   5.929  11.076  1.00  0.00     0.006 A 
ENDBRANCH  54  68
BRANCH  55  76
ATOM     76  C   UNL     1     -12.733   7.176   3.831  1.00  0.00     0.057 A 
ATOM     77  C   UNL     1     -13.609   8.125   4.383  1.00  0.00     0.134 A 
ATOM     78  C   UNL     1     -11.915   7.638   2.785  1.00  0.00     0.134 A 
ATOM     79  F   UNL     1     -14.402   7.798   5.414  1.00  0.00    -0.206 F 
ATOM     80  C   UNL     1     -13.651   9.456   3.940  1.00  0.00     0.040 A 
ATOM     81  C   UNL     1     -11.946   8.963   2.333  1.00  0.00     0.040 A 
ATOM     82  F   UNL     1     -10.991   6.840   2.231  1.00  0.00    -0.206 F 
ATOM     83  C   UNL     1     -12.806   9.883   2.920  1.00  0.00     0.006 A 
ENDBRANCH  55  76
BRANCH  67  84
ATOM     84  C   UNL     1     -13.547   2.298   7.717  1.00  0.00     0.057 A 
ATOM     85  C   UNL     1     -13.824   1.860   6.411  1.00  0.00     0.134 A 
ATOM     86  C   UNL     1     -14.337   1.762   8.738  1.00  0.00     0.134 A 
ATOM     87  F   UNL     1     -13.071   2.245   5.376  1.00  0.00    -0.206 F 
ATOM     88  C   UNL     1     -14.849   0.946   6.137  1.00  0.00     0.040 A 
ATOM     89  C   UNL     1     -15.341   0.825   8.483  1.00  0.00     0.040 A 
ATOM     90  F   UNL     1     -14.098   2.091  10.017  1.00  0.00    -0.206 F 
ATOM     91  C   UNL     1     -15.603   0.416   7.178  1.00  0.00     0.006 A 
ENDBRANCH  67  84
ENDBRANCH  41  42
ENDBRANCH  33  36
ENDBRANCH  31  32
ENDBRANCH  30  31
ENDBRANCH  29  30
ENDBRANCH   1  29
TORSDOF 16
