REMARK SMILES C[C@@H](CNC(=O)N(C)CC(C)(C)O)C(=O)NCCCCCCNC(=O)c1ccc(-c2c3nc(c(-c4c(F)cccc4F)c4ccc([nH]4)c(-c4c(F)cccc4F)c4nc(c(-c5c(F)cccc5F)c5ccc2[nH]5)C=C4)C=C3)cc1
REMARK SMILES IDX 17 1 16 2 14 3 15 4 2 6 1 7 3 8 4 9 5 10 6 12 7 13 8 14 9 15
REMARK SMILES IDX 10 16 11 17 12 18 13 19 18 21 19 22 20 23 21 24 22 25 23 26
REMARK SMILES IDX 24 27 25 29 26 30 27 31 79 32 28 33 78 34 29 35 30 36 31 37
REMARK SMILES IDX 72 38 32 39 77 40 71 41 73 42 33 43 76 44 70 45 69 46 34 48
REMARK SMILES IDX 60 49 43 50 59 51 44 52 47 53 58 54 74 55 45 56 46 57 57 59
REMARK SMILES IDX 75 60 48 61 35 62 36 63 41 64 37 65 38 66 40 67 42 68 39 69
REMARK SMILES IDX 61 70 62 71 67 72 63 73 64 74 66 75 68 76 65 77 49 78 50 79
REMARK SMILES IDX 55 80 51 81 52 82 54 83 56 84 53 85
REMARK H PARENT 16 5 4 11 13 20 23 28 73 47 47 58
REMARK Flexibility Score: inf
ROOT
ATOM      1  C   UNL     1      -1.166   1.807   0.439  1.00  0.00     0.116 C 
ENDROOT
BRANCH   1   2
ATOM      2  N   UNL     1      -1.524   0.474   0.877  1.00  0.00    -0.356 N 
ATOM      3  C   UNL     1      -0.759  -0.493   1.454  1.00  0.00     0.224 C 
ATOM      4  O   UNL     1      -1.351  -1.419   2.019  1.00  0.00    -0.275 OA
ATOM      5  H   UNL     1      -2.467   0.229   0.736  1.00  0.00     0.163 HD
BRANCH   3   6
ATOM      6  C   UNL     1       0.768  -0.496   1.402  1.00  0.00     0.094 C 
ATOM      7  C   UNL     1       1.331  -0.312  -0.010  1.00  0.00     0.020 C 
BRANCH   6   8
ATOM      8  C   UNL     1       1.487   0.334   2.482  1.00  0.00     0.130 C 
BRANCH   8   9
ATOM      9  N   UNL     1       1.043   1.707   2.616  1.00  0.00    -0.337 N 
ATOM     10  C   UNL     1       0.153   2.402   3.341  1.00  0.00     0.317 C 
ATOM     11  H   UNL     1       1.534   2.297   2.000  1.00  0.00     0.165 HD
ATOM     12  O   UNL     1      -0.070   3.528   2.879  1.00  0.00    -0.249 OA
BRANCH  10  13
ATOM     13  N   UNL     1      -0.478   1.948   4.456  1.00  0.00    -0.325 N 
ATOM     14  C   UNL     1      -0.338   0.648   5.095  1.00  0.00     0.148 C 
BRANCH  13  15
ATOM     15  C   UNL     1      -1.382   2.886   5.162  1.00  0.00     0.155 C 
BRANCH  15  16
ATOM     16  C   UNL     1      -0.739   4.092   5.919  1.00  0.00     0.077 C 
ATOM     17  C   UNL     1      -0.344   5.261   5.008  1.00  0.00     0.043 C 
ATOM     18  C   UNL     1      -1.753   4.623   6.947  1.00  0.00     0.043 C 
BRANCH  16  19
ATOM     19  O   UNL     1       0.405   3.651   6.662  1.00  0.00    -0.389 OA
ATOM     20  H   UNL     1       1.074   3.306   6.050  1.00  0.00     0.211 HD
ENDBRANCH  16  19
ENDBRANCH  15  16
ENDBRANCH  13  15
ENDBRANCH  10  13
ENDBRANCH   8   9
ENDBRANCH   6   8
ENDBRANCH   3   6
ENDBRANCH   1   2
BRANCH   1  21
ATOM     21  C   UNL     1      -1.841   2.236  -0.857  1.00  0.00     0.021 C 
BRANCH  21  22
ATOM     22  C   UNL     1      -3.315   2.623  -0.697  1.00  0.00     0.002 C 
BRANCH  22  23
ATOM     23  C   UNL     1      -3.617   3.688   0.366  1.00  0.00     0.002 C 
BRANCH  23  24
ATOM     24  C   UNL     1      -2.800   4.980   0.269  1.00  0.00     0.021 C 
BRANCH  24  25
ATOM     25  C   UNL     1      -2.896   5.702  -1.070  1.00  0.00     0.116 C 
BRANCH  25  26
ATOM     26  N   UNL     1      -4.263   6.069  -1.405  1.00  0.00    -0.352 N 
ATOM     27  C   UNL     1      -4.772   7.281  -1.799  1.00  0.00     0.251 C 
ATOM     28  H   UNL     1      -4.921   5.340  -1.339  1.00  0.00     0.163 HD
ATOM     29  O   UNL     1      -5.983   7.448  -1.869  1.00  0.00    -0.269 OA
BRANCH  27  30
ATOM     30  C   UNL     1      -3.854   8.394  -2.122  1.00  0.00     0.039 A 
ATOM     31  C   UNL     1      -4.153   9.673  -1.645  1.00  0.00     0.014 A 
ATOM     32  C   UNL     1      -2.714   8.184  -2.902  1.00  0.00     0.014 A 
ATOM     33  C   UNL     1      -3.278  10.730  -1.904  1.00  0.00     0.010 A 
ATOM     34  C   UNL     1      -1.806   9.220  -3.094  1.00  0.00     0.010 A 
ATOM     35  C   UNL     1      -2.081  10.505  -2.603  1.00  0.00    -0.014 A 
BRANCH  35  36
ATOM     36  C   UNL     1      -1.109  11.602  -2.837  1.00  0.00     0.031 A 
ATOM     37  C   UNL     1      -0.797  12.047  -4.239  1.00  0.00     0.074 A 
ATOM     38  C   UNL     1      -0.464  12.156  -1.792  1.00  0.00     0.049 A 
ATOM     39  N   UNL     1       0.073  12.935  -4.651  1.00  0.00    -0.248 NA
ATOM     40  C   UNL     1      -1.541  11.389  -5.325  1.00  0.00     0.031 C 
ATOM     41  C   UNL     1      -0.650  11.783  -0.388  1.00  0.00     0.029 A 
ATOM     42  N   UNL     1       0.487  13.145  -1.749  1.00  0.00    -0.354 N 
ATOM     43  C   UNL     1      -0.012  12.931  -6.038  1.00  0.00     0.074 A 
ATOM     44  C   UNL     1      -0.974  11.914  -6.400  1.00  0.00     0.031 C 
ATOM     45  C   UNL     1       0.145  12.547   0.378  1.00  0.00     0.029 A 
ATOM     46  C   UNL     1       0.926  13.432  -0.479  1.00  0.00     0.049 A 
ATOM     47  H   UNL     1       0.823  13.604  -2.553  1.00  0.00     0.167 HD
ATOM     48  C   UNL     1       0.637  13.720  -6.927  1.00  0.00     0.037 A 
ATOM     49  C   UNL     1       1.863  14.302  -0.056  1.00  0.00     0.037 A 
ATOM     50  C   UNL     1       1.581  14.743  -6.560  1.00  0.00     0.049 A 
ATOM     51  C   UNL     1       2.586  15.150  -1.067  1.00  0.00     0.074 A 
ATOM     52  C   UNL     1       2.252  15.631  -7.383  1.00  0.00     0.029 A 
ATOM     53  N   UNL     1       1.991  15.012  -5.263  1.00  0.00    -0.354 N 
ATOM     54  N   UNL     1       2.448  15.183  -2.370  1.00  0.00    -0.248 NA
ATOM     55  C   UNL     1       3.590  16.088  -0.546  1.00  0.00     0.031 C 
ATOM     56  C   UNL     1       3.108  16.400  -6.589  1.00  0.00     0.029 A 
ATOM     57  C   UNL     1       2.925  16.035  -5.266  1.00  0.00     0.049 A 
ATOM     58  H   UNL     1       1.666  14.545  -4.459  1.00  0.00     0.167 HD
ATOM     59  C   UNL     1       3.320  16.166  -2.821  1.00  0.00     0.074 A 
ATOM     60  C   UNL     1       3.973  16.713  -1.651  1.00  0.00     0.031 C 
ATOM     61  C   UNL     1       3.558  16.578  -4.090  1.00  0.00     0.037 A 
BRANCH  48  62
ATOM     62  C   UNL     1       0.348  13.507  -8.386  1.00  0.00     0.057 A 
ATOM     63  C   UNL     1      -0.892  13.835  -8.951  1.00  0.00     0.134 A 
ATOM     64  C   UNL     1       1.334  13.004  -9.244  1.00  0.00     0.134 A 
ATOM     65  F   UNL     1      -1.885  14.311  -8.184  1.00  0.00    -0.206 F 
ATOM     66  C   UNL     1      -1.149  13.645 -10.310  1.00  0.00     0.040 A 
ATOM     67  C   UNL     1       1.099  12.839 -10.611  1.00  0.00     0.040 A 
ATOM     68  F   UNL     1       2.546  12.676  -8.773  1.00  0.00    -0.206 F 
ATOM     69  C   UNL     1      -0.148  13.153 -11.146  1.00  0.00     0.006 A 
ENDBRANCH  48  62
BRANCH  49  70
ATOM     70  C   UNL     1       2.165  14.428   1.393  1.00  0.00     0.057 A 
ATOM     71  C   UNL     1       1.845  15.593   2.100  1.00  0.00     0.134 A 
ATOM     72  C   UNL     1       2.798  13.399   2.101  1.00  0.00     0.134 A 
ATOM     73  F   UNL     1       1.254  16.621   1.474  1.00  0.00    -0.206 F 
ATOM     74  C   UNL     1       2.165  15.741   3.451  1.00  0.00     0.040 A 
ATOM     75  C   UNL     1       3.098  13.522   3.459  1.00  0.00     0.040 A 
ATOM     76  F   UNL     1       3.125  12.253   1.485  1.00  0.00    -0.206 F 
ATOM     77  C   UNL     1       2.790  14.701   4.135  1.00  0.00     0.006 A 
ENDBRANCH  49  70
BRANCH  61  78
ATOM     78  C   UNL     1       4.529  17.709  -4.278  1.00  0.00     0.057 A 
ATOM     79  C   UNL     1       5.906  17.548  -4.078  1.00  0.00     0.134 A 
ATOM     80  C   UNL     1       4.081  18.965  -4.708  1.00  0.00     0.134 A 
ATOM     81  F   UNL     1       6.399  16.375  -3.654  1.00  0.00    -0.206 F 
ATOM     82  C   UNL     1       6.799  18.603  -4.274  1.00  0.00     0.040 A 
ATOM     83  C   UNL     1       4.967  20.017  -4.938  1.00  0.00     0.040 A 
ATOM     84  F   UNL     1       2.776  19.184  -4.929  1.00  0.00    -0.206 F 
ATOM     85  C   UNL     1       6.330  19.840  -4.713  1.00  0.00     0.006 A 
ENDBRANCH  61  78
ENDBRANCH  35  36
ENDBRANCH  27  30
ENDBRANCH  25  26
ENDBRANCH  24  25
ENDBRANCH  23  24
ENDBRANCH  22  23
ENDBRANCH  21  22
ENDBRANCH   1  21
TORSDOF 19
