REMARK SMILES O=C(CCCCCN1C(=O)/C(=C2\C(=O)Nc3ccccc32)SC1=S)NCCCCCCNC(=O)c1ccc(-c2c3nc(c(-c4c(F)cccc4F)c4ccc([nH]4)c(-c4c(F)cccc4F)c4nc(c(-c5c(F)cccc5F)c5ccc2[nH]5)C=C4)C=C3)cc1
REMARK SMILES IDX 27 1 26 2 25 3 1 4 2 5 3 7 4 8 5 9 6 10 7 11 8 12 9 13 23 14
REMARK SMILES IDX 10 15 11 16 22 17 24 18 12 19 13 20 21 21 14 22 15 23 16 24
REMARK SMILES IDX 20 25 17 27 19 28 18 29 28 30 29 31 30 32 31 33 32 34 33 35
REMARK SMILES IDX 34 37 35 38 36 39 88 40 37 41 87 42 38 43 39 44 40 45 81 46
REMARK SMILES IDX 41 47 86 48 80 49 82 50 42 51 85 52 79 53 78 54 43 56 69 57
REMARK SMILES IDX 52 58 68 59 53 60 56 61 67 62 83 63 54 64 55 65 66 67 84 68
REMARK SMILES IDX 57 69 44 70 45 71 50 72 46 73 47 74 49 75 51 76 48 77 70 78
REMARK SMILES IDX 71 79 76 80 72 81 73 82 75 83 77 84 74 85 58 86 59 87 64 88
REMARK SMILES IDX 60 89 61 90 63 91 65 92 62 93
REMARK H PARENT 25 6 15 26 32 36 82 55 56 66
REMARK Flexibility Score: inf
ROOT
ATOM      1  C   UNL     1       2.694  -3.411   1.071  1.00  0.00     0.021 C 
ENDROOT
BRANCH   1   2
ATOM      2  C   UNL     1       2.072  -2.044   1.353  1.00  0.00     0.116 C 
BRANCH   2   3
ATOM      3  N   UNL     1       2.635  -1.041   0.481  1.00  0.00    -0.356 N 
ATOM      4  O   UNL     1       0.740   0.217   0.179  1.00  0.00    -0.275 OA
ATOM      5  C   UNL     1       1.938   0.036  -0.004  1.00  0.00     0.219 C 
ATOM      6  H   UNL     1       3.579  -1.135   0.219  1.00  0.00     0.163 HD
BRANCH   5   7
ATOM      7  C   UNL     1       2.800   0.993  -0.804  1.00  0.00     0.100 C 
BRANCH   7   8
ATOM      8  C   UNL     1       3.696   1.865   0.078  1.00  0.00     0.010 C 
BRANCH   8   9
ATOM      9  C   UNL     1       4.859   1.162   0.796  1.00  0.00     0.002 C 
BRANCH   9  10
ATOM     10  C   UNL     1       5.824   0.380  -0.101  1.00  0.00     0.022 C 
BRANCH  10  11
ATOM     11  C   UNL     1       6.665   1.242  -1.042  1.00  0.00     0.127 C 
BRANCH  11  12
ATOM     12  N   UNL     1       7.635   2.080  -0.344  1.00  0.00    -0.293 N 
ATOM     13  C   UNL     1       7.352   3.429  -0.161  1.00  0.00     0.267 C 
ATOM     14  C   UNL     1       8.831   1.630   0.164  1.00  0.00     0.148 C 
ATOM     15  O   UNL     1       6.247   3.925  -0.283  1.00  0.00    -0.268 OA
ATOM     16  C   UNL     1       8.594   4.146   0.247  1.00  0.00     0.093 C 
ATOM     17  S   UNL     1       9.667   2.965   0.920  1.00  0.00    -0.053 SA
ATOM     18  S   UNL     1       9.485   0.098   0.107  1.00  0.00    -0.052 S 
ATOM     19  C   UNL     1       8.904   5.425  -0.024  1.00  0.00     0.069 C 
ATOM     20  C   UNL     1       7.980   6.439  -0.665  1.00  0.00     0.257 C 
ATOM     21  C   UNL     1      10.223   6.094   0.090  1.00  0.00     0.012 A 
ATOM     22  O   UNL     1       6.811   6.345  -0.980  1.00  0.00    -0.269 OA
ATOM     23  N   UNL     1       8.754   7.565  -0.871  1.00  0.00    -0.321 N 
ATOM     24  C   UNL     1      10.063   7.369  -0.461  1.00  0.00     0.049 A 
ATOM     25  C   UNL     1      11.486   5.696   0.502  1.00  0.00     0.011 A 
ATOM     26  H   UNL     1       8.417   8.404  -1.261  1.00  0.00     0.170 HD
ATOM     27  C   UNL     1      11.103   8.264  -0.617  1.00  0.00     0.027 A 
ATOM     28  C   UNL     1      12.562   6.577   0.340  1.00  0.00     0.001 A 
ATOM     29  C   UNL     1      12.372   7.850  -0.216  1.00  0.00     0.002 A 
ENDBRANCH  11  12
ENDBRANCH  10  11
ENDBRANCH   9  10
ENDBRANCH   8   9
ENDBRANCH   7   8
ENDBRANCH   5   7
ENDBRANCH   2   3
ENDBRANCH   1   2
BRANCH   1  30
ATOM     30  C   UNL     1       4.215  -3.490   1.291  1.00  0.00     0.002 C 
BRANCH  30  31
ATOM     31  C   UNL     1       4.694  -3.203   2.717  1.00  0.00     0.002 C 
BRANCH  31  32
ATOM     32  C   UNL     1       4.071  -4.083   3.797  1.00  0.00     0.021 C 
BRANCH  32  33
ATOM     33  C   UNL     1       4.227  -5.581   3.570  1.00  0.00     0.116 C 
BRANCH  33  34
ATOM     34  N   UNL     1       5.607  -6.039   3.660  1.00  0.00    -0.352 N 
ATOM     35  C   UNL     1       6.109  -7.132   4.333  1.00  0.00     0.251 C 
ATOM     36  H   UNL     1       6.270  -5.495   3.176  1.00  0.00     0.163 HD
ATOM     37  O   UNL     1       7.319  -7.313   4.419  1.00  0.00    -0.269 OA
BRANCH  35  38
ATOM     38  C   UNL     1       5.168  -8.063   4.994  1.00  0.00     0.039 A 
ATOM     39  C   UNL     1       4.020  -8.492   4.328  1.00  0.00     0.014 A 
ATOM     40  C   UNL     1       5.396  -8.444   6.319  1.00  0.00     0.014 A 
ATOM     41  C   UNL     1       3.006  -9.114   5.044  1.00  0.00     0.010 A 
ATOM     42  C   UNL     1       4.417  -9.168   7.007  1.00  0.00     0.010 A 
ATOM     43  C   UNL     1       3.185  -9.451   6.396  1.00  0.00    -0.014 A 
BRANCH  43  44
ATOM     44  C   UNL     1       2.055 -10.064   7.147  1.00  0.00     0.031 A 
ATOM     45  C   UNL     1       1.438  -9.360   8.330  1.00  0.00     0.074 A 
ATOM     46  C   UNL     1       1.530 -11.228   6.716  1.00  0.00     0.049 A 
ATOM     47  N   UNL     1       0.428  -9.729   9.078  1.00  0.00    -0.248 NA
ATOM     48  C   UNL     1       2.035  -8.076   8.729  1.00  0.00     0.031 C 
ATOM     49  C   UNL     1       2.021 -12.003   5.574  1.00  0.00     0.029 A 
ATOM     50  N   UNL     1       0.453 -11.948   7.167  1.00  0.00    -0.354 N 
ATOM     51  C   UNL     1       0.279  -8.736  10.040  1.00  0.00     0.074 A 
ATOM     52  C   UNL     1       1.330  -7.769   9.807  1.00  0.00     0.031 C 
ATOM     53  C   UNL     1       1.216 -13.058   5.380  1.00  0.00     0.029 A 
ATOM     54  C   UNL     1       0.199 -13.076   6.426  1.00  0.00     0.049 A 
ATOM     55  H   UNL     1      -0.085 -11.682   7.947  1.00  0.00     0.167 HD
ATOM     56  C   UNL     1      -0.655  -8.628  11.017  1.00  0.00     0.037 A 
ATOM     57  C   UNL     1      -0.735 -14.031   6.580  1.00  0.00     0.037 A 
ATOM     58  C   UNL     1      -1.705  -9.588  11.247  1.00  0.00     0.049 A 
ATOM     59  C   UNL     1      -1.709 -13.925   7.719  1.00  0.00     0.074 A 
ATOM     60  C   UNL     1      -2.705  -9.562  12.204  1.00  0.00     0.029 A 
ATOM     61  N   UNL     1      -1.886 -10.753  10.515  1.00  0.00    -0.354 N 
ATOM     62  N   UNL     1      -1.846 -12.971   8.608  1.00  0.00    -0.248 NA
ATOM     63  C   UNL     1      -2.657 -15.036   7.877  1.00  0.00     0.031 C 
ATOM     64  C   UNL     1      -3.455 -10.739  12.088  1.00  0.00     0.029 A 
ATOM     65  C   UNL     1      -2.963 -11.466  11.017  1.00  0.00     0.049 A 
ATOM     66  H   UNL     1      -1.331 -11.032   9.752  1.00  0.00     0.167 HD
ATOM     67  C   UNL     1      -2.912 -13.354   9.413  1.00  0.00     0.074 A 
ATOM     68  C   UNL     1      -3.399 -14.613   8.889  1.00  0.00     0.031 C 
ATOM     69  C   UNL     1      -3.439 -12.720  10.489  1.00  0.00     0.037 A 
BRANCH  56  70
ATOM     70  C   UNL     1      -0.565  -7.437  11.932  1.00  0.00     0.057 A 
ATOM     71  C   UNL     1      -0.221  -7.597  13.281  1.00  0.00     0.134 A 
ATOM     72  C   UNL     1      -0.834  -6.134  11.489  1.00  0.00     0.134 A 
ATOM     73  F   UNL     1       0.039  -8.816  13.778  1.00  0.00    -0.206 F 
ATOM     74  C   UNL     1      -0.143  -6.508  14.152  1.00  0.00     0.040 A 
ATOM     75  C   UNL     1      -0.729  -5.034  12.342  1.00  0.00     0.040 A 
ATOM     76  F   UNL     1      -1.160  -5.906  10.207  1.00  0.00    -0.206 F 
ATOM     77  C   UNL     1      -0.387  -5.220  13.680  1.00  0.00     0.006 A 
ENDBRANCH  56  70
BRANCH  57  78
ATOM     78  C   UNL     1      -0.784 -15.188   5.650  1.00  0.00     0.057 A 
ATOM     79  C   UNL     1       0.243 -16.140   5.616  1.00  0.00     0.134 A 
ATOM     80  C   UNL     1      -1.878 -15.391   4.801  1.00  0.00     0.134 A 
ATOM     81  F   UNL     1       1.322 -16.002   6.399  1.00  0.00    -0.206 F 
ATOM     82  C   UNL     1       0.185 -17.249   4.771  1.00  0.00     0.040 A 
ATOM     83  C   UNL     1      -1.965 -16.513   3.976  1.00  0.00     0.040 A 
ATOM     84  F   UNL     1      -2.902 -14.525   4.800  1.00  0.00    -0.206 F 
ATOM     85  C   UNL     1      -0.928 -17.445   3.958  1.00  0.00     0.006 A 
ENDBRANCH  57  78
BRANCH  69  86
ATOM     86  C   UNL     1      -4.631 -13.363  11.140  1.00  0.00     0.057 A 
ATOM     87  C   UNL     1      -5.897 -12.769  11.050  1.00  0.00     0.134 A 
ATOM     88  C   UNL     1      -4.534 -14.567  11.851  1.00  0.00     0.134 A 
ATOM     89  F   UNL     1      -6.062 -11.612  10.393  1.00  0.00    -0.206 F 
ATOM     90  C   UNL     1      -7.021 -13.351  11.637  1.00  0.00     0.040 A 
ATOM     91  C   UNL     1      -5.657 -15.177  12.413  1.00  0.00     0.040 A 
ATOM     92  F   UNL     1      -3.354 -15.197  11.963  1.00  0.00    -0.206 F 
ATOM     93  C   UNL     1      -6.905 -14.565  12.310  1.00  0.00     0.006 A 
ENDBRANCH  69  86
ENDBRANCH  43  44
ENDBRANCH  35  38
ENDBRANCH  33  34
ENDBRANCH  32  33
ENDBRANCH  31  32
ENDBRANCH  30  31
ENDBRANCH   1  30
TORSDOF 18
