REMARK SMILES C[C@H](C(=O)NCCCCCCNC(=O)c1ccc(-c2c3nc(c(-c4c(F)cccc4F)c4ccc([nH]4)c(-c4c(F)cccc4F)c4nc(c(-c5c(F)cccc5F)c5ccc2[nH]5)C=C4)C=C3)cc1)c1ccc2c3cc(Cl)ccc3n(C(=O)c3ccc(Cl)cc3)c2c1
REMARK SMILES IDX 8 1 7 2 6 3 5 4 3 5 4 6 2 8 1 9 69 10 70 11 91 12 71 13
REMARK SMILES IDX 90 14 72 15 80 16 73 17 79 18 74 19 78 20 75 21 77 22 76 23
REMARK SMILES IDX 81 24 82 25 83 26 84 27 89 28 85 29 88 30 86 31 87 32 9 33
REMARK SMILES IDX 10 34 11 35 12 36 13 37 14 39 15 40 16 41 68 42 17 43 67 44
REMARK SMILES IDX 18 45 19 46 20 47 61 48 21 49 66 50 60 51 62 52 22 53 65 54
REMARK SMILES IDX 59 55 58 56 23 58 49 59 32 60 48 61 33 62 36 63 47 64 63 65
REMARK SMILES IDX 34 66 35 67 46 69 64 70 37 71 24 72 25 73 30 74 26 75 27 76
REMARK SMILES IDX 29 77 31 78 28 79 50 80 51 81 56 82 52 83 53 84 55 85 57 86
REMARK SMILES IDX 54 87 38 88 39 89 44 90 40 91 41 92 43 93 45 94 42 95
REMARK H PARENT 5 7 12 38 62 57 36 68
REMARK Flexibility Score: inf
ROOT
ATOM      1  C   UNL     1       0.094  -3.413  -2.179  1.00  0.00     0.002 C 
ENDROOT
BRANCH   1   2
ATOM      2  C   UNL     1      -0.290  -2.968  -0.761  1.00  0.00     0.021 C 
BRANCH   2   3
ATOM      3  C   UNL     1       0.863  -2.348   0.029  1.00  0.00     0.116 C 
BRANCH   3   4
ATOM      4  N   UNL     1       1.246  -1.058  -0.514  1.00  0.00    -0.356 N 
ATOM      5  C   UNL     1       1.150   0.193   0.026  1.00  0.00     0.227 C 
ATOM      6  O   UNL     1       1.500   1.144  -0.677  1.00  0.00    -0.274 OA
ATOM      7  H   UNL     1       1.637  -1.089  -1.417  1.00  0.00     0.163 HD
BRANCH   5   8
ATOM      8  C   UNL     1       0.615   0.384   1.452  1.00  0.00     0.105 C 
ATOM      9  C   UNL     1       1.278   1.604   2.100  1.00  0.00     0.023 C 
BRANCH   8  10
ATOM     10  C   UNL     1      -0.906   0.461   1.449  1.00  0.00    -0.034 A 
ATOM     11  C   UNL     1      -1.597   1.592   1.017  1.00  0.00     0.005 A 
ATOM     12  C   UNL     1      -1.639  -0.676   1.823  1.00  0.00     0.032 A 
ATOM     13  C   UNL     1      -2.993   1.582   0.912  1.00  0.00     0.011 A 
ATOM     14  C   UNL     1      -3.044  -0.704   1.694  1.00  0.00     0.057 A 
ATOM     15  C   UNL     1      -3.722   0.413   1.223  1.00  0.00     0.008 A 
ATOM     16  N   UNL     1      -3.974  -1.740   1.913  1.00  0.00    -0.276 N 
ATOM     17  C   UNL     1      -5.103   0.089   1.200  1.00  0.00     0.009 A 
ATOM     18  C   UNL     1      -5.257  -1.203   1.728  1.00  0.00     0.057 A 
ATOM     19  C   UNL     1      -6.238   0.839   0.821  1.00  0.00     0.031 A 
ATOM     20  C   UNL     1      -6.546  -1.692   2.022  1.00  0.00     0.029 A 
ATOM     21  C   UNL     1      -7.507   0.324   1.059  1.00  0.00     0.041 A 
ATOM     22  C   UNL     1      -7.661  -0.910   1.678  1.00  0.00     0.023 A 
ATOM     23  Cl  UNL     1      -8.889   1.251   0.622  1.00  0.00    -0.084 Cl
BRANCH  16  24
ATOM     24  C   UNL     1      -3.584  -3.063   2.279  1.00  0.00     0.262 C 
ATOM     25  O   UNL     1      -2.459  -3.174   2.776  1.00  0.00    -0.268 OA
BRANCH  24  26
ATOM     26  C   UNL     1      -4.281  -4.373   2.097  1.00  0.00     0.040 A 
ATOM     27  C   UNL     1      -3.733  -5.473   2.797  1.00  0.00     0.015 A 
ATOM     28  C   UNL     1      -5.295  -4.622   1.169  1.00  0.00     0.015 A 
ATOM     29  C   UNL     1      -4.173  -6.779   2.578  1.00  0.00     0.021 A 
ATOM     30  C   UNL     1      -5.762  -5.935   0.972  1.00  0.00     0.021 A 
ATOM     31  C   UNL     1      -5.190  -7.006   1.663  1.00  0.00     0.041 A 
ATOM     32  Cl  UNL     1      -5.706  -8.616   1.348  1.00  0.00    -0.084 Cl
ENDBRANCH  24  26
ENDBRANCH  16  24
ENDBRANCH   8  10
ENDBRANCH   5   8
ENDBRANCH   3   4
ENDBRANCH   2   3
ENDBRANCH   1   2
BRANCH   1  33
ATOM     33  C   UNL     1       1.221  -4.450  -2.253  1.00  0.00     0.002 C 
BRANCH  33  34
ATOM     34  C   UNL     1       0.969  -5.740  -1.469  1.00  0.00     0.021 C 
BRANCH  34  35
ATOM     35  C   UNL     1      -0.266  -6.521  -1.912  1.00  0.00     0.116 C 
BRANCH  35  36
ATOM     36  N   UNL     1      -0.153  -6.991  -3.285  1.00  0.00    -0.352 N 
ATOM     37  C   UNL     1      -0.214  -8.269  -3.785  1.00  0.00     0.251 C 
ATOM     38  H   UNL     1      -0.011  -6.286  -3.957  1.00  0.00     0.163 HD
ATOM     39  O   UNL     1       0.109  -8.492  -4.945  1.00  0.00    -0.269 OA
BRANCH  37  40
ATOM     40  C   UNL     1      -0.648  -9.384  -2.915  1.00  0.00     0.039 A 
ATOM     41  C   UNL     1       0.076 -10.578  -2.943  1.00  0.00     0.014 A 
ATOM     42  C   UNL     1      -1.762  -9.257  -2.081  1.00  0.00     0.014 A 
ATOM     43  C   UNL     1      -0.272 -11.618  -2.078  1.00  0.00     0.010 A 
ATOM     44  C   UNL     1      -2.065 -10.268  -1.170  1.00  0.00     0.010 A 
ATOM     45  C   UNL     1      -1.315 -11.453  -1.151  1.00  0.00    -0.014 A 
BRANCH  45  46
ATOM     46  C   UNL     1      -1.598 -12.493  -0.128  1.00  0.00     0.031 A 
ATOM     47  C   UNL     1      -2.915 -13.217  -0.113  1.00  0.00     0.074 A 
ATOM     48  C   UNL     1      -0.682 -12.736   0.832  1.00  0.00     0.049 A 
ATOM     49  N   UNL     1      -3.354 -14.111   0.737  1.00  0.00    -0.248 NA
ATOM     50  C   UNL     1      -3.873 -12.884  -1.179  1.00  0.00     0.031 C 
ATOM     51  C   UNL     1       0.615 -12.065   0.954  1.00  0.00     0.029 A 
ATOM     52  N   UNL     1      -0.705 -13.605   1.895  1.00  0.00    -0.354 N 
ATOM     53  C   UNL     1      -4.637 -14.437   0.317  1.00  0.00     0.074 A 
ATOM     54  C   UNL     1      -4.924 -13.617  -0.840  1.00  0.00     0.031 C 
ATOM     55  C   UNL     1       1.268 -12.558   2.018  1.00  0.00     0.029 A 
ATOM     56  C   UNL     1       0.423 -13.545   2.680  1.00  0.00     0.049 A 
ATOM     57  H   UNL     1      -1.457 -14.213   2.078  1.00  0.00     0.167 HD
ATOM     58  C   UNL     1      -5.490 -15.350   0.840  1.00  0.00     0.037 A 
ATOM     59  C   UNL     1       0.734 -14.199   3.816  1.00  0.00     0.037 A 
ATOM     60  C   UNL     1      -5.193 -16.180   1.978  1.00  0.00     0.049 A 
ATOM     61  C   UNL     1      -0.246 -15.190   4.382  1.00  0.00     0.074 A 
ATOM     62  C   UNL     1      -5.966 -17.185   2.534  1.00  0.00     0.029 A 
ATOM     63  N   UNL     1      -4.039 -16.096   2.741  1.00  0.00    -0.354 N 
ATOM     64  N   UNL     1      -1.419 -15.551   3.921  1.00  0.00    -0.248 NA
ATOM     65  C   UNL     1       0.142 -15.868   5.628  1.00  0.00     0.031 C 
ATOM     66  C   UNL     1      -5.308 -17.668   3.668  1.00  0.00     0.029 A 
ATOM     67  C   UNL     1      -4.097 -17.005   3.785  1.00  0.00     0.049 A 
ATOM     68  H   UNL     1      -3.290 -15.481   2.568  1.00  0.00     0.167 HD
ATOM     69  C   UNL     1      -1.893 -16.515   4.801  1.00  0.00     0.074 A 
ATOM     70  C   UNL     1      -0.873 -16.699   5.811  1.00  0.00     0.031 C 
ATOM     71  C   UNL     1      -3.072 -17.183   4.780  1.00  0.00     0.037 A 
BRANCH  58  72
ATOM     72  C   UNL     1      -6.834 -15.513   0.191  1.00  0.00     0.057 A 
ATOM     73  C   UNL     1      -6.982 -16.131  -1.057  1.00  0.00     0.134 A 
ATOM     74  C   UNL     1      -8.001 -15.130   0.865  1.00  0.00     0.134 A 
ATOM     75  F   UNL     1      -5.904 -16.514  -1.759  1.00  0.00    -0.206 F 
ATOM     76  C   UNL     1      -8.242 -16.355  -1.615  1.00  0.00     0.040 A 
ATOM     77  C   UNL     1      -9.267 -15.372   0.329  1.00  0.00     0.040 A 
ATOM     78  F   UNL     1      -7.931 -14.541   2.068  1.00  0.00    -0.206 F 
ATOM     79  C   UNL     1      -9.389 -15.985  -0.916  1.00  0.00     0.006 A 
ENDBRANCH  58  72
BRANCH  59  80
ATOM     80  C   UNL     1       2.022 -13.934   4.510  1.00  0.00     0.057 A 
ATOM     81  C   UNL     1       3.007 -14.924   4.613  1.00  0.00     0.134 A 
ATOM     82  C   UNL     1       2.278 -12.705   5.128  1.00  0.00     0.134 A 
ATOM     83  F   UNL     1       2.813 -16.130   4.059  1.00  0.00    -0.206 F 
ATOM     84  C   UNL     1       4.182 -14.714   5.336  1.00  0.00     0.040 A 
ATOM     85  C   UNL     1       3.464 -12.470   5.827  1.00  0.00     0.040 A 
ATOM     86  F   UNL     1       1.380 -11.711   5.061  1.00  0.00    -0.206 F 
ATOM     87  C   UNL     1       4.414 -13.482   5.944  1.00  0.00     0.006 A 
ENDBRANCH  59  80
BRANCH  71  88
ATOM     88  C   UNL     1      -3.307 -18.198   5.862  1.00  0.00     0.057 A 
ATOM     89  C   UNL     1      -3.537 -17.821   7.191  1.00  0.00     0.134 A 
ATOM     90  C   UNL     1      -3.336 -19.566   5.563  1.00  0.00     0.134 A 
ATOM     91  F   UNL     1      -3.509 -16.528   7.547  1.00  0.00    -0.206 F 
ATOM     92  C   UNL     1      -3.760 -18.771   8.190  1.00  0.00     0.040 A 
ATOM     93  C   UNL     1      -3.589 -20.523   6.547  1.00  0.00     0.040 A 
ATOM     94  F   UNL     1      -3.133 -19.995   4.308  1.00  0.00    -0.206 F 
ATOM     95  C   UNL     1      -3.794 -20.126   7.866  1.00  0.00     0.006 A 
ENDBRANCH  71  88
ENDBRANCH  45  46
ENDBRANCH  37  40
ENDBRANCH  35  36
ENDBRANCH  34  35
ENDBRANCH  33  34
ENDBRANCH   1  33
TORSDOF 16
