REMARK SMILES O=C(NCCCCCCNC(=O)c1cccn1CC(=O)N1CCc2ccccc2C1)c1ccc(-c2c3nc(c(-c4c(F)cccc4F)c4ccc([nH]4)c(-c4c(F)cccc4F)c4nc(c(-c5c(F)cccc5F)c5ccc2[nH]5)C=C4)C=C3)cc1
REMARK SMILES IDX 7 1 6 2 5 3 4 4 3 5 1 6 2 7 31 9 32 10 84 11 33 12 83 13
REMARK SMILES IDX 34 14 35 15 36 16 77 17 37 18 82 19 76 20 78 21 38 22 81 23
REMARK SMILES IDX 75 24 74 25 39 27 65 28 48 29 64 30 49 31 52 32 63 33 79 34
REMARK SMILES IDX 50 35 51 36 62 38 80 39 53 40 40 41 41 42 46 43 42 44 43 45
REMARK SMILES IDX 45 46 47 47 44 48 66 49 67 50 72 51 68 52 69 53 71 54 73 55
REMARK SMILES IDX 70 56 54 57 55 58 60 59 56 60 57 61 59 62 61 63 58 64 8 65
REMARK SMILES IDX 9 66 10 67 11 68 12 70 13 71 14 72 17 73 15 74 16 75 18 76
REMARK SMILES IDX 19 77 20 78 21 79 22 80 30 81 23 82 29 83 24 84 28 85 25 86
REMARK SMILES IDX 27 87 26 88
REMARK H PARENT 3 8 78 26 52 37 10 69
REMARK Flexibility Score: inf
ROOT
ATOM      1  C   UNL     1       4.658  -1.936   3.829  1.00  0.00     0.002 C 
ENDROOT
BRANCH   1   2
ATOM      2  C   UNL     1       4.122  -0.543   3.499  1.00  0.00     0.002 C 
BRANCH   2   3
ATOM      3  C   UNL     1       4.702   0.099   2.238  1.00  0.00     0.021 C 
BRANCH   3   4
ATOM      4  C   UNL     1       4.537  -0.725   0.959  1.00  0.00     0.116 C 
BRANCH   4   5
ATOM      5  N   UNL     1       3.179  -0.841   0.457  1.00  0.00    -0.352 N 
ATOM      6  O   UNL     1       1.219  -0.299  -0.489  1.00  0.00    -0.269 OA
ATOM      7  C   UNL     1       2.306   0.082  -0.058  1.00  0.00     0.251 C 
ATOM      8  H   UNL     1       2.818  -1.756   0.493  1.00  0.00     0.163 HD
BRANCH   7   9
ATOM      9  C   UNL     1       2.599   1.532  -0.032  1.00  0.00     0.039 A 
ATOM     10  C   UNL     1       3.864   2.051  -0.308  1.00  0.00     0.014 A 
ATOM     11  C   UNL     1       1.538   2.402   0.272  1.00  0.00     0.014 A 
ATOM     12  C   UNL     1       4.099   3.410  -0.171  1.00  0.00     0.010 A 
ATOM     13  C   UNL     1       1.757   3.776   0.364  1.00  0.00     0.010 A 
ATOM     14  C   UNL     1       3.044   4.275   0.146  1.00  0.00    -0.014 A 
BRANCH  14  15
ATOM     15  C   UNL     1       3.317   5.719  -0.025  1.00  0.00     0.031 A 
ATOM     16  C   UNL     1       3.347   6.091  -1.519  1.00  0.00     0.074 A 
ATOM     17  C   UNL     1       3.622   6.441   1.095  1.00  0.00     0.049 A 
ATOM     18  N   UNL     1       4.090   6.948  -2.147  1.00  0.00    -0.248 NA
ATOM     19  C   UNL     1       2.498   5.321  -2.472  1.00  0.00     0.031 C 
ATOM     20  C   UNL     1       3.502   5.930   2.476  1.00  0.00     0.029 A 
ATOM     21  N   UNL     1       4.103   7.719   1.318  1.00  0.00    -0.354 N 
ATOM     22  C   UNL     1       3.674   6.965  -3.497  1.00  0.00     0.074 A 
ATOM     23  C   UNL     1       2.784   5.857  -3.660  1.00  0.00     0.031 C 
ATOM     24  C   UNL     1       3.967   6.833   3.366  1.00  0.00     0.029 A 
ATOM     25  C   UNL     1       4.431   8.019   2.670  1.00  0.00     0.049 A 
ATOM     26  H   UNL     1       4.210   8.375   0.592  1.00  0.00     0.167 HD
ATOM     27  C   UNL     1       3.985   7.976  -4.361  1.00  0.00     0.037 A 
ATOM     28  C   UNL     1       5.072   9.117   3.188  1.00  0.00     0.037 A 
ATOM     29  C   UNL     1       4.795   8.941  -3.701  1.00  0.00     0.049 A 
ATOM     30  C   UNL     1       5.246  10.038   2.058  1.00  0.00     0.074 A 
ATOM     31  C   UNL     1       6.106   8.935  -3.311  1.00  0.00     0.029 A 
ATOM     32  N   UNL     1       4.133   9.961  -3.063  1.00  0.00    -0.354 N 
ATOM     33  N   UNL     1       4.296  10.749   1.530  1.00  0.00    -0.248 NA
ATOM     34  C   UNL     1       6.565  10.129   1.418  1.00  0.00     0.031 C 
ATOM     35  C   UNL     1       6.093   9.667  -2.108  1.00  0.00     0.029 A 
ATOM     36  C   UNL     1       4.833  10.248  -1.920  1.00  0.00     0.049 A 
ATOM     37  H   UNL     1       3.309  10.404  -3.370  1.00  0.00     0.167 HD
ATOM     38  C   UNL     1       4.832  11.083   0.310  1.00  0.00     0.074 A 
ATOM     39  C   UNL     1       6.268  10.990   0.448  1.00  0.00     0.031 C 
ATOM     40  C   UNL     1       4.114  10.840  -0.816  1.00  0.00     0.037 A 
BRANCH  27  41
ATOM     41  C   UNL     1       3.448   8.366  -5.708  1.00  0.00     0.057 A 
ATOM     42  C   UNL     1       4.211   9.260  -6.498  1.00  0.00     0.134 A 
ATOM     43  C   UNL     1       2.110   8.213  -6.083  1.00  0.00     0.134 A 
ATOM     44  F   UNL     1       5.520   9.446  -6.263  1.00  0.00    -0.206 F 
ATOM     45  C   UNL     1       3.644  10.058  -7.494  1.00  0.00     0.040 A 
ATOM     46  C   UNL     1       1.542   8.975  -7.114  1.00  0.00     0.040 A 
ATOM     47  F   UNL     1       1.286   7.401  -5.410  1.00  0.00    -0.206 F 
ATOM     48  C   UNL     1       2.296   9.932  -7.790  1.00  0.00     0.006 A 
ENDBRANCH  27  41
BRANCH  28  49
ATOM     49  C   UNL     1       5.676   9.573   4.504  1.00  0.00     0.057 A 
ATOM     50  C   UNL     1       5.514   8.960   5.748  1.00  0.00     0.134 A 
ATOM     51  C   UNL     1       6.541  10.708   4.547  1.00  0.00     0.134 A 
ATOM     52  F   UNL     1       4.639   7.965   5.928  1.00  0.00    -0.206 F 
ATOM     53  C   UNL     1       6.234   9.362   6.896  1.00  0.00     0.040 A 
ATOM     54  C   UNL     1       7.292  11.093   5.663  1.00  0.00     0.040 A 
ATOM     55  F   UNL     1       6.706  11.520   3.495  1.00  0.00    -0.206 F 
ATOM     56  C   UNL     1       7.154  10.403   6.847  1.00  0.00     0.006 A 
ENDBRANCH  28  49
BRANCH  40  57
ATOM     57  C   UNL     1       2.613  10.824  -0.596  1.00  0.00     0.057 A 
ATOM     58  C   UNL     1       1.958  11.976  -0.143  1.00  0.00     0.134 A 
ATOM     59  C   UNL     1       1.816   9.674  -0.683  1.00  0.00     0.134 A 
ATOM     60  F   UNL     1       2.630  13.133  -0.034  1.00  0.00    -0.206 F 
ATOM     61  C   UNL     1       0.604  11.974   0.223  1.00  0.00     0.040 A 
ATOM     62  C   UNL     1       0.460   9.653  -0.331  1.00  0.00     0.040 A 
ATOM     63  F   UNL     1       2.329   8.520  -1.102  1.00  0.00    -0.206 F 
ATOM     64  C   UNL     1      -0.150  10.808   0.136  1.00  0.00     0.006 A 
ENDBRANCH  40  57
ENDBRANCH  14  15
ENDBRANCH   7   9
ENDBRANCH   4   5
ENDBRANCH   3   4
ENDBRANCH   2   3
ENDBRANCH   1   2
BRANCH   1  65
ATOM     65  C   UNL     1       6.183  -2.068   3.853  1.00  0.00     0.021 C 
BRANCH  65  66
ATOM     66  C   UNL     1       6.910  -1.230   4.904  1.00  0.00     0.116 C 
BRANCH  66  67
ATOM     67  N   UNL     1       6.697  -1.762   6.236  1.00  0.00    -0.351 N 
ATOM     68  C   UNL     1       7.582  -2.358   7.100  1.00  0.00     0.267 C 
ATOM     69  H   UNL     1       5.775  -1.684   6.573  1.00  0.00     0.163 HD
ATOM     70  O   UNL     1       7.124  -2.950   8.071  1.00  0.00    -0.268 OA
BRANCH  68  71
ATOM     71  C   UNL     1       9.003  -2.297   6.813  1.00  0.00     0.107 A 
ATOM     72  C   UNL     1       9.781  -1.183   6.532  1.00  0.00     0.033 A 
ATOM     73  N   UNL     1       9.869  -3.383   6.838  1.00  0.00    -0.334 N 
ATOM     74  C   UNL     1      11.123  -1.599   6.386  1.00  0.00     0.020 A 
ATOM     75  C   UNL     1      11.153  -2.958   6.595  1.00  0.00     0.087 A 
BRANCH  73  76
ATOM     76  C   UNL     1       9.497  -4.761   7.140  1.00  0.00     0.222 C 
BRANCH  76  77
ATOM     77  C   UNL     1       9.845  -5.844   6.126  1.00  0.00     0.242 C 
ATOM     78  O   UNL     1      10.379  -6.880   6.544  1.00  0.00    -0.273 OA
BRANCH  77  79
ATOM     79  N   UNL     1       9.404  -5.760   4.807  1.00  0.00    -0.336 N 
ATOM     80  C   UNL     1       9.092  -4.503   4.130  1.00  0.00     0.124 C 
ATOM     81  C   UNL     1       9.369  -7.003   4.026  1.00  0.00     0.155 C 
ATOM     82  C   UNL     1       8.326  -4.626   2.818  1.00  0.00     0.057 C 
ATOM     83  C   UNL     1       9.419  -6.834   2.526  1.00  0.00    -0.025 A 
ATOM     84  C   UNL     1       8.924  -5.667   1.929  1.00  0.00    -0.041 A 
ATOM     85  C   UNL     1       9.867  -7.877   1.707  1.00  0.00     0.006 A 
ATOM     86  C   UNL     1       8.909  -5.532   0.537  1.00  0.00     0.004 A 
ATOM     87  C   UNL     1       9.851  -7.741   0.318  1.00  0.00     0.000 A 
ATOM     88  C   UNL     1       9.381  -6.566  -0.266  1.00  0.00     0.000 A 
ENDBRANCH  77  79
ENDBRANCH  76  77
ENDBRANCH  73  76
ENDBRANCH  68  71
ENDBRANCH  66  67
ENDBRANCH  65  66
ENDBRANCH   1  65
TORSDOF 16
