REMARK SMILES C[C@H](CC(=O)NCCCCCCNC(=O)c1ccc(-c2c3nc(c(-c4c(F)cccc4F)c4ccc([nH]4)c(-c4c(F)cccc4F)c4nc(c(-c5c(F)cccc5F)c5ccc2[nH]5)C=C4)C=C3)cc1)N1C(=O)S/C(=C\c2ccc(Cl)cc2)C1=O
REMARK SMILES IDX 9 1 8 2 7 3 6 4 4 5 5 6 3 8 2 9 1 10 70 11 71 12 83 13 72 14
REMARK SMILES IDX 73 15 74 16 84 17 75 18 76 19 77 20 82 21 78 22 81 23 79 24
REMARK SMILES IDX 80 25 10 26 11 27 12 28 13 29 14 30 15 32 16 33 17 34 69 35
REMARK SMILES IDX 18 36 68 37 19 38 20 39 21 40 62 41 22 42 67 43 61 44 63 45
REMARK SMILES IDX 23 46 66 47 60 48 59 49 24 51 50 52 33 53 49 54 34 55 37 56
REMARK SMILES IDX 48 57 64 58 35 59 36 60 47 62 65 63 38 64 25 65 26 66 31 67
REMARK SMILES IDX 27 68 28 69 30 70 32 71 29 72 51 73 52 74 57 75 53 76 54 77
REMARK SMILES IDX 56 78 58 79 55 80 39 81 40 82 45 83 41 84 42 85 44 86 46 87
REMARK SMILES IDX 43 88
REMARK H PARENT 6 7 13 31 63 50 37 61
REMARK Flexibility Score: inf
ROOT
ATOM      1  C   UNL     1      -4.202  -0.024  -1.236  1.00  0.00     0.002 C 
ENDROOT
BRANCH   1   2
ATOM      2  C   UNL     1      -3.007  -0.552  -0.443  1.00  0.00     0.021 C 
BRANCH   2   3
ATOM      3  C   UNL     1      -1.793  -0.920  -1.287  1.00  0.00     0.116 C 
BRANCH   3   4
ATOM      4  N   UNL     1      -0.951   0.250  -1.484  1.00  0.00    -0.356 N 
ATOM      5  C   UNL     1       0.095   0.723  -0.744  1.00  0.00     0.222 C 
ATOM      6  O   UNL     1       0.580   1.811  -1.051  1.00  0.00    -0.275 OA
ATOM      7  H   UNL     1      -1.171   0.788  -2.278  1.00  0.00     0.163 HD
BRANCH   5   8
ATOM      8  C   UNL     1       0.685  -0.111   0.376  1.00  0.00     0.125 C 
BRANCH   8   9
ATOM      9  C   UNL     1       0.554   0.459   1.802  1.00  0.00     0.101 C 
ATOM     10  C   UNL     1       1.405   1.707   2.042  1.00  0.00     0.032 C 
BRANCH   9  11
ATOM     11  N   UNL     1      -0.833   0.556   2.283  1.00  0.00    -0.265 N 
ATOM     12  C   UNL     1      -1.465  -0.568   2.756  1.00  0.00     0.293 C 
ATOM     13  C   UNL     1      -1.613   1.688   2.176  1.00  0.00     0.268 C 
ATOM     14  O   UNL     1      -1.016  -1.702   2.797  1.00  0.00    -0.261 OA
ATOM     15  S   UNL     1      -3.111  -0.198   3.234  1.00  0.00    -0.022 SA
ATOM     16  C   UNL     1      -3.018   1.391   2.594  1.00  0.00     0.083 C 
ATOM     17  O   UNL     1      -1.272   2.779   1.744  1.00  0.00    -0.268 OA
ATOM     18  C   UNL     1      -4.009   2.240   2.281  1.00  0.00     0.029 C 
BRANCH  18  19
ATOM     19  C   UNL     1      -5.467   2.045   2.371  1.00  0.00    -0.024 A 
ATOM     20  C   UNL     1      -6.258   2.533   1.317  1.00  0.00     0.009 A 
ATOM     21  C   UNL     1      -6.103   1.442   3.461  1.00  0.00     0.009 A 
ATOM     22  C   UNL     1      -7.649   2.390   1.335  1.00  0.00     0.021 A 
ATOM     23  C   UNL     1      -7.495   1.295   3.479  1.00  0.00     0.021 A 
ATOM     24  C   UNL     1      -8.262   1.767   2.417  1.00  0.00     0.041 A 
ATOM     25  Cl  UNL     1      -9.971   1.587   2.454  1.00  0.00    -0.084 Cl
ENDBRANCH  18  19
ENDBRANCH   9  11
ENDBRANCH   8   9
ENDBRANCH   5   8
ENDBRANCH   3   4
ENDBRANCH   2   3
ENDBRANCH   1   2
BRANCH   1  26
ATOM     26  C   UNL     1      -5.066  -1.109  -1.881  1.00  0.00     0.002 C 
BRANCH  26  27
ATOM     27  C   UNL     1      -5.637  -2.161  -0.921  1.00  0.00     0.021 C 
BRANCH  27  28
ATOM     28  C   UNL     1      -6.404  -1.610   0.281  1.00  0.00     0.116 C 
BRANCH  28  29
ATOM     29  N   UNL     1      -7.596  -0.883  -0.122  1.00  0.00    -0.352 N 
ATOM     30  C   UNL     1      -8.921  -1.173   0.091  1.00  0.00     0.251 C 
ATOM     31  H   UNL     1      -7.428  -0.054  -0.625  1.00  0.00     0.163 HD
ATOM     32  O   UNL     1      -9.785  -0.560  -0.530  1.00  0.00    -0.269 OA
BRANCH  30  33
ATOM     33  C   UNL     1      -9.314  -2.236   1.042  1.00  0.00     0.039 A 
ATOM     34  C   UNL     1     -10.313  -3.139   0.666  1.00  0.00     0.014 A 
ATOM     35  C   UNL     1      -8.723  -2.336   2.306  1.00  0.00     0.014 A 
ATOM     36  C   UNL     1     -10.663  -4.186   1.522  1.00  0.00     0.010 A 
ATOM     37  C   UNL     1      -9.035  -3.411   3.138  1.00  0.00     0.010 A 
ATOM     38  C   UNL     1      -9.998  -4.353   2.748  1.00  0.00    -0.014 A 
BRANCH  38  39
ATOM     39  C   UNL     1     -10.261  -5.537   3.605  1.00  0.00     0.031 A 
ATOM     40  C   UNL     1     -10.905  -5.385   4.954  1.00  0.00     0.074 A 
ATOM     41  C   UNL     1      -9.846  -6.750   3.190  1.00  0.00     0.049 A 
ATOM     42  N   UNL     1     -11.162  -6.301   5.853  1.00  0.00    -0.248 NA
ATOM     43  C   UNL     1     -11.290  -4.023   5.354  1.00  0.00     0.031 C 
ATOM     44  C   UNL     1      -9.155  -7.019   1.927  1.00  0.00     0.029 A 
ATOM     45  N   UNL     1      -9.927  -7.981   3.792  1.00  0.00    -0.354 N 
ATOM     46  C   UNL     1     -11.730  -5.628   6.928  1.00  0.00     0.074 A 
ATOM     47  C   UNL     1     -11.742  -4.222   6.585  1.00  0.00     0.031 C 
ATOM     48  C   UNL     1      -8.886  -8.332   1.845  1.00  0.00     0.029 A 
ATOM     49  C   UNL     1      -9.355  -8.992   3.058  1.00  0.00     0.049 A 
ATOM     50  H   UNL     1     -10.355  -8.126   4.667  1.00  0.00     0.167 HD
ATOM     51  C   UNL     1     -12.212  -6.141   8.085  1.00  0.00     0.037 A 
ATOM     52  C   UNL     1      -9.215 -10.302   3.335  1.00  0.00     0.037 A 
ATOM     53  C   UNL     1     -12.217  -7.543   8.414  1.00  0.00     0.049 A 
ATOM     54  C   UNL     1      -9.764 -10.844   4.625  1.00  0.00     0.074 A 
ATOM     55  C   UNL     1     -12.755  -8.165   9.528  1.00  0.00     0.029 A 
ATOM     56  N   UNL     1     -11.652  -8.541   7.634  1.00  0.00    -0.354 N 
ATOM     57  N   UNL     1     -10.378 -10.208   5.593  1.00  0.00    -0.248 NA
ATOM     58  C   UNL     1      -9.609 -12.287   4.857  1.00  0.00     0.031 C 
ATOM     59  C   UNL     1     -12.475  -9.533   9.444  1.00  0.00     0.029 A 
ATOM     60  C   UNL     1     -11.803  -9.770   8.256  1.00  0.00     0.049 A 
ATOM     61  H   UNL     1     -11.208  -8.397   6.767  1.00  0.00     0.167 HD
ATOM     62  C   UNL     1     -10.701 -11.174   6.537  1.00  0.00     0.074 A 
ATOM     63  C   UNL     1     -10.232 -12.441   6.017  1.00  0.00     0.031 C 
ATOM     64  C   UNL     1     -11.331 -11.024   7.727  1.00  0.00     0.037 A 
BRANCH  51  65
ATOM     65  C   UNL     1     -12.783  -5.181   9.088  1.00  0.00     0.057 A 
ATOM     66  C   UNL     1     -14.010  -4.538   8.878  1.00  0.00     0.134 A 
ATOM     67  C   UNL     1     -12.128  -4.942  10.303  1.00  0.00     0.134 A 
ATOM     68  F   UNL     1     -14.684  -4.718   7.732  1.00  0.00    -0.206 F 
ATOM     69  C   UNL     1     -14.556  -3.677   9.832  1.00  0.00     0.040 A 
ATOM     70  C   UNL     1     -12.676  -4.102  11.275  1.00  0.00     0.040 A 
ATOM     71  F   UNL     1     -10.954  -5.532  10.572  1.00  0.00    -0.206 F 
ATOM     72  C   UNL     1     -13.891  -3.463  11.038  1.00  0.00     0.006 A 
ENDBRANCH  51  65
BRANCH  52  73
ATOM     73  C   UNL     1      -8.537 -11.197   2.365  1.00  0.00     0.057 A 
ATOM     74  C   UNL     1      -9.257 -12.153   1.639  1.00  0.00     0.134 A 
ATOM     75  C   UNL     1      -7.157 -11.123   2.144  1.00  0.00     0.134 A 
ATOM     76  F   UNL     1     -10.579 -12.284   1.822  1.00  0.00    -0.206 F 
ATOM     77  C   UNL     1      -8.626 -13.018   0.744  1.00  0.00     0.040 A 
ATOM     78  C   UNL     1      -6.517 -11.965   1.234  1.00  0.00     0.040 A 
ATOM     79  F   UNL     1      -6.413 -10.222   2.802  1.00  0.00    -0.206 F 
ATOM     80  C   UNL     1      -7.251 -12.921   0.536  1.00  0.00     0.006 A 
ENDBRANCH  52  73
BRANCH  64  81
ATOM     81  C   UNL     1     -11.567 -12.264   8.538  1.00  0.00     0.057 A 
ATOM     82  C   UNL     1     -10.523 -12.921   9.202  1.00  0.00     0.134 A 
ATOM     83  C   UNL     1     -12.858 -12.788   8.681  1.00  0.00     0.134 A 
ATOM     84  F   UNL     1      -9.262 -12.477   9.092  1.00  0.00    -0.206 F 
ATOM     85  C   UNL     1     -10.752 -14.069   9.963  1.00  0.00     0.040 A 
ATOM     86  C   UNL     1     -13.103 -13.920   9.460  1.00  0.00     0.040 A 
ATOM     87  F   UNL     1     -13.902 -12.202   8.077  1.00  0.00    -0.206 F 
ATOM     88  C   UNL     1     -12.047 -14.567  10.098  1.00  0.00     0.006 A 
ENDBRANCH  64  81
ENDBRANCH  38  39
ENDBRANCH  30  33
ENDBRANCH  28  29
ENDBRANCH  27  28
ENDBRANCH  26  27
ENDBRANCH   1  26
TORSDOF 16
