REMARK SMILES O=C(NCCCCCCNC(=O)c1ccc(-c2c3nc(c(-c4c(F)cccc4F)c4ccc([nH]4)c(-c4c(F)cccc4F)c4nc(c(-c5c(F)cccc5F)c5ccc2[nH]5)C=C4)C=C3)cc1)c1ccc(NC(=O)[C@@H]2CC=CC[C@H]2C(=O)Nc2cccc([N+](=O)[O-])c2)cc1
REMARK SMILES IDX 5 1 4 2 3 3 1 4 2 5 67 7 68 8 93 9 69 10 92 11 70 12 71 13
REMARK SMILES IDX 72 14 73 16 74 17 75 18 79 19 76 20 78 21 77 22 80 23 81 24
REMARK SMILES IDX 82 25 83 27 84 28 91 29 85 30 87 31 86 32 88 33 89 34 90 35
REMARK SMILES IDX 6 36 7 37 8 38 9 39 10 40 11 41 12 43 13 44 14 45 66 46
REMARK SMILES IDX 15 47 65 48 16 49 17 50 18 51 59 52 19 53 64 54 58 55 60 56
REMARK SMILES IDX 20 57 63 58 57 59 56 60 21 62 47 63 30 64 46 65 31 66 34 67
REMARK SMILES IDX 45 68 61 69 32 70 33 71 44 73 62 74 35 75 22 76 23 77 28 78
REMARK SMILES IDX 24 79 25 80 27 81 29 82 26 83 48 84 49 85 54 86 50 87 51 88
REMARK SMILES IDX 53 89 55 90 52 91 36 92 37 93 42 94 38 95 39 96 41 97 43 98
REMARK SMILES IDX 40 99
REMARK H PARENT 3 6 71 15 82 26 10 42 60 61 34 72
REMARK Flexibility Score: inf
ROOT
ATOM      1  C   UNL     1      10.311   0.824  -2.476  1.00  0.00     0.021 C 
ENDROOT
BRANCH   1   2
ATOM      2  C   UNL     1      10.822   0.938  -1.047  1.00  0.00     0.116 C 
BRANCH   2   3
ATOM      3  N   UNL     1      11.799   2.007  -0.877  1.00  0.00    -0.352 N 
ATOM      4  O   UNL     1      12.656   3.871   0.099  1.00  0.00    -0.269 OA
ATOM      5  C   UNL     1      11.866   2.942   0.135  1.00  0.00     0.251 C 
ATOM      6  H   UNL     1      12.496   2.070  -1.569  1.00  0.00     0.163 HD
BRANCH   5   7
ATOM      7  C   UNL     1      10.934   2.792   1.269  1.00  0.00     0.039 A 
ATOM      8  C   UNL     1      10.856   1.564   1.916  1.00  0.00     0.016 A 
ATOM      9  C   UNL     1      10.069   3.825   1.617  1.00  0.00     0.016 A 
ATOM     10  C   UNL     1       9.805   1.316   2.788  1.00  0.00     0.027 A 
ATOM     11  C   UNL     1       9.053   3.578   2.548  1.00  0.00     0.027 A 
ATOM     12  C   UNL     1       8.879   2.299   3.102  1.00  0.00     0.041 A 
BRANCH  12  13
ATOM     13  N   UNL     1       7.798   2.121   3.973  1.00  0.00    -0.326 N 
ATOM     14  C   UNL     1       7.152   1.063   4.522  1.00  0.00     0.228 C 
ATOM     15  H   UNL     1       7.408   2.979   4.257  1.00  0.00     0.169 HD
ATOM     16  O   UNL     1       6.310   1.343   5.389  1.00  0.00    -0.274 OA
BRANCH  14  17
ATOM     17  C   UNL     1       7.284  -0.402   4.108  1.00  0.00     0.095 C 
ATOM     18  C   UNL     1       8.535  -1.132   4.615  1.00  0.00     0.041 C 
ATOM     19  C   UNL     1       6.816  -0.646   2.665  1.00  0.00     0.095 C 
ATOM     20  C   UNL     1       9.147  -2.111   3.654  1.00  0.00    -0.030 C 
ATOM     21  C   UNL     1       7.284  -1.950   2.001  1.00  0.00     0.041 C 
ATOM     22  C   UNL     1       8.595  -2.470   2.490  1.00  0.00    -0.030 C 
BRANCH  19  23
ATOM     23  C   UNL     1       5.297  -0.445   2.469  1.00  0.00     0.228 C 
ATOM     24  O   UNL     1       4.909   0.568   1.871  1.00  0.00    -0.274 OA
ATOM     25  N   UNL     1       4.337  -1.369   2.798  1.00  0.00    -0.326 N 
ATOM     26  H   UNL     1       3.436  -1.153   2.465  1.00  0.00     0.169 HD
BRANCH  25  27
ATOM     27  C   UNL     1       4.411  -2.566   3.525  1.00  0.00     0.048 A 
ATOM     28  C   UNL     1       3.916  -3.735   2.943  1.00  0.00     0.026 A 
ATOM     29  C   UNL     1       4.928  -2.624   4.814  1.00  0.00     0.111 A 
ATOM     30  C   UNL     1       4.103  -4.971   3.574  1.00  0.00     0.009 A 
ATOM     31  C   UNL     1       5.180  -3.860   5.417  1.00  0.00     0.271 A 
ATOM     32  C   UNL     1       4.777  -5.043   4.795  1.00  0.00     0.086 A 
BRANCH  31  33
ATOM     33  N   UNL     1       5.921  -3.905   6.683  1.00  0.00     0.062 N 
ATOM     34  O   UNL     1       6.196  -5.019   7.150  1.00  0.00    -0.258 OA
ATOM     35  O   UNL     1       6.259  -2.827   7.192  1.00  0.00    -0.258 OA
ENDBRANCH  31  33
ENDBRANCH  25  27
ENDBRANCH  19  23
ENDBRANCH  14  17
ENDBRANCH  12  13
ENDBRANCH   5   7
ENDBRANCH   2   3
ENDBRANCH   1   2
BRANCH   1  36
ATOM     36  C   UNL     1      11.366   0.400  -3.497  1.00  0.00     0.002 C 
BRANCH  36  37
ATOM     37  C   UNL     1      12.014  -0.964  -3.240  1.00  0.00     0.002 C 
BRANCH  37  38
ATOM     38  C   UNL     1      11.051  -2.152  -3.164  1.00  0.00     0.021 C 
BRANCH  38  39
ATOM     39  C   UNL     1      10.100  -2.302  -4.349  1.00  0.00     0.116 C 
BRANCH  39  40
ATOM     40  N   UNL     1      10.796  -2.415  -5.620  1.00  0.00    -0.352 N 
ATOM     41  C   UNL     1      10.597  -3.295  -6.654  1.00  0.00     0.251 C 
ATOM     42  H   UNL     1      11.520  -1.762  -5.760  1.00  0.00     0.163 HD
ATOM     43  O   UNL     1      11.377  -3.316  -7.601  1.00  0.00    -0.269 OA
BRANCH  41  44
ATOM     44  C   UNL     1       9.460  -4.240  -6.619  1.00  0.00     0.039 A 
ATOM     45  C   UNL     1       9.690  -5.574  -6.969  1.00  0.00     0.014 A 
ATOM     46  C   UNL     1       8.177  -3.819  -6.261  1.00  0.00     0.014 A 
ATOM     47  C   UNL     1       8.646  -6.499  -6.901  1.00  0.00     0.010 A 
ATOM     48  C   UNL     1       7.151  -4.754  -6.135  1.00  0.00     0.010 A 
ATOM     49  C   UNL     1       7.376  -6.103  -6.452  1.00  0.00    -0.014 A 
BRANCH  49  50
ATOM     50  C   UNL     1       6.274  -7.086  -6.303  1.00  0.00     0.031 A 
ATOM     51  C   UNL     1       5.050  -6.988  -7.168  1.00  0.00     0.074 A 
ATOM     52  C   UNL     1       6.349  -8.029  -5.345  1.00  0.00     0.049 A 
ATOM     53  N   UNL     1       3.951  -7.699  -7.130  1.00  0.00    -0.248 NA
ATOM     54  C   UNL     1       5.049  -5.936  -8.197  1.00  0.00     0.031 C 
ATOM     55  C   UNL     1       7.465  -8.202  -4.412  1.00  0.00     0.029 A 
ATOM     56  N   UNL     1       5.462  -9.013  -4.987  1.00  0.00    -0.354 N 
ATOM     57  C   UNL     1       3.128  -7.177  -8.119  1.00  0.00     0.074 A 
ATOM     58  C   UNL     1       3.832  -6.057  -8.706  1.00  0.00     0.031 C 
ATOM     59  C   UNL     1       7.199  -9.235  -3.597  1.00  0.00     0.029 A 
ATOM     60  C   UNL     1       5.885  -9.777  -3.927  1.00  0.00     0.049 A 
ATOM     61  H   UNL     1       4.603  -9.157  -5.447  1.00  0.00     0.167 HD
ATOM     62  C   UNL     1       1.906  -7.605  -8.517  1.00  0.00     0.037 A 
ATOM     63  C   UNL     1       5.277 -10.794  -3.287  1.00  0.00     0.037 A 
ATOM     64  C   UNL     1       1.215  -8.731  -7.947  1.00  0.00     0.049 A 
ATOM     65  C   UNL     1       3.924 -11.254  -3.751  1.00  0.00     0.074 A 
ATOM     66  C   UNL     1      -0.011  -9.264  -8.308  1.00  0.00     0.029 A 
ATOM     67  N   UNL     1       1.692  -9.501  -6.897  1.00  0.00    -0.354 N 
ATOM     68  N   UNL     1       3.177 -10.777  -4.717  1.00  0.00    -0.248 NA
ATOM     69  C   UNL     1       3.332 -12.396  -3.041  1.00  0.00     0.031 C 
ATOM     70  C   UNL     1      -0.289 -10.338  -7.456  1.00  0.00     0.029 A 
ATOM     71  C   UNL     1       0.780 -10.497  -6.590  1.00  0.00     0.049 A 
ATOM     72  H   UNL     1       2.551  -9.359  -6.438  1.00  0.00     0.167 HD
ATOM     73  C   UNL     1       2.041 -11.575  -4.747  1.00  0.00     0.074 A 
ATOM     74  C   UNL     1       2.202 -12.574  -3.711  1.00  0.00     0.031 C 
ATOM     75  C   UNL     1       0.959 -11.487  -5.559  1.00  0.00     0.037 A 
BRANCH  62  76
ATOM     76  C   UNL     1       1.244  -6.854  -9.634  1.00  0.00     0.057 A 
ATOM     77  C   UNL     1       1.703  -6.947 -10.955  1.00  0.00     0.134 A 
ATOM     78  C   UNL     1       0.117  -6.058  -9.396  1.00  0.00     0.134 A 
ATOM     79  F   UNL     1       2.786  -7.683 -11.247  1.00  0.00    -0.206 F 
ATOM     80  C   UNL     1       1.079  -6.256 -11.995  1.00  0.00     0.040 A 
ATOM     81  C   UNL     1      -0.531  -5.382 -10.431  1.00  0.00     0.040 A 
ATOM     82  F   UNL     1      -0.378  -5.930  -8.155  1.00  0.00    -0.206 F 
ATOM     83  C   UNL     1      -0.045  -5.475 -11.735  1.00  0.00     0.006 A 
ENDBRANCH  62  76
BRANCH  63  84
ATOM     84  C   UNL     1       5.953 -11.459  -2.145  1.00  0.00     0.057 A 
ATOM     85  C   UNL     1       6.464 -12.757  -2.265  1.00  0.00     0.134 A 
ATOM     86  C   UNL     1       6.098 -10.819  -0.909  1.00  0.00     0.134 A 
ATOM     87  F   UNL     1       6.338 -13.427  -3.419  1.00  0.00    -0.206 F 
ATOM     88  C   UNL     1       7.077 -13.402  -1.191  1.00  0.00     0.040 A 
ATOM     89  C   UNL     1       6.731 -11.443   0.167  1.00  0.00     0.040 A 
ATOM     90  F   UNL     1       5.636  -9.572  -0.733  1.00  0.00    -0.206 F 
ATOM     91  C   UNL     1       7.216 -12.742   0.029  1.00  0.00     0.006 A 
ENDBRANCH  63  84
BRANCH  75  92
ATOM     92  C   UNL     1      -0.118 -12.513  -5.378  1.00  0.00     0.057 A 
ATOM     93  C   UNL     1      -0.994 -12.478  -4.285  1.00  0.00     0.134 A 
ATOM     94  C   UNL     1      -0.305 -13.527  -6.326  1.00  0.00     0.134 A 
ATOM     95  F   UNL     1      -0.858 -11.540  -3.336  1.00  0.00    -0.206 F 
ATOM     96  C   UNL     1      -2.006 -13.427  -4.133  1.00  0.00     0.040 A 
ATOM     97  C   UNL     1      -1.327 -14.467  -6.197  1.00  0.00     0.040 A 
ATOM     98  F   UNL     1       0.496 -13.611  -7.399  1.00  0.00    -0.206 F 
ATOM     99  C   UNL     1      -2.179 -14.421  -5.094  1.00  0.00     0.006 A 
ENDBRANCH  75  92
ENDBRANCH  49  50
ENDBRANCH  41  44
ENDBRANCH  39  40
ENDBRANCH  38  39
ENDBRANCH  37  38
ENDBRANCH  36  37
ENDBRANCH   1  36
TORSDOF 18
