REMARK SMILES NS(=O)(=O)c1ccc(-n2nc(C(=O)NCCCCCCNC(=O)c3ccc(-c4c5nc(c(-c6c(F)cccc6F)c6ccc([nH]6)c(-c6c(F)cccc6F)c6nc(c(-c7c(F)cccc7F)c7ccc4[nH]7)C=C6)C=C5)cc3)c(Cl)c2-c2ccc(Cl)cc2)cc1
REMARK SMILES IDX 17 1 16 2 15 3 14 4 12 5 13 6 11 8 9 9 10 10 80 11 78 12
REMARK SMILES IDX 79 13 8 14 5 15 6 16 89 17 7 18 88 19 2 20 3 21 4 22 1 23
REMARK SMILES IDX 81 26 82 27 87 28 83 29 86 30 84 31 85 32 18 33 19 34 20 35
REMARK SMILES IDX 21 36 22 37 23 39 24 40 25 41 77 42 26 43 76 44 27 45 28 46
REMARK SMILES IDX 29 47 70 48 30 49 75 50 69 51 71 52 31 53 74 54 68 55 67 56
REMARK SMILES IDX 32 58 58 59 41 60 57 61 42 62 45 63 56 64 72 65 43 66 44 67
REMARK SMILES IDX 55 69 73 70 46 71 33 72 34 73 39 74 35 75 36 76 38 77 40 78
REMARK SMILES IDX 37 79 59 80 60 81 65 82 61 83 62 84 64 85 66 86 63 87 47 88
REMARK SMILES IDX 48 89 53 90 49 91 50 92 52 93 54 94 51 95
REMARK H PARENT 14 7 1 24 1 25 21 38 71 57 45 68
REMARK Flexibility Score: inf
ROOT
ATOM      1  C   UNL     1       5.547   6.559 -11.655  1.00  0.00     0.002 C 
ENDROOT
BRANCH   1   2
ATOM      2  C   UNL     1       5.174   6.008 -10.277  1.00  0.00     0.021 C 
BRANCH   2   3
ATOM      3  C   UNL     1       3.680   5.719 -10.077  1.00  0.00     0.116 C 
BRANCH   3   4
ATOM      4  N   UNL     1       3.366   4.343 -10.421  1.00  0.00    -0.351 N 
ATOM      5  C   UNL     1       3.023   3.240  -9.666  1.00  0.00     0.273 C 
ATOM      6  O   UNL     1       2.752   2.219 -10.304  1.00  0.00    -0.267 OA
ATOM      7  H   UNL     1       3.407   4.160 -11.388  1.00  0.00     0.163 HD
BRANCH   5   8
ATOM      8  C   UNL     1       2.907   3.294  -8.196  1.00  0.00     0.169 A 
ATOM      9  N   UNL     1       2.106   2.814  -6.249  1.00  0.00    -0.231 N 
ATOM     10  N   UNL     1       2.043   2.471  -7.558  1.00  0.00    -0.160 NA
ATOM     11  C   UNL     1       2.893   3.934  -6.053  1.00  0.00     0.094 A 
ATOM     12  C   UNL     1       3.627   4.020  -7.224  1.00  0.00     0.100 A 
ATOM     13  Cl  UNL     1       5.130   4.807  -7.348  1.00  0.00    -0.079 Cl
BRANCH   9  14
ATOM     14  C   UNL     1       1.573   1.961  -5.249  1.00  0.00     0.065 A 
ATOM     15  C   UNL     1       0.862   0.282  -3.147  1.00  0.00     0.082 A 
ATOM     16  C   UNL     1       1.505  -0.253  -4.266  1.00  0.00     0.024 A 
ATOM     17  C   UNL     1       0.535   1.642  -3.089  1.00  0.00     0.024 A 
ATOM     18  C   UNL     1       1.835   0.584  -5.335  1.00  0.00     0.030 A 
ATOM     19  C   UNL     1       0.911   2.489  -4.134  1.00  0.00     0.030 A 
BRANCH  15  20
ATOM     20  S   UNL     1       0.470  -0.753  -1.765  1.00  0.00     0.238 S 
ATOM     21  O   UNL     1       1.224  -1.995  -1.876  1.00  0.00    -0.207 OA
ATOM     22  O   UNL     1      -0.940  -0.715  -1.538  1.00  0.00    -0.207 OA
BRANCH  20  23
ATOM     23  N   UNL     1       1.188   0.064  -0.480  1.00  0.00    -0.225 NA
ATOM     24  H   UNL     1       1.023  -0.451   0.385  1.00  0.00     0.137 HD
ATOM     25  H   UNL     1       0.783   0.997  -0.402  1.00  0.00     0.137 HD
ENDBRANCH  20  23
ENDBRANCH  15  20
ENDBRANCH   9  14
BRANCH  11  26
ATOM     26  C   UNL     1       3.196   4.640  -4.816  1.00  0.00     0.002 A 
ATOM     27  C   UNL     1       2.820   5.988  -4.710  1.00  0.00     0.012 A 
ATOM     28  C   UNL     1       4.075   4.087  -3.879  1.00  0.00     0.012 A 
ATOM     29  C   UNL     1       3.373   6.793  -3.715  1.00  0.00     0.021 A 
ATOM     30  C   UNL     1       4.627   4.895  -2.885  1.00  0.00     0.021 A 
ATOM     31  C   UNL     1       4.293   6.248  -2.823  1.00  0.00     0.041 A 
ATOM     32  Cl  UNL     1       5.069   7.266  -1.673  1.00  0.00    -0.084 Cl
ENDBRANCH  11  26
ENDBRANCH   5   8
ENDBRANCH   3   4
ENDBRANCH   2   3
ENDBRANCH   1   2
BRANCH   1  33
ATOM     33  C   UNL     1       4.896   7.899 -12.034  1.00  0.00     0.002 C 
BRANCH  33  34
ATOM     34  C   UNL     1       5.058   9.057 -11.035  1.00  0.00     0.021 C 
BRANCH  34  35
ATOM     35  C   UNL     1       6.486   9.567 -10.914  1.00  0.00     0.116 C 
BRANCH  35  36
ATOM     36  N   UNL     1       6.980  10.182 -12.159  1.00  0.00    -0.352 N 
ATOM     37  C   UNL     1       8.218  10.734 -12.459  1.00  0.00     0.251 C 
ATOM     38  H   UNL     1       6.327  10.205 -12.896  1.00  0.00     0.163 HD
ATOM     39  O   UNL     1       8.352  11.503 -13.403  1.00  0.00    -0.269 OA
BRANCH  37  40
ATOM     40  C   UNL     1       9.387  10.365 -11.643  1.00  0.00     0.039 A 
ATOM     41  C   UNL     1      10.476  11.206 -11.377  1.00  0.00     0.014 A 
ATOM     42  C   UNL     1       9.345   9.108 -11.083  1.00  0.00     0.014 A 
ATOM     43  C   UNL     1      11.508  10.721 -10.567  1.00  0.00     0.010 A 
ATOM     44  C   UNL     1      10.057   8.911  -9.952  1.00  0.00     0.010 A 
ATOM     45  C   UNL     1      11.290   9.522  -9.891  1.00  0.00    -0.014 A 
BRANCH  45  46
ATOM     46  C   UNL     1      12.242   8.824  -9.043  1.00  0.00     0.031 A 
ATOM     47  C   UNL     1      12.410   9.447  -7.712  1.00  0.00     0.074 A 
ATOM     48  C   UNL     1      12.584   7.537  -9.308  1.00  0.00     0.049 A 
ATOM     49  N   UNL     1      13.438  10.079  -7.255  1.00  0.00    -0.248 NA
ATOM     50  C   UNL     1      11.215   9.555  -6.855  1.00  0.00     0.031 C 
ATOM     51  C   UNL     1      12.135   6.681 -10.420  1.00  0.00     0.029 A 
ATOM     52  N   UNL     1      13.319   6.670  -8.558  1.00  0.00    -0.354 N 
ATOM     53  C   UNL     1      13.088  10.442  -5.959  1.00  0.00     0.074 A 
ATOM     54  C   UNL     1      11.656  10.369  -5.896  1.00  0.00     0.031 C 
ATOM     55  C   UNL     1      12.433   5.387 -10.157  1.00  0.00     0.029 A 
ATOM     56  C   UNL     1      13.214   5.330  -8.938  1.00  0.00     0.049 A 
ATOM     57  H   UNL     1      13.881   6.965  -7.806  1.00  0.00     0.167 HD
ATOM     58  C   UNL     1      14.004  10.436  -4.952  1.00  0.00     0.037 A 
ATOM     59  C   UNL     1      13.706   4.264  -8.253  1.00  0.00     0.037 A 
ATOM     60  C   UNL     1      15.343  10.338  -5.481  1.00  0.00     0.049 A 
ATOM     61  C   UNL     1      14.707   4.791  -7.288  1.00  0.00     0.074 A 
ATOM     62  C   UNL     1      16.096  11.090  -6.362  1.00  0.00     0.029 A 
ATOM     63  N   UNL     1      15.953   9.107  -5.425  1.00  0.00    -0.354 N 
ATOM     64  N   UNL     1      15.838   5.335  -7.646  1.00  0.00    -0.248 NA
ATOM     65  C   UNL     1      14.225   5.169  -5.968  1.00  0.00     0.031 C 
ATOM     66  C   UNL     1      16.810  10.135  -7.145  1.00  0.00     0.029 A 
ATOM     67  C   UNL     1      16.524   8.863  -6.647  1.00  0.00     0.049 A 
ATOM     68  H   UNL     1      15.974   8.507  -4.644  1.00  0.00     0.167 HD
ATOM     69  C   UNL     1      15.986   6.433  -6.809  1.00  0.00     0.074 A 
ATOM     70  C   UNL     1      15.000   6.236  -5.747  1.00  0.00     0.031 C 
ATOM     71  C   UNL     1      16.670   7.543  -7.220  1.00  0.00     0.037 A 
BRANCH  58  72
ATOM     72  C   UNL     1      13.689  10.105  -3.509  1.00  0.00     0.057 A 
ATOM     73  C   UNL     1      14.694  10.294  -2.544  1.00  0.00     0.134 A 
ATOM     74  C   UNL     1      12.569   9.370  -3.063  1.00  0.00     0.134 A 
ATOM     75  F   UNL     1      15.814  10.970  -2.841  1.00  0.00    -0.206 F 
ATOM     76  C   UNL     1      14.625   9.728  -1.265  1.00  0.00     0.040 A 
ATOM     77  C   UNL     1      12.465   8.850  -1.770  1.00  0.00     0.040 A 
ATOM     78  F   UNL     1      11.558   9.022  -3.865  1.00  0.00    -0.206 F 
ATOM     79  C   UNL     1      13.510   8.997  -0.876  1.00  0.00     0.006 A 
ENDBRANCH  58  72
BRANCH  59  80
ATOM     80  C   UNL     1      13.158   2.889  -8.150  1.00  0.00     0.057 A 
ATOM     81  C   UNL     1      13.939   1.815  -7.699  1.00  0.00     0.134 A 
ATOM     82  C   UNL     1      11.775   2.647  -8.234  1.00  0.00     0.134 A 
ATOM     83  F   UNL     1      15.263   1.957  -7.541  1.00  0.00    -0.206 F 
ATOM     84  C   UNL     1      13.378   0.580  -7.337  1.00  0.00     0.040 A 
ATOM     85  C   UNL     1      11.201   1.420  -7.880  1.00  0.00     0.040 A 
ATOM     86  F   UNL     1      10.923   3.624  -8.577  1.00  0.00    -0.206 F 
ATOM     87  C   UNL     1      12.002   0.384  -7.417  1.00  0.00     0.006 A 
ENDBRANCH  59  80
BRANCH  71  88
ATOM     88  C   UNL     1      17.456   7.447  -8.503  1.00  0.00     0.057 A 
ATOM     89  C   UNL     1      16.883   7.250  -9.770  1.00  0.00     0.134 A 
ATOM     90  C   UNL     1      18.826   7.722  -8.472  1.00  0.00     0.134 A 
ATOM     91  F   UNL     1      15.565   7.080  -9.915  1.00  0.00    -0.206 F 
ATOM     92  C   UNL     1      17.643   7.283 -10.943  1.00  0.00     0.040 A 
ATOM     93  C   UNL     1      19.592   7.790  -9.639  1.00  0.00     0.040 A 
ATOM     94  F   UNL     1      19.436   7.980  -7.305  1.00  0.00    -0.206 F 
ATOM     95  C   UNL     1      19.003   7.561 -10.880  1.00  0.00     0.006 A 
ENDBRANCH  71  88
ENDBRANCH  45  46
ENDBRANCH  37  40
ENDBRANCH  35  36
ENDBRANCH  34  35
ENDBRANCH  33  34
ENDBRANCH   1  33
TORSDOF 17
