REMARK SMILES O=C(NCCCCCCNC(=O)[C@@H]1CCCC[N@H+]1Cc1cn2cccnc2n1)c1ccc(-c2c3nc(c(-c4c(F)cccc4F)c4ccc([nH]4)c(-c4c(F)cccc4F)c4nc(c(-c5c(F)cccc5F)c5ccc2[nH]5)C=C4)C=C3)cc1
REMARK SMILES IDX 6 1 5 2 4 3 3 4 1 5 2 6 29 8 30 9 82 10 31 11 81 12 32 13
REMARK SMILES IDX 33 14 34 15 75 16 35 17 80 18 74 19 76 20 36 21 79 22 73 23
REMARK SMILES IDX 72 24 37 26 63 27 46 28 62 29 47 30 50 31 61 32 77 33 48 34
REMARK SMILES IDX 49 35 60 37 78 38 51 39 38 40 39 41 44 42 40 43 41 44 43 45
REMARK SMILES IDX 45 46 42 47 64 48 65 49 70 50 66 51 67 52 69 53 71 54 68 55
REMARK SMILES IDX 52 56 53 57 58 58 54 59 55 60 57 61 59 62 56 63 7 64 8 65
REMARK SMILES IDX 9 66 10 67 11 68 12 70 13 71 14 72 18 73 15 74 17 75 16 77
REMARK SMILES IDX 19 78 20 79 21 80 28 81 22 82 27 83 23 84 26 85 24 86 25 87
REMARK H PARENT 3 7 76 25 50 36 10 69 18 76
REMARK Flexibility Score: inf
ROOT
ATOM      1  C   UNL     1       3.885  -2.521   2.900  1.00  0.00     0.002 C 
ENDROOT
BRANCH   1   2
ATOM      2  C   UNL     1       4.559  -1.311   2.245  1.00  0.00     0.021 C 
BRANCH   2   3
ATOM      3  C   UNL     1       4.317  -1.146   0.748  1.00  0.00     0.116 C 
BRANCH   3   4
ATOM      4  N   UNL     1       2.905  -1.082   0.416  1.00  0.00    -0.352 N 
ATOM      5  O   UNL     1       0.952  -0.153  -0.206  1.00  0.00    -0.269 OA
ATOM      6  C   UNL     1       2.176  -0.085  -0.179  1.00  0.00     0.251 C 
ATOM      7  H   UNL     1       2.388  -1.884   0.657  1.00  0.00     0.163 HD
BRANCH   6   8
ATOM      8  C   UNL     1       2.856   1.083  -0.779  1.00  0.00     0.039 A 
ATOM      9  C   UNL     1       3.985   0.928  -1.587  1.00  0.00     0.014 A 
ATOM     10  C   UNL     1       2.313   2.354  -0.569  1.00  0.00     0.014 A 
ATOM     11  C   UNL     1       4.639   2.050  -2.090  1.00  0.00     0.010 A 
ATOM     12  C   UNL     1       2.928   3.473  -1.133  1.00  0.00     0.010 A 
ATOM     13  C   UNL     1       4.109   3.332  -1.879  1.00  0.00    -0.014 A 
BRANCH  13  14
ATOM     14  C   UNL     1       4.763   4.522  -2.476  1.00  0.00     0.031 A 
ATOM     15  C   UNL     1       5.359   5.587  -1.601  1.00  0.00     0.074 A 
ATOM     16  C   UNL     1       4.786   4.656  -3.815  1.00  0.00     0.049 A 
ATOM     17  N   UNL     1       5.894   6.732  -1.940  1.00  0.00    -0.248 NA
ATOM     18  C   UNL     1       5.344   5.335  -0.152  1.00  0.00     0.031 C 
ATOM     19  C   UNL     1       4.236   3.689  -4.767  1.00  0.00     0.029 A 
ATOM     20  N   UNL     1       5.276   5.663  -4.607  1.00  0.00    -0.354 N 
ATOM     21  C   UNL     1       6.257   7.349  -0.750  1.00  0.00     0.074 A 
ATOM     22  C   UNL     1       5.859   6.460   0.322  1.00  0.00     0.031 C 
ATOM     23  C   UNL     1       4.427   4.145  -6.014  1.00  0.00     0.029 A 
ATOM     24  C   UNL     1       5.053   5.461  -5.946  1.00  0.00     0.049 A 
ATOM     25  H   UNL     1       5.742   6.453  -4.249  1.00  0.00     0.167 HD
ATOM     26  C   UNL     1       6.868   8.545  -0.570  1.00  0.00     0.037 A 
ATOM     27  C   UNL     1       5.290   6.260  -7.003  1.00  0.00     0.037 A 
ATOM     28  C   UNL     1       7.254   9.424  -1.645  1.00  0.00     0.049 A 
ATOM     29  C   UNL     1       5.923   7.603  -6.778  1.00  0.00     0.074 A 
ATOM     30  C   UNL     1       7.908  10.641  -1.571  1.00  0.00     0.029 A 
ATOM     31  N   UNL     1       7.005   9.186  -2.990  1.00  0.00    -0.354 N 
ATOM     32  N   UNL     1       6.298   8.158  -5.651  1.00  0.00    -0.248 NA
ATOM     33  C   UNL     1       6.167   8.429  -7.967  1.00  0.00     0.031 C 
ATOM     34  C   UNL     1       8.003  11.166  -2.864  1.00  0.00     0.029 A 
ATOM     35  C   UNL     1       7.469  10.246  -3.752  1.00  0.00     0.049 A 
ATOM     36  H   UNL     1       6.564   8.383  -3.349  1.00  0.00     0.167 HD
ATOM     37  C   UNL     1       6.850   9.385  -5.997  1.00  0.00     0.074 A 
ATOM     38  C   UNL     1       6.763   9.489  -7.439  1.00  0.00     0.031 C 
ATOM     39  C   UNL     1       7.386  10.333  -5.190  1.00  0.00     0.037 A 
BRANCH  26  40
ATOM     40  C   UNL     1       7.121   8.987   0.844  1.00  0.00     0.057 A 
ATOM     41  C   UNL     1       8.057   8.348   1.669  1.00  0.00     0.134 A 
ATOM     42  C   UNL     1       6.426  10.076   1.385  1.00  0.00     0.134 A 
ATOM     43  F   UNL     1       8.752   7.292   1.219  1.00  0.00    -0.206 F 
ATOM     44  C   UNL     1       8.266   8.754   2.989  1.00  0.00     0.040 A 
ATOM     45  C   UNL     1       6.647  10.510   2.694  1.00  0.00     0.040 A 
ATOM     46  F   UNL     1       5.522  10.741   0.650  1.00  0.00    -0.206 F 
ATOM     47  C   UNL     1       7.562   9.841   3.503  1.00  0.00     0.006 A 
ENDBRANCH  26  40
BRANCH  27  48
ATOM     48  C   UNL     1       4.916   5.800  -8.363  1.00  0.00     0.057 A 
ATOM     49  C   UNL     1       5.891   5.443  -9.300  1.00  0.00     0.134 A 
ATOM     50  C   UNL     1       3.574   5.668  -8.743  1.00  0.00     0.134 A 
ATOM     51  F   UNL     1       7.192   5.561  -8.998  1.00  0.00    -0.206 F 
ATOM     52  C   UNL     1       5.546   4.976 -10.569  1.00  0.00     0.040 A 
ATOM     53  C   UNL     1       3.215   5.177  -9.998  1.00  0.00     0.040 A 
ATOM     54  F   UNL     1       2.593   5.983  -7.884  1.00  0.00    -0.206 F 
ATOM     55  C   UNL     1       4.204   4.834 -10.917  1.00  0.00     0.006 A 
ENDBRANCH  27  48
BRANCH  39  56
ATOM     56  C   UNL     1       7.977  11.546  -5.847  1.00  0.00     0.057 A 
ATOM     57  C   UNL     1       7.181  12.544  -6.422  1.00  0.00     0.134 A 
ATOM     58  C   UNL     1       9.364  11.744  -5.848  1.00  0.00     0.134 A 
ATOM     59  F   UNL     1       5.847  12.410  -6.468  1.00  0.00    -0.206 F 
ATOM     60  C   UNL     1       7.746  13.690  -6.987  1.00  0.00     0.040 A 
ATOM     61  C   UNL     1       9.938  12.897  -6.384  1.00  0.00     0.040 A 
ATOM     62  F   UNL     1      10.182  10.828  -5.308  1.00  0.00    -0.206 F 
ATOM     63  C   UNL     1       9.127  13.873  -6.958  1.00  0.00     0.006 A 
ENDBRANCH  39  56
ENDBRANCH  13  14
ENDBRANCH   6   8
ENDBRANCH   3   4
ENDBRANCH   2   3
ENDBRANCH   1   2
BRANCH   1  64
ATOM     64  C   UNL     1       4.154  -3.891   2.268  1.00  0.00     0.002 C 
BRANCH  64  65
ATOM     65  C   UNL     1       5.616  -4.276   2.060  1.00  0.00     0.021 C 
BRANCH  65  66
ATOM     66  C   UNL     1       6.538  -4.106   3.255  1.00  0.00     0.116 C 
BRANCH  66  67
ATOM     67  N   UNL     1       6.403  -5.031   4.345  1.00  0.00    -0.351 N 
ATOM     68  C   UNL     1       7.396  -5.457   5.198  1.00  0.00     0.278 C 
ATOM     69  H   UNL     1       5.504  -5.401   4.499  1.00  0.00     0.163 HD
ATOM     70  O   UNL     1       7.003  -5.980   6.249  1.00  0.00    -0.268 OA
BRANCH  68  71
ATOM     71  C   UNL     1       8.924  -5.372   4.823  1.00  0.00     0.274 C 
ATOM     72  C   UNL     1       9.571  -6.637   5.459  1.00  0.00     0.076 C 
ATOM     73  N   UNL     1       9.598  -4.123   5.315  1.00  0.00    -0.320 N 
ATOM     74  C   UNL     1      11.087  -6.665   5.348  1.00  0.00     0.012 C 
ATOM     75  C   UNL     1      11.071  -4.191   5.288  1.00  0.00     0.263 C 
ATOM     76  H   UNL     1       9.259  -4.097   6.276  1.00  0.00     0.349 HD
ATOM     77  C   UNL     1      11.646  -5.410   5.987  1.00  0.00     0.062 C 
BRANCH  73  78
ATOM     78  C   UNL     1       9.193  -2.856   4.667  1.00  0.00     0.322 C 
BRANCH  78  79
ATOM     79  C   UNL     1       9.539  -2.715   3.194  1.00  0.00     0.115 A 
ATOM     80  C   UNL     1       9.690  -1.565   2.440  1.00  0.00     0.124 A 
ATOM     81  N   UNL     1       9.659  -3.814   2.364  1.00  0.00    -0.210 NA
ATOM     82  N   UNL     1       9.802  -1.984   1.134  1.00  0.00    -0.291 N 
ATOM     83  C   UNL     1       9.725  -3.371   1.131  1.00  0.00     0.234 A 
ATOM     84  C   UNL     1       9.917  -1.254  -0.041  1.00  0.00     0.096 A 
ATOM     85  N   UNL     1       9.678  -4.079  -0.034  1.00  0.00    -0.221 NA
ATOM     86  C   UNL     1       9.911  -1.900  -1.216  1.00  0.00     0.039 A 
ATOM     87  C   UNL     1       9.755  -3.381  -1.124  1.00  0.00     0.117 A 
ENDBRANCH  78  79
ENDBRANCH  73  78
ENDBRANCH  68  71
ENDBRANCH  66  67
ENDBRANCH  65  66
ENDBRANCH  64  65
ENDBRANCH   1  64
TORSDOF 15
