REMARK SMILES C[N@@H+]1CC[N@H+](Cc2ccc(C#CC(C)(C)O)s2)C[C@H]1C(=O)NCCCCCCNC(=O)c1ccc(-c2c3nc(c(-c4c(F)cccc4F)c4ccc([nH]4)c(-c4c(F)cccc4F)c4nc(c(-c5c(F)cccc5F)c5ccc2[nH]5)C=C4)C=C3)cc1
REMARK SMILES IDX 24 1 23 2 22 3 20 4 21 5 19 7 1 8 2 9 3 10 4 12 18 13 5 14
REMARK SMILES IDX 6 16 7 17 8 18 17 19 9 20 10 21 11 22 12 23 13 24 14 25
REMARK SMILES IDX 15 26 16 27 25 29 26 30 27 31 28 32 29 33 30 34 31 36 32 37
REMARK SMILES IDX 33 38 85 39 34 40 84 41 35 42 36 43 37 44 78 45 38 46 83 47
REMARK SMILES IDX 77 48 79 49 39 50 82 51 76 52 75 53 40 55 66 56 49 57 65 58
REMARK SMILES IDX 50 59 53 60 64 61 80 62 51 63 52 64 63 66 81 67 54 68 41 69
REMARK SMILES IDX 42 70 47 71 43 72 44 73 46 74 48 75 45 76 67 77 68 78 73 79
REMARK SMILES IDX 69 80 70 81 72 82 74 83 71 84 55 85 56 86 61 87 57 88 58 89
REMARK SMILES IDX 60 90 62 91 59 92
REMARK H PARENT 22 6 2 11 5 15 16 28 29 35 79 54 53 65
REMARK Flexibility Score: inf
ROOT
ATOM      1  C   UNL     1       1.716  -1.520  -3.686  1.00  0.00     0.021 C 
ENDROOT
BRANCH   1   2
ATOM      2  C   UNL     1       0.513  -1.860  -2.813  1.00  0.00     0.116 C 
BRANCH   2   3
ATOM      3  N   UNL     1       0.878  -2.747  -1.727  1.00  0.00    -0.351 N 
ATOM      4  C   UNL     1       0.911  -2.482  -0.390  1.00  0.00     0.284 C 
ATOM      5  O   UNL     1       1.310  -3.370   0.368  1.00  0.00    -0.268 OA
ATOM      6  H   UNL     1       1.137  -3.660  -1.989  1.00  0.00     0.163 HD
BRANCH   4   7
ATOM      7  C   UNL     1       0.406  -1.133   0.150  1.00  0.00     0.329 C 
ATOM      8  C   UNL     1       2.513   0.062  -0.095  1.00  0.00     0.333 C 
ATOM      9  N   UNL     1       1.104   0.011  -0.506  1.00  0.00    -0.318 N 
ATOM     10  C   UNL     1       0.439   1.285  -0.195  1.00  0.00     0.325 C 
ATOM     11  H   UNL     1       1.062  -0.134  -1.514  1.00  0.00     0.348 HD
ATOM     12  C   UNL     1      -1.105   1.271  -0.325  1.00  0.00     0.324 C 
ATOM     13  C   UNL     1      -1.147  -1.127   0.032  1.00  0.00     0.339 C 
ATOM     14  N   UNL     1      -1.826   0.153   0.292  1.00  0.00    -0.320 N 
ATOM     15  H   UNL     1      -2.727   0.116  -0.186  1.00  0.00     0.348 HD
BRANCH  14  16
ATOM     16  C   UNL     1      -2.267   0.351   1.681  1.00  0.00     0.310 C 
BRANCH  16  17
ATOM     17  C   UNL     1      -1.167   0.341   2.692  1.00  0.00     0.060 A 
ATOM     18  C   UNL     1      -0.336   1.372   3.086  1.00  0.00     0.022 A 
ATOM     19  S   UNL     1      -0.788  -1.102   3.542  1.00  0.00    -0.126 S 
ATOM     20  C   UNL     1       0.809   0.882   3.779  1.00  0.00     0.029 A 
ATOM     21  C   UNL     1       0.734  -0.476   3.987  1.00  0.00     0.077 A 
BRANCH  21  22
ATOM     22  C   UNL     1       1.729  -1.265   4.614  1.00  0.00    -0.053 C 
ATOM     23  C   UNL     1       2.456  -1.930   5.468  1.00  0.00    -0.063 C 
BRANCH  23  24
ATOM     24  C   UNL     1       3.304  -2.705   6.463  1.00  0.00     0.120 C 
ATOM     25  C   UNL     1       2.453  -3.098   7.669  1.00  0.00     0.056 C 
ATOM     26  C   UNL     1       3.905  -3.933   5.784  1.00  0.00     0.056 C 
BRANCH  24  27
ATOM     27  O   UNL     1       4.359  -1.853   6.901  1.00  0.00    -0.378 OA
ATOM     28  H   UNL     1       3.985  -1.070   7.334  1.00  0.00     0.212 HD
ENDBRANCH  24  27
ENDBRANCH  23  24
ENDBRANCH  21  22
ENDBRANCH  16  17
ENDBRANCH  14  16
ENDBRANCH   4   7
ENDBRANCH   2   3
ENDBRANCH   1   2
BRANCH   1  29
ATOM     29  C   UNL     1       2.292  -2.724  -4.436  1.00  0.00     0.002 C 
BRANCH  29  30
ATOM     30  C   UNL     1       1.267  -3.574  -5.200  1.00  0.00     0.002 C 
BRANCH  30  31
ATOM     31  C   UNL     1       0.331  -2.810  -6.148  1.00  0.00     0.021 C 
BRANCH  31  32
ATOM     32  C   UNL     1       1.058  -2.110  -7.282  1.00  0.00     0.116 C 
BRANCH  32  33
ATOM     33  N   UNL     1       1.691  -3.059  -8.190  1.00  0.00    -0.352 N 
ATOM     34  C   UNL     1       2.433  -2.794  -9.322  1.00  0.00     0.251 C 
ATOM     35  H   UNL     1       1.573  -4.010  -7.967  1.00  0.00     0.163 HD
ATOM     36  O   UNL     1       2.618  -3.649 -10.169  1.00  0.00    -0.269 OA
BRANCH  34  37
ATOM     37  C   UNL     1       2.996  -1.443  -9.490  1.00  0.00     0.039 A 
ATOM     38  C   UNL     1       2.935  -0.802 -10.730  1.00  0.00     0.014 A 
ATOM     39  C   UNL     1       3.566  -0.815  -8.385  1.00  0.00     0.014 A 
ATOM     40  C   UNL     1       3.384   0.511 -10.829  1.00  0.00     0.010 A 
ATOM     41  C   UNL     1       3.888   0.518  -8.452  1.00  0.00     0.010 A 
ATOM     42  C   UNL     1       3.841   1.174  -9.680  1.00  0.00    -0.014 A 
BRANCH  42  43
ATOM     43  C   UNL     1       4.141   2.604  -9.726  1.00  0.00     0.031 A 
ATOM     44  C   UNL     1       3.010   3.450 -10.202  1.00  0.00     0.074 A 
ATOM     45  C   UNL     1       5.248   3.134  -9.161  1.00  0.00     0.049 A 
ATOM     46  N   UNL     1       2.961   4.187 -11.262  1.00  0.00    -0.248 NA
ATOM     47  C   UNL     1       1.728   3.370  -9.480  1.00  0.00     0.031 C 
ATOM     48  C   UNL     1       6.270   2.428  -8.375  1.00  0.00     0.029 A 
ATOM     49  N   UNL     1       5.640   4.436  -9.058  1.00  0.00    -0.354 N 
ATOM     50  C   UNL     1       1.725   4.836 -11.222  1.00  0.00     0.074 A 
ATOM     51  C   UNL     1       0.947   4.157 -10.224  1.00  0.00     0.031 C 
ATOM     52  C   UNL     1       7.005   3.320  -7.680  1.00  0.00     0.029 A 
ATOM     53  C   UNL     1       6.635   4.655  -8.111  1.00  0.00     0.049 A 
ATOM     54  H   UNL     1       5.254   5.158  -9.605  1.00  0.00     0.167 HD
ATOM     55  C   UNL     1       1.567   6.056 -11.808  1.00  0.00     0.037 A 
ATOM     56  C   UNL     1       7.126   5.846  -7.695  1.00  0.00     0.037 A 
ATOM     57  C   UNL     1       2.674   6.338 -12.685  1.00  0.00     0.049 A 
ATOM     58  C   UNL     1       6.802   6.849  -8.729  1.00  0.00     0.074 A 
ATOM     59  C   UNL     1       3.120   5.918 -13.917  1.00  0.00     0.029 A 
ATOM     60  N   UNL     1       3.720   6.960 -12.059  1.00  0.00    -0.354 N 
ATOM     61  N   UNL     1       7.325   6.848  -9.923  1.00  0.00    -0.248 NA
ATOM     62  C   UNL     1       5.617   7.683  -8.568  1.00  0.00     0.031 C 
ATOM     63  C   UNL     1       4.533   6.122 -13.911  1.00  0.00     0.029 A 
ATOM     64  C   UNL     1       4.899   6.696 -12.694  1.00  0.00     0.049 A 
ATOM     65  H   UNL     1       3.634   7.524 -11.256  1.00  0.00     0.167 HD
ATOM     66  C   UNL     1       6.311   7.305 -10.741  1.00  0.00     0.074 A 
ATOM     67  C   UNL     1       5.373   7.976  -9.849  1.00  0.00     0.031 C 
ATOM     68  C   UNL     1       6.164   6.811 -12.004  1.00  0.00     0.037 A 
BRANCH  55  69
ATOM     69  C   UNL     1       0.752   7.206 -11.232  1.00  0.00     0.057 A 
ATOM     70  C   UNL     1       0.710   8.423 -11.946  1.00  0.00     0.134 A 
ATOM     71  C   UNL     1       0.321   7.296  -9.893  1.00  0.00     0.134 A 
ATOM     72  F   UNL     1       1.083   8.480 -13.234  1.00  0.00    -0.206 F 
ATOM     73  C   UNL     1       0.376   9.644 -11.344  1.00  0.00     0.040 A 
ATOM     74  C   UNL     1      -0.059   8.503  -9.296  1.00  0.00     0.040 A 
ATOM     75  F   UNL     1       0.335   6.253  -9.058  1.00  0.00    -0.206 F 
ATOM     76  C   UNL     1       0.005   9.689 -10.008  1.00  0.00     0.006 A 
ENDBRANCH  55  69
BRANCH  56  77
ATOM     77  C   UNL     1       7.691   6.219  -6.383  1.00  0.00     0.057 A 
ATOM     78  C   UNL     1       8.534   7.329  -6.238  1.00  0.00     0.134 A 
ATOM     79  C   UNL     1       7.195   5.656  -5.194  1.00  0.00     0.134 A 
ATOM     80  F   UNL     1       9.031   7.951  -7.316  1.00  0.00    -0.206 F 
ATOM     81  C   UNL     1       8.841   7.871  -4.983  1.00  0.00     0.040 A 
ATOM     82  C   UNL     1       7.496   6.185  -3.935  1.00  0.00     0.040 A 
ATOM     83  F   UNL     1       6.330   4.632  -5.225  1.00  0.00    -0.206 F 
ATOM     84  C   UNL     1       8.309   7.307  -3.827  1.00  0.00     0.006 A 
ENDBRANCH  56  77
BRANCH  68  85
ATOM     85  C   UNL     1       7.364   6.179 -12.638  1.00  0.00     0.057 A 
ATOM     86  C   UNL     1       7.948   4.977 -12.217  1.00  0.00     0.134 A 
ATOM     87  C   UNL     1       7.893   6.777 -13.787  1.00  0.00     0.134 A 
ATOM     88  F   UNL     1       7.459   4.294 -11.175  1.00  0.00    -0.206 F 
ATOM     89  C   UNL     1       9.037   4.417 -12.891  1.00  0.00     0.040 A 
ATOM     90  C   UNL     1       8.957   6.212 -14.488  1.00  0.00     0.040 A 
ATOM     91  F   UNL     1       7.352   7.908 -14.269  1.00  0.00    -0.206 F 
ATOM     92  C   UNL     1       9.541   5.032 -14.034  1.00  0.00     0.006 A 
ENDBRANCH  68  85
ENDBRANCH  42  43
ENDBRANCH  34  37
ENDBRANCH  32  33
ENDBRANCH  31  32
ENDBRANCH  30  31
ENDBRANCH  29  30
ENDBRANCH   1  29
TORSDOF 18
