REMARK SMILES Cc1ccccc1[C@@H]1[NH2+][C@@H](C(=O)NCCCCCCNC(=O)c2ccc(-c3c4nc(c(-c5c(F)cccc5F)c5ccc([nH]5)c(-c5c(F)cccc5F)c5nc(c(-c6c(F)cccc6F)c6ccc3[nH]6)C=C5)C=C4)cc2)CC2=c3ccccc3=N[C@H]21
REMARK SMILES IDX 17 1 16 2 15 3 14 4 13 5 11 6 12 7 10 9 8 10 9 11 86 12
REMARK SMILES IDX 78 15 85 16 77 17 79 18 84 19 80 20 83 21 81 22 82 23 7 24
REMARK SMILES IDX 1 25 2 26 3 27 4 28 6 29 5 30 18 31 19 32 20 33 21 34 22 36
REMARK SMILES IDX 23 37 24 38 76 39 25 40 75 41 26 42 27 43 28 44 69 45 29 46
REMARK SMILES IDX 74 47 68 48 70 49 30 50 73 51 67 52 66 53 31 55 57 56 40 57
REMARK SMILES IDX 56 58 41 59 44 60 55 61 71 62 42 63 43 64 54 66 72 67 45 68
REMARK SMILES IDX 32 69 33 70 38 71 34 72 35 73 37 74 39 75 36 76 58 77 59 78
REMARK SMILES IDX 64 79 60 80 61 81 63 82 65 83 62 84 46 85 47 86 52 87 48 88
REMARK SMILES IDX 49 89 51 90 53 91 50 92
REMARK H PARENT 13 8 9 13 9 14 20 35 70 54 44 65
REMARK Flexibility Score: inf
ROOT
ATOM      1  C   UNL     1      -5.967   7.915  -0.723  1.00  0.00     0.002 C 
ENDROOT
BRANCH   1   2
ATOM      2  C   UNL     1      -4.456   7.867  -1.020  1.00  0.00     0.002 C 
BRANCH   2   3
ATOM      3  C   UNL     1      -3.589   6.936  -0.158  1.00  0.00     0.021 C 
BRANCH   3   4
ATOM      4  C   UNL     1      -4.070   5.488  -0.043  1.00  0.00     0.116 C 
BRANCH   4   5
ATOM      5  N   UNL     1      -3.572   4.563  -1.044  1.00  0.00    -0.351 N 
ATOM      6  C   UNL     1      -2.456   3.771  -1.061  1.00  0.00     0.278 C 
ATOM      7  O   UNL     1      -2.550   2.718  -1.707  1.00  0.00    -0.268 OA
ATOM      8  H   UNL     1      -4.134   4.493  -1.850  1.00  0.00     0.163 HD
BRANCH   6   9
ATOM      9  C   UNL     1      -1.075   4.231  -0.504  1.00  0.00     0.277 C 
ATOM     10  C   UNL     1       0.640   2.475   0.304  1.00  0.00     0.243 C 
ATOM     11  N   UNL     1      -0.038   3.193  -0.808  1.00  0.00    -0.327 N 
ATOM     12  C   UNL     1       0.584   3.096   1.736  1.00  0.00     0.196 C 
ATOM     13  H   UNL     1      -0.491   2.484  -1.385  1.00  0.00     0.347 HD
ATOM     14  H   UNL     1       0.716   3.732  -1.235  1.00  0.00     0.347 HD
ATOM     15  C   UNL     1      -0.738   3.765   1.909  1.00  0.00    -0.024 C 
ATOM     16  N   UNL     1       0.629   2.065   2.818  1.00  0.00    -0.270 NA
ATOM     17  C   UNL     1      -1.021   4.814   0.908  1.00  0.00     0.109 C 
ATOM     18  C   UNL     1      -1.446   3.222   2.889  1.00  0.00     0.002 A 
ATOM     19  C   UNL     1      -0.510   2.217   3.423  1.00  0.00     0.066 A 
ATOM     20  C   UNL     1      -2.768   3.367   3.399  1.00  0.00     0.010 A 
ATOM     21  C   UNL     1      -0.966   1.472   4.615  1.00  0.00     0.028 A 
ATOM     22  C   UNL     1      -3.141   2.603   4.439  1.00  0.00     0.001 A 
ATOM     23  C   UNL     1      -2.212   1.681   5.073  1.00  0.00     0.002 A 
BRANCH  10  24
ATOM     24  C   UNL     1       2.107   2.202  -0.066  1.00  0.00     0.015 A 
ATOM     25  C   UNL     1       2.725   4.690  -0.368  1.00  0.00     0.045 C 
ATOM     26  C   UNL     1       3.055   3.222  -0.336  1.00  0.00    -0.042 A 
ATOM     27  C   UNL     1       4.407   2.875  -0.520  1.00  0.00     0.004 A 
ATOM     28  C   UNL     1       4.824   1.546  -0.491  1.00  0.00     0.000 A 
ATOM     29  C   UNL     1       2.551   0.862  -0.065  1.00  0.00     0.010 A 
ATOM     30  C   UNL     1       3.893   0.539  -0.280  1.00  0.00     0.001 A 
ENDBRANCH  10  24
ENDBRANCH   6   9
ENDBRANCH   4   5
ENDBRANCH   3   4
ENDBRANCH   2   3
ENDBRANCH   1   2
BRANCH   1  31
ATOM     31  C   UNL     1      -6.382   8.047   0.745  1.00  0.00     0.021 C 
BRANCH  31  32
ATOM     32  C   UNL     1      -6.087   9.402   1.377  1.00  0.00     0.116 C 
BRANCH  32  33
ATOM     33  N   UNL     1      -7.189  10.356   1.306  1.00  0.00    -0.352 N 
ATOM     34  C   UNL     1      -7.259  11.676   1.728  1.00  0.00     0.251 C 
ATOM     35  H   UNL     1      -8.012  10.007   0.895  1.00  0.00     0.163 HD
ATOM     36  O   UNL     1      -8.310  12.286   1.629  1.00  0.00    -0.269 OA
BRANCH  34  37
ATOM     37  C   UNL     1      -6.025  12.393   2.153  1.00  0.00     0.039 A 
ATOM     38  C   UNL     1      -5.853  13.709   1.701  1.00  0.00     0.014 A 
ATOM     39  C   UNL     1      -4.970  11.733   2.770  1.00  0.00     0.014 A 
ATOM     40  C   UNL     1      -4.567  14.235   1.598  1.00  0.00     0.010 A 
ATOM     41  C   UNL     1      -3.689  12.202   2.571  1.00  0.00     0.010 A 
ATOM     42  C   UNL     1      -3.486  13.415   1.908  1.00  0.00    -0.014 A 
BRANCH  42  43
ATOM     43  C   UNL     1      -2.125  13.659   1.445  1.00  0.00     0.031 A 
ATOM     44  C   UNL     1      -1.060  14.036   2.393  1.00  0.00     0.074 A 
ATOM     45  C   UNL     1      -1.820  13.368   0.161  1.00  0.00     0.049 A 
ATOM     46  N   UNL     1       0.085  14.517   2.049  1.00  0.00    -0.248 NA
ATOM     47  C   UNL     1      -1.224  13.919   3.835  1.00  0.00     0.031 C 
ATOM     48  C   UNL     1      -0.494  13.209  -0.427  1.00  0.00     0.029 A 
ATOM     49  N   UNL     1      -2.689  13.359  -0.939  1.00  0.00    -0.354 N 
ATOM     50  C   UNL     1       0.895  14.528   3.161  1.00  0.00     0.074 A 
ATOM     51  C   UNL     1       0.014  14.193   4.257  1.00  0.00     0.031 C 
ATOM     52  C   UNL     1      -0.582  13.415  -1.750  1.00  0.00     0.029 A 
ATOM     53  C   UNL     1      -1.937  13.857  -2.029  1.00  0.00     0.049 A 
ATOM     54  H   UNL     1      -3.629  13.067  -0.950  1.00  0.00     0.167 HD
ATOM     55  C   UNL     1       2.238  14.713   2.999  1.00  0.00     0.037 A 
ATOM     56  C   UNL     1      -2.270  15.051  -2.602  1.00  0.00     0.037 A 
ATOM     57  C   UNL     1       2.565  15.030   1.607  1.00  0.00     0.049 A 
ATOM     58  C   UNL     1      -1.228  16.140  -2.444  1.00  0.00     0.074 A 
ATOM     59  C   UNL     1       3.039  14.303   0.527  1.00  0.00     0.029 A 
ATOM     60  N   UNL     1       2.118  16.231   1.087  1.00  0.00    -0.354 N 
ATOM     61  N   UNL     1      -0.107  16.000  -1.790  1.00  0.00    -0.248 NA
ATOM     62  C   UNL     1      -1.409  17.506  -2.943  1.00  0.00     0.031 C 
ATOM     63  C   UNL     1       2.816  15.068  -0.655  1.00  0.00     0.029 A 
ATOM     64  C   UNL     1       2.219  16.260  -0.289  1.00  0.00     0.049 A 
ATOM     65  H   UNL     1       1.771  16.974   1.632  1.00  0.00     0.167 HD
ATOM     66  C   UNL     1       0.529  17.208  -1.715  1.00  0.00     0.074 A 
ATOM     67  C   UNL     1      -0.311  18.120  -2.467  1.00  0.00     0.031 C 
ATOM     68  C   UNL     1       1.676  17.400  -1.006  1.00  0.00     0.037 A 
BRANCH  55  69
ATOM     69  C   UNL     1       3.284  14.398   4.048  1.00  0.00     0.057 A 
ATOM     70  C   UNL     1       4.601  14.064   3.668  1.00  0.00     0.134 A 
ATOM     71  C   UNL     1       3.063  14.354   5.435  1.00  0.00     0.134 A 
ATOM     72  F   UNL     1       5.014  14.158   2.398  1.00  0.00    -0.206 F 
ATOM     73  C   UNL     1       5.570  13.614   4.576  1.00  0.00     0.040 A 
ATOM     74  C   UNL     1       4.002  13.853   6.348  1.00  0.00     0.040 A 
ATOM     75  F   UNL     1       1.957  14.860   5.989  1.00  0.00    -0.206 F 
ATOM     76  C   UNL     1       5.260  13.467   5.918  1.00  0.00     0.006 A 
ENDBRANCH  55  69
BRANCH  56  77
ATOM     77  C   UNL     1      -3.740  15.266  -2.643  1.00  0.00     0.057 A 
ATOM     78  C   UNL     1      -4.519  14.391  -3.423  1.00  0.00     0.134 A 
ATOM     79  C   UNL     1      -4.404  16.009  -1.664  1.00  0.00     0.134 A 
ATOM     80  F   UNL     1      -3.942  13.649  -4.382  1.00  0.00    -0.206 F 
ATOM     81  C   UNL     1      -5.871  14.168  -3.154  1.00  0.00     0.040 A 
ATOM     82  C   UNL     1      -5.762  15.805  -1.396  1.00  0.00     0.040 A 
ATOM     83  F   UNL     1      -3.725  16.847  -0.867  1.00  0.00    -0.206 F 
ATOM     84  C   UNL     1      -6.487  14.852  -2.111  1.00  0.00     0.006 A 
ENDBRANCH  56  77
BRANCH  68  85
ATOM     85  C   UNL     1       2.379  18.717  -0.948  1.00  0.00     0.057 A 
ATOM     86  C   UNL     1       2.760  19.401  -2.109  1.00  0.00     0.134 A 
ATOM     87  C   UNL     1       2.819  19.263   0.271  1.00  0.00     0.134 A 
ATOM     88  F   UNL     1       2.406  18.946  -3.321  1.00  0.00    -0.206 F 
ATOM     89  C   UNL     1       3.535  20.564  -2.060  1.00  0.00     0.040 A 
ATOM     90  C   UNL     1       3.627  20.399   0.331  1.00  0.00     0.040 A 
ATOM     91  F   UNL     1       2.467  18.718   1.446  1.00  0.00    -0.206 F 
ATOM     92  C   UNL     1       3.987  21.055  -0.839  1.00  0.00     0.006 A 
ENDBRANCH  68  85
ENDBRANCH  42  43
ENDBRANCH  34  37
ENDBRANCH  32  33
ENDBRANCH  31  32
ENDBRANCH   1  31
TORSDOF 14
