REMARK SMILES COc1ccc(-c2csc(NC(=O)[C@H](CC(=O)NCCCCCCNC(=O)c3ccc(-c4c5nc(c(-c6c(F)cccc6F)c6ccc([nH]6)c(-c6c(F)cccc6F)c6nc(c(-c7c(F)cccc7F)c7ccc4[nH]7)C=C6)C=C5)cc3)[NH+]3CCCCC3)n2)cc1
REMARK SMILES IDX 20 1 19 2 18 3 16 4 17 5 15 7 14 8 12 9 11 10 13 12 10 13
REMARK SMILES IDX 7 14 8 15 88 16 9 17 6 18 3 19 4 20 90 21 5 22 89 23 2 24
REMARK SMILES IDX 1 25 82 26 83 27 87 28 84 30 86 31 85 32 21 33 22 34 23 35
REMARK SMILES IDX 24 36 25 37 26 38 27 40 28 41 29 42 81 43 30 44 80 45 31 46
REMARK SMILES IDX 32 47 33 48 74 49 34 50 79 51 73 52 75 53 35 54 78 55 72 56
REMARK SMILES IDX 71 57 36 59 62 60 45 61 61 62 46 63 49 64 60 65 76 66 47 67
REMARK SMILES IDX 48 68 59 70 77 71 50 72 37 73 38 74 43 75 39 76 40 77 42 78
REMARK SMILES IDX 44 79 41 80 63 81 64 82 69 83 65 84 66 85 68 86 70 87 67 88
REMARK SMILES IDX 51 89 52 90 57 91 53 92 54 93 56 94 58 95 55 96
REMARK H PARENT 18 6 11 11 82 29 25 39 75 58 49 69
REMARK Flexibility Score: inf
ROOT
ATOM      1  C   UNL     1      -0.007  -8.201  -4.145  1.00  0.00     0.021 C 
ENDROOT
BRANCH   1   2
ATOM      2  C   UNL     1       1.286  -7.834  -3.429  1.00  0.00     0.116 C 
BRANCH   2   3
ATOM      3  N   UNL     1       2.177  -8.941  -3.180  1.00  0.00    -0.356 N 
ATOM      4  C   UNL     1       3.435  -9.180  -3.620  1.00  0.00     0.226 C 
ATOM      5  O   UNL     1       4.194  -9.731  -2.811  1.00  0.00    -0.275 OA
ATOM      6  H   UNL     1       1.809  -9.639  -2.592  1.00  0.00     0.163 HD
BRANCH   4   7
ATOM      7  C   UNL     1       3.972  -8.831  -4.998  1.00  0.00     0.175 C 
BRANCH   7   8
ATOM      8  C   UNL     1       3.165  -8.944  -6.313  1.00  0.00     0.284 C 
BRANCH   8   9
ATOM      9  C   UNL     1       1.857  -9.811  -6.391  1.00  0.00     0.285 C 
ATOM     10  N   UNL     1       1.549 -10.897  -5.631  1.00  0.00    -0.297 N 
ATOM     11  H   UNL     1       0.615 -11.190  -5.741  1.00  0.00     0.172 HD
ATOM     12  O   UNL     1       0.963  -9.539  -7.212  1.00  0.00    -0.268 OA
BRANCH  10  13
ATOM     13  C   UNL     1       2.247 -11.666  -4.752  1.00  0.00     0.190 A 
ATOM     14  C   UNL     1       2.680 -12.761  -2.905  1.00  0.00     0.084 A 
ATOM     15  C   UNL     1       3.922 -12.838  -3.509  1.00  0.00     0.097 A 
ATOM     16  N   UNL     1       1.690 -12.183  -3.679  1.00  0.00    -0.220 NA
ATOM     17  S   UNL     1       3.839 -12.163  -5.087  1.00  0.00    -0.105 S 
BRANCH  14  18
ATOM     18  C   UNL     1       2.440 -13.339  -1.593  1.00  0.00     0.001 A 
ATOM     19  C   UNL     1       2.372 -14.768   0.808  1.00  0.00     0.118 A 
ATOM     20  C   UNL     1       3.043 -13.548   0.749  1.00  0.00     0.047 A 
ATOM     21  C   UNL     1       1.632 -15.214  -0.288  1.00  0.00     0.047 A 
ATOM     22  C   UNL     1       3.087 -12.836  -0.455  1.00  0.00     0.014 A 
ATOM     23  C   UNL     1       1.662 -14.496  -1.486  1.00  0.00     0.014 A 
BRANCH  19  24
ATOM     24  O   UNL     1       2.465 -15.482   1.973  1.00  0.00    -0.497 OA
ATOM     25  C   UNL     1       2.925 -16.817   1.742  1.00  0.00     0.278 C 
ENDBRANCH  19  24
ENDBRANCH  14  18
ENDBRANCH  10  13
ENDBRANCH   8   9
BRANCH   8  26
ATOM     26  N   UNL     1       3.093  -7.571  -6.976  1.00  0.00    -0.324 N 
ATOM     27  C   UNL     1       2.392  -7.473  -8.266  1.00  0.00     0.262 C 
ATOM     28  C   UNL     1       2.755  -6.418  -6.142  1.00  0.00     0.262 C 
ATOM     29  H   UNL     1       4.093  -7.505  -7.170  1.00  0.00     0.348 HD
ATOM     30  C   UNL     1       2.753  -6.171  -9.005  1.00  0.00     0.062 C 
ATOM     31  C   UNL     1       3.223  -5.117  -6.793  1.00  0.00     0.062 C 
ATOM     32  C   UNL     1       2.554  -4.928  -8.140  1.00  0.00     0.012 C 
ENDBRANCH   8  26
ENDBRANCH   7   8
ENDBRANCH   4   7
ENDBRANCH   2   3
ENDBRANCH   1   2
BRANCH   1  33
ATOM     33  C   UNL     1      -0.999  -9.004  -3.303  1.00  0.00     0.002 C 
BRANCH  33  34
ATOM     34  C   UNL     1      -1.528  -8.261  -2.074  1.00  0.00     0.002 C 
BRANCH  34  35
ATOM     35  C   UNL     1      -2.013  -6.834  -2.346  1.00  0.00     0.021 C 
BRANCH  35  36
ATOM     36  C   UNL     1      -3.116  -6.732  -3.396  1.00  0.00     0.116 C 
BRANCH  36  37
ATOM     37  N   UNL     1      -4.362  -7.307  -2.917  1.00  0.00    -0.352 N 
ATOM     38  C   UNL     1      -5.559  -6.686  -2.688  1.00  0.00     0.251 C 
ATOM     39  H   UNL     1      -4.342  -8.273  -2.732  1.00  0.00     0.163 HD
ATOM     40  O   UNL     1      -6.448  -7.263  -2.051  1.00  0.00    -0.269 OA
BRANCH  38  41
ATOM     41  C   UNL     1      -5.791  -5.318  -3.190  1.00  0.00     0.039 A 
ATOM     42  C   UNL     1      -6.364  -4.370  -2.339  1.00  0.00     0.014 A 
ATOM     43  C   UNL     1      -5.456  -4.974  -4.504  1.00  0.00     0.014 A 
ATOM     44  C   UNL     1      -6.553  -3.062  -2.789  1.00  0.00     0.010 A 
ATOM     45  C   UNL     1      -5.583  -3.655  -4.929  1.00  0.00     0.010 A 
ATOM     46  C   UNL     1      -6.139  -2.687  -4.078  1.00  0.00    -0.014 A 
BRANCH  46  47
ATOM     47  C   UNL     1      -6.283  -1.288  -4.554  1.00  0.00     0.031 A 
ATOM     48  C   UNL     1      -7.201  -0.969  -5.701  1.00  0.00     0.074 A 
ATOM     49  C   UNL     1      -5.543  -0.312  -3.991  1.00  0.00     0.049 A 
ATOM     50  N   UNL     1      -7.412   0.177  -6.298  1.00  0.00    -0.248 NA
ATOM     51  C   UNL     1      -7.964  -2.091  -6.270  1.00  0.00     0.031 C 
ATOM     52  C   UNL     1      -4.585  -0.500  -2.901  1.00  0.00     0.029 A 
ATOM     53  N   UNL     1      -5.474   1.030  -4.268  1.00  0.00    -0.354 N 
ATOM     54  C   UNL     1      -8.318  -0.088  -7.317  1.00  0.00     0.074 A 
ATOM     55  C   UNL     1      -8.578  -1.511  -7.291  1.00  0.00     0.031 C 
ATOM     56  C   UNL     1      -4.039   0.686  -2.587  1.00  0.00     0.029 A 
ATOM     57  C   UNL     1      -4.580   1.710  -3.477  1.00  0.00     0.049 A 
ATOM     58  H   UNL     1      -6.014   1.465  -4.967  1.00  0.00     0.167 HD
ATOM     59  C   UNL     1      -8.897   0.778  -8.182  1.00  0.00     0.037 A 
ATOM     60  C   UNL     1      -4.231   3.010  -3.473  1.00  0.00     0.037 A 
ATOM     61  C   UNL     1      -8.655   2.197  -8.192  1.00  0.00     0.049 A 
ATOM     62  C   UNL     1      -4.884   3.950  -4.448  1.00  0.00     0.074 A 
ATOM     63  C   UNL     1      -9.237   3.166  -8.991  1.00  0.00     0.029 A 
ATOM     64  N   UNL     1      -7.755   2.850  -7.363  1.00  0.00    -0.354 N 
ATOM     65  N   UNL     1      -5.788   3.696  -5.362  1.00  0.00    -0.248 NA
ATOM     66  C   UNL     1      -4.473   5.360  -4.385  1.00  0.00     0.031 C 
ATOM     67  C   UNL     1      -8.659   4.399  -8.675  1.00  0.00     0.029 A 
ATOM     68  C   UNL     1      -7.751   4.206  -7.646  1.00  0.00     0.049 A 
ATOM     69  H   UNL     1      -7.201   2.414  -6.676  1.00  0.00     0.167 HD
ATOM     70  C   UNL     1      -6.075   4.915  -5.963  1.00  0.00     0.074 A 
ATOM     71  C   UNL     1      -5.258   5.911  -5.300  1.00  0.00     0.031 C 
ATOM     72  C   UNL     1      -6.938   5.186  -6.972  1.00  0.00     0.037 A 
BRANCH  59  73
ATOM     73  C   UNL     1      -9.855   0.212  -9.190  1.00  0.00     0.057 A 
ATOM     74  C   UNL     1     -11.115  -0.278  -8.818  1.00  0.00     0.134 A 
ATOM     75  C   UNL     1      -9.530   0.189 -10.552  1.00  0.00     0.134 A 
ATOM     76  F   UNL     1     -11.484  -0.294  -7.529  1.00  0.00    -0.206 F 
ATOM     77  C   UNL     1     -12.005  -0.795  -9.761  1.00  0.00     0.040 A 
ATOM     78  C   UNL     1     -10.423  -0.302 -11.507  1.00  0.00     0.040 A 
ATOM     79  F   UNL     1      -8.345   0.649 -10.978  1.00  0.00    -0.206 F 
ATOM     80  C   UNL     1     -11.662  -0.802 -11.111  1.00  0.00     0.006 A 
ENDBRANCH  59  73
BRANCH  60  81
ATOM     81  C   UNL     1      -3.227   3.506  -2.498  1.00  0.00     0.057 A 
ATOM     82  C   UNL     1      -3.603   4.339  -1.438  1.00  0.00     0.134 A 
ATOM     83  C   UNL     1      -1.873   3.169  -2.606  1.00  0.00     0.134 A 
ATOM     84  F   UNL     1      -4.883   4.712  -1.294  1.00  0.00    -0.206 F 
ATOM     85  C   UNL     1      -2.666   4.835  -0.530  1.00  0.00     0.040 A 
ATOM     86  C   UNL     1      -0.929   3.637  -1.690  1.00  0.00     0.040 A 
ATOM     87  F   UNL     1      -1.450   2.369  -3.595  1.00  0.00    -0.206 F 
ATOM     88  C   UNL     1      -1.325   4.479  -0.653  1.00  0.00     0.006 A 
ENDBRANCH  60  81
BRANCH  72  89
ATOM     89  C   UNL     1      -7.072   6.619  -7.396  1.00  0.00     0.057 A 
ATOM     90  C   UNL     1      -6.067   7.274  -8.119  1.00  0.00     0.134 A 
ATOM     91  C   UNL     1      -8.238   7.340  -7.110  1.00  0.00     0.134 A 
ATOM     92  F   UNL     1      -4.920   6.644  -8.413  1.00  0.00    -0.206 F 
ATOM     93  C   UNL     1      -6.209   8.602  -8.524  1.00  0.00     0.040 A 
ATOM     94  C   UNL     1      -8.403   8.659  -7.532  1.00  0.00     0.040 A 
ATOM     95  F   UNL     1      -9.242   6.768  -6.428  1.00  0.00    -0.206 F 
ATOM     96  C   UNL     1      -7.383   9.296  -8.237  1.00  0.00     0.006 A 
ENDBRANCH  72  89
ENDBRANCH  46  47
ENDBRANCH  38  41
ENDBRANCH  36  37
ENDBRANCH  35  36
ENDBRANCH  34  35
ENDBRANCH  33  34
ENDBRANCH   1  33
TORSDOF 19
