REMARK SMILES [NH3+][C@H]1C=C[C@@H](C(=O)NC2(CC(=O)NCCCCCCNC(=O)c3ccc(-c4c5nc(c(-c6c(F)cccc6F)c6ccc([nH]6)c(-c6c(F)cccc6F)c6nc(c(-c7c(F)cccc7F)c7ccc4[nH]7)C=C6)C=C5)cc3)CCC2)C1
REMARK SMILES IDX 15 1 14 2 13 3 11 4 12 5 10 7 9 8 77 9 79 10 78 11 8 12 6 13
REMARK SMILES IDX 7 14 5 16 2 17 3 18 80 19 4 20 1 21 16 25 17 26 18 27 19 28
REMARK SMILES IDX 20 29 21 30 22 32 23 33 24 34 76 35 25 36 75 37 26 38 27 39
REMARK SMILES IDX 28 40 69 41 29 42 74 43 68 44 70 45 30 46 73 47 67 48 66 49
REMARK SMILES IDX 31 51 57 52 40 53 56 54 41 55 44 56 55 57 71 58 42 59 43 60
REMARK SMILES IDX 54 62 72 63 45 64 32 65 33 66 38 67 34 68 35 69 37 70 39 71
REMARK SMILES IDX 36 72 58 73 59 74 64 75 60 76 61 77 63 78 65 79 62 80 46 81
REMARK SMILES IDX 47 82 52 83 48 84 49 85 51 86 53 87 50 88
REMARK H PARENT 13 6 8 15 1 22 1 23 1 24 20 31 70 50 44 61
REMARK Flexibility Score: inf
ROOT
ATOM      1  C   UNL     1       3.090  -2.615  -2.135  1.00  0.00     0.021 C 
ENDROOT
BRANCH   1   2
ATOM      2  C   UNL     1       2.439  -2.867  -3.498  1.00  0.00     0.116 C 
BRANCH   2   3
ATOM      3  N   UNL     1       1.926  -4.218  -3.566  1.00  0.00    -0.356 N 
ATOM      4  C   UNL     1       0.678  -4.670  -3.277  1.00  0.00     0.222 C 
ATOM      5  O   UNL     1       0.505  -5.886  -3.159  1.00  0.00    -0.275 OA
ATOM      6  H   UNL     1       2.569  -4.902  -3.862  1.00  0.00     0.163 HD
BRANCH   4   7
ATOM      7  C   UNL     1      -0.483  -3.715  -3.111  1.00  0.00     0.128 C 
BRANCH   7   8
ATOM      8  C   UNL     1      -0.754  -3.178  -1.684  1.00  0.00     0.049 C 
ATOM      9  C   UNL     1      -2.208  -2.622  -1.562  1.00  0.00     0.029 C 
ATOM     10  C   UNL     1      -0.268  -1.728  -1.483  1.00  0.00     0.029 C 
ATOM     11  C   UNL     1      -1.660  -1.225  -1.892  1.00  0.00     0.005 C 
BRANCH   8  12
ATOM     12  N   UNL     1      -0.448  -4.223  -0.677  1.00  0.00    -0.350 N 
ATOM     13  C   UNL     1      -0.225  -4.326   0.659  1.00  0.00     0.227 C 
ATOM     14  O   UNL     1      -0.026  -5.486   1.057  1.00  0.00    -0.274 OA
ATOM     15  H   UNL     1      -0.388  -5.107  -1.105  1.00  0.00     0.164 HD
BRANCH  13  16
ATOM     16  C   UNL     1      -0.148  -3.205   1.702  1.00  0.00     0.107 C 
ATOM     17  C   UNL     1       0.733  -0.942   2.049  1.00  0.00     0.205 C 
ATOM     18  C   UNL     1      -0.758  -0.959   1.950  1.00  0.00     0.033 C 
ATOM     19  C   UNL     1       1.140  -2.374   1.657  1.00  0.00     0.087 C 
ATOM     20  C   UNL     1      -1.242  -2.192   1.755  1.00  0.00    -0.012 C 
BRANCH  17  21
ATOM     21  N   UNL     1       1.322   0.044   1.156  1.00  0.00    -0.352 N 
ATOM     22  H   UNL     1       1.033   0.979   1.444  1.00  0.00     0.345 HD
ATOM     23  H   UNL     1       1.008  -0.131   0.202  1.00  0.00     0.345 HD
ATOM     24  H   UNL     1       2.339  -0.025   1.197  1.00  0.00     0.345 HD
ENDBRANCH  17  21
ENDBRANCH  13  16
ENDBRANCH   8  12
ENDBRANCH   7   8
ENDBRANCH   4   7
ENDBRANCH   2   3
ENDBRANCH   1   2
BRANCH   1  25
ATOM     25  C   UNL     1       4.549  -3.080  -2.062  1.00  0.00     0.002 C 
BRANCH  25  26
ATOM     26  C   UNL     1       5.517  -2.280  -2.942  1.00  0.00     0.002 C 
BRANCH  26  27
ATOM     27  C   UNL     1       5.571  -0.777  -2.653  1.00  0.00     0.021 C 
BRANCH  27  28
ATOM     28  C   UNL     1       6.014  -0.418  -1.237  1.00  0.00     0.116 C 
BRANCH  28  29
ATOM     29  N   UNL     1       7.374  -0.860  -0.968  1.00  0.00    -0.352 N 
ATOM     30  C   UNL     1       8.483  -0.131  -0.636  1.00  0.00     0.251 C 
ATOM     31  H   UNL     1       7.518  -1.832  -1.035  1.00  0.00     0.163 HD
ATOM     32  O   UNL     1       9.599  -0.653  -0.688  1.00  0.00    -0.269 OA
BRANCH  30  33
ATOM     33  C   UNL     1       8.359   1.281  -0.219  1.00  0.00     0.039 A 
ATOM     34  C   UNL     1       9.298   2.208  -0.680  1.00  0.00     0.014 A 
ATOM     35  C   UNL     1       7.352   1.685   0.663  1.00  0.00     0.014 A 
ATOM     36  C   UNL     1       9.199   3.546  -0.295  1.00  0.00     0.010 A 
ATOM     37  C   UNL     1       7.212   3.031   0.991  1.00  0.00     0.010 A 
ATOM     38  C   UNL     1       8.140   3.973   0.524  1.00  0.00    -0.014 A 
BRANCH  38  39
ATOM     39  C   UNL     1       7.999   5.402   0.900  1.00  0.00     0.031 A 
ATOM     40  C   UNL     1       8.143   5.832   2.334  1.00  0.00     0.074 A 
ATOM     41  C   UNL     1       7.694   6.309  -0.047  1.00  0.00     0.049 A 
ATOM     42  N   UNL     1       8.043   7.030   2.851  1.00  0.00    -0.248 NA
ATOM     43  C   UNL     1       8.408   4.773   3.320  1.00  0.00     0.031 C 
ATOM     44  C   UNL     1       7.475   6.010  -1.463  1.00  0.00     0.029 A 
ATOM     45  N   UNL     1       7.515   7.667   0.038  1.00  0.00    -0.354 N 
ATOM     46  C   UNL     1       8.220   6.867   4.220  1.00  0.00     0.074 A 
ATOM     47  C   UNL     1       8.377   5.449   4.458  1.00  0.00     0.031 C 
ATOM     48  C   UNL     1       7.226   7.154  -2.119  1.00  0.00     0.029 A 
ATOM     49  C   UNL     1       7.237   8.261  -1.168  1.00  0.00     0.049 A 
ATOM     50  H   UNL     1       7.580   8.167   0.884  1.00  0.00     0.167 HD
ATOM     51  C   UNL     1       8.272   7.815   5.186  1.00  0.00     0.037 A 
ATOM     52  C   UNL     1       7.024   9.554  -1.474  1.00  0.00     0.037 A 
ATOM     53  C   UNL     1       8.140   9.228   4.942  1.00  0.00     0.049 A 
ATOM     54  C   UNL     1       7.096  10.589  -0.387  1.00  0.00     0.074 A 
ATOM     55  C   UNL     1       8.244  10.273   5.843  1.00  0.00     0.029 A 
ATOM     56  N   UNL     1       7.872   9.793   3.704  1.00  0.00    -0.354 N 
ATOM     57  N   UNL     1       7.340  10.430   0.891  1.00  0.00    -0.248 NA
ATOM     58  C   UNL     1       6.872  11.985  -0.788  1.00  0.00     0.031 C 
ATOM     59  C   UNL     1       7.997  11.468   5.158  1.00  0.00     0.029 A 
ATOM     60  C   UNL     1       7.785  11.170   3.821  1.00  0.00     0.049 A 
ATOM     61  H   UNL     1       7.760   9.289   2.866  1.00  0.00     0.167 HD
ATOM     62  C   UNL     1       7.328  11.704   1.442  1.00  0.00     0.074 A 
ATOM     63  C   UNL     1       7.062  12.626   0.357  1.00  0.00     0.031 C 
ATOM     64  C   UNL     1       7.523  12.076   2.731  1.00  0.00     0.037 A 
BRANCH  51  65
ATOM     65  C   UNL     1       8.482   7.348   6.598  1.00  0.00     0.057 A 
ATOM     66  C   UNL     1       9.702   6.807   7.025  1.00  0.00     0.134 A 
ATOM     67  C   UNL     1       7.457   7.455   7.548  1.00  0.00     0.134 A 
ATOM     68  F   UNL     1      10.721   6.665   6.163  1.00  0.00    -0.206 F 
ATOM     69  C   UNL     1       9.885   6.358   8.334  1.00  0.00     0.040 A 
ATOM     70  C   UNL     1       7.638   7.037   8.867  1.00  0.00     0.040 A 
ATOM     71  F   UNL     1       6.266   7.970   7.210  1.00  0.00    -0.206 F 
ATOM     72  C   UNL     1       8.852   6.478   9.261  1.00  0.00     0.006 A 
ENDBRANCH  51  65
BRANCH  52  73
ATOM     73  C   UNL     1       6.771   9.945  -2.883  1.00  0.00     0.057 A 
ATOM     74  C   UNL     1       7.743  10.627  -3.624  1.00  0.00     0.134 A 
ATOM     75  C   UNL     1       5.568   9.633  -3.526  1.00  0.00     0.134 A 
ATOM     76  F   UNL     1       8.909  10.966  -3.056  1.00  0.00    -0.206 F 
ATOM     77  C   UNL     1       7.524  10.996  -4.952  1.00  0.00     0.040 A 
ATOM     78  C   UNL     1       5.344   9.976  -4.860  1.00  0.00     0.040 A 
ATOM     79  F   UNL     1       4.601   8.972  -2.872  1.00  0.00    -0.206 F 
ATOM     80  C   UNL     1       6.322  10.664  -5.575  1.00  0.00     0.006 A 
ENDBRANCH  52  73
BRANCH  64  81
ATOM     81  C   UNL     1       7.487  13.545   3.033  1.00  0.00     0.057 A 
ATOM     82  C   UNL     1       6.290  14.271   3.036  1.00  0.00     0.134 A 
ATOM     83  C   UNL     1       8.663  14.233   3.359  1.00  0.00     0.134 A 
ATOM     84  F   UNL     1       5.131  13.674   2.719  1.00  0.00    -0.206 F 
ATOM     85  C   UNL     1       6.266  15.635   3.333  1.00  0.00     0.040 A 
ATOM     86  C   UNL     1       8.649  15.590   3.682  1.00  0.00     0.040 A 
ATOM     87  F   UNL     1       9.843  13.594   3.382  1.00  0.00    -0.206 F 
ATOM     88  C   UNL     1       7.448  16.297   3.663  1.00  0.00     0.006 A 
ENDBRANCH  64  81
ENDBRANCH  38  39
ENDBRANCH  30  33
ENDBRANCH  28  29
ENDBRANCH  27  28
ENDBRANCH  26  27
ENDBRANCH  25  26
ENDBRANCH   1  25
TORSDOF 17
