REMARK SMILES O=C(CCn1cc(/C=C\C(=O)c2ccc(F)cc2)c(-c2cccc(Cl)c2)n1)NCCCCCCNC(=O)c1ccc(-c2c3nc(c(-c4c(F)cccc4F)c4ccc([nH]4)c(-c4c(F)cccc4F)c4nc(c(-c5c(F)cccc5F)c5ccc2[nH]5)C=C4)C=C3)cc1
REMARK SMILES IDX 30 1 29 2 28 3 1 4 2 5 3 7 4 8 5 9 6 10 27 11 7 12 19 13
REMARK SMILES IDX 8 14 9 15 10 16 11 17 12 18 13 19 18 20 14 21 17 22 15 23
REMARK SMILES IDX 16 24 20 25 21 26 26 27 22 28 24 29 23 30 25 31 31 32 32 33
REMARK SMILES IDX 33 34 34 35 35 36 36 37 37 39 38 40 39 41 91 42 40 43 90 44
REMARK SMILES IDX 41 45 42 46 43 47 84 48 44 49 89 50 83 51 85 52 45 53 88 54
REMARK SMILES IDX 82 55 81 56 46 58 72 59 55 60 71 61 56 62 59 63 70 64 86 65
REMARK SMILES IDX 57 66 58 67 69 69 87 70 60 71 47 72 48 73 53 74 49 75 50 76
REMARK SMILES IDX 52 77 54 78 51 79 73 80 74 81 79 82 75 83 76 84 78 85 80 86
REMARK SMILES IDX 77 87 61 88 62 89 67 90 63 91 64 92 66 93 68 94 65 95
REMARK H PARENT 28 6 35 38 85 57 59 68
REMARK Flexibility Score: inf
ROOT
ATOM      1  C   UNL     1       2.349   1.735  -3.050  1.00  0.00     0.021 C 
ENDROOT
BRANCH   1   2
ATOM      2  C   UNL     1       1.864   0.425  -2.411  1.00  0.00     0.116 C 
BRANCH   2   3
ATOM      3  N   UNL     1       2.596   0.118  -1.192  1.00  0.00    -0.356 N 
ATOM      4  O   UNL     1       0.758   0.002   0.156  1.00  0.00    -0.275 OA
ATOM      5  C   UNL     1       1.980  -0.005   0.029  1.00  0.00     0.221 C 
ATOM      6  H   UNL     1       3.571  -0.005  -1.244  1.00  0.00     0.163 HD
BRANCH   5   7
ATOM      7  C   UNL     1       2.886  -0.021   1.249  1.00  0.00     0.123 C 
BRANCH   7   8
ATOM      8  C   UNL     1       3.874  -1.175   1.337  1.00  0.00     0.154 C 
BRANCH   8   9
ATOM      9  N   UNL     1       5.125  -1.059   0.607  1.00  0.00    -0.271 N 
ATOM     10  C   UNL     1       5.671   0.015  -0.042  1.00  0.00     0.117 A 
ATOM     11  N   UNL     1       5.806  -2.196   0.382  1.00  0.00    -0.172 NA
ATOM     12  C   UNL     1       6.514  -0.516  -1.002  1.00  0.00     0.021 A 
ATOM     13  C   UNL     1       6.509  -1.932  -0.725  1.00  0.00     0.100 A 
BRANCH  12  14
ATOM     14  C   UNL     1       7.130   0.266  -2.047  1.00  0.00     0.016 C 
ATOM     15  C   UNL     1       7.649  -0.046  -3.258  1.00  0.00     0.053 C 
BRANCH  15  16
ATOM     16  C   UNL     1       7.830  -1.312  -4.090  1.00  0.00     0.185 C 
ATOM     17  O   UNL     1       8.133  -1.211  -5.273  1.00  0.00    -0.289 OA
BRANCH  16  18
ATOM     18  C   UNL     1       7.456  -2.664  -3.457  1.00  0.00     0.022 A 
ATOM     19  C   UNL     1       5.687  -2.404  -3.164  1.00  0.00     0.015 A 
ATOM     20  C   UNL     1       8.322  -4.217  -2.472  1.00  0.00     0.015 A 
ATOM     21  C   UNL     1       4.847  -3.401  -1.982  1.00  0.00     0.040 A 
ATOM     22  C   UNL     1       7.331  -5.142  -1.291  1.00  0.00     0.040 A 
ATOM     23  C   UNL     1       5.659  -4.686  -1.081  1.00  0.00     0.123 A 
ATOM     24  F   UNL     1       4.923  -5.379  -0.199  1.00  0.00    -0.207 F 
ENDBRANCH  16  18
ENDBRANCH  15  16
ENDBRANCH  12  14
BRANCH  13  25
ATOM     25  C   UNL     1       7.167  -2.990  -1.612  1.00  0.00     0.004 A 
ATOM     26  C   UNL     1       6.555  -4.276  -3.067  1.00  0.00     0.010 A 
ATOM     27  C   UNL     1       8.854  -2.321  -1.790  1.00  0.00     0.031 A 
ATOM     28  C   UNL     1       7.632  -4.588  -4.463  1.00  0.00     0.002 A 
ATOM     29  C   UNL     1       9.778  -2.728  -3.229  1.00  0.00     0.041 A 
ATOM     30  C   UNL     1       9.184  -3.796  -4.502  1.00  0.00     0.020 A 
ATOM     31  Cl  UNL     1      11.337  -2.021  -3.430  1.00  0.00    -0.084 Cl
ENDBRANCH  13  25
ENDBRANCH   8   9
ENDBRANCH   7   8
ENDBRANCH   5   7
ENDBRANCH   2   3
ENDBRANCH   1   2
BRANCH   1  32
ATOM     32  C   UNL     1       3.827   1.753  -3.458  1.00  0.00     0.002 C 
BRANCH  32  33
ATOM     33  C   UNL     1       4.236   0.617  -4.394  1.00  0.00     0.002 C 
BRANCH  33  34
ATOM     34  C   UNL     1       3.634   0.540  -5.794  1.00  0.00     0.021 C 
BRANCH  34  35
ATOM     35  C   UNL     1       3.992   1.721  -6.668  1.00  0.00     0.116 C 
BRANCH  35  36
ATOM     36  N   UNL     1       5.403   1.764  -7.080  1.00  0.00    -0.352 N 
ATOM     37  C   UNL     1       5.979   2.655  -7.981  1.00  0.00     0.251 C 
ATOM     38  H   UNL     1       6.001   1.094  -6.677  1.00  0.00     0.163 HD
ATOM     39  O   UNL     1       7.030   2.412  -8.558  1.00  0.00    -0.269 OA
BRANCH  37  40
ATOM     40  C   UNL     1       5.296   3.945  -8.189  1.00  0.00     0.039 A 
ATOM     41  C   UNL     1       5.110   4.550  -9.436  1.00  0.00     0.014 A 
ATOM     42  C   UNL     1       4.715   4.482  -7.053  1.00  0.00     0.014 A 
ATOM     43  C   UNL     1       4.321   5.702  -9.496  1.00  0.00     0.010 A 
ATOM     44  C   UNL     1       3.646   5.301  -7.221  1.00  0.00     0.010 A 
ATOM     45  C   UNL     1       3.599   6.081  -8.354  1.00  0.00    -0.014 A 
BRANCH  45  46
ATOM     46  C   UNL     1       2.610   7.149  -8.310  1.00  0.00     0.031 A 
ATOM     47  C   UNL     1       1.515   6.906  -9.277  1.00  0.00     0.074 A 
ATOM     48  C   UNL     1       2.585   8.092  -7.332  1.00  0.00     0.049 A 
ATOM     49  N   UNL     1       1.347   7.501 -10.408  1.00  0.00    -0.248 NA
ATOM     50  C   UNL     1       0.663   5.714  -9.105  1.00  0.00     0.031 C 
ATOM     51  C   UNL     1       3.464   8.234  -6.159  1.00  0.00     0.029 A 
ATOM     52  N   UNL     1       1.704   9.123  -7.147  1.00  0.00    -0.354 N 
ATOM     53  C   UNL     1       0.190   6.953 -10.946  1.00  0.00     0.074 A 
ATOM     54  C   UNL     1      -0.023   5.714 -10.252  1.00  0.00     0.031 C 
ATOM     55  C   UNL     1       2.945   9.133  -5.287  1.00  0.00     0.029 A 
ATOM     56  C   UNL     1       1.787   9.757  -5.894  1.00  0.00     0.049 A 
ATOM     57  H   UNL     1       1.060   9.400  -7.839  1.00  0.00     0.167 HD
ATOM     58  C   UNL     1      -0.652   7.732 -11.678  1.00  0.00     0.037 A 
ATOM     59  C   UNL     1       0.954  10.733  -5.426  1.00  0.00     0.037 A 
ATOM     60  C   UNL     1       0.011   8.958 -12.061  1.00  0.00     0.049 A 
ATOM     61  C   UNL     1       0.291  11.328  -6.617  1.00  0.00     0.074 A 
ATOM     62  C   UNL     1       1.131   9.261 -12.810  1.00  0.00     0.029 A 
ATOM     63  N   UNL     1      -0.226  10.053 -11.267  1.00  0.00    -0.354 N 
ATOM     64  N   UNL     1       0.937  11.999  -7.530  1.00  0.00    -0.248 NA
ATOM     65  C   UNL     1      -0.951  10.703  -7.043  1.00  0.00     0.031 C 
ATOM     66  C   UNL     1       1.776  10.314 -12.098  1.00  0.00     0.029 A 
ATOM     67  C   UNL     1       0.964  10.689 -11.027  1.00  0.00     0.049 A 
ATOM     68  H   UNL     1      -1.106  10.335 -10.927  1.00  0.00     0.167 HD
ATOM     69  C   UNL     1       0.446  11.505  -8.729  1.00  0.00     0.074 A 
ATOM     70  C   UNL     1      -0.738  10.723  -8.361  1.00  0.00     0.031 C 
ATOM     71  C   UNL     1       1.216  11.499  -9.856  1.00  0.00     0.037 A 
BRANCH  58  72
ATOM     72  C   UNL     1      -2.156   7.609 -11.671  1.00  0.00     0.057 A 
ATOM     73  C   UNL     1      -2.910   6.963 -10.669  1.00  0.00     0.134 A 
ATOM     74  C   UNL     1      -2.905   8.412 -12.550  1.00  0.00     0.134 A 
ATOM     75  F   UNL     1      -2.349   6.241  -9.692  1.00  0.00    -0.206 F 
ATOM     76  C   UNL     1      -4.294   7.109 -10.545  1.00  0.00     0.040 A 
ATOM     77  C   UNL     1      -4.284   8.604 -12.405  1.00  0.00     0.040 A 
ATOM     78  F   UNL     1      -2.305   9.103 -13.531  1.00  0.00    -0.206 F 
ATOM     79  C   UNL     1      -4.984   7.953 -11.398  1.00  0.00     0.006 A 
ENDBRANCH  58  72
BRANCH  59  80
ATOM     80  C   UNL     1       0.375  10.924  -4.065  1.00  0.00     0.057 A 
ATOM     81  C   UNL     1       0.203   9.840  -3.190  1.00  0.00     0.134 A 
ATOM     82  C   UNL     1      -0.329  12.096  -3.724  1.00  0.00     0.134 A 
ATOM     83  F   UNL     1       0.774   8.654  -3.446  1.00  0.00    -0.206 F 
ATOM     84  C   UNL     1      -0.643   9.898  -2.073  1.00  0.00     0.040 A 
ATOM     85  C   UNL     1      -1.178  12.169  -2.606  1.00  0.00     0.040 A 
ATOM     86  F   UNL     1      -0.271  13.179  -4.513  1.00  0.00    -0.206 F 
ATOM     87  C   UNL     1      -1.351  11.059  -1.786  1.00  0.00     0.006 A 
ENDBRANCH  59  80
BRANCH  71  88
ATOM     88  C   UNL     1       2.523  12.251  -9.836  1.00  0.00     0.057 A 
ATOM     89  C   UNL     1       2.710  13.251 -10.796  1.00  0.00     0.134 A 
ATOM     90  C   UNL     1       3.643  11.902  -9.063  1.00  0.00     0.134 A 
ATOM     91  F   UNL     1       1.697  13.606 -11.601  1.00  0.00    -0.206 F 
ATOM     92  C   UNL     1       3.950  13.859 -11.002  1.00  0.00     0.040 A 
ATOM     93  C   UNL     1       4.885  12.527  -9.238  1.00  0.00     0.040 A 
ATOM     94  F   UNL     1       3.588  10.907  -8.169  1.00  0.00    -0.206 F 
ATOM     95  C   UNL     1       5.043  13.500 -10.220  1.00  0.00     0.006 A 
ENDBRANCH  71  88
ENDBRANCH  45  46
ENDBRANCH  37  40
ENDBRANCH  35  36
ENDBRANCH  34  35
ENDBRANCH  33  34
ENDBRANCH  32  33
ENDBRANCH   1  32
TORSDOF 19
