REMARK SMILES O=C(CC[N@H+]1CCC[C@@H](C(=O)NCCCCCCNC(=O)c2ccc(-c3c4nc(c(-c5c(F)cccc5F)c5ccc([nH]5)c(-c5c(F)cccc5F)c5nc(c(-c6c(F)cccc6F)c6ccc3[nH]6)C=C5)C=C4)cc2)C1)Nc1cccc(F)c1
REMARK SMILES IDX 14 1 13 2 12 3 10 4 11 5 9 7 5 8 6 9 76 10 7 12 8 13 4 14
REMARK SMILES IDX 3 15 2 16 1 17 77 18 78 20 79 21 84 22 80 23 82 24 81 25
REMARK SMILES IDX 83 26 15 27 16 28 17 29 18 30 19 31 20 32 21 34 22 35 23 36
REMARK SMILES IDX 75 37 24 38 74 39 25 40 26 41 27 42 68 43 28 44 73 45 67 46
REMARK SMILES IDX 69 47 29 48 72 49 66 50 65 51 30 53 56 54 39 55 55 56 40 57
REMARK SMILES IDX 43 58 54 59 70 60 41 61 42 62 53 64 71 65 44 66 31 67 32 68
REMARK SMILES IDX 37 69 33 70 34 71 36 72 38 73 35 74 57 75 58 76 63 77 59 78
REMARK SMILES IDX 60 79 62 80 64 81 61 82 45 83 46 84 51 85 47 86 48 87 50 88
REMARK SMILES IDX 52 89 49 90
REMARK H PARENT 12 6 5 11 77 19 19 33 69 52 43 63
REMARK Flexibility Score: inf
ROOT
ATOM      1  C   UNL     1       5.518  -2.984  -4.258  1.00  0.00     0.021 C 
ENDROOT
BRANCH   1   2
ATOM      2  C   UNL     1       6.788  -2.545  -3.529  1.00  0.00     0.116 C 
BRANCH   2   3
ATOM      3  N   UNL     1       6.763  -1.135  -3.204  1.00  0.00    -0.356 N 
ATOM      4  C   UNL     1       6.632  -0.419  -2.066  1.00  0.00     0.228 C 
ATOM      5  O   UNL     1       6.704   0.809  -2.222  1.00  0.00    -0.275 OA
ATOM      6  H   UNL     1       6.866  -0.564  -3.999  1.00  0.00     0.163 HD
BRANCH   4   7
ATOM      7  C   UNL     1       6.443  -0.983  -0.645  1.00  0.00     0.133 C 
ATOM      8  N   UNL     1       4.736  -0.499   1.241  1.00  0.00    -0.334 N 
ATOM      9  C   UNL     1       4.600  -1.911   1.543  1.00  0.00     0.262 C 
ATOM     10  C   UNL     1       5.421  -0.039   0.037  1.00  0.00     0.275 C 
ATOM     11  H   UNL     1       5.547  -0.327   1.835  1.00  0.00     0.348 HD
ATOM     12  C   UNL     1       5.722  -2.763   0.981  1.00  0.00     0.062 C 
ATOM     13  C   UNL     1       6.029  -2.437  -0.473  1.00  0.00     0.025 C 
BRANCH   8  14
ATOM     14  C   UNL     1       3.663   0.359   1.766  1.00  0.00     0.272 C 
BRANCH  14  15
ATOM     15  C   UNL     1       2.743   1.104   0.784  1.00  0.00     0.161 C 
BRANCH  15  16
ATOM     16  C   UNL     1       1.736   0.285  -0.017  1.00  0.00     0.230 C 
ATOM     17  O   UNL     1       0.578   0.678  -0.142  1.00  0.00    -0.275 OA
ATOM     18  N   UNL     1       2.254  -0.842  -0.615  1.00  0.00    -0.326 N 
ATOM     19  H   UNL     1       3.162  -1.100  -0.334  1.00  0.00     0.169 HD
BRANCH  18  20
ATOM     20  C   UNL     1       1.647  -1.670  -1.576  1.00  0.00     0.044 A 
ATOM     21  C   UNL     1       2.194  -2.948  -1.769  1.00  0.00     0.026 A 
ATOM     22  C   UNL     1       0.577  -1.264  -2.368  1.00  0.00     0.065 A 
ATOM     23  C   UNL     1       1.672  -3.815  -2.732  1.00  0.00     0.005 A 
ATOM     24  C   UNL     1       0.076  -2.127  -3.340  1.00  0.00     0.125 A 
ATOM     25  C   UNL     1       0.610  -3.398  -3.527  1.00  0.00     0.039 A 
ATOM     26  F   UNL     1      -0.932  -1.723  -4.125  1.00  0.00    -0.207 F 
ENDBRANCH  18  20
ENDBRANCH  15  16
ENDBRANCH  14  15
ENDBRANCH   8  14
ENDBRANCH   4   7
ENDBRANCH   2   3
ENDBRANCH   1   2
BRANCH   1  27
ATOM     27  C   UNL     1       5.502  -2.646  -5.755  1.00  0.00     0.002 C 
BRANCH  27  28
ATOM     28  C   UNL     1       6.684  -3.190  -6.568  1.00  0.00     0.002 C 
BRANCH  28  29
ATOM     29  C   UNL     1       6.975  -4.683  -6.388  1.00  0.00     0.021 C 
BRANCH  29  30
ATOM     30  C   UNL     1       5.834  -5.606  -6.803  1.00  0.00     0.116 C 
BRANCH  30  31
ATOM     31  N   UNL     1       5.569  -5.532  -8.230  1.00  0.00    -0.352 N 
ATOM     32  C   UNL     1       5.566  -6.531  -9.171  1.00  0.00     0.251 C 
ATOM     33  H   UNL     1       5.362  -4.632  -8.572  1.00  0.00     0.163 HD
ATOM     34  O   UNL     1       5.537  -6.253 -10.365  1.00  0.00    -0.269 OA
BRANCH  32  35
ATOM     35  C   UNL     1       5.607  -7.947  -8.748  1.00  0.00     0.039 A 
ATOM     36  C   UNL     1       6.441  -8.834  -9.434  1.00  0.00     0.014 A 
ATOM     37  C   UNL     1       4.801  -8.409  -7.702  1.00  0.00     0.014 A 
ATOM     38  C   UNL     1       6.504 -10.172  -9.042  1.00  0.00     0.010 A 
ATOM     39  C   UNL     1       4.913  -9.727  -7.270  1.00  0.00     0.010 A 
ATOM     40  C   UNL     1       5.759 -10.624  -7.940  1.00  0.00    -0.014 A 
BRANCH  40  41
ATOM     41  C   UNL     1       5.837 -12.034  -7.486  1.00  0.00     0.031 A 
ATOM     42  C   UNL     1       4.628 -12.924  -7.576  1.00  0.00     0.074 A 
ATOM     43  C   UNL     1       6.978 -12.497  -6.939  1.00  0.00     0.049 A 
ATOM     44  N   UNL     1       4.475 -14.157  -7.165  1.00  0.00    -0.248 NA
ATOM     45  C   UNL     1       3.422 -12.340  -8.184  1.00  0.00     0.031 C 
ATOM     46  C   UNL     1       8.206 -11.722  -6.760  1.00  0.00     0.029 A 
ATOM     47  N   UNL     1       7.285 -13.731  -6.423  1.00  0.00    -0.354 N 
ATOM     48  C   UNL     1       3.158 -14.491  -7.452  1.00  0.00     0.074 A 
ATOM     49  C   UNL     1       2.539 -13.314  -8.024  1.00  0.00     0.031 C 
ATOM     50  C   UNL     1       9.140 -12.504  -6.194  1.00  0.00     0.029 A 
ATOM     51  C   UNL     1       8.567 -13.822  -5.939  1.00  0.00     0.049 A 
ATOM     52  H   UNL     1       6.647 -14.480  -6.402  1.00  0.00     0.167 HD
ATOM     53  C   UNL     1       2.527 -15.677  -7.279  1.00  0.00     0.037 A 
ATOM     54  C   UNL     1       9.207 -14.851  -5.352  1.00  0.00     0.037 A 
ATOM     55  C   UNL     1       3.152 -16.854  -6.735  1.00  0.00     0.049 A 
ATOM     56  C   UNL     1       8.483 -16.155  -5.167  1.00  0.00     0.074 A 
ATOM     57  C   UNL     1       2.613 -18.117  -6.564  1.00  0.00     0.029 A 
ATOM     58  N   UNL     1       4.460 -16.911  -6.275  1.00  0.00    -0.354 N 
ATOM     59  N   UNL     1       7.254 -16.473  -5.495  1.00  0.00    -0.248 NA
ATOM     60  C   UNL     1       9.238 -17.247  -4.535  1.00  0.00     0.031 C 
ATOM     61  C   UNL     1       3.583 -18.929  -5.967  1.00  0.00     0.029 A 
ATOM     62  C   UNL     1       4.740 -18.183  -5.806  1.00  0.00     0.049 A 
ATOM     63  H   UNL     1       5.094 -16.158  -6.281  1.00  0.00     0.167 HD
ATOM     64  C   UNL     1       7.098 -17.807  -5.139  1.00  0.00     0.074 A 
ATOM     65  C   UNL     1       8.362 -18.241  -4.580  1.00  0.00     0.031 C 
ATOM     66  C   UNL     1       6.007 -18.601  -5.264  1.00  0.00     0.037 A 
BRANCH  53  67
ATOM     67  C   UNL     1       1.086 -15.759  -7.690  1.00  0.00     0.057 A 
ATOM     68  C   UNL     1       0.701 -15.740  -9.037  1.00  0.00     0.134 A 
ATOM     69  C   UNL     1       0.073 -15.889  -6.731  1.00  0.00     0.134 A 
ATOM     70  F   UNL     1       1.621 -15.605 -10.004  1.00  0.00    -0.206 F 
ATOM     71  C   UNL     1      -0.640 -15.819  -9.415  1.00  0.00     0.040 A 
ATOM     72  C   UNL     1      -1.270 -15.997  -7.098  1.00  0.00     0.040 A 
ATOM     73  F   UNL     1       0.372 -15.921  -5.424  1.00  0.00    -0.206 F 
ATOM     74  C   UNL     1      -1.630 -15.955  -8.444  1.00  0.00     0.006 A 
ENDBRANCH  53  67
BRANCH  54  75
ATOM     75  C   UNL     1      10.618 -14.701  -4.920  1.00  0.00     0.057 A 
ATOM     76  C   UNL     1      11.651 -15.368  -5.590  1.00  0.00     0.134 A 
ATOM     77  C   UNL     1      10.969 -13.902  -3.826  1.00  0.00     0.134 A 
ATOM     78  F   UNL     1      11.374 -16.162  -6.634  1.00  0.00    -0.206 F 
ATOM     79  C   UNL     1      12.979 -15.264  -5.174  1.00  0.00     0.040 A 
ATOM     80  C   UNL     1      12.296 -13.769  -3.414  1.00  0.00     0.040 A 
ATOM     81  F   UNL     1      10.027 -13.230  -3.147  1.00  0.00    -0.206 F 
ATOM     82  C   UNL     1      13.305 -14.458  -4.085  1.00  0.00     0.006 A 
ENDBRANCH  54  75
BRANCH  66  83
ATOM     83  C   UNL     1       6.146 -20.029  -4.826  1.00  0.00     0.057 A 
ATOM     84  C   UNL     1       6.207 -20.385  -3.473  1.00  0.00     0.134 A 
ATOM     85  C   UNL     1       6.182 -21.062  -5.771  1.00  0.00     0.134 A 
ATOM     86  F   UNL     1       6.191 -19.441  -2.520  1.00  0.00    -0.206 F 
ATOM     87  C   UNL     1       6.322 -21.718  -3.076  1.00  0.00     0.040 A 
ATOM     88  C   UNL     1       6.272 -22.400  -5.386  1.00  0.00     0.040 A 
ATOM     89  F   UNL     1       6.120 -20.788  -7.083  1.00  0.00    -0.206 F 
ATOM     90  C   UNL     1       6.348 -22.730  -4.034  1.00  0.00     0.006 A 
ENDBRANCH  66  83
ENDBRANCH  40  41
ENDBRANCH  32  35
ENDBRANCH  30  31
ENDBRANCH  29  30
ENDBRANCH  28  29
ENDBRANCH  27  28
ENDBRANCH   1  27
TORSDOF 17
