REMARK SMILES Cc1csc([C@H](C)NC(=O)N[C@H]2C=C[C@@H](C(=O)NCCCCCCNC(=O)c3ccc(-c4c5nc(c(-c6c(F)cccc6F)c6ccc([nH]6)c(-c6c(F)cccc6F)c6nc(c(-c7c(F)cccc7F)c7ccc4[nH]7)C=C6)C=C5)cc3)C2)n1
REMARK SMILES IDX 21 1 20 2 19 3 18 4 16 5 17 6 15 8 12 9 13 10 82 11 14 12
REMARK SMILES IDX 11 13 8 14 9 15 10 17 6 19 7 20 5 21 1 22 2 23 3 24 83 25
REMARK SMILES IDX 4 26 22 27 23 28 24 29 25 30 26 31 27 33 28 34 29 35 81 36
REMARK SMILES IDX 30 37 80 38 31 39 32 40 33 41 74 42 34 43 79 44 73 45 75 46
REMARK SMILES IDX 35 47 78 48 72 49 71 50 36 52 62 53 45 54 61 55 46 56 49 57
REMARK SMILES IDX 60 58 76 59 47 60 48 61 59 63 77 64 50 65 37 66 38 67 43 68
REMARK SMILES IDX 39 69 40 70 42 71 44 72 41 73 63 74 64 75 69 76 65 77 66 78
REMARK SMILES IDX 68 79 70 80 67 81 51 82 52 83 57 84 53 85 54 86 56 87 58 88
REMARK SMILES IDX 55 89
REMARK H PARENT 18 7 8 16 11 18 25 32 75 51 49 62
REMARK Flexibility Score: inf
ROOT
ATOM      1  C   UNL     1       3.703  -1.033   5.474  1.00  0.00     0.002 C 
ENDROOT
BRANCH   1   2
ATOM      2  C   UNL     1       3.626   0.048   4.392  1.00  0.00     0.021 C 
BRANCH   2   3
ATOM      3  C   UNL     1       4.798   0.046   3.415  1.00  0.00     0.116 C 
BRANCH   3   4
ATOM      4  N   UNL     1       4.819  -1.145   2.592  1.00  0.00    -0.356 N 
ATOM      5  C   UNL     1       4.913  -1.281   1.243  1.00  0.00     0.227 C 
ATOM      6  O   UNL     1       4.966  -2.428   0.789  1.00  0.00    -0.274 OA
ATOM      7  H   UNL     1       4.756  -1.992   3.090  1.00  0.00     0.163 HD
BRANCH   5   8
ATOM      8  C   UNL     1       4.915  -0.080   0.297  1.00  0.00     0.103 C 
ATOM      9  C   UNL     1       4.023   2.223   0.371  1.00  0.00     0.107 C 
ATOM     10  C   UNL     1       5.511   2.176   0.539  1.00  0.00    -0.006 C 
ATOM     11  C   UNL     1       3.623   0.735   0.352  1.00  0.00     0.047 C 
ATOM     12  C   UNL     1       5.996   0.929   0.516  1.00  0.00    -0.016 C 
BRANCH   9  13
ATOM     13  N   UNL     1       3.466   2.944   1.497  1.00  0.00    -0.332 N 
ATOM     14  N   UNL     1       1.212   3.398   0.952  1.00  0.00    -0.329 N 
ATOM     15  C   UNL     1       2.279   3.509   1.744  1.00  0.00     0.315 C 
ATOM     16  H   UNL     1       0.458   3.958   1.247  1.00  0.00     0.166 HD
ATOM     17  O   UNL     1       2.170   4.167   2.781  1.00  0.00    -0.249 OA
ATOM     18  H   UNL     1       4.100   3.038   2.245  1.00  0.00     0.165 HD
BRANCH  14  19
ATOM     19  C   UNL     1       0.911   2.636  -0.251  1.00  0.00     0.140 C 
ATOM     20  C   UNL     1      -0.214   1.648   0.034  1.00  0.00     0.039 C 
BRANCH  19  21
ATOM     21  C   UNL     1       0.659   3.571  -1.412  1.00  0.00     0.115 A 
ATOM     22  C   UNL     1       1.089   6.839  -2.862  1.00  0.00     0.067 C 
ATOM     23  C   UNL     1       0.772   5.403  -2.666  1.00  0.00     0.049 A 
ATOM     24  C   UNL     1       0.403   4.497  -3.639  1.00  0.00     0.090 A 
ATOM     25  N   UNL     1       0.880   4.872  -1.393  1.00  0.00    -0.244 NA
ATOM     26  S   UNL     1       0.228   2.938  -2.959  1.00  0.00    -0.125 S 
ENDBRANCH  19  21
ENDBRANCH  14  19
ENDBRANCH   9  13
ENDBRANCH   5   8
ENDBRANCH   3   4
ENDBRANCH   2   3
ENDBRANCH   1   2
BRANCH   1  27
ATOM     27  C   UNL     1       5.005  -1.056   6.280  1.00  0.00     0.002 C 
BRANCH  27  28
ATOM     28  C   UNL     1       5.403   0.278   6.918  1.00  0.00     0.021 C 
BRANCH  28  29
ATOM     29  C   UNL     1       4.359   0.878   7.853  1.00  0.00     0.116 C 
BRANCH  29  30
ATOM     30  N   UNL     1       4.078   0.011   8.985  1.00  0.00    -0.352 N 
ATOM     31  C   UNL     1       4.105   0.291  10.325  1.00  0.00     0.251 C 
ATOM     32  H   UNL     1       3.832  -0.914   8.754  1.00  0.00     0.163 HD
ATOM     33  O   UNL     1       4.028  -0.625  11.145  1.00  0.00    -0.269 OA
BRANCH  31  34
ATOM     34  C   UNL     1       4.243   1.685  10.795  1.00  0.00     0.039 A 
ATOM     35  C   UNL     1       5.091   1.948  11.874  1.00  0.00     0.014 A 
ATOM     36  C   UNL     1       3.515   2.723  10.206  1.00  0.00     0.014 A 
ATOM     37  C   UNL     1       5.241   3.257  12.335  1.00  0.00     0.010 A 
ATOM     38  C   UNL     1       3.719   4.037  10.620  1.00  0.00     0.010 A 
ATOM     39  C   UNL     1       4.572   4.315  11.698  1.00  0.00    -0.014 A 
BRANCH  39  40
ATOM     40  C   UNL     1       4.743   5.713  12.166  1.00  0.00     0.031 A 
ATOM     41  C   UNL     1       3.582   6.460  12.763  1.00  0.00     0.074 A 
ATOM     42  C   UNL     1       5.934   6.323  12.019  1.00  0.00     0.049 A 
ATOM     43  N   UNL     1       3.531   7.689  13.210  1.00  0.00    -0.248 NA
ATOM     44  C   UNL     1       2.302   5.738  12.846  1.00  0.00     0.031 C 
ATOM     45  C   UNL     1       7.122   5.724  11.409  1.00  0.00     0.029 A 
ATOM     46  N   UNL     1       6.340   7.586  12.369  1.00  0.00    -0.354 N 
ATOM     47  C   UNL     1       2.217   7.890  13.615  1.00  0.00     0.074 A 
ATOM     48  C   UNL     1       1.491   6.677  13.311  1.00  0.00     0.031 C 
ATOM     49  C   UNL     1       8.131   6.609  11.452  1.00  0.00     0.029 A 
ATOM     50  C   UNL     1       7.654   7.846  12.064  1.00  0.00     0.049 A 
ATOM     51  H   UNL     1       5.747   8.244  12.799  1.00  0.00     0.167 HD
ATOM     52  C   UNL     1       1.671   8.978  14.208  1.00  0.00     0.037 A 
ATOM     53  C   UNL     1       8.390   8.956  12.257  1.00  0.00     0.037 A 
ATOM     54  C   UNL     1       2.400  10.176  14.532  1.00  0.00     0.049 A 
ATOM     55  C   UNL     1       7.762  10.147  12.924  1.00  0.00     0.074 A 
ATOM     56  C   UNL     1       1.952  11.309  15.189  1.00  0.00     0.029 A 
ATOM     57  N   UNL     1       3.733  10.396  14.220  1.00  0.00    -0.354 N 
ATOM     58  N   UNL     1       6.538  10.297  13.369  1.00  0.00    -0.248 NA
ATOM     59  C   UNL     1       8.623  11.322  13.125  1.00  0.00     0.031 C 
ATOM     60  C   UNL     1       3.004  12.230  15.239  1.00  0.00     0.029 A 
ATOM     61  C   UNL     1       4.119  11.654  14.653  1.00  0.00     0.049 A 
ATOM     62  H   UNL     1       4.319   9.753  13.758  1.00  0.00     0.167 HD
ATOM     63  C   UNL     1       6.487  11.570  13.921  1.00  0.00     0.074 A 
ATOM     64  C   UNL     1       7.809  12.143  13.774  1.00  0.00     0.031 C 
ATOM     65  C   UNL     1       5.439  12.209  14.498  1.00  0.00     0.037 A 
BRANCH  52  66
ATOM     66  C   UNL     1       0.210   8.916  14.551  1.00  0.00     0.057 A 
ATOM     67  C   UNL     1      -0.271   8.097  15.581  1.00  0.00     0.134 A 
ATOM     68  C   UNL     1      -0.722   9.704  13.864  1.00  0.00     0.134 A 
ATOM     69  F   UNL     1       0.567   7.308  16.271  1.00  0.00    -0.206 F 
ATOM     70  C   UNL     1      -1.630   8.041  15.896  1.00  0.00     0.040 A 
ATOM     71  C   UNL     1      -2.079   9.677  14.188  1.00  0.00     0.040 A 
ATOM     72  F   UNL     1      -0.328  10.515  12.871  1.00  0.00    -0.206 F 
ATOM     73  C   UNL     1      -2.538   8.838  15.202  1.00  0.00     0.006 A 
ENDBRANCH  52  66
BRANCH  53  74
ATOM     74  C   UNL     1       9.814   8.984  11.841  1.00  0.00     0.057 A 
ATOM     75  C   UNL     1      10.843   8.988  12.790  1.00  0.00     0.134 A 
ATOM     76  C   UNL     1      10.182   9.017  10.491  1.00  0.00     0.134 A 
ATOM     77  F   UNL     1      10.552   8.976  14.100  1.00  0.00    -0.206 F 
ATOM     78  C   UNL     1      12.185   9.044  12.414  1.00  0.00     0.040 A 
ATOM     79  C   UNL     1      11.521   9.049  10.099  1.00  0.00     0.040 A 
ATOM     80  F   UNL     1       9.243   9.008   9.533  1.00  0.00    -0.206 F 
ATOM     81  C   UNL     1      12.527   9.070  11.063  1.00  0.00     0.006 A 
ENDBRANCH  53  74
BRANCH  65  82
ATOM     82  C   UNL     1       5.692  13.588  15.031  1.00  0.00     0.057 A 
ATOM     83  C   UNL     1       5.876  14.686  14.181  1.00  0.00     0.134 A 
ATOM     84  C   UNL     1       5.729  13.824  16.411  1.00  0.00     0.134 A 
ATOM     85  F   UNL     1       5.865  14.524  12.849  1.00  0.00    -0.206 F 
ATOM     86  C   UNL     1       6.115  15.966  14.685  1.00  0.00     0.040 A 
ATOM     87  C   UNL     1       5.941  15.103  16.927  1.00  0.00     0.040 A 
ATOM     88  F   UNL     1       5.551  12.817  17.280  1.00  0.00    -0.206 F 
ATOM     89  C   UNL     1       6.142  16.177  16.062  1.00  0.00     0.006 A 
ENDBRANCH  65  82
ENDBRANCH  39  40
ENDBRANCH  31  34
ENDBRANCH  29  30
ENDBRANCH  28  29
ENDBRANCH  27  28
ENDBRANCH   1  27
TORSDOF 16
