REMARK SMILES O=C(NCCCCCCNC(=O)[C@@]1(c2ccccc2)CCCC[NH2+]1)c1ccc(-c2c3nc(c(-c4c(F)cccc4F)c4ccc([nH]4)c(-c4c(F)cccc4F)c4nc(c(-c5c(F)cccc5F)c5ccc2[nH]5)C=C4)C=C3)cc1
REMARK SMILES IDX 6 1 5 2 4 3 3 4 1 5 2 6 25 8 26 9 78 10 27 11 77 12 28 13
REMARK SMILES IDX 29 14 30 15 71 16 31 17 76 18 70 19 72 20 32 21 75 22 69 23
REMARK SMILES IDX 68 24 33 26 59 27 42 28 58 29 43 30 46 31 57 32 73 33 44 34
REMARK SMILES IDX 45 35 56 37 74 38 47 39 34 40 35 41 40 42 36 43 37 44 39 45
REMARK SMILES IDX 41 46 38 47 60 48 61 49 66 50 62 51 63 52 65 53 67 54 64 55
REMARK SMILES IDX 48 56 49 57 54 58 50 59 51 60 53 61 55 62 52 63 7 64 8 65
REMARK SMILES IDX 9 66 10 67 11 68 12 70 13 71 20 72 24 73 21 74 23 75 22 78
REMARK SMILES IDX 14 79 15 80 19 81 16 82 18 83 17 84
REMARK H PARENT 3 7 72 25 46 36 10 69 24 76 24 77
REMARK Flexibility Score: inf
ROOT
ATOM      1  C   UNL     1      12.047  10.133  -7.173  1.00  0.00     0.002 C 
ENDROOT
BRANCH   1   2
ATOM      2  C   UNL     1      12.003  11.430  -6.368  1.00  0.00     0.021 C 
BRANCH   2   3
ATOM      3  C   UNL     1      13.318  11.797  -5.693  1.00  0.00     0.116 C 
BRANCH   3   4
ATOM      4  N   UNL     1      14.355  12.134  -6.653  1.00  0.00    -0.352 N 
ATOM      5  O   UNL     1      15.815  13.502  -7.705  1.00  0.00    -0.269 OA
ATOM      6  C   UNL     1      15.100  13.286  -6.737  1.00  0.00     0.251 C 
ATOM      7  H   UNL     1      14.551  11.447  -7.330  1.00  0.00     0.163 HD
BRANCH   6   8
ATOM      8  C   UNL     1      15.011  14.274  -5.641  1.00  0.00     0.039 A 
ATOM      9  C   UNL     1      15.097  13.854  -4.312  1.00  0.00     0.014 A 
ATOM     10  C   UNL     1      14.830  15.625  -5.946  1.00  0.00     0.014 A 
ATOM     11  C   UNL     1      14.875  14.764  -3.288  1.00  0.00     0.010 A 
ATOM     12  C   UNL     1      14.700  16.556  -4.912  1.00  0.00     0.010 A 
ATOM     13  C   UNL     1      14.706  16.129  -3.575  1.00  0.00    -0.014 A 
BRANCH  13  14
ATOM     14  C   UNL     1      14.646  17.090  -2.446  1.00  0.00     0.031 A 
ATOM     15  C   UNL     1      13.413  17.896  -2.159  1.00  0.00     0.074 A 
ATOM     16  C   UNL     1      15.729  17.191  -1.650  1.00  0.00     0.049 A 
ATOM     17  N   UNL     1      13.198  18.744  -1.185  1.00  0.00    -0.248 NA
ATOM     18  C   UNL     1      12.277  17.739  -3.079  1.00  0.00     0.031 C 
ATOM     19  C   UNL     1      16.990  16.469  -1.851  1.00  0.00     0.029 A 
ATOM     20  N   UNL     1      15.940  17.911  -0.504  1.00  0.00    -0.354 N 
ATOM     21  C   UNL     1      11.911  19.230  -1.378  1.00  0.00     0.074 A 
ATOM     22  C   UNL     1      11.401  18.601  -2.578  1.00  0.00     0.031 C 
ATOM     23  C   UNL     1      17.819  16.738  -0.833  1.00  0.00     0.029 A 
ATOM     24  C   UNL     1      17.178  17.701   0.053  1.00  0.00     0.049 A 
ATOM     25  H   UNL     1      15.270  18.519  -0.117  1.00  0.00     0.167 HD
ATOM     26  C   UNL     1      11.222  20.113  -0.616  1.00  0.00     0.037 A 
ATOM     27  C   UNL     1      17.745  18.236   1.148  1.00  0.00     0.037 A 
ATOM     28  C   UNL     1      11.737  20.730   0.581  1.00  0.00     0.049 A 
ATOM     29  C   UNL     1      16.959  19.223   1.959  1.00  0.00     0.074 A 
ATOM     30  C   UNL     1      11.109  21.625   1.431  1.00  0.00     0.029 A 
ATOM     31  N   UNL     1      13.007  20.516   1.098  1.00  0.00    -0.354 N 
ATOM     32  N   UNL     1      15.734  19.651   1.776  1.00  0.00    -0.248 NA
ATOM     33  C   UNL     1      17.636  19.804   3.125  1.00  0.00     0.031 C 
ATOM     34  C   UNL     1      12.011  21.981   2.439  1.00  0.00     0.029 A 
ATOM     35  C   UNL     1      13.186  21.274   2.245  1.00  0.00     0.049 A 
ATOM     36  H   UNL     1      13.681  19.914   0.708  1.00  0.00     0.167 HD
ATOM     37  C   UNL     1      15.490  20.546   2.807  1.00  0.00     0.074 A 
ATOM     38  C   UNL     1      16.682  20.572   3.630  1.00  0.00     0.031 C 
ATOM     39  C   UNL     1      14.383  21.290   3.046  1.00  0.00     0.037 A 
BRANCH  26  40
ATOM     40  C   UNL     1       9.832  20.478  -1.051  1.00  0.00     0.057 A 
ATOM     41  C   UNL     1       8.758  19.591  -0.908  1.00  0.00     0.134 A 
ATOM     42  C   UNL     1       9.550  21.757  -1.549  1.00  0.00     0.134 A 
ATOM     43  F   UNL     1       8.960  18.347  -0.447  1.00  0.00    -0.206 F 
ATOM     44  C   UNL     1       7.455  19.959  -1.254  1.00  0.00     0.040 A 
ATOM     45  C   UNL     1       8.249  22.144  -1.878  1.00  0.00     0.040 A 
ATOM     46  F   UNL     1      10.531  22.659  -1.704  1.00  0.00    -0.206 F 
ATOM     47  C   UNL     1       7.197  21.242  -1.732  1.00  0.00     0.006 A 
ENDBRANCH  26  40
BRANCH  27  48
ATOM     48  C   UNL     1      19.131  17.863   1.524  1.00  0.00     0.057 A 
ATOM     49  C   UNL     1      19.397  17.127   2.684  1.00  0.00     0.134 A 
ATOM     50  C   UNL     1      20.224  18.239   0.733  1.00  0.00     0.134 A 
ATOM     51  F   UNL     1      18.393  16.752   3.490  1.00  0.00    -0.206 F 
ATOM     52  C   UNL     1      20.701  16.795   3.054  1.00  0.00     0.040 A 
ATOM     53  C   UNL     1      21.529  17.887   1.074  1.00  0.00     0.040 A 
ATOM     54  F   UNL     1      20.034  18.937  -0.397  1.00  0.00    -0.206 F 
ATOM     55  C   UNL     1      21.771  17.171   2.244  1.00  0.00     0.006 A 
ENDBRANCH  27  48
BRANCH  39  56
ATOM     56  C   UNL     1      14.418  22.176   4.254  1.00  0.00     0.057 A 
ATOM     57  C   UNL     1      15.204  23.335   4.294  1.00  0.00     0.134 A 
ATOM     58  C   UNL     1      13.660  21.867   5.390  1.00  0.00     0.134 A 
ATOM     59  F   UNL     1      15.966  23.676   3.244  1.00  0.00    -0.206 F 
ATOM     60  C   UNL     1      15.261  24.137   5.435  1.00  0.00     0.040 A 
ATOM     61  C   UNL     1      13.688  22.676   6.526  1.00  0.00     0.040 A 
ATOM     62  F   UNL     1      12.881  20.774   5.414  1.00  0.00    -0.206 F 
ATOM     63  C   UNL     1      14.498  23.809   6.554  1.00  0.00     0.006 A 
ENDBRANCH  39  56
ENDBRANCH  13  14
ENDBRANCH   6   8
ENDBRANCH   3   4
ENDBRANCH   2   3
ENDBRANCH   1   2
BRANCH   1  64
ATOM     64  C   UNL     1      12.539   8.910  -6.395  1.00  0.00     0.002 C 
BRANCH  64  65
ATOM     65  C   UNL     1      11.857   8.682  -5.039  1.00  0.00     0.021 C 
BRANCH  65  66
ATOM     66  C   UNL     1      10.353   8.408  -5.132  1.00  0.00     0.116 C 
BRANCH  66  67
ATOM     67  N   UNL     1      10.123   7.081  -5.657  1.00  0.00    -0.350 N 
ATOM     68  C   UNL     1       9.694   5.907  -5.125  1.00  0.00     0.286 C 
ATOM     69  H   UNL     1      10.322   7.013  -6.619  1.00  0.00     0.163 HD
ATOM     70  O   UNL     1       9.806   4.947  -5.905  1.00  0.00    -0.267 OA
BRANCH  68  71
ATOM     71  C   UNL     1       8.974   5.730  -3.725  1.00  0.00     0.201 C 
ATOM     72  C   UNL     1       9.144   4.236  -3.301  1.00  0.00     0.085 C 
ATOM     73  N   UNL     1       9.544   6.550  -2.628  1.00  0.00    -0.330 N 
ATOM     74  C   UNL     1      10.597   3.883  -2.959  1.00  0.00     0.013 C 
ATOM     75  C   UNL     1      10.937   6.286  -2.319  1.00  0.00     0.261 C 
ATOM     76  H   UNL     1       8.995   6.375  -1.786  1.00  0.00     0.347 HD
ATOM     77  H   UNL     1       9.503   7.518  -2.947  1.00  0.00     0.347 HD
ATOM     78  C   UNL     1      11.149   4.837  -1.907  1.00  0.00     0.062 C 
BRANCH  71  79
ATOM     79  C   UNL     1       7.456   6.024  -3.842  1.00  0.00     0.022 A 
ATOM     80  C   UNL     1       6.649   6.029  -2.684  1.00  0.00     0.011 A 
ATOM     81  C   UNL     1       6.814   6.246  -5.074  1.00  0.00     0.011 A 
ATOM     82  C   UNL     1       5.270   6.240  -2.755  1.00  0.00     0.001 A 
ATOM     83  C   UNL     1       5.434   6.465  -5.144  1.00  0.00     0.001 A 
ATOM     84  C   UNL     1       4.662   6.458  -3.987  1.00  0.00     0.000 A 
ENDBRANCH  71  79
ENDBRANCH  68  71
ENDBRANCH  66  67
ENDBRANCH  65  66
ENDBRANCH  64  65
ENDBRANCH   1  64
TORSDOF 14
