REMARK SMILES CCc1ccc(-c2cc(Cl)cc3c2O[C@H](C(F)(F)F)C(C(=O)NCCCCCCNC(=O)c2ccc(-c4c5nc(c(-c6c(F)cccc6F)c6ccc([nH]6)c(-c6c(F)cccc6F)c6nc(c(-c7c(F)cccc7F)c7ccc4[nH]7)C=C6)C=C5)cc2)=C3)cc1
REMARK SMILES IDX 26 1 25 2 24 3 23 4 21 5 22 6 20 8 7 9 8 10 13 11 9 12 12 13
REMARK SMILES IDX 14 14 10 15 11 16 87 17 15 18 6 19 3 20 4 21 89 22 5 23
REMARK SMILES IDX 88 24 2 25 1 26 16 27 17 28 18 29 19 30 27 31 28 32 29 33
REMARK SMILES IDX 30 34 31 35 32 37 33 38 34 39 86 40 35 41 85 42 36 43 37 44
REMARK SMILES IDX 38 45 79 46 39 47 84 48 78 49 80 50 40 51 83 52 77 53 76 54
REMARK SMILES IDX 41 56 67 57 50 58 66 59 51 60 54 61 65 62 81 63 52 64 53 65
REMARK SMILES IDX 64 67 82 68 55 69 42 70 43 71 48 72 44 73 45 74 47 75 49 76
REMARK SMILES IDX 46 77 68 78 69 79 74 80 70 81 71 82 73 83 75 84 72 85 56 86
REMARK SMILES IDX 57 87 62 88 58 89 59 90 61 91 63 92 60 93
REMARK H PARENT 23 7 30 36 80 55 54 66
REMARK Flexibility Score: inf
ROOT
ATOM      1  C   UNL     1       0.828   6.679  14.128  1.00  0.00     0.002 C 
ENDROOT
BRANCH   1   2
ATOM      2  C   UNL     1      -0.309   6.632  13.094  1.00  0.00     0.021 C 
BRANCH   2   3
ATOM      3  C   UNL     1       0.072   7.137  11.694  1.00  0.00     0.116 C 
BRANCH   3   4
ATOM      4  N   UNL     1       1.171   6.352  11.172  1.00  0.00    -0.352 N 
ATOM      5  C   UNL     1       1.109   5.562  10.071  1.00  0.00     0.251 C 
ATOM      6  O   UNL     1       1.492   4.400  10.126  1.00  0.00    -0.270 OA
ATOM      7  H   UNL     1       2.029   6.394  11.653  1.00  0.00     0.163 HD
BRANCH   5   8
ATOM      8  C   UNL     1       0.721   6.237   8.798  1.00  0.00     0.067 C 
ATOM      9  C   UNL     1       1.429   3.162   6.241  1.00  0.00     0.026 A 
ATOM     10  C   UNL     1       2.704   2.631   6.582  1.00  0.00     0.033 A 
ATOM     11  C   UNL     1       1.110   4.415   6.795  1.00  0.00     0.135 A 
ATOM     12  C   UNL     1       3.658   3.354   7.294  1.00  0.00     0.042 A 
ATOM     13  C   UNL     1       2.138   5.179   7.409  1.00  0.00     0.019 A 
ATOM     14  O   UNL     1      -0.181   4.930   6.835  1.00  0.00    -0.475 OA
ATOM     15  Cl  UNL     1       5.153   2.618   7.712  1.00  0.00    -0.084 Cl
ATOM     16  C   UNL     1       3.408   4.662   7.650  1.00  0.00     0.032 A 
ATOM     17  C   UNL     1       1.774   6.486   7.997  1.00  0.00     0.025 C 
ATOM     18  C   UNL     1      -0.500   5.653   8.105  1.00  0.00     0.314 C 
BRANCH   9  19
ATOM     19  C   UNL     1       0.702   2.385   5.199  1.00  0.00    -0.015 A 
ATOM     20  C   UNL     1       0.421   0.723   2.881  1.00  0.00    -0.048 A 
ATOM     21  C   UNL     1       0.474   0.170   4.167  1.00  0.00     0.004 A 
ATOM     22  C   UNL     1       0.364   2.118   2.782  1.00  0.00     0.004 A 
ATOM     23  C   UNL     1       0.594   0.984   5.304  1.00  0.00     0.009 A 
ATOM     24  C   UNL     1       0.501   2.937   3.923  1.00  0.00     0.009 A 
BRANCH  20  25
ATOM     25  C   UNL     1       0.388  -0.208   1.686  1.00  0.00     0.032 C 
ATOM     26  C   UNL     1       1.062   0.279   0.405  1.00  0.00     0.009 C 
ENDBRANCH  20  25
ENDBRANCH   9  19
BRANCH  18  27
ATOM     27  C   UNL     1      -1.508   6.806   7.889  1.00  0.00     0.429 C 
ATOM     28  F   UNL     1      -1.601   7.188   6.597  1.00  0.00    -0.167 F 
ATOM     29  F   UNL     1      -2.748   6.462   8.311  1.00  0.00    -0.167 F 
ATOM     30  F   UNL     1      -1.174   7.922   8.595  1.00  0.00    -0.167 F 
ENDBRANCH  18  27
ENDBRANCH   5   8
ENDBRANCH   3   4
ENDBRANCH   2   3
ENDBRANCH   1   2
BRANCH   1  31
ATOM     31  C   UNL     1       1.488   8.049  14.297  1.00  0.00     0.002 C 
BRANCH  31  32
ATOM     32  C   UNL     1       0.532   9.163  14.722  1.00  0.00     0.021 C 
BRANCH  32  33
ATOM     33  C   UNL     1      -0.248   8.871  15.998  1.00  0.00     0.116 C 
BRANCH  33  34
ATOM     34  N   UNL     1       0.621   8.679  17.149  1.00  0.00    -0.352 N 
ATOM     35  C   UNL     1       0.529   9.236  18.399  1.00  0.00     0.251 C 
ATOM     36  H   UNL     1       1.378   8.065  17.012  1.00  0.00     0.163 HD
ATOM     37  O   UNL     1       1.442   9.100  19.210  1.00  0.00    -0.269 OA
BRANCH  35  38
ATOM     38  C   UNL     1      -0.664  10.028  18.756  1.00  0.00     0.039 A 
ATOM     39  C   UNL     1      -0.491  11.264  19.384  1.00  0.00     0.014 A 
ATOM     40  C   UNL     1      -1.947   9.562  18.453  1.00  0.00     0.014 A 
ATOM     41  C   UNL     1      -1.605  12.059  19.656  1.00  0.00     0.010 A 
ATOM     42  C   UNL     1      -3.046  10.390  18.650  1.00  0.00     0.010 A 
ATOM     43  C   UNL     1      -2.887  11.644  19.259  1.00  0.00    -0.014 A 
BRANCH  43  44
ATOM     44  C   UNL     1      -4.071  12.514  19.468  1.00  0.00     0.031 A 
ATOM     45  C   UNL     1      -5.192  12.069  20.362  1.00  0.00     0.074 A 
ATOM     46  C   UNL     1      -4.167  13.675  18.793  1.00  0.00     0.049 A 
ATOM     47  N   UNL     1      -6.324  12.669  20.631  1.00  0.00    -0.248 NA
ATOM     48  C   UNL     1      -5.035  10.761  21.016  1.00  0.00     0.031 C 
ATOM     49  C   UNL     1      -3.176  14.185  17.843  1.00  0.00     0.029 A 
ATOM     50  N   UNL     1      -5.154  14.629  18.790  1.00  0.00    -0.354 N 
ATOM     51  C   UNL     1      -7.019  11.806  21.468  1.00  0.00     0.074 A 
ATOM     52  C   UNL     1      -6.208  10.617  21.615  1.00  0.00     0.031 C 
ATOM     53  C   UNL     1      -3.596  15.365  17.363  1.00  0.00     0.029 A 
ATOM     54  C   UNL     1      -4.901  15.677  17.940  1.00  0.00     0.049 A 
ATOM     55  H   UNL     1      -5.965  14.567  19.344  1.00  0.00     0.167 HD
ATOM     56  C   UNL     1      -8.214  11.996  22.076  1.00  0.00     0.037 A 
ATOM     57  C   UNL     1      -5.640  16.764  17.648  1.00  0.00     0.037 A 
ATOM     58  C   UNL     1      -9.009  13.189  21.937  1.00  0.00     0.049 A 
ATOM     59  C   UNL     1      -6.958  16.963  18.340  1.00  0.00     0.074 A 
ATOM     60  C   UNL     1     -10.193  13.516  22.574  1.00  0.00     0.029 A 
ATOM     61  N   UNL     1      -8.708  14.244  21.087  1.00  0.00    -0.354 N 
ATOM     62  N   UNL     1      -7.562  16.184  19.206  1.00  0.00    -0.248 NA
ATOM     63  C   UNL     1      -7.694  18.194  18.025  1.00  0.00     0.031 C 
ATOM     64  C   UNL     1     -10.640  14.740  22.064  1.00  0.00     0.029 A 
ATOM     65  C   UNL     1      -9.703  15.207  21.155  1.00  0.00     0.049 A 
ATOM     66  H   UNL     1      -7.906  14.301  20.519  1.00  0.00     0.167 HD
ATOM     67  C   UNL     1      -8.737  16.837  19.553  1.00  0.00     0.074 A 
ATOM     68  C   UNL     1      -8.752  18.085  18.816  1.00  0.00     0.031 C 
ATOM     69  C   UNL     1      -9.714  16.440  20.406  1.00  0.00     0.037 A 
BRANCH  56  70
ATOM     70  C   UNL     1      -8.736  10.875  22.932  1.00  0.00     0.057 A 
ATOM     71  C   UNL     1      -8.111  10.496  24.129  1.00  0.00     0.134 A 
ATOM     72  C   UNL     1      -9.880  10.162  22.551  1.00  0.00     0.134 A 
ATOM     73  F   UNL     1      -7.005  11.129  24.549  1.00  0.00    -0.206 F 
ATOM     74  C   UNL     1      -8.576   9.421  24.889  1.00  0.00     0.040 A 
ATOM     75  C   UNL     1     -10.374   9.107  23.321  1.00  0.00     0.040 A 
ATOM     76  F   UNL     1     -10.535  10.475  21.424  1.00  0.00    -0.206 F 
ATOM     77  C   UNL     1      -9.714   8.726  24.487  1.00  0.00     0.006 A 
ENDBRANCH  56  70
BRANCH  57  78
ATOM     78  C   UNL     1      -5.129  17.749  16.663  1.00  0.00     0.057 A 
ATOM     79  C   UNL     1      -4.670  19.007  17.066  1.00  0.00     0.134 A 
ATOM     80  C   UNL     1      -5.047  17.437  15.300  1.00  0.00     0.134 A 
ATOM     81  F   UNL     1      -4.737  19.369  18.356  1.00  0.00    -0.206 F 
ATOM     82  C   UNL     1      -4.153  19.924  16.149  1.00  0.00     0.040 A 
ATOM     83  C   UNL     1      -4.510  18.334  14.376  1.00  0.00     0.040 A 
ATOM     84  F   UNL     1      -5.460  16.242  14.853  1.00  0.00    -0.206 F 
ATOM     85  C   UNL     1      -4.063  19.584  14.800  1.00  0.00     0.006 A 
ENDBRANCH  57  78
BRANCH  69  86
ATOM     86  C   UNL     1     -10.875  17.372  20.604  1.00  0.00     0.057 A 
ATOM     87  C   UNL     1     -11.833  17.585  19.604  1.00  0.00     0.134 A 
ATOM     88  C   UNL     1     -11.059  18.033  21.825  1.00  0.00     0.134 A 
ATOM     89  F   UNL     1     -11.711  16.993  18.407  1.00  0.00    -0.206 F 
ATOM     90  C   UNL     1     -12.918  18.441  19.805  1.00  0.00     0.040 A 
ATOM     91  C   UNL     1     -12.155  18.867  22.048  1.00  0.00     0.040 A 
ATOM     92  F   UNL     1     -10.184  17.866  22.829  1.00  0.00    -0.206 F 
ATOM     93  C   UNL     1     -13.085  19.079  21.032  1.00  0.00     0.006 A 
ENDBRANCH  69  86
ENDBRANCH  43  44
ENDBRANCH  35  38
ENDBRANCH  33  34
ENDBRANCH  32  33
ENDBRANCH  31  32
ENDBRANCH   1  31
TORSDOF 16
