REMARK SMILES C[C@H](Sc1ccnc(C(=O)NCCCCCCNC(=O)c2ccc(-c3c4nc(c(-c5c(F)cccc5F)c5ccc([nH]5)c(-c5c(F)cccc5F)c5nc(c(-c6c(F)cccc6F)c6ccc3[nH]6)C=C5)C=C4)cc2)c1)[C@@H](C)O
REMARK SMILES IDX 13 1 12 2 11 3 9 4 10 5 8 7 4 8 5 9 75 10 6 11 7 12 3 13
REMARK SMILES IDX 2 14 1 15 76 16 77 17 78 18 14 20 15 21 16 22 17 23 18 24
REMARK SMILES IDX 19 25 20 27 21 28 22 29 74 30 23 31 73 32 24 33 25 34 26 35
REMARK SMILES IDX 67 36 27 37 72 38 66 39 68 40 28 41 71 42 65 43 64 44 29 46
REMARK SMILES IDX 55 47 38 48 54 49 39 50 42 51 53 52 69 53 40 54 41 55 52 57
REMARK SMILES IDX 70 58 43 59 30 60 31 61 36 62 32 63 33 64 35 65 37 66 34 67
REMARK SMILES IDX 56 68 57 69 62 70 58 71 59 72 61 73 63 74 60 75 44 76 45 77
REMARK SMILES IDX 50 78 46 79 47 80 49 81 51 82 48 83
REMARK H PARENT 11 6 78 19 18 26 68 45 42 56
REMARK Flexibility Score: inf
ROOT
ATOM      1  C   UNL     1       0.773  -4.933   3.195  1.00  0.00     0.021 C 
ENDROOT
BRANCH   1   2
ATOM      2  C   UNL     1       1.368  -4.672   1.815  1.00  0.00     0.116 C 
BRANCH   2   3
ATOM      3  N   UNL     1       0.862  -5.564   0.790  1.00  0.00    -0.351 N 
ATOM      4  C   UNL     1       0.290  -5.354  -0.449  1.00  0.00     0.269 C 
ATOM      5  O   UNL     1      -0.074  -6.364  -1.057  1.00  0.00    -0.268 OA
ATOM      6  H   UNL     1       0.942  -6.516   1.026  1.00  0.00     0.163 HD
BRANCH   4   7
ATOM      7  C   UNL     1       0.073  -3.994  -1.063  1.00  0.00     0.129 A 
ATOM      8  C   UNL     1       0.459  -1.618  -1.252  1.00  0.00     0.011 A 
ATOM      9  C   UNL     1      -0.519  -1.574  -2.233  1.00  0.00     0.035 A 
ATOM     10  C   UNL     1       0.819  -2.872  -0.741  1.00  0.00     0.049 A 
ATOM     11  C   UNL     1      -1.164  -2.751  -2.575  1.00  0.00     0.113 A 
ATOM     12  N   UNL     1      -0.917  -3.939  -1.990  1.00  0.00    -0.251 NA
BRANCH   8  13
ATOM     13  S   UNL     1       1.321  -0.238  -0.512  1.00  0.00    -0.120 SA
BRANCH  13  14
ATOM     14  C   UNL     1       0.495   1.325  -1.047  1.00  0.00     0.077 C 
ATOM     15  C   UNL     1       0.941   1.673  -2.468  1.00  0.00     0.022 C 
BRANCH  14  16
ATOM     16  C   UNL     1      -1.028   1.459  -0.802  1.00  0.00     0.124 C 
ATOM     17  C   UNL     1      -1.435   1.369   0.666  1.00  0.00     0.039 C 
BRANCH  16  18
ATOM     18  O   UNL     1      -1.494   2.717  -1.308  1.00  0.00    -0.392 OA
ATOM     19  H   UNL     1      -1.069   3.439  -0.820  1.00  0.00     0.210 HD
ENDBRANCH  16  18
ENDBRANCH  14  16
ENDBRANCH  13  14
ENDBRANCH   8  13
ENDBRANCH   4   7
ENDBRANCH   2   3
ENDBRANCH   1   2
BRANCH   1  20
ATOM     20  C   UNL     1       1.229  -6.213   3.894  1.00  0.00     0.002 C 
BRANCH  20  21
ATOM     21  C   UNL     1       2.742  -6.393   4.053  1.00  0.00     0.002 C 
BRANCH  21  22
ATOM     22  C   UNL     1       3.504  -5.207   4.650  1.00  0.00     0.021 C 
BRANCH  22  23
ATOM     23  C   UNL     1       3.009  -4.729   6.012  1.00  0.00     0.116 C 
BRANCH  23  24
ATOM     24  N   UNL     1       3.124  -5.756   7.033  1.00  0.00    -0.352 N 
ATOM     25  C   UNL     1       3.759  -5.714   8.249  1.00  0.00     0.251 C 
ATOM     26  H   UNL     1       2.680  -6.609   6.822  1.00  0.00     0.163 HD
ATOM     27  O   UNL     1       3.911  -6.742   8.900  1.00  0.00    -0.269 OA
BRANCH  25  28
ATOM     28  C   UNL     1       4.275  -4.431   8.774  1.00  0.00     0.039 A 
ATOM     29  C   UNL     1       5.543  -4.405   9.361  1.00  0.00     0.014 A 
ATOM     30  C   UNL     1       3.504  -3.266   8.717  1.00  0.00     0.014 A 
ATOM     31  C   UNL     1       6.060  -3.200   9.841  1.00  0.00     0.010 A 
ATOM     32  C   UNL     1       4.048  -2.054   9.133  1.00  0.00     0.010 A 
ATOM     33  C   UNL     1       5.328  -2.009   9.705  1.00  0.00    -0.014 A 
BRANCH  33  34
ATOM     34  C   UNL     1       5.884  -0.710  10.160  1.00  0.00     0.031 A 
ATOM     35  C   UNL     1       5.227   0.042  11.284  1.00  0.00     0.074 A 
ATOM     36  C   UNL     1       6.942  -0.178   9.520  1.00  0.00     0.049 A 
ATOM     37  N   UNL     1       5.527   1.216  11.781  1.00  0.00    -0.248 NA
ATOM     38  C   UNL     1       4.062  -0.597  11.915  1.00  0.00     0.031 C 
ATOM     39  C   UNL     1       7.640  -0.789   8.387  1.00  0.00     0.029 A 
ATOM     40  N   UNL     1       7.611   1.002   9.725  1.00  0.00    -0.354 N 
ATOM     41  C   UNL     1       4.581   1.461  12.768  1.00  0.00     0.074 A 
ATOM     42  C   UNL     1       3.667   0.340  12.764  1.00  0.00     0.031 C 
ATOM     43  C   UNL     1       8.653   0.008   8.014  1.00  0.00     0.029 A 
ATOM     44  C   UNL     1       8.654   1.202   8.853  1.00  0.00     0.049 A 
ATOM     45  H   UNL     1       7.367   1.645  10.429  1.00  0.00     0.167 HD
ATOM     46  C   UNL     1       4.495   2.515  13.615  1.00  0.00     0.037 A 
ATOM     47  C   UNL     1       9.512   2.234   8.741  1.00  0.00     0.037 A 
ATOM     48  C   UNL     1       5.421   3.616  13.631  1.00  0.00     0.049 A 
ATOM     49  C   UNL     1       9.392   3.395   9.688  1.00  0.00     0.074 A 
ATOM     50  C   UNL     1       5.460   4.699  14.493  1.00  0.00     0.029 A 
ATOM     51  N   UNL     1       6.471   3.778  12.739  1.00  0.00    -0.354 N 
ATOM     52  N   UNL     1       8.534   3.582  10.662  1.00  0.00    -0.248 NA
ATOM     53  C   UNL     1      10.361   4.487   9.522  1.00  0.00     0.031 C 
ATOM     54  C   UNL     1       6.504   5.539  14.093  1.00  0.00     0.029 A 
ATOM     55  C   UNL     1       7.147   4.956  13.013  1.00  0.00     0.049 A 
ATOM     56  H   UNL     1       6.701   3.149  12.018  1.00  0.00     0.167 HD
ATOM     57  C   UNL     1       8.877   4.796  11.243  1.00  0.00     0.074 A 
ATOM     58  C   UNL     1      10.029   5.295  10.519  1.00  0.00     0.031 C 
ATOM     59  C   UNL     1       8.293   5.438  12.284  1.00  0.00     0.037 A 
BRANCH  46  60
ATOM     60  C   UNL     1       3.354   2.524  14.592  1.00  0.00     0.057 A 
ATOM     61  C   UNL     1       3.287   1.623  15.663  1.00  0.00     0.134 A 
ATOM     62  C   UNL     1       2.319   3.461  14.473  1.00  0.00     0.134 A 
ATOM     63  F   UNL     1       4.239   0.692  15.828  1.00  0.00    -0.206 F 
ATOM     64  C   UNL     1       2.217   1.630  16.560  1.00  0.00     0.040 A 
ATOM     65  C   UNL     1       1.259   3.497  15.381  1.00  0.00     0.040 A 
ATOM     66  F   UNL     1       2.322   4.358  13.476  1.00  0.00    -0.206 F 
ATOM     67  C   UNL     1       1.202   2.574  16.423  1.00  0.00     0.006 A 
ENDBRANCH  46  60
BRANCH  47  68
ATOM     68  C   UNL     1      10.579   2.200   7.711  1.00  0.00     0.057 A 
ATOM     69  C   UNL     1      11.922   2.035   8.071  1.00  0.00     0.134 A 
ATOM     70  C   UNL     1      10.288   2.325   6.348  1.00  0.00     0.134 A 
ATOM     71  F   UNL     1      12.265   1.928   9.364  1.00  0.00    -0.206 F 
ATOM     72  C   UNL     1      12.938   2.012   7.115  1.00  0.00     0.040 A 
ATOM     73  C   UNL     1      11.292   2.280   5.379  1.00  0.00     0.040 A 
ATOM     74  F   UNL     1       9.021   2.478   5.937  1.00  0.00    -0.206 F 
ATOM     75  C   UNL     1      12.623   2.129   5.763  1.00  0.00     0.006 A 
ENDBRANCH  47  68
BRANCH  59  76
ATOM     76  C   UNL     1       8.908   6.735  12.723  1.00  0.00     0.057 A 
ATOM     77  C   UNL     1       8.790   7.905  11.962  1.00  0.00     0.134 A 
ATOM     78  C   UNL     1       9.595   6.821  13.940  1.00  0.00     0.134 A 
ATOM     79  F   UNL     1       8.156   7.886  10.780  1.00  0.00    -0.206 F 
ATOM     80  C   UNL     1       9.353   9.110  12.386  1.00  0.00     0.040 A 
ATOM     81  C   UNL     1      10.139   8.026  14.388  1.00  0.00     0.040 A 
ATOM     82  F   UNL     1       9.737   5.739  14.721  1.00  0.00    -0.206 F 
ATOM     83  C   UNL     1      10.024   9.173  13.607  1.00  0.00     0.006 A 
ENDBRANCH  59  76
ENDBRANCH  33  34
ENDBRANCH  25  28
ENDBRANCH  23  24
ENDBRANCH  22  23
ENDBRANCH  21  22
ENDBRANCH  20  21
ENDBRANCH   1  20
TORSDOF 17
