REMARK SMILES CCC[NH+]1CCN(c2ccc(C(=O)NCCCCCCNC(=O)c3ccc(-c4c5nc(c(-c6c(F)cccc6F)c6ccc([nH]6)c(-c6c(F)cccc6F)c6nc(c(-c7c(F)cccc7F)c7ccc4[nH]7)C=C6)C=C5)cc3)cc2NS(=O)(=O)CC)CC1
REMARK SMILES IDX 17 1 16 2 15 3 14 4 12 5 13 6 11 8 8 9 9 10 79 11 10 12
REMARK SMILES IDX 78 13 7 14 4 15 5 16 87 17 6 19 86 20 3 21 2 22 1 23 80 24
REMARK SMILES IDX 81 26 82 27 83 28 84 29 85 30 18 31 19 32 20 33 21 34 22 35
REMARK SMILES IDX 23 37 24 38 25 39 77 40 26 41 76 42 27 43 28 44 29 45 70 46
REMARK SMILES IDX 30 47 75 48 69 49 71 50 31 51 74 52 68 53 67 54 32 56 58 57
REMARK SMILES IDX 41 58 57 59 42 60 45 61 56 62 72 63 43 64 44 65 55 67 73 68
REMARK SMILES IDX 46 69 33 70 34 71 39 72 35 73 36 74 38 75 40 76 37 77 59 78
REMARK SMILES IDX 60 79 65 80 61 81 62 82 64 83 66 84 63 85 47 86 48 87 53 88
REMARK SMILES IDX 49 89 50 90 52 91 54 92 51 93
REMARK H PARENT 14 7 4 18 80 25 21 36 71 55 45 66
REMARK Flexibility Score: inf
ROOT
ATOM      1  C   UNL     1       4.935  -0.583  11.725  1.00  0.00     0.002 C 
ENDROOT
BRANCH   1   2
ATOM      2  C   UNL     1       4.415  -1.230  10.446  1.00  0.00     0.021 C 
BRANCH   2   3
ATOM      3  C   UNL     1       4.957  -0.666   9.138  1.00  0.00     0.116 C 
BRANCH   3   4
ATOM      4  N   UNL     1       6.208  -1.209   8.671  1.00  0.00    -0.352 N 
ATOM      5  C   UNL     1       6.588  -1.596   7.400  1.00  0.00     0.251 C 
ATOM      6  O   UNL     1       7.734  -2.023   7.253  1.00  0.00    -0.269 OA
ATOM      7  H   UNL     1       6.898  -1.321   9.364  1.00  0.00     0.163 HD
BRANCH   5   8
ATOM      8  C   UNL     1       5.657  -1.609   6.220  1.00  0.00     0.042 A 
ATOM      9  C   UNL     1       3.866  -2.000   4.040  1.00  0.00     0.062 A 
ATOM     10  C   UNL     1       5.038  -2.748   4.141  1.00  0.00     0.029 A 
ATOM     11  C   UNL     1       3.602  -1.069   5.082  1.00  0.00     0.073 A 
ATOM     12  C   UNL     1       5.901  -2.583   5.236  1.00  0.00     0.016 A 
ATOM     13  C   UNL     1       4.548  -0.773   6.063  1.00  0.00     0.042 A 
BRANCH   9  14
ATOM     14  N   UNL     1       2.940  -2.186   3.020  1.00  0.00    -0.359 N 
ATOM     15  N   UNL     1       0.601  -2.444   1.250  1.00  0.00    -0.332 N 
ATOM     16  C   UNL     1       1.231  -3.615   1.925  1.00  0.00     0.283 C 
ATOM     17  C   UNL     1       0.894  -1.243   2.056  1.00  0.00     0.283 C 
ATOM     18  H   UNL     1      -0.412  -2.550   1.200  1.00  0.00     0.348 HD
ATOM     19  C   UNL     1       2.731  -3.467   2.333  1.00  0.00     0.178 C 
ATOM     20  C   UNL     1       2.404  -1.014   2.291  1.00  0.00     0.178 C 
BRANCH  15  21
ATOM     21  C   UNL     1       1.031  -2.347  -0.153  1.00  0.00     0.262 C 
BRANCH  21  22
ATOM     22  C   UNL     1       0.408  -1.209  -0.986  1.00  0.00     0.058 C 
ATOM     23  C   UNL     1       1.087   0.152  -0.867  1.00  0.00     0.010 C 
ENDBRANCH  21  22
ENDBRANCH  15  21
ENDBRANCH   9  14
BRANCH  11  24
ATOM     24  N   UNL     1       2.231  -0.685   5.176  1.00  0.00    -0.281 N 
ATOM     25  H   UNL     1       1.644  -1.124   4.519  1.00  0.00     0.180 HD
BRANCH  24  26
ATOM     26  S   UNL     1       1.457   0.351   6.177  1.00  0.00     0.232 S 
ATOM     27  O   UNL     1       2.163   1.609   6.201  1.00  0.00    -0.207 OA
ATOM     28  O   UNL     1       0.064   0.281   5.774  1.00  0.00    -0.207 OA
BRANCH  26  29
ATOM     29  C   UNL     1       1.553  -0.386   7.800  1.00  0.00     0.156 C 
ATOM     30  C   UNL     1       1.575  -1.904   7.833  1.00  0.00     0.023 C 
ENDBRANCH  26  29
ENDBRANCH  24  26
ENDBRANCH  11  24
ENDBRANCH   5   8
ENDBRANCH   3   4
ENDBRANCH   2   3
ENDBRANCH   1   2
BRANCH   1  31
ATOM     31  C   UNL     1       4.766   0.938  11.826  1.00  0.00     0.002 C 
BRANCH  31  32
ATOM     32  C   UNL     1       3.353   1.487  11.604  1.00  0.00     0.021 C 
BRANCH  32  33
ATOM     33  C   UNL     1       2.267   0.915  12.513  1.00  0.00     0.116 C 
BRANCH  33  34
ATOM     34  N   UNL     1       2.584   1.071  13.922  1.00  0.00    -0.352 N 
ATOM     35  C   UNL     1       1.912   1.735  14.917  1.00  0.00     0.251 C 
ATOM     36  H   UNL     1       3.415   0.629  14.210  1.00  0.00     0.163 HD
ATOM     37  O   UNL     1       2.457   1.918  16.002  1.00  0.00    -0.269 OA
BRANCH  35  38
ATOM     38  C   UNL     1       0.541   2.241  14.694  1.00  0.00     0.039 A 
ATOM     39  C   UNL     1       0.202   3.504  15.188  1.00  0.00     0.014 A 
ATOM     40  C   UNL     1      -0.421   1.464  14.043  1.00  0.00     0.014 A 
ATOM     41  C   UNL     1      -1.082   4.010  14.979  1.00  0.00     0.010 A 
ATOM     42  C   UNL     1      -1.677   2.000  13.770  1.00  0.00     0.010 A 
ATOM     43  C   UNL     1      -2.023   3.276  14.239  1.00  0.00    -0.014 A 
BRANCH  43  44
ATOM     44  C   UNL     1      -3.365   3.837  13.937  1.00  0.00     0.031 A 
ATOM     45  C   UNL     1      -4.607   3.172  14.460  1.00  0.00     0.074 A 
ATOM     46  C   UNL     1      -3.467   4.910  13.130  1.00  0.00     0.049 A 
ATOM     47  N   UNL     1      -5.862   3.485  14.256  1.00  0.00    -0.248 NA
ATOM     48  C   UNL     1      -4.415   1.979  15.297  1.00  0.00     0.031 C 
ATOM     49  C   UNL     1      -2.340   5.609  12.510  1.00  0.00     0.029 A 
ATOM     50  N   UNL     1      -4.570   5.589  12.677  1.00  0.00    -0.354 N 
ATOM     51  C   UNL     1      -6.606   2.520  14.922  1.00  0.00     0.074 A 
ATOM     52  C   UNL     1      -5.663   1.581  15.491  1.00  0.00     0.031 C 
ATOM     53  C   UNL     1      -2.808   6.625  11.769  1.00  0.00     0.029 A 
ATOM     54  C   UNL     1      -4.266   6.625  11.828  1.00  0.00     0.049 A 
ATOM     55  H   UNL     1      -5.491   5.356  12.936  1.00  0.00     0.167 HD
ATOM     56  C   UNL     1      -7.952   2.433  15.061  1.00  0.00     0.037 A 
ATOM     57  C   UNL     1      -5.070   7.471  11.156  1.00  0.00     0.037 A 
ATOM     58  C   UNL     1      -8.883   3.379  14.501  1.00  0.00     0.049 A 
ATOM     59  C   UNL     1      -6.559   7.361  11.326  1.00  0.00     0.074 A 
ATOM     60  C   UNL     1     -10.258   3.428  14.653  1.00  0.00     0.029 A 
ATOM     61  N   UNL     1      -8.537   4.431  13.665  1.00  0.00    -0.354 N 
ATOM     62  N   UNL     1      -7.247   6.501  12.037  1.00  0.00    -0.248 NA
ATOM     63  C   UNL     1      -7.382   8.345  10.609  1.00  0.00     0.031 C 
ATOM     64  C   UNL     1     -10.749   4.468  13.856  1.00  0.00     0.029 A 
ATOM     65  C   UNL     1      -9.676   5.111  13.261  1.00  0.00     0.049 A 
ATOM     66  H   UNL     1      -7.618   4.661  13.398  1.00  0.00     0.167 HD
ATOM     67  C   UNL     1      -8.582   6.849  11.870  1.00  0.00     0.074 A 
ATOM     68  C   UNL     1      -8.603   8.011  11.004  1.00  0.00     0.031 C 
ATOM     69  C   UNL     1      -9.687   6.260  12.389  1.00  0.00     0.037 A 
BRANCH  56  70
ATOM     70  C   UNL     1      -8.492   1.260  15.831  1.00  0.00     0.057 A 
ATOM     71  C   UNL     1      -8.276   1.106  17.208  1.00  0.00     0.134 A 
ATOM     72  C   UNL     1      -9.248   0.272  15.186  1.00  0.00     0.134 A 
ATOM     73  F   UNL     1      -7.555   2.010  17.889  1.00  0.00    -0.206 F 
ATOM     74  C   UNL     1      -8.750  -0.009  17.904  1.00  0.00     0.040 A 
ATOM     75  C   UNL     1      -9.757  -0.829  15.878  1.00  0.00     0.040 A 
ATOM     76  F   UNL     1      -9.505   0.358  13.872  1.00  0.00    -0.206 F 
ATOM     77  C   UNL     1      -9.497  -0.978  17.238  1.00  0.00     0.006 A 
ENDBRANCH  56  70
BRANCH  57  78
ATOM     78  C   UNL     1      -4.469   8.499  10.271  1.00  0.00     0.057 A 
ATOM     79  C   UNL     1      -4.487   9.855  10.613  1.00  0.00     0.134 A 
ATOM     80  C   UNL     1      -3.828   8.144   9.077  1.00  0.00     0.134 A 
ATOM     81  F   UNL     1      -5.100  10.260  11.736  1.00  0.00    -0.206 F 
ATOM     82  C   UNL     1      -3.896  10.823   9.799  1.00  0.00     0.040 A 
ATOM     83  C   UNL     1      -3.210   9.096   8.267  1.00  0.00     0.040 A 
ATOM     84  F   UNL     1      -3.767   6.858   8.698  1.00  0.00    -0.206 F 
ATOM     85  C   UNL     1      -3.247  10.442   8.625  1.00  0.00     0.006 A 
ENDBRANCH  57  78
BRANCH  69  86
ATOM     86  C   UNL     1     -11.017   6.875  12.054  1.00  0.00     0.057 A 
ATOM     87  C   UNL     1     -11.570   6.796  10.769  1.00  0.00     0.134 A 
ATOM     88  C   UNL     1     -11.772   7.521  13.042  1.00  0.00     0.134 A 
ATOM     89  F   UNL     1     -10.894   6.203   9.773  1.00  0.00    -0.206 F 
ATOM     90  C   UNL     1     -12.813   7.358  10.474  1.00  0.00     0.040 A 
ATOM     91  C   UNL     1     -13.030   8.059  12.766  1.00  0.00     0.040 A 
ATOM     92  F   UNL     1     -11.308   7.625  14.296  1.00  0.00    -0.206 F 
ATOM     93  C   UNL     1     -13.551   7.984  11.476  1.00  0.00     0.006 A 
ENDBRANCH  69  86
ENDBRANCH  43  44
ENDBRANCH  35  38
ENDBRANCH  33  34
ENDBRANCH  32  33
ENDBRANCH  31  32
ENDBRANCH   1  31
TORSDOF 19
