REMARK SMILES O=C(CSc1nc2ccc(NC(=O)COc3ccc(Cl)cc3)cc2s1)NCCCCCCNC(=O)c1ccc(-c2c3nc(c(-c4c(F)cccc4F)c4ccc([nH]4)c(-c4c(F)cccc4F)c4nc(c(-c5c(F)cccc5F)c5ccc2[nH]5)C=C4)C=C3)cc1
REMARK SMILES IDX 27 1 26 2 1 3 2 4 3 6 4 7 5 8 6 9 25 10 7 11 24 12 8 13
REMARK SMILES IDX 23 14 9 15 10 16 11 17 12 18 13 20 14 21 15 22 16 23 17 24
REMARK SMILES IDX 22 25 18 26 21 27 19 28 20 29 28 30 29 31 30 32 31 33 32 34
REMARK SMILES IDX 33 35 34 36 35 38 36 39 37 40 89 41 38 42 88 43 39 44 40 45
REMARK SMILES IDX 41 46 82 47 42 48 87 49 81 50 83 51 43 52 86 53 80 54 79 55
REMARK SMILES IDX 44 57 70 58 53 59 69 60 54 61 57 62 68 63 84 64 55 65 56 66
REMARK SMILES IDX 67 68 85 69 58 70 45 71 46 72 51 73 47 74 48 75 50 76 52 77
REMARK SMILES IDX 49 78 71 79 72 80 77 81 73 82 74 83 76 84 78 85 75 86 59 87
REMARK SMILES IDX 60 88 65 89 61 90 62 91 64 92 66 93 63 94
REMARK H PARENT 26 5 11 19 33 37 83 56 57 67
REMARK Flexibility Score: inf
ROOT
ATOM      1  C   UNL     1       2.076  -0.213  -2.469  1.00  0.00     0.116 C 
ENDROOT
BRANCH   1   2
ATOM      2  N   UNL     1       2.665  -0.196  -1.148  1.00  0.00    -0.355 N 
ATOM      3  O   UNL     1       0.775   0.491  -0.051  1.00  0.00    -0.274 OA
ATOM      4  C   UNL     1       1.953   0.140  -0.015  1.00  0.00     0.230 C 
ATOM      5  H   UNL     1       3.615  -0.435  -1.053  1.00  0.00     0.163 HD
BRANCH   4   6
ATOM      6  C   UNL     1       2.761   0.201   1.272  1.00  0.00     0.177 C 
BRANCH   6   7
ATOM      7  S   UNL     1       4.038  -1.081   1.398  1.00  0.00    -0.086 SA
BRANCH   7   8
ATOM      8  C   UNL     1       3.062  -2.525   1.558  1.00  0.00     0.151 A 
ATOM      9  N   UNL     1       1.753  -2.494   1.512  1.00  0.00    -0.230 NA
ATOM     10  S   UNL     1       3.774  -4.065   1.769  1.00  0.00    -0.108 S 
ATOM     11  C   UNL     1       1.252  -3.780   1.619  1.00  0.00     0.083 A 
ATOM     12  C   UNL     1       2.208  -4.782   1.765  1.00  0.00     0.057 A 
ATOM     13  C   UNL     1      -0.105  -4.150   1.596  1.00  0.00     0.032 A 
ATOM     14  C   UNL     1       1.864  -6.142   1.885  1.00  0.00     0.047 A 
ATOM     15  C   UNL     1      -0.453  -5.505   1.695  1.00  0.00     0.028 A 
ATOM     16  C   UNL     1       0.520  -6.505   1.812  1.00  0.00     0.042 A 
BRANCH  16  17
ATOM     17  N   UNL     1       0.045  -7.825   1.883  1.00  0.00    -0.323 N 
ATOM     18  C   UNL     1       0.630  -9.051   1.781  1.00  0.00     0.262 C 
ATOM     19  H   UNL     1      -0.925  -7.876   2.042  1.00  0.00     0.170 HD
ATOM     20  O   UNL     1      -0.090 -10.034   2.001  1.00  0.00    -0.271 OA
BRANCH  18  21
ATOM     21  C   UNL     1       2.094  -9.266   1.387  1.00  0.00     0.329 C 
BRANCH  21  22
ATOM     22  O   UNL     1       2.650  -8.529   0.313  1.00  0.00    -0.484 OA
BRANCH  22  23
ATOM     23  C   UNL     1       2.313  -8.882  -0.961  1.00  0.00     0.120 A 
ATOM     24  C   UNL     1       1.143  -9.536  -1.347  1.00  0.00     0.048 A 
ATOM     25  C   UNL     1       3.232  -8.487  -1.938  1.00  0.00     0.048 A 
ATOM     26  C   UNL     1       0.897  -9.793  -2.700  1.00  0.00     0.024 A 
ATOM     27  C   UNL     1       2.997  -8.758  -3.289  1.00  0.00     0.024 A 
ATOM     28  C   UNL     1       1.825  -9.407  -3.664  1.00  0.00     0.041 A 
ATOM     29  Cl  UNL     1       1.518  -9.731  -5.325  1.00  0.00    -0.084 Cl
ENDBRANCH  22  23
ENDBRANCH  21  22
ENDBRANCH  18  21
ENDBRANCH  16  17
ENDBRANCH   7   8
ENDBRANCH   6   7
ENDBRANCH   4   6
ENDBRANCH   1   2
BRANCH   1  30
ATOM     30  C   UNL     1       2.626   0.913  -3.344  1.00  0.00     0.021 C 
BRANCH  30  31
ATOM     31  C   UNL     1       4.132   0.823  -3.626  1.00  0.00     0.002 C 
BRANCH  31  32
ATOM     32  C   UNL     1       4.598  -0.464  -4.315  1.00  0.00     0.002 C 
BRANCH  32  33
ATOM     33  C   UNL     1       3.910  -0.781  -5.644  1.00  0.00     0.021 C 
BRANCH  33  34
ATOM     34  C   UNL     1       4.052   0.296  -6.716  1.00  0.00     0.116 C 
BRANCH  34  35
ATOM     35  N   UNL     1       5.432   0.485  -7.136  1.00  0.00    -0.352 N 
ATOM     36  C   UNL     1       5.971   0.470  -8.399  1.00  0.00     0.251 C 
ATOM     37  H   UNL     1       6.074   0.648  -6.408  1.00  0.00     0.163 HD
ATOM     38  O   UNL     1       7.191   0.480  -8.548  1.00  0.00    -0.269 OA
BRANCH  36  39
ATOM     39  C   UNL     1       5.087   0.415  -9.584  1.00  0.00     0.039 A 
ATOM     40  C   UNL     1       5.410  -0.456 -10.627  1.00  0.00     0.014 A 
ATOM     41  C   UNL     1       3.949   1.221  -9.672  1.00  0.00     0.014 A 
ATOM     42  C   UNL     1       4.556  -0.569 -11.727  1.00  0.00     0.010 A 
ATOM     43  C   UNL     1       3.061   1.053 -10.732  1.00  0.00     0.010 A 
ATOM     44  C   UNL     1       3.354   0.156 -11.771  1.00  0.00    -0.014 A 
BRANCH  44  45
ATOM     45  C   UNL     1       2.389  -0.019 -12.888  1.00  0.00     0.031 A 
ATOM     46  C   UNL     1       2.060   1.135 -13.796  1.00  0.00     0.074 A 
ATOM     47  C   UNL     1       1.757  -1.199 -13.045  1.00  0.00     0.049 A 
ATOM     48  N   UNL     1       1.197   1.194 -14.780  1.00  0.00    -0.248 NA
ATOM     49  C   UNL     1       2.775   2.398 -13.552  1.00  0.00     0.031 C 
ATOM     50  C   UNL     1       1.952  -2.382 -12.204  1.00  0.00     0.029 A 
ATOM     51  N   UNL     1       0.812  -1.597 -13.959  1.00  0.00    -0.354 N 
ATOM     52  C   UNL     1       1.252   2.498 -15.256  1.00  0.00     0.074 A 
ATOM     53  C   UNL     1       2.199   3.210 -14.427  1.00  0.00     0.031 C 
ATOM     54  C   UNL     1       1.170  -3.377 -12.653  1.00  0.00     0.029 A 
ATOM     55  C   UNL     1       0.386  -2.892 -13.785  1.00  0.00     0.049 A 
ATOM     56  H   UNL     1       0.472  -1.009 -14.672  1.00  0.00     0.167 HD
ATOM     57  C   UNL     1       0.588   3.046 -16.301  1.00  0.00     0.037 A 
ATOM     58  C   UNL     1      -0.541  -3.605 -14.453  1.00  0.00     0.037 A 
ATOM     59  C   UNL     1      -0.332   2.326 -17.144  1.00  0.00     0.049 A 
ATOM     60  C   UNL     1      -1.272  -2.965 -15.602  1.00  0.00     0.074 A 
ATOM     61  C   UNL     1      -0.992   2.774 -18.274  1.00  0.00     0.029 A 
ATOM     62  N   UNL     1      -0.726   1.012 -16.943  1.00  0.00    -0.354 N 
ATOM     63  N   UNL     1      -1.145  -1.757 -16.095  1.00  0.00    -0.248 NA
ATOM     64  C   UNL     1      -2.274  -3.790 -16.292  1.00  0.00     0.031 C 
ATOM     65  C   UNL     1      -1.833   1.751 -18.724  1.00  0.00     0.029 A 
ATOM     66  C   UNL     1      -1.648   0.645 -17.910  1.00  0.00     0.049 A 
ATOM     67  H   UNL     1      -0.400   0.428 -16.221  1.00  0.00     0.167 HD
ATOM     68  C   UNL     1      -2.021  -1.690 -17.171  1.00  0.00     0.074 A 
ATOM     69  C   UNL     1      -2.664  -2.983 -17.268  1.00  0.00     0.031 C 
ATOM     70  C   UNL     1      -2.271  -0.651 -18.004  1.00  0.00     0.037 A 
BRANCH  57  71
ATOM     71  C   UNL     1       0.824   4.500 -16.596  1.00  0.00     0.057 A 
ATOM     72  C   UNL     1       2.038   4.965 -17.116  1.00  0.00     0.134 A 
ATOM     73  C   UNL     1      -0.201   5.438 -16.413  1.00  0.00     0.134 A 
ATOM     74  F   UNL     1       3.064   4.122 -17.308  1.00  0.00    -0.206 F 
ATOM     75  C   UNL     1       2.233   6.314 -17.423  1.00  0.00     0.040 A 
ATOM     76  C   UNL     1      -0.028   6.783 -16.743  1.00  0.00     0.040 A 
ATOM     77  F   UNL     1      -1.393   5.059 -15.926  1.00  0.00    -0.206 F 
ATOM     78  C   UNL     1       1.194   7.225 -17.244  1.00  0.00     0.006 A 
ENDBRANCH  57  71
BRANCH  58  79
ATOM     79  C   UNL     1      -0.833  -5.009 -14.064  1.00  0.00     0.057 A 
ATOM     80  C   UNL     1      -0.517  -6.076 -14.915  1.00  0.00     0.134 A 
ATOM     81  C   UNL     1      -1.467  -5.318 -12.855  1.00  0.00     0.134 A 
ATOM     82  F   UNL     1       0.073  -5.843 -16.097  1.00  0.00    -0.206 F 
ATOM     83  C   UNL     1      -0.847  -7.393 -14.593  1.00  0.00     0.040 A 
ATOM     84  C   UNL     1      -1.775  -6.634 -12.505  1.00  0.00     0.040 A 
ATOM     85  F   UNL     1      -1.791  -4.345 -11.991  1.00  0.00    -0.206 F 
ATOM     86  C   UNL     1      -1.476  -7.675 -13.382  1.00  0.00     0.006 A 
ENDBRANCH  58  79
BRANCH  70  87
ATOM     87  C   UNL     1      -3.246  -0.882 -19.123  1.00  0.00     0.057 A 
ATOM     88  C   UNL     1      -4.620  -1.026 -18.894  1.00  0.00     0.134 A 
ATOM     89  C   UNL     1      -2.805  -0.921 -20.453  1.00  0.00     0.134 A 
ATOM     90  F   UNL     1      -5.107  -1.010 -17.644  1.00  0.00    -0.206 F 
ATOM     91  C   UNL     1      -5.517  -1.226 -19.945  1.00  0.00     0.040 A 
ATOM     92  C   UNL     1      -3.695  -1.090 -21.513  1.00  0.00     0.040 A 
ATOM     93  F   UNL     1      -1.503  -0.780 -20.743  1.00  0.00    -0.206 F 
ATOM     94  C   UNL     1      -5.056  -1.250 -21.260  1.00  0.00     0.006 A 
ENDBRANCH  70  87
ENDBRANCH  44  45
ENDBRANCH  36  39
ENDBRANCH  34  35
ENDBRANCH  33  34
ENDBRANCH  32  33
ENDBRANCH  31  32
ENDBRANCH  30  31
ENDBRANCH   1  30
TORSDOF 19
