REMARK SMILES COc1cc(/C=N/NC(=O)c2cc(Cl)ccc2O)ccc1OCC(=O)NCCCCCCNC(=O)c1ccc(-c2c3nc(c(-c4c(F)cccc4F)c4ccc([nH]4)c(-c4c(F)cccc4F)c4nc(c(-c5c(F)cccc5F)c5ccc2[nH]5)C=C4)C=C3)cc1
REMARK SMILES IDX 27 1 26 2 24 3 25 4 23 6 22 7 21 8 3 9 4 10 5 11 20 12 19 13
REMARK SMILES IDX 2 14 1 15 6 16 7 17 8 18 9 19 10 21 11 22 12 23 17 24 13 25
REMARK SMILES IDX 16 26 14 27 15 28 18 29 28 31 29 32 30 33 31 34 32 35 33 36
REMARK SMILES IDX 34 37 35 39 36 40 37 41 89 42 38 43 88 44 39 45 40 46 41 47
REMARK SMILES IDX 82 48 42 49 87 50 81 51 83 52 43 53 86 54 80 55 79 56 44 58
REMARK SMILES IDX 70 59 53 60 69 61 54 62 57 63 68 64 84 65 55 66 56 67 67 69
REMARK SMILES IDX 85 70 58 71 45 72 46 73 51 74 47 75 48 76 50 77 52 78 49 79
REMARK SMILES IDX 71 80 72 81 77 82 73 83 74 84 76 85 78 86 75 87 59 88 60 89
REMARK SMILES IDX 65 90 61 91 62 92 64 93 66 94 63 95
REMARK H PARENT 26 5 8 20 18 30 33 38 83 57 57 68
REMARK Flexibility Score: inf
ROOT
ATOM      1  C   UNL     1       3.493   1.625   2.436  1.00  0.00     0.116 C 
ENDROOT
BRANCH   1   2
ATOM      2  N   UNL     1       2.484   0.619   2.189  1.00  0.00    -0.353 N 
ATOM      3  C   UNL     1       2.334  -0.182   1.097  1.00  0.00     0.257 C 
ATOM      4  O   UNL     1       1.577  -1.151   1.200  1.00  0.00    -0.271 OA
ATOM      5  H   UNL     1       1.818   0.497   2.904  1.00  0.00     0.163 HD
BRANCH   3   6
ATOM      6  C   UNL     1       3.148   0.084  -0.178  1.00  0.00     0.329 C 
BRANCH   6   7
ATOM      7  O   UNL     1       3.292   1.419  -0.631  1.00  0.00    -0.480 OA
BRANCH   7   8
ATOM      8  C   UNL     1       2.194   2.141  -1.005  1.00  0.00     0.161 A 
ATOM      9  C   UNL     1       0.946   1.668  -1.429  1.00  0.00     0.161 A 
ATOM     10  C   UNL     1      -0.048   2.573  -1.830  1.00  0.00     0.060 A 
ATOM     11  C   UNL     1       0.193   3.948  -1.770  1.00  0.00    -0.002 A 
ATOM     12  C   UNL     1       2.421   3.525  -0.971  1.00  0.00     0.051 A 
ATOM     13  C   UNL     1       1.424   4.431  -1.332  1.00  0.00     0.014 A 
BRANCH   9  14
ATOM     14  O   UNL     1       0.740   0.325  -1.592  1.00  0.00    -0.493 OA
ATOM     15  C   UNL     1      -0.381  -0.164  -0.854  1.00  0.00     0.278 C 
ENDBRANCH   9  14
BRANCH  11  16
ATOM     16  C   UNL     1      -0.795   4.922  -2.270  1.00  0.00     0.141 C 
ATOM     17  N   UNL     1      -1.620   4.606  -3.221  1.00  0.00    -0.180 NA
BRANCH  17  18
ATOM     18  N   UNL     1      -2.403   5.595  -3.744  1.00  0.00    -0.243 N 
ATOM     19  C   UNL     1      -2.056   6.867  -4.172  1.00  0.00     0.275 C 
ATOM     20  H   UNL     1      -3.358   5.370  -3.830  1.00  0.00     0.194 HD
ATOM     21  O   UNL     1      -2.925   7.645  -4.562  1.00  0.00    -0.267 OA
BRANCH  19  22
ATOM     22  C   UNL     1      -0.645   7.317  -4.169  1.00  0.00     0.084 A 
ATOM     23  C   UNL     1      -0.401   8.618  -3.706  1.00  0.00     0.038 A 
ATOM     24  C   UNL     1       0.427   6.526  -4.600  1.00  0.00     0.128 A 
ATOM     25  C   UNL     1       0.908   9.085  -3.610  1.00  0.00     0.042 A 
ATOM     26  C   UNL     1       1.735   7.001  -4.504  1.00  0.00     0.048 A 
ATOM     27  Cl  UNL     1       1.208  10.662  -2.994  1.00  0.00    -0.084 Cl
ATOM     28  C   UNL     1       1.978   8.277  -3.992  1.00  0.00     0.024 A 
BRANCH  24  29
ATOM     29  O   UNL     1       0.285   5.267  -5.113  1.00  0.00    -0.507 OA
ATOM     30  H   UNL     1      -0.568   4.892  -5.203  1.00  0.00     0.293 HD
ENDBRANCH  24  29
ENDBRANCH  19  22
ENDBRANCH  17  18
ENDBRANCH  11  16
ENDBRANCH   7   8
ENDBRANCH   6   7
ENDBRANCH   3   6
ENDBRANCH   1   2
BRANCH   1  31
ATOM     31  C   UNL     1       2.894   2.981   2.805  1.00  0.00     0.021 C 
BRANCH  31  32
ATOM     32  C   UNL     1       1.950   2.981   4.013  1.00  0.00     0.002 C 
BRANCH  32  33
ATOM     33  C   UNL     1       2.474   2.293   5.277  1.00  0.00     0.002 C 
BRANCH  33  34
ATOM     34  C   UNL     1       3.849   2.753   5.759  1.00  0.00     0.021 C 
BRANCH  34  35
ATOM     35  C   UNL     1       3.972   4.248   6.016  1.00  0.00     0.116 C 
BRANCH  35  36
ATOM     36  N   UNL     1       3.128   4.693   7.112  1.00  0.00    -0.352 N 
ATOM     37  C   UNL     1       3.474   5.410   8.229  1.00  0.00     0.251 C 
ATOM     38  H   UNL     1       2.178   4.445   7.043  1.00  0.00     0.163 HD
ATOM     39  O   UNL     1       2.672   5.551   9.149  1.00  0.00    -0.269 OA
BRANCH  37  40
ATOM     40  C   UNL     1       4.829   5.993   8.335  1.00  0.00     0.039 A 
ATOM     41  C   UNL     1       5.535   5.848   9.531  1.00  0.00     0.014 A 
ATOM     42  C   UNL     1       5.405   6.668   7.255  1.00  0.00     0.014 A 
ATOM     43  C   UNL     1       6.843   6.329   9.623  1.00  0.00     0.010 A 
ATOM     44  C   UNL     1       6.735   7.072   7.321  1.00  0.00     0.010 A 
ATOM     45  C   UNL     1       7.466   6.912   8.508  1.00  0.00    -0.014 A 
BRANCH  45  46
ATOM     46  C   UNL     1       8.880   7.364   8.566  1.00  0.00     0.031 A 
ATOM     47  C   UNL     1       9.217   8.818   8.383  1.00  0.00     0.074 A 
ATOM     48  C   UNL     1       9.864   6.458   8.729  1.00  0.00     0.049 A 
ATOM     49  N   UNL     1      10.391   9.396   8.346  1.00  0.00    -0.248 NA
ATOM     50  C   UNL     1       8.088   9.741   8.190  1.00  0.00     0.031 C 
ATOM     51  C   UNL     1       9.670   5.013   8.874  1.00  0.00     0.029 A 
ATOM     52  N   UNL     1      11.226   6.617   8.793  1.00  0.00    -0.354 N 
ATOM     53  C   UNL     1      10.141  10.744   8.118  1.00  0.00     0.074 A 
ATOM     54  C   UNL     1       8.710  10.888   7.962  1.00  0.00     0.031 C 
ATOM     55  C   UNL     1      10.865   4.423   9.038  1.00  0.00     0.029 A 
ATOM     56  C   UNL     1      11.911   5.438   8.966  1.00  0.00     0.049 A 
ATOM     57  H   UNL     1      11.669   7.493   8.722  1.00  0.00     0.167 HD
ATOM     58  C   UNL     1      11.021  11.772   8.068  1.00  0.00     0.037 A 
ATOM     59  C   UNL     1      13.234   5.202   9.048  1.00  0.00     0.037 A 
ATOM     60  C   UNL     1      12.444  11.627   8.238  1.00  0.00     0.049 A 
ATOM     61  C   UNL     1      14.193   6.358   8.962  1.00  0.00     0.074 A 
ATOM     62  C   UNL     1      13.414  12.613   8.255  1.00  0.00     0.029 A 
ATOM     63  N   UNL     1      13.099  10.417   8.415  1.00  0.00    -0.354 N 
ATOM     64  N   UNL     1      13.937   7.636   8.815  1.00  0.00    -0.248 NA
ATOM     65  C   UNL     1      15.624   6.040   9.060  1.00  0.00     0.031 C 
ATOM     66  C   UNL     1      14.662  11.996   8.387  1.00  0.00     0.029 A 
ATOM     67  C   UNL     1      14.464  10.630   8.514  1.00  0.00     0.049 A 
ATOM     68  H   UNL     1      12.659   9.538   8.462  1.00  0.00     0.167 HD
ATOM     69  C   UNL     1      15.170   8.275   8.835  1.00  0.00     0.074 A 
ATOM     70  C   UNL     1      16.171   7.246   9.024  1.00  0.00     0.031 C 
ATOM     71  C   UNL     1      15.449   9.596   8.710  1.00  0.00     0.037 A 
BRANCH  58  72
ATOM     72  C   UNL     1      10.469  13.147   7.819  1.00  0.00     0.057 A 
ATOM     73  C   UNL     1       9.685  13.813   8.771  1.00  0.00     0.134 A 
ATOM     74  C   UNL     1      10.750  13.827   6.627  1.00  0.00     0.134 A 
ATOM     75  F   UNL     1       9.367  13.216   9.930  1.00  0.00    -0.206 F 
ATOM     76  C   UNL     1       9.178  15.093   8.535  1.00  0.00     0.040 A 
ATOM     77  C   UNL     1      10.275  15.119   6.393  1.00  0.00     0.040 A 
ATOM     78  F   UNL     1      11.499  13.252   5.674  1.00  0.00    -0.206 F 
ATOM     79  C   UNL     1       9.480  15.752   7.346  1.00  0.00     0.006 A 
ENDBRANCH  58  72
BRANCH  59  80
ATOM     80  C   UNL     1      13.735   3.816   9.238  1.00  0.00     0.057 A 
ATOM     81  C   UNL     1      14.356   3.429  10.431  1.00  0.00     0.134 A 
ATOM     82  C   UNL     1      13.623   2.851   8.229  1.00  0.00     0.134 A 
ATOM     83  F   UNL     1      14.511   4.311  11.429  1.00  0.00    -0.206 F 
ATOM     84  C   UNL     1      14.871   2.143  10.605  1.00  0.00     0.040 A 
ATOM     85  C   UNL     1      14.106   1.553   8.400  1.00  0.00     0.040 A 
ATOM     86  F   UNL     1      13.030   3.155   7.064  1.00  0.00    -0.206 F 
ATOM     87  C   UNL     1      14.742   1.199   9.588  1.00  0.00     0.006 A 
ENDBRANCH  59  80
BRANCH  71  88
ATOM     88  C   UNL     1      16.889  10.009   8.815  1.00  0.00     0.057 A 
ATOM     89  C   UNL     1      17.822   9.716   7.812  1.00  0.00     0.134 A 
ATOM     90  C   UNL     1      17.339  10.745   9.919  1.00  0.00     0.134 A 
ATOM     91  F   UNL     1      17.460   9.004   6.734  1.00  0.00    -0.206 F 
ATOM     92  C   UNL     1      19.155  10.116   7.917  1.00  0.00     0.040 A 
ATOM     93  C   UNL     1      18.661  11.178  10.020  1.00  0.00     0.040 A 
ATOM     94  F   UNL     1      16.495  11.069  10.911  1.00  0.00    -0.206 F 
ATOM     95  C   UNL     1      19.576  10.856   9.020  1.00  0.00     0.006 A 
ENDBRANCH  71  88
ENDBRANCH  45  46
ENDBRANCH  37  40
ENDBRANCH  35  36
ENDBRANCH  34  35
ENDBRANCH  33  34
ENDBRANCH  32  33
ENDBRANCH  31  32
ENDBRANCH   1  31
TORSDOF 20
