REMARK SMILES C[C@@H](C(=O)NCCCCCCNC(=O)c1ccc(-c2c3nc(c(-c4c(F)cccc4F)c4ccc([nH]4)c(-c4c(F)cccc4F)c4nc(c(-c5c(F)cccc5F)c5ccc2[nH]5)C=C4)C=C3)cc1)N(C)C(=O)NC[C@H]1C[N@@H+]2CCC[C@@H]2CO1
REMARK SMILES IDX 7 1 6 2 5 3 3 4 4 5 2 7 1 8 69 9 70 10 71 11 72 12 73 13
REMARK SMILES IDX 74 15 75 16 76 17 83 18 77 19 82 20 78 21 81 22 79 24 80 25
REMARK SMILES IDX 8 26 9 27 10 28 11 29 12 30 13 31 14 33 15 34 16 35 68 36
REMARK SMILES IDX 17 37 67 38 18 39 19 40 20 41 61 42 21 43 66 44 60 45 62 46
REMARK SMILES IDX 22 47 65 48 59 49 58 50 23 52 49 53 32 54 48 55 33 56 36 57
REMARK SMILES IDX 47 58 63 59 34 60 35 61 46 63 64 64 37 65 24 66 25 67 30 68
REMARK SMILES IDX 26 69 27 70 29 71 31 72 28 73 50 74 51 75 56 76 52 77 53 78
REMARK SMILES IDX 55 79 57 80 54 81 38 82 39 83 44 84 40 85 41 86 43 87 45 88
REMARK SMILES IDX 42 89
REMARK H PARENT 5 6 73 14 77 23 12 32 62 51 36 62
REMARK Flexibility Score: inf
ROOT
ATOM      1  C   UNL     1       4.160   0.343  -1.396  1.00  0.00     0.021 C 
ENDROOT
BRANCH   1   2
ATOM      2  C   UNL     1       3.343   1.534  -0.899  1.00  0.00     0.116 C 
BRANCH   2   3
ATOM      3  N   UNL     1       2.248   1.819  -1.795  1.00  0.00    -0.354 N 
ATOM      4  C   UNL     1       0.905   1.640  -1.635  1.00  0.00     0.242 C 
ATOM      5  O   UNL     1       0.195   2.067  -2.550  1.00  0.00    -0.273 OA
ATOM      6  H   UNL     1       2.513   2.204  -2.661  1.00  0.00     0.163 HD
BRANCH   4   7
ATOM      7  C   UNL     1       0.343   1.037  -0.315  1.00  0.00     0.172 C 
ATOM      8  C   UNL     1       0.797  -0.390   0.007  1.00  0.00     0.042 C 
BRANCH   7   9
ATOM      9  N   UNL     1      -1.129   1.192  -0.284  1.00  0.00    -0.316 N 
ATOM     10  C   UNL     1      -1.618   2.377   0.396  1.00  0.00     0.149 C 
BRANCH   9  11
ATOM     11  C   UNL     1      -1.879   0.365  -1.079  1.00  0.00     0.317 C 
ATOM     12  O   UNL     1      -1.371  -0.502  -1.797  1.00  0.00    -0.249 OA
ATOM     13  N   UNL     1      -3.220   0.409  -1.111  1.00  0.00    -0.335 N 
ATOM     14  H   UNL     1      -3.586  -0.206  -1.787  1.00  0.00     0.165 HD
BRANCH  13  15
ATOM     15  C   UNL     1      -4.275   1.124  -0.414  1.00  0.00     0.155 C 
BRANCH  15  16
ATOM     16  C   UNL     1      -5.051   2.133  -1.295  1.00  0.00     0.192 C 
ATOM     17  C   UNL     1      -5.216   3.539  -0.644  1.00  0.00     0.296 C 
ATOM     18  O   UNL     1      -4.539   2.142  -2.640  1.00  0.00    -0.364 OA
ATOM     19  N   UNL     1      -4.330   4.598  -1.141  1.00  0.00    -0.328 N 
ATOM     20  C   UNL     1      -4.814   3.366  -3.316  1.00  0.00     0.225 C 
ATOM     21  C   UNL     1      -4.809   5.946  -0.807  1.00  0.00     0.262 C 
ATOM     22  C   UNL     1      -4.117   4.532  -2.606  1.00  0.00     0.210 C 
ATOM     23  H   UNL     1      -3.444   4.428  -0.665  1.00  0.00     0.348 HD
ATOM     24  C   UNL     1      -4.374   6.816  -1.973  1.00  0.00     0.068 C 
ATOM     25  C   UNL     1      -4.543   5.889  -3.159  1.00  0.00     0.073 C 
ENDBRANCH  15  16
ENDBRANCH  13  15
ENDBRANCH   9  11
ENDBRANCH   7   9
ENDBRANCH   4   7
ENDBRANCH   2   3
ENDBRANCH   1   2
BRANCH   1  26
ATOM     26  C   UNL     1       4.904   0.604  -2.713  1.00  0.00     0.002 C 
BRANCH  26  27
ATOM     27  C   UNL     1       5.859   1.802  -2.696  1.00  0.00     0.002 C 
BRANCH  27  28
ATOM     28  C   UNL     1       6.903   1.781  -1.577  1.00  0.00     0.021 C 
BRANCH  28  29
ATOM     29  C   UNL     1       7.818   0.561  -1.588  1.00  0.00     0.116 C 
BRANCH  29  30
ATOM     30  N   UNL     1       8.644   0.507  -2.784  1.00  0.00    -0.352 N 
ATOM     31  C   UNL     1      10.003   0.378  -2.895  1.00  0.00     0.251 C 
ATOM     32  H   UNL     1       8.155   0.573  -3.636  1.00  0.00     0.163 HD
ATOM     33  O   UNL     1      10.552   0.546  -3.985  1.00  0.00    -0.269 OA
BRANCH  31  34
ATOM     34  C   UNL     1      10.818   0.056  -1.706  1.00  0.00     0.039 A 
ATOM     35  C   UNL     1      12.014   0.748  -1.501  1.00  0.00     0.014 A 
ATOM     36  C   UNL     1      10.415  -0.932  -0.802  1.00  0.00     0.014 A 
ATOM     37  C   UNL     1      12.778   0.487  -0.362  1.00  0.00     0.010 A 
ATOM     38  C   UNL     1      11.139  -1.138   0.369  1.00  0.00     0.010 A 
ATOM     39  C   UNL     1      12.331  -0.435   0.599  1.00  0.00    -0.014 A 
BRANCH  39  40
ATOM     40  C   UNL     1      13.104  -0.676   1.844  1.00  0.00     0.031 A 
ATOM     41  C   UNL     1      13.708  -2.027   2.112  1.00  0.00     0.074 A 
ATOM     42  C   UNL     1      13.223   0.309   2.755  1.00  0.00     0.049 A 
ATOM     43  N   UNL     1      14.374  -2.442   3.160  1.00  0.00    -0.248 NA
ATOM     44  C   UNL     1      13.519  -3.055   1.076  1.00  0.00     0.031 C 
ATOM     45  C   UNL     1      12.644   1.649   2.634  1.00  0.00     0.029 A 
ATOM     46  N   UNL     1      13.865   0.334   3.967  1.00  0.00    -0.354 N 
ATOM     47  C   UNL     1      14.682  -3.773   2.910  1.00  0.00     0.074 A 
ATOM     48  C   UNL     1      14.075  -4.116   1.642  1.00  0.00     0.031 C 
ATOM     49  C   UNL     1      12.976   2.371   3.716  1.00  0.00     0.029 A 
ATOM     50  C   UNL     1      13.758   1.537   4.623  1.00  0.00     0.049 A 
ATOM     51  H   UNL     1      14.356  -0.437   4.333  1.00  0.00     0.167 HD
ATOM     52  C   UNL     1      15.428  -4.625   3.653  1.00  0.00     0.037 A 
ATOM     53  C   UNL     1      14.232   1.921   5.824  1.00  0.00     0.037 A 
ATOM     54  C   UNL     1      16.040  -4.280   4.910  1.00  0.00     0.049 A 
ATOM     55  C   UNL     1      15.038   0.948   6.640  1.00  0.00     0.074 A 
ATOM     56  C   UNL     1      16.838  -5.064   5.725  1.00  0.00     0.029 A 
ATOM     57  N   UNL     1      15.921  -3.047   5.533  1.00  0.00    -0.354 N 
ATOM     58  N   UNL     1      15.371  -0.289   6.362  1.00  0.00    -0.248 NA
ATOM     59  C   UNL     1      15.544   1.430   7.933  1.00  0.00     0.031 C 
ATOM     60  C   UNL     1      17.170  -4.318   6.861  1.00  0.00     0.029 A 
ATOM     61  C   UNL     1      16.619  -3.054   6.730  1.00  0.00     0.049 A 
ATOM     62  H   UNL     1      15.415  -2.281   5.178  1.00  0.00     0.167 HD
ATOM     63  C   UNL     1      16.148  -0.722   7.428  1.00  0.00     0.074 A 
ATOM     64  C   UNL     1      16.253   0.390   8.349  1.00  0.00     0.031 C 
ATOM     65  C   UNL     1      16.723  -1.933   7.629  1.00  0.00     0.037 A 
BRANCH  52  66
ATOM     66  C   UNL     1      15.635  -6.012   3.116  1.00  0.00     0.057 A 
ATOM     67  C   UNL     1      16.436  -6.251   1.991  1.00  0.00     0.134 A 
ATOM     68  C   UNL     1      15.061  -7.123   3.746  1.00  0.00     0.134 A 
ATOM     69  F   UNL     1      17.006  -5.230   1.333  1.00  0.00    -0.206 F 
ATOM     70  C   UNL     1      16.638  -7.541   1.498  1.00  0.00     0.040 A 
ATOM     71  C   UNL     1      15.279  -8.421   3.279  1.00  0.00     0.040 A 
ATOM     72  F   UNL     1      14.288  -6.967   4.832  1.00  0.00    -0.206 F 
ATOM     73  C   UNL     1      16.064  -8.632   2.148  1.00  0.00     0.006 A 
ENDBRANCH  52  66
BRANCH  53  74
ATOM     74  C   UNL     1      13.971   3.294   6.327  1.00  0.00     0.057 A 
ATOM     75  C   UNL     1      15.007   4.226   6.461  1.00  0.00     0.134 A 
ATOM     76  C   UNL     1      12.687   3.699   6.713  1.00  0.00     0.134 A 
ATOM     77  F   UNL     1      16.262   3.891   6.125  1.00  0.00    -0.206 F 
ATOM     78  C   UNL     1      14.784   5.498   6.988  1.00  0.00     0.040 A 
ATOM     79  C   UNL     1      12.444   4.979   7.215  1.00  0.00     0.040 A 
ATOM     80  F   UNL     1      11.649   2.858   6.601  1.00  0.00    -0.206 F 
ATOM     81  C   UNL     1      13.497   5.879   7.364  1.00  0.00     0.006 A 
ENDBRANCH  53  74
BRANCH  65  82
ATOM     82  C   UNL     1      17.549  -2.102   8.871  1.00  0.00     0.057 A 
ATOM     83  C   UNL     1      16.969  -2.173  10.144  1.00  0.00     0.134 A 
ATOM     84  C   UNL     1      18.943  -2.222   8.787  1.00  0.00     0.134 A 
ATOM     85  F   UNL     1      15.642  -2.051  10.294  1.00  0.00    -0.206 F 
ATOM     86  C   UNL     1      17.748  -2.329  11.292  1.00  0.00     0.040 A 
ATOM     87  C   UNL     1      19.729  -2.407   9.925  1.00  0.00     0.040 A 
ATOM     88  F   UNL     1      19.561  -2.172   7.598  1.00  0.00    -0.206 F 
ATOM     89  C   UNL     1      19.132  -2.453  11.183  1.00  0.00     0.006 A 
ENDBRANCH  65  82
ENDBRANCH  39  40
ENDBRANCH  31  34
ENDBRANCH  29  30
ENDBRANCH  28  29
ENDBRANCH  27  28
ENDBRANCH  26  27
ENDBRANCH   1  26
TORSDOF 17
