REMARK SMILES C[C@@]1(C(=O)NCCCCCCNC(=O)c2ccc(-c3c4nc(c(-c5c(F)cccc5F)c5ccc([nH]5)c(-c5c(F)cccc5F)c5nc(c(-c6c(F)cccc6F)c6ccc3[nH]6)C=C5)C=C4)cc2)[C@@H]2C=C[C@@]3(CN(c4ccccc4)C(=O)[C@H]13)O2
REMARK SMILES IDX 9 1 8 2 7 3 6 4 5 5 3 6 4 7 2 9 1 10 69 11 83 12 70 13 84 14
REMARK SMILES IDX 72 15 81 16 71 17 73 18 74 19 82 20 75 21 76 22 80 23 77 24
REMARK SMILES IDX 79 25 78 26 10 27 11 28 12 29 13 30 14 32 15 33 16 34 68 35
REMARK SMILES IDX 17 36 67 37 18 38 19 39 20 40 61 41 21 42 66 43 60 44 62 45
REMARK SMILES IDX 22 46 65 47 59 48 58 49 23 51 49 52 32 53 48 54 33 55 36 56
REMARK SMILES IDX 47 57 63 58 34 59 35 60 46 62 64 63 37 64 24 65 25 66 30 67
REMARK SMILES IDX 26 68 27 69 29 70 31 71 28 72 50 73 51 74 56 75 52 76 53 77
REMARK SMILES IDX 55 78 57 79 54 80 38 81 39 82 44 83 40 84 41 85 43 86 45 87
REMARK SMILES IDX 42 88
REMARK H PARENT 5 8 12 31 62 50 36 61
REMARK Flexibility Score: inf
ROOT
ATOM      1  C   UNL     1      -4.237  -0.112   5.534  1.00  0.00     0.002 C 
ENDROOT
BRANCH   1   2
ATOM      2  C   UNL     1      -3.819   1.132   4.746  1.00  0.00     0.002 C 
BRANCH   2   3
ATOM      3  C   UNL     1      -2.331   1.296   4.449  1.00  0.00     0.021 C 
BRANCH   3   4
ATOM      4  C   UNL     1      -1.630   0.113   3.789  1.00  0.00     0.116 C 
BRANCH   4   5
ATOM      5  N   UNL     1      -1.739   0.086   2.349  1.00  0.00    -0.356 N 
ATOM      6  C   UNL     1      -0.864  -0.079   1.330  1.00  0.00     0.229 C 
ATOM      7  O   UNL     1      -1.423  -0.207   0.229  1.00  0.00    -0.274 OA
ATOM      8  H   UNL     1      -2.663   0.218   2.037  1.00  0.00     0.163 HD
BRANCH   6   9
ATOM      9  C   UNL     1       0.680  -0.171   1.403  1.00  0.00     0.091 C 
ATOM     10  C   UNL     1       1.200   0.099  -0.045  1.00  0.00     0.026 C 
ATOM     11  C   UNL     1       1.285  -1.549   1.822  1.00  0.00     0.158 C 
ATOM     12  C   UNL     1       1.471   0.740   2.343  1.00  0.00     0.135 C 
ATOM     13  C   UNL     1       0.751  -2.027   3.131  1.00  0.00     0.004 C 
ATOM     14  O   UNL     1       2.652  -1.133   2.298  1.00  0.00    -0.360 OA
ATOM     15  C   UNL     1       2.160  -0.242   3.304  1.00  0.00     0.118 C 
ATOM     16  C   UNL     1       1.040   1.830   3.262  1.00  0.00     0.234 C 
ATOM     17  C   UNL     1       1.289  -1.221   4.051  1.00  0.00     0.009 C 
ATOM     18  C   UNL     1       2.951   0.720   4.167  1.00  0.00     0.166 C 
ATOM     19  N   UNL     1       1.978   1.815   4.327  1.00  0.00    -0.309 N 
ATOM     20  O   UNL     1       0.150   2.625   3.024  1.00  0.00    -0.274 OA
BRANCH  19  21
ATOM     21  C   UNL     1       1.982   2.711   5.422  1.00  0.00     0.044 A 
ATOM     22  C   UNL     1       3.138   2.904   6.188  1.00  0.00     0.026 A 
ATOM     23  C   UNL     1       0.827   3.422   5.779  1.00  0.00     0.026 A 
ATOM     24  C   UNL     1       3.139   3.794   7.269  1.00  0.00     0.002 A 
ATOM     25  C   UNL     1       0.819   4.289   6.875  1.00  0.00     0.002 A 
ATOM     26  C   UNL     1       1.978   4.480   7.616  1.00  0.00     0.000 A 
ENDBRANCH  19  21
ENDBRANCH   6   9
ENDBRANCH   4   5
ENDBRANCH   3   4
ENDBRANCH   2   3
ENDBRANCH   1   2
BRANCH   1  27
ATOM     27  C   UNL     1      -3.416  -0.466   6.777  1.00  0.00     0.021 C 
BRANCH  27  28
ATOM     28  C   UNL     1      -3.226   0.635   7.817  1.00  0.00     0.116 C 
BRANCH  28  29
ATOM     29  N   UNL     1      -4.476   1.192   8.294  1.00  0.00    -0.352 N 
ATOM     30  C   UNL     1      -4.982   1.298   9.564  1.00  0.00     0.251 C 
ATOM     31  H   UNL     1      -5.060   1.554   7.589  1.00  0.00     0.163 HD
ATOM     32  O   UNL     1      -6.129   1.709   9.723  1.00  0.00    -0.269 OA
BRANCH  30  33
ATOM     33  C   UNL     1      -4.185   0.902  10.748  1.00  0.00     0.039 A 
ATOM     34  C   UNL     1      -4.831   0.200  11.771  1.00  0.00     0.014 A 
ATOM     35  C   UNL     1      -2.841   1.259  10.895  1.00  0.00     0.014 A 
ATOM     36  C   UNL     1      -4.125  -0.187  12.912  1.00  0.00     0.010 A 
ATOM     37  C   UNL     1      -2.119   0.821  12.008  1.00  0.00     0.010 A 
ATOM     38  C   UNL     1      -2.756   0.099  13.030  1.00  0.00    -0.014 A 
BRANCH  38  39
ATOM     39  C   UNL     1      -1.989  -0.348  14.220  1.00  0.00     0.031 A 
ATOM     40  C   UNL     1      -1.445   0.653  15.199  1.00  0.00     0.074 A 
ATOM     41  C   UNL     1      -1.746  -1.661  14.398  1.00  0.00     0.049 A 
ATOM     42  N   UNL     1      -0.729   0.451  16.277  1.00  0.00    -0.248 NA
ATOM     43  C   UNL     1      -1.724   2.070  14.920  1.00  0.00     0.031 C 
ATOM     44  C   UNL     1      -2.174  -2.730  13.495  1.00  0.00     0.029 A 
ATOM     45  N   UNL     1      -1.070  -2.317  15.396  1.00  0.00    -0.354 N 
ATOM     46  C   UNL     1      -0.463   1.712  16.796  1.00  0.00     0.074 A 
ATOM     47  C   UNL     1      -1.056   2.674  15.892  1.00  0.00     0.031 C 
ATOM     48  C   UNL     1      -1.763  -3.910  13.988  1.00  0.00     0.029 A 
ATOM     49  C   UNL     1      -1.025  -3.679  15.226  1.00  0.00     0.049 A 
ATOM     50  H   UNL     1      -0.657  -1.855  16.162  1.00  0.00     0.167 HD
ATOM     51  C   UNL     1       0.199   2.038  17.933  1.00  0.00     0.037 A 
ATOM     52  C   UNL     1      -0.453  -4.635  15.982  1.00  0.00     0.037 A 
ATOM     53  C   UNL     1       0.769   1.083  18.846  1.00  0.00     0.049 A 
ATOM     54  C   UNL     1       0.250  -4.251  17.252  1.00  0.00     0.074 A 
ATOM     55  C   UNL     1       1.412   1.316  20.050  1.00  0.00     0.029 A 
ATOM     56  N   UNL     1       0.763  -0.290  18.657  1.00  0.00    -0.354 N 
ATOM     57  N   UNL     1       0.443  -3.059  17.761  1.00  0.00    -0.248 NA
ATOM     58  C   UNL     1       0.804  -5.347  18.059  1.00  0.00     0.031 C 
ATOM     59  C   UNL     1       1.820   0.084  20.575  1.00  0.00     0.029 A 
ATOM     60  C   UNL     1       1.402  -0.917  19.714  1.00  0.00     0.049 A 
ATOM     61  H   UNL     1       0.364  -0.752  17.884  1.00  0.00     0.167 HD
ATOM     62  C   UNL     1       1.125  -3.260  18.953  1.00  0.00     0.074 A 
ATOM     63  C   UNL     1       1.297  -4.691  19.101  1.00  0.00     0.031 C 
ATOM     64  C   UNL     1       1.569  -2.342  19.845  1.00  0.00     0.037 A 
BRANCH  51  65
ATOM     65  C   UNL     1       0.334   3.498  18.251  1.00  0.00     0.057 A 
ATOM     66  C   UNL     1      -0.759   4.261  18.682  1.00  0.00     0.134 A 
ATOM     67  C   UNL     1       1.572   4.144  18.143  1.00  0.00     0.134 A 
ATOM     68  F   UNL     1      -1.974   3.705  18.794  1.00  0.00    -0.206 F 
ATOM     69  C   UNL     1      -0.632   5.622  18.968  1.00  0.00     0.040 A 
ATOM     70  C   UNL     1       1.716   5.499  18.448  1.00  0.00     0.040 A 
ATOM     71  F   UNL     1       2.659   3.470  17.741  1.00  0.00    -0.206 F 
ATOM     72  C   UNL     1       0.610   6.243  18.855  1.00  0.00     0.006 A 
ENDBRANCH  51  65
BRANCH  52  73
ATOM     73  C   UNL     1      -0.550  -6.054  15.566  1.00  0.00     0.057 A 
ATOM     74  C   UNL     1      -1.399  -6.945  16.232  1.00  0.00     0.134 A 
ATOM     75  C   UNL     1       0.194  -6.550  14.490  1.00  0.00     0.134 A 
ATOM     76  F   UNL     1      -2.122  -6.530  17.282  1.00  0.00    -0.206 F 
ATOM     77  C   UNL     1      -1.498  -8.283  15.849  1.00  0.00     0.040 A 
ATOM     78  C   UNL     1       0.091  -7.881  14.084  1.00  0.00     0.040 A 
ATOM     79  F   UNL     1       1.020  -5.742  13.808  1.00  0.00    -0.206 F 
ATOM     80  C   UNL     1      -0.754  -8.753  14.768  1.00  0.00     0.006 A 
ENDBRANCH  52  73
BRANCH  64  81
ATOM     81  C   UNL     1       2.269  -2.861  21.065  1.00  0.00     0.057 A 
ATOM     82  C   UNL     1       3.577  -3.357  21.006  1.00  0.00     0.134 A 
ATOM     83  C   UNL     1       1.637  -2.842  22.314  1.00  0.00     0.134 A 
ATOM     84  F   UNL     1       4.231  -3.414  19.836  1.00  0.00    -0.206 F 
ATOM     85  C   UNL     1       4.226  -3.836  22.145  1.00  0.00     0.040 A 
ATOM     86  C   UNL     1       2.282  -3.300  23.463  1.00  0.00     0.040 A 
ATOM     87  F   UNL     1       0.386  -2.374  22.438  1.00  0.00    -0.206 F 
ATOM     88  C   UNL     1       3.579  -3.804  23.380  1.00  0.00     0.006 A 
ENDBRANCH  64  81
ENDBRANCH  38  39
ENDBRANCH  30  33
ENDBRANCH  28  29
ENDBRANCH  27  28
ENDBRANCH   1  27
TORSDOF 14
