REMARK SMILES CCC(CC)[C@@H](C(=O)NCCCCCCNC(=O)c1ccc(-c2c3nc(c(-c4c(F)cccc4F)c4ccc([nH]4)c(-c4c(F)cccc4F)c4nc(c(-c5c(F)cccc5F)c5ccc2[nH]5)C=C4)C=C3)cc1)S(=O)(=O)c1cccc(OC)c1
REMARK SMILES IDX 12 1 11 2 10 3 9 4 7 5 8 6 6 8 3 9 2 10 1 11 4 12 5 13 73 14
REMARK SMILES IDX 74 15 75 16 76 17 77 18 83 19 78 20 80 21 79 22 81 23 82 24
REMARK SMILES IDX 13 25 14 26 15 27 16 28 17 29 18 31 19 32 20 33 72 34 21 35
REMARK SMILES IDX 71 36 22 37 23 38 24 39 65 40 25 41 70 42 64 43 66 44 26 45
REMARK SMILES IDX 69 46 63 47 62 48 27 50 53 51 36 52 52 53 37 54 40 55 51 56
REMARK SMILES IDX 67 57 38 58 39 59 50 61 68 62 41 63 28 64 29 65 34 66 30 67
REMARK SMILES IDX 31 68 33 69 35 70 32 71 54 72 55 73 60 74 56 75 57 76 59 77
REMARK SMILES IDX 61 78 58 79 42 80 43 81 48 82 44 83 45 84 47 85 49 86 46 87
REMARK H PARENT 9 7 16 30 66 49 40 60
REMARK Flexibility Score: inf
ROOT
ATOM      1  C   UNL     1       0.626   4.631  -1.231  1.00  0.00     0.002 C 
ENDROOT
BRANCH   1   2
ATOM      2  C   UNL     1       0.270   3.151  -1.034  1.00  0.00     0.021 C 
BRANCH   2   3
ATOM      3  C   UNL     1      -0.530   2.518  -2.182  1.00  0.00     0.116 C 
BRANCH   3   4
ATOM      4  N   UNL     1       0.325   2.335  -3.328  1.00  0.00    -0.355 N 
ATOM      5  C   UNL     1       0.907   1.288  -3.956  1.00  0.00     0.239 C 
ATOM      6  O   UNL     1       1.698   1.696  -4.807  1.00  0.00    -0.274 OA
ATOM      7  H   UNL     1       0.540   3.190  -3.766  1.00  0.00     0.163 HD
BRANCH   5   8
ATOM      8  C   UNL     1       0.593  -0.205  -3.718  1.00  0.00     0.205 C 
BRANCH   8   9
ATOM      9  C   UNL     1       1.138  -0.940  -2.429  1.00  0.00     0.016 C 
BRANCH   9  10
ATOM     10  C   UNL     1       1.093  -0.083  -1.156  1.00  0.00     0.002 C 
ATOM     11  C   UNL     1       1.662  -0.695   0.117  1.00  0.00     0.004 C 
ENDBRANCH   9  10
BRANCH   9  12
ATOM     12  C   UNL     1       0.474  -2.322  -2.163  1.00  0.00     0.002 C 
ATOM     13  C   UNL     1      -1.045  -2.314  -2.049  1.00  0.00     0.004 C 
ENDBRANCH   9  12
ENDBRANCH   8   9
BRANCH   8  14
ATOM     14  S   UNL     1       1.149  -1.123  -5.244  1.00  0.00     0.190 S 
ATOM     15  O   UNL     1       0.630  -2.479  -5.167  1.00  0.00    -0.223 OA
ATOM     16  O   UNL     1       0.854  -0.366  -6.447  1.00  0.00    -0.223 OA
BRANCH  14  17
ATOM     17  C   UNL     1       2.938  -1.265  -5.119  1.00  0.00     0.071 A 
ATOM     18  C   UNL     1       3.529  -2.491  -4.801  1.00  0.00     0.020 A 
ATOM     19  C   UNL     1       3.743  -0.140  -5.308  1.00  0.00     0.066 A 
ATOM     20  C   UNL     1       4.910  -2.554  -4.595  1.00  0.00     0.005 A 
ATOM     21  C   UNL     1       5.098  -0.173  -4.992  1.00  0.00     0.120 A 
ATOM     22  C   UNL     1       5.685  -1.391  -4.661  1.00  0.00     0.046 A 
BRANCH  21  23
ATOM     23  O   UNL     1       5.923   0.919  -4.988  1.00  0.00    -0.497 OA
ATOM     24  C   UNL     1       5.271   2.182  -4.832  1.00  0.00     0.278 C 
ENDBRANCH  21  23
ENDBRANCH  14  17
ENDBRANCH   8  14
ENDBRANCH   5   8
ENDBRANCH   3   4
ENDBRANCH   2   3
ENDBRANCH   1   2
BRANCH   1  25
ATOM     25  C   UNL     1      -0.564   5.589  -1.216  1.00  0.00     0.002 C 
BRANCH  25  26
ATOM     26  C   UNL     1      -1.505   5.422  -0.022  1.00  0.00     0.021 C 
BRANCH  26  27
ATOM     27  C   UNL     1      -0.826   5.467   1.344  1.00  0.00     0.116 C 
BRANCH  27  28
ATOM     28  N   UNL     1      -0.204   6.752   1.606  1.00  0.00    -0.352 N 
ATOM     29  C   UNL     1      -0.412   7.613   2.652  1.00  0.00     0.251 C 
ATOM     30  H   UNL     1       0.459   7.045   0.940  1.00  0.00     0.163 HD
ATOM     31  O   UNL     1       0.056   8.747   2.624  1.00  0.00    -0.269 OA
BRANCH  29  32
ATOM     32  C   UNL     1      -1.217   7.177   3.812  1.00  0.00     0.039 A 
ATOM     33  C   UNL     1      -2.200   8.035   4.309  1.00  0.00     0.014 A 
ATOM     34  C   UNL     1      -0.989   5.937   4.417  1.00  0.00     0.014 A 
ATOM     35  C   UNL     1      -2.981   7.634   5.394  1.00  0.00     0.010 A 
ATOM     36  C   UNL     1      -1.813   5.511   5.455  1.00  0.00     0.010 A 
ATOM     37  C   UNL     1      -2.806   6.362   5.964  1.00  0.00    -0.014 A 
BRANCH  37  38
ATOM     38  C   UNL     1      -3.631   5.925   7.116  1.00  0.00     0.031 A 
ATOM     39  C   UNL     1      -2.990   5.696   8.457  1.00  0.00     0.074 A 
ATOM     40  C   UNL     1      -4.947   5.693   6.948  1.00  0.00     0.049 A 
ATOM     41  N   UNL     1      -3.532   5.282   9.574  1.00  0.00    -0.248 NA
ATOM     42  C   UNL     1      -1.541   5.940   8.548  1.00  0.00     0.031 C 
ATOM     43  C   UNL     1      -5.676   5.832   5.686  1.00  0.00     0.029 A 
ATOM     44  N   UNL     1      -5.904   5.287   7.843  1.00  0.00    -0.354 N 
ATOM     45  C   UNL     1      -2.492   5.202  10.492  1.00  0.00     0.074 A 
ATOM     46  C   UNL     1      -1.279   5.559   9.789  1.00  0.00     0.031 C 
ATOM     47  C   UNL     1      -6.971   5.540   5.893  1.00  0.00     0.029 A 
ATOM     48  C   UNL     1      -7.157   5.169   7.293  1.00  0.00     0.049 A 
ATOM     49  H   UNL     1      -5.711   5.099   8.790  1.00  0.00     0.167 HD
ATOM     50  C   UNL     1      -2.546   4.886  11.807  1.00  0.00     0.037 A 
ATOM     51  C   UNL     1      -8.324   4.804   7.856  1.00  0.00     0.037 A 
ATOM     52  C   UNL     1      -3.758   4.562  12.512  1.00  0.00     0.049 A 
ATOM     53  C   UNL     1      -8.361   4.475   9.322  1.00  0.00     0.074 A 
ATOM     54  C   UNL     1      -3.926   4.283  13.857  1.00  0.00     0.029 A 
ATOM     55  N   UNL     1      -5.012   4.480  11.926  1.00  0.00    -0.354 N 
ATOM     56  N   UNL     1      -7.380   4.466  10.193  1.00  0.00    -0.248 NA
ATOM     57  C   UNL     1      -9.669   4.115   9.887  1.00  0.00     0.031 C 
ATOM     58  C   UNL     1      -5.278   3.998  14.078  1.00  0.00     0.029 A 
ATOM     59  C   UNL     1      -5.958   4.140  12.879  1.00  0.00     0.049 A 
ATOM     60  H   UNL     1      -5.202   4.639  10.973  1.00  0.00     0.167 HD
ATOM     61  C   UNL     1      -7.956   4.130  11.411  1.00  0.00     0.074 A 
ATOM     62  C   UNL     1      -9.374   3.955  11.169  1.00  0.00     0.031 C 
ATOM     63  C   UNL     1      -7.365   3.979  12.621  1.00  0.00     0.037 A 
BRANCH  50  64
ATOM     64  C   UNL     1      -1.253   4.882  12.569  1.00  0.00     0.057 A 
ATOM     65  C   UNL     1      -0.574   6.069  12.875  1.00  0.00     0.134 A 
ATOM     66  C   UNL     1      -0.693   3.682  13.024  1.00  0.00     0.134 A 
ATOM     67  F   UNL     1      -1.050   7.251  12.456  1.00  0.00    -0.206 F 
ATOM     68  C   UNL     1       0.630   6.060  13.582  1.00  0.00     0.040 A 
ATOM     69  C   UNL     1       0.496   3.663  13.755  1.00  0.00     0.040 A 
ATOM     70  F   UNL     1      -1.294   2.510  12.771  1.00  0.00    -0.206 F 
ATOM     71  C   UNL     1       1.165   4.854  14.029  1.00  0.00     0.006 A 
ENDBRANCH  50  64
BRANCH  51  72
ATOM     72  C   UNL     1      -9.562   4.767   7.040  1.00  0.00     0.057 A 
ATOM     73  C   UNL     1     -10.570   5.722   7.216  1.00  0.00     0.134 A 
ATOM     74  C   UNL     1      -9.771   3.779   6.071  1.00  0.00     0.134 A 
ATOM     75  F   UNL     1     -10.434   6.683   8.142  1.00  0.00    -0.206 F 
ATOM     76  C   UNL     1     -11.751   5.685   6.473  1.00  0.00     0.040 A 
ATOM     77  C   UNL     1     -10.937   3.743   5.304  1.00  0.00     0.040 A 
ATOM     78  F   UNL     1      -8.839   2.841   5.848  1.00  0.00    -0.206 F 
ATOM     79  C   UNL     1     -11.934   4.695   5.510  1.00  0.00     0.006 A 
ENDBRANCH  51  72
BRANCH  63  80
ATOM     80  C   UNL     1      -8.256   3.644  13.780  1.00  0.00     0.057 A 
ATOM     81  C   UNL     1      -8.819   2.371  13.936  1.00  0.00     0.134 A 
ATOM     82  C   UNL     1      -8.527   4.599  14.769  1.00  0.00     0.134 A 
ATOM     83  F   UNL     1      -8.608   1.418  13.017  1.00  0.00    -0.206 F 
ATOM     84  C   UNL     1      -9.639   2.067  15.023  1.00  0.00     0.040 A 
ATOM     85  C   UNL     1      -9.326   4.298  15.873  1.00  0.00     0.040 A 
ATOM     86  F   UNL     1      -8.011   5.834  14.683  1.00  0.00    -0.206 F 
ATOM     87  C   UNL     1      -9.890   3.030  15.998  1.00  0.00     0.006 A 
ENDBRANCH  63  80
ENDBRANCH  37  38
ENDBRANCH  29  32
ENDBRANCH  27  28
ENDBRANCH  26  27
ENDBRANCH  25  26
ENDBRANCH   1  25
TORSDOF 19
