REMARK SMILES Cc1c(CC(=O)N[C@H](CO)C(=O)NCCCCCCNC(=O)c2ccc(-c3c4nc(c(-c5c(F)cccc5F)c5ccc([nH]5)c(-c5c(F)cccc5F)c5nc(c(-c6c(F)cccc6F)c6ccc3[nH]6)C=C5)C=C4)cc2)cc(-c2ccc(S(C)(=O)=O)cc2)n1-c1ccc(F)cc1
REMARK SMILES IDX 15 1 14 2 13 3 11 4 12 5 8 7 7 8 5 9 6 10 4 12 3 13 1 14
REMARK SMILES IDX 2 15 89 16 77 17 78 18 90 19 91 20 96 21 92 22 95 23 93 24
REMARK SMILES IDX 94 25 79 26 80 27 88 28 81 29 87 30 82 31 83 32 84 33 85 34
REMARK SMILES IDX 86 35 9 36 10 37 16 39 17 40 18 41 19 42 20 43 21 44 22 46
REMARK SMILES IDX 23 47 24 48 76 49 25 50 75 51 26 52 27 53 28 54 69 55 29 56
REMARK SMILES IDX 74 57 68 58 70 59 30 60 73 61 67 62 66 63 31 65 57 66 40 67
REMARK SMILES IDX 56 68 41 69 44 70 55 71 71 72 42 73 43 74 54 76 72 77 45 78
REMARK SMILES IDX 32 79 33 80 38 81 34 82 35 83 37 84 39 85 36 86 58 87 59 88
REMARK SMILES IDX 64 89 60 90 61 91 63 92 65 93 62 94 46 95 47 96 52 97 48 98
REMARK SMILES IDX 49 99 51 100 53 101 50 102
REMARK H PARENT 13 6 7 11 10 38 20 45 70 64 44 75
REMARK Flexibility Score: inf
ROOT
ATOM      1  C   UNL     1       7.920  -3.234  -1.124  1.00  0.00     0.021 C 
ENDROOT
BRANCH   1   2
ATOM      2  C   UNL     1       5.676  -3.243  -1.040  1.00  0.00     0.116 C 
BRANCH   2   3
ATOM      3  N   UNL     1       4.608  -4.369  -1.733  1.00  0.00    -0.354 N 
ATOM      4  C   UNL     1       3.381  -4.218  -2.296  1.00  0.00     0.244 C 
ATOM      5  O   UNL     1       2.831  -5.173  -2.839  1.00  0.00    -0.273 OA
ATOM      6  H   UNL     1       4.938  -5.296  -1.726  1.00  0.00     0.163 HD
BRANCH   4   7
ATOM      7  C   UNL     1       2.827  -2.830  -2.318  1.00  0.00     0.197 C 
BRANCH   7   8
ATOM      8  N   UNL     1       3.567  -2.014  -3.332  1.00  0.00    -0.342 N 
ATOM      9  C   UNL     1       4.773  -2.025  -3.990  1.00  0.00     0.225 C 
ATOM     10  O   UNL     1       4.925  -1.048  -4.744  1.00  0.00    -0.275 OA
ATOM     11  H   UNL     1       3.028  -1.238  -3.611  1.00  0.00     0.164 HD
BRANCH   9  12
ATOM     12  C   UNL     1       5.920  -3.102  -3.961  1.00  0.00     0.137 C 
BRANCH  12  13
ATOM     13  C   UNL     1       6.696  -3.143  -2.636  1.00  0.00    -0.017 A 
ATOM     14  C   UNL     1       6.984  -0.263  -2.011  1.00  0.00     0.065 C 
ATOM     15  C   UNL     1       6.784  -1.683  -1.587  1.00  0.00     0.024 A 
ATOM     16  N   UNL     1       6.867  -2.259   0.154  1.00  0.00    -0.314 N 
ATOM     17  C   UNL     1       6.814  -4.723  -1.448  1.00  0.00     0.033 A 
ATOM     18  C   UNL     1       6.812  -4.119   0.244  1.00  0.00     0.053 A 
BRANCH  16  19
ATOM     19  C   UNL     1       7.306  -1.478   1.257  1.00  0.00     0.046 A 
ATOM     20  C   UNL     1       8.143  -2.117   2.182  1.00  0.00     0.029 A 
ATOM     21  C   UNL     1       6.878  -0.175   1.464  1.00  0.00     0.029 A 
ATOM     22  C   UNL     1       8.329  -1.579   3.435  1.00  0.00     0.041 A 
ATOM     23  C   UNL     1       7.120   0.392   2.717  1.00  0.00     0.041 A 
ATOM     24  C   UNL     1       7.750  -0.355   3.713  1.00  0.00     0.123 A 
ATOM     25  F   UNL     1       7.869   0.148   4.948  1.00  0.00    -0.207 F 
ENDBRANCH  16  19
BRANCH  18  26
ATOM     26  C   UNL     1       6.750  -4.842   1.514  1.00  0.00    -0.001 A 
ATOM     27  C   UNL     1       6.109  -4.319   2.652  1.00  0.00     0.011 A 
ATOM     28  C   UNL     1       7.455  -6.036   1.601  1.00  0.00     0.011 A 
ATOM     29  C   UNL     1       6.261  -4.941   3.893  1.00  0.00     0.021 A 
ATOM     30  C   UNL     1       7.596  -6.670   2.828  1.00  0.00     0.021 A 
ATOM     31  C   UNL     1       7.018  -6.112   3.971  1.00  0.00     0.067 A 
BRANCH  31  32
ATOM     32  S   UNL     1       7.177  -6.960   5.521  1.00  0.00     0.175 S 
ATOM     33  C   UNL     1       8.121  -5.867   6.546  1.00  0.00     0.163 C 
ATOM     34  O   UNL     1       5.842  -7.068   6.075  1.00  0.00    -0.224 OA
ATOM     35  O   UNL     1       7.989  -8.140   5.287  1.00  0.00    -0.224 OA
ENDBRANCH  31  32
ENDBRANCH  18  26
ENDBRANCH  12  13
ENDBRANCH   9  12
ENDBRANCH   7   8
BRANCH   7  36
ATOM     36  C   UNL     1       2.679  -2.305  -0.858  1.00  0.00     0.191 C 
BRANCH  36  37
ATOM     37  O   UNL     1       1.363  -2.508  -0.332  1.00  0.00    -0.394 OA
ATOM     38  H   UNL     1       0.720  -2.019  -0.870  1.00  0.00     0.210 HD
ENDBRANCH  36  37
ENDBRANCH   7  36
ENDBRANCH   4   7
ENDBRANCH   2   3
ENDBRANCH   1   2
BRANCH   1  39
ATOM     39  C   UNL     1       9.135  -4.176  -1.841  1.00  0.00     0.002 C 
BRANCH  39  40
ATOM     40  C   UNL     1      10.205  -3.376  -2.605  1.00  0.00     0.002 C 
BRANCH  40  41
ATOM     41  C   UNL     1      10.613  -1.947  -2.144  1.00  0.00     0.021 C 
BRANCH  41  42
ATOM     42  C   UNL     1      10.738  -1.580  -0.631  1.00  0.00     0.116 C 
BRANCH  42  43
ATOM     43  N   UNL     1      12.075  -1.471  -0.083  1.00  0.00    -0.352 N 
ATOM     44  C   UNL     1      12.528  -0.733   1.019  1.00  0.00     0.251 C 
ATOM     45  H   UNL     1      12.765  -1.992  -0.553  1.00  0.00     0.163 HD
ATOM     46  O   UNL     1      13.733  -0.804   1.269  1.00  0.00    -0.269 OA
BRANCH  44  47
ATOM     47  C   UNL     1      11.631   0.171   1.895  1.00  0.00     0.039 A 
ATOM     48  C   UNL     1      11.505   1.526   1.647  1.00  0.00     0.014 A 
ATOM     49  C   UNL     1      11.140  -0.163   3.169  1.00  0.00     0.014 A 
ATOM     50  C   UNL     1      10.690   2.421   2.505  1.00  0.00     0.010 A 
ATOM     51  C   UNL     1      10.408   0.797   4.098  1.00  0.00     0.010 A 
ATOM     52  C   UNL     1      10.008   2.124   3.772  1.00  0.00    -0.014 A 
BRANCH  52  53
ATOM     53  C   UNL     1       9.471   3.475   4.827  1.00  0.00     0.031 A 
ATOM     54  C   UNL     1      10.745   4.226   4.680  1.00  0.00     0.074 A 
ATOM     55  C   UNL     1       8.580   4.058   5.855  1.00  0.00     0.049 A 
ATOM     56  N   UNL     1      11.781   3.533   5.059  1.00  0.00    -0.248 NA
ATOM     57  C   UNL     1      11.070   5.302   3.749  1.00  0.00     0.031 C 
ATOM     58  C   UNL     1       7.465   3.433   6.638  1.00  0.00     0.029 A 
ATOM     59  N   UNL     1       8.463   5.420   6.536  1.00  0.00    -0.354 N 
ATOM     60  C   UNL     1      12.912   4.207   4.705  1.00  0.00     0.074 A 
ATOM     61  C   UNL     1      12.413   5.191   3.738  1.00  0.00     0.031 C 
ATOM     62  C   UNL     1       6.741   4.302   7.437  1.00  0.00     0.029 A 
ATOM     63  C   UNL     1       7.245   5.688   7.432  1.00  0.00     0.049 A 
ATOM     64  H   UNL     1       9.153   6.110   6.404  1.00  0.00     0.167 HD
ATOM     65  C   UNL     1      13.699   4.370   5.809  1.00  0.00     0.037 A 
ATOM     66  C   UNL     1       6.797   6.840   8.208  1.00  0.00     0.037 A 
ATOM     67  C   UNL     1      13.238   5.516   6.554  1.00  0.00     0.049 A 
ATOM     68  C   UNL     1       8.041   7.400   8.723  1.00  0.00     0.074 A 
ATOM     69  C   UNL     1      12.807   6.760   6.120  1.00  0.00     0.029 A 
ATOM     70  N   UNL     1      12.640   5.293   7.773  1.00  0.00    -0.354 N 
ATOM     71  N   UNL     1       8.722   6.877   9.691  1.00  0.00    -0.248 NA
ATOM     72  C   UNL     1       8.576   8.601   8.117  1.00  0.00     0.031 C 
ATOM     73  C   UNL     1      11.575   6.923   6.769  1.00  0.00     0.029 A 
ATOM     74  C   UNL     1      11.647   6.221   7.961  1.00  0.00     0.049 A 
ATOM     75  H   UNL     1      12.885   4.582   8.408  1.00  0.00     0.167 HD
ATOM     76  C   UNL     1       9.978   7.211   9.298  1.00  0.00     0.074 A 
ATOM     77  C   UNL     1       9.839   8.424   8.492  1.00  0.00     0.031 C 
ATOM     78  C   UNL     1      10.834   6.173   9.134  1.00  0.00     0.037 A 
BRANCH  65  79
ATOM     79  C   UNL     1      14.025   3.007   6.411  1.00  0.00     0.057 A 
ATOM     80  C   UNL     1      15.279   2.458   6.146  1.00  0.00     0.134 A 
ATOM     81  C   UNL     1      13.078   2.142   7.016  1.00  0.00     0.134 A 
ATOM     82  F   UNL     1      16.241   3.215   5.598  1.00  0.00    -0.206 F 
ATOM     83  C   UNL     1      15.563   1.113   6.409  1.00  0.00     0.040 A 
ATOM     84  C   UNL     1      13.329   0.783   7.220  1.00  0.00     0.040 A 
ATOM     85  F   UNL     1      11.866   2.583   7.395  1.00  0.00    -0.206 F 
ATOM     86  C   UNL     1      14.578   0.263   6.911  1.00  0.00     0.006 A 
ENDBRANCH  65  79
BRANCH  66  87
ATOM     87  C   UNL     1       5.653   7.752   9.025  1.00  0.00     0.057 A 
ATOM     88  C   UNL     1       5.967   8.661  10.133  1.00  0.00     0.134 A 
ATOM     89  C   UNL     1       4.456   8.155   8.408  1.00  0.00     0.134 A 
ATOM     90  F   UNL     1       7.058   8.491  10.896  1.00  0.00    -0.206 F 
ATOM     91  C   UNL     1       5.235   9.841  10.495  1.00  0.00     0.040 A 
ATOM     92  C   UNL     1       3.703   9.331   8.780  1.00  0.00     0.040 A 
ATOM     93  F   UNL     1       4.000   7.476   7.350  1.00  0.00    -0.206 F 
ATOM     94  C   UNL     1       4.102  10.196   9.796  1.00  0.00     0.006 A 
ENDBRANCH  66  87
BRANCH  78  95
ATOM     95  C   UNL     1      10.807   5.069  10.161  1.00  0.00     0.057 A 
ATOM     96  C   UNL     1       9.687   4.314  10.569  1.00  0.00     0.134 A 
ATOM     97  C   UNL     1      11.992   4.827  10.864  1.00  0.00     0.134 A 
ATOM     98  F   UNL     1       8.519   4.360   9.914  1.00  0.00    -0.206 F 
ATOM     99  C   UNL     1       9.732   3.459  11.680  1.00  0.00     0.040 A 
ATOM    100  C   UNL     1      12.063   3.942  11.941  1.00  0.00     0.040 A 
ATOM    101  F   UNL     1      13.123   5.457  10.513  1.00  0.00    -0.206 F 
ATOM    102  C   UNL     1      10.921   3.281  12.377  1.00  0.00     0.006 A 
ENDBRANCH  78  95
ENDBRANCH  52  53
ENDBRANCH  44  47
ENDBRANCH  42  43
ENDBRANCH  41  42
ENDBRANCH  40  41
ENDBRANCH  39  40
ENDBRANCH   1  39
TORSDOF 21
