REMARK SMILES CCc1cc(OC(F)(F)F)cc2c1O[C@H](C(F)(F)F)C(C(=O)NCCCCCCNC(=O)c1ccc(-c3c4nc(c(-c5c(F)cccc5F)c5ccc([nH]5)c(-c5c(F)cccc5F)c5nc(c(-c6c(F)cccc6F)c6ccc3[nH]6)C=C5)C=C4)cc1)=C2
REMARK SMILES IDX 26 1 25 2 24 3 23 4 21 5 22 6 20 8 3 9 4 10 13 11 5 12 12 13
REMARK SMILES IDX 14 14 11 15 87 16 15 17 2 18 1 19 6 20 7 21 8 22 9 23 10 24
REMARK SMILES IDX 16 25 17 26 18 27 19 28 27 29 28 30 29 31 30 32 31 33 32 35
REMARK SMILES IDX 33 36 34 37 86 38 35 39 85 40 36 41 37 42 38 43 79 44 39 45
REMARK SMILES IDX 84 46 78 47 80 48 40 49 83 50 77 51 76 52 41 54 67 55 50 56
REMARK SMILES IDX 66 57 51 58 54 59 65 60 81 61 52 62 53 63 64 65 82 66 55 67
REMARK SMILES IDX 42 68 43 69 48 70 44 71 45 72 47 73 49 74 46 75 68 76 69 77
REMARK SMILES IDX 74 78 70 79 71 80 73 81 75 82 72 83 56 84 57 85 62 86 58 87
REMARK SMILES IDX 59 88 61 89 63 90 60 91
REMARK H PARENT 23 7 30 34 80 53 54 64
REMARK Flexibility Score: inf
ROOT
ATOM      1  C   UNL     1      -0.595  10.007   1.274  1.00  0.00     0.002 C 
ENDROOT
BRANCH   1   2
ATOM      2  C   UNL     1      -0.117   8.602   1.665  1.00  0.00     0.021 C 
BRANCH   2   3
ATOM      3  C   UNL     1      -1.268   7.606   1.821  1.00  0.00     0.116 C 
BRANCH   3   4
ATOM      4  N   UNL     1      -1.672   7.113   0.521  1.00  0.00    -0.352 N 
ATOM      5  C   UNL     1      -1.350   6.006  -0.189  1.00  0.00     0.251 C 
ATOM      6  O   UNL     1      -1.865   5.883  -1.301  1.00  0.00    -0.270 OA
ATOM      7  H   UNL     1      -2.312   7.703   0.060  1.00  0.00     0.163 HD
BRANCH   5   8
ATOM      8  C   UNL     1      -0.519   4.894   0.354  1.00  0.00     0.067 C 
ATOM      9  C   UNL     1       0.940   1.277   1.907  1.00  0.00    -0.002 A 
ATOM     10  C   UNL     1       1.900   1.312   2.934  1.00  0.00     0.054 A 
ATOM     11  C   UNL     1       0.454   2.486   1.389  1.00  0.00     0.131 A 
ATOM     12  C   UNL     1       2.365   2.529   3.437  1.00  0.00     0.130 A 
ATOM     13  C   UNL     1       0.936   3.710   1.861  1.00  0.00     0.021 A 
ATOM     14  O   UNL     1      -0.553   2.415   0.461  1.00  0.00    -0.475 OA
ATOM     15  C   UNL     1       1.886   3.723   2.887  1.00  0.00     0.058 A 
ATOM     16  C   UNL     1       0.370   4.958   1.355  1.00  0.00     0.025 C 
ATOM     17  C   UNL     1      -0.728   3.582  -0.384  1.00  0.00     0.314 C 
BRANCH   9  18
ATOM     18  C   UNL     1       0.467  -0.053   1.365  1.00  0.00     0.036 C 
ATOM     19  C   UNL     1       1.026  -0.336  -0.024  1.00  0.00     0.009 C 
ENDBRANCH   9  18
BRANCH  12  20
ATOM     20  O   UNL     1       3.261   2.701   4.453  1.00  0.00    -0.406 OA
BRANCH  20  21
ATOM     21  C   UNL     1       3.792   1.543   5.075  1.00  0.00     0.573 C 
ATOM     22  F   UNL     1       2.815   0.795   5.631  1.00  0.00    -0.132 F 
ATOM     23  F   UNL     1       4.489   0.796   4.194  1.00  0.00    -0.132 F 
ATOM     24  F   UNL     1       4.634   1.929   6.059  1.00  0.00    -0.132 F 
ENDBRANCH  20  21
ENDBRANCH  12  20
BRANCH  17  25
ATOM     25  C   UNL     1       0.164   3.464  -1.638  1.00  0.00     0.429 C 
ATOM     26  F   UNL     1      -0.164   2.364  -2.362  1.00  0.00    -0.167 F 
ATOM     27  F   UNL     1       0.064   4.523  -2.471  1.00  0.00    -0.167 F 
ATOM     28  F   UNL     1       1.477   3.348  -1.317  1.00  0.00    -0.167 F 
ENDBRANCH  17  25
ENDBRANCH   5   8
ENDBRANCH   3   4
ENDBRANCH   2   3
ENDBRANCH   1   2
BRANCH   1  29
ATOM     29  C   UNL     1      -1.476  10.697   2.324  1.00  0.00     0.002 C 
BRANCH  29  30
ATOM     30  C   UNL     1      -0.858  10.792   3.721  1.00  0.00     0.021 C 
BRANCH  30  31
ATOM     31  C   UNL     1       0.437  11.595   3.776  1.00  0.00     0.116 C 
BRANCH  31  32
ATOM     32  N   UNL     1       0.211  12.993   3.447  1.00  0.00    -0.352 N 
ATOM     33  C   UNL     1       0.487  14.115   4.187  1.00  0.00     0.251 C 
ATOM     34  H   UNL     1      -0.199  13.159   2.567  1.00  0.00     0.163 HD
ATOM     35  O   UNL     1       0.010  15.198   3.869  1.00  0.00    -0.269 OA
BRANCH  33  36
ATOM     36  C   UNL     1       1.357  14.012   5.376  1.00  0.00     0.039 A 
ATOM     37  C   UNL     1       0.989  14.685   6.544  1.00  0.00     0.014 A 
ATOM     38  C   UNL     1       2.546  13.278   5.330  1.00  0.00     0.014 A 
ATOM     39  C   UNL     1       1.791  14.582   7.682  1.00  0.00     0.010 A 
ATOM     40  C   UNL     1       3.309  13.123   6.483  1.00  0.00     0.010 A 
ATOM     41  C   UNL     1       2.944  13.780   7.667  1.00  0.00    -0.014 A 
BRANCH  41  42
ATOM     42  C   UNL     1       3.785  13.624   8.879  1.00  0.00     0.031 A 
ATOM     43  C   UNL     1       5.197  14.139   8.890  1.00  0.00     0.074 A 
ATOM     44  C   UNL     1       3.298  12.959   9.945  1.00  0.00     0.049 A 
ATOM     45  N   UNL     1       6.107  14.036   9.825  1.00  0.00    -0.248 NA
ATOM     46  C   UNL     1       5.657  14.839   7.679  1.00  0.00     0.031 C 
ATOM     47  C   UNL     1       1.961  12.368  10.035  1.00  0.00     0.029 A 
ATOM     48  N   UNL     1       3.877  12.658  11.152  1.00  0.00    -0.354 N 
ATOM     49  C   UNL     1       7.248  14.638   9.310  1.00  0.00     0.074 A 
ATOM     50  C   UNL     1       6.931  15.064   7.964  1.00  0.00     0.031 C 
ATOM     51  C   UNL     1       1.818  11.788  11.238  1.00  0.00     0.029 A 
ATOM     52  C   UNL     1       3.060  11.937  11.989  1.00  0.00     0.049 A 
ATOM     53  H   UNL     1       4.791  12.932  11.394  1.00  0.00     0.167 HD
ATOM     54  C   UNL     1       8.444  14.837   9.912  1.00  0.00     0.037 A 
ATOM     55  C   UNL     1       3.291  11.446  13.221  1.00  0.00     0.037 A 
ATOM     56  C   UNL     1       8.745  14.443  11.263  1.00  0.00     0.049 A 
ATOM     57  C   UNL     1       4.623  11.694  13.873  1.00  0.00     0.074 A 
ATOM     58  C   UNL     1       9.902  14.665  11.989  1.00  0.00     0.029 A 
ATOM     59  N   UNL     1       7.880  13.744  12.092  1.00  0.00    -0.354 N 
ATOM     60  N   UNL     1       5.668  12.331  13.402  1.00  0.00    -0.248 NA
ATOM     61  C   UNL     1       4.806  11.162  15.230  1.00  0.00     0.031 C 
ATOM     62  C   UNL     1       9.754  14.064  13.243  1.00  0.00     0.029 A 
ATOM     63  C   UNL     1       8.487  13.508  13.315  1.00  0.00     0.049 A 
ATOM     64  H   UNL     1       6.971  13.458  11.848  1.00  0.00     0.167 HD
ATOM     65  C   UNL     1       6.620  12.300  14.412  1.00  0.00     0.074 A 
ATOM     66  C   UNL     1       6.023  11.594  15.527  1.00  0.00     0.031 C 
ATOM     67  C   UNL     1       7.875  12.810  14.416  1.00  0.00     0.037 A 
BRANCH  54  68
ATOM     68  C   UNL     1       9.520  15.517   9.116  1.00  0.00     0.057 A 
ATOM     69  C   UNL     1       9.456  16.881   8.802  1.00  0.00     0.134 A 
ATOM     70  C   UNL     1      10.655  14.811   8.700  1.00  0.00     0.134 A 
ATOM     71  F   UNL     1       8.390  17.612   9.161  1.00  0.00    -0.206 F 
ATOM     72  C   UNL     1      10.472  17.513   8.082  1.00  0.00     0.040 A 
ATOM     73  C   UNL     1      11.690  15.438   8.002  1.00  0.00     0.040 A 
ATOM     74  F   UNL     1      10.783  13.504   8.973  1.00  0.00    -0.206 F 
ATOM     75  C   UNL     1      11.597  16.792   7.688  1.00  0.00     0.006 A 
ENDBRANCH  54  68
BRANCH  55  76
ATOM     76  C   UNL     1       2.232  10.684  13.928  1.00  0.00     0.057 A 
ATOM     77  C   UNL     1       1.579  11.220  15.044  1.00  0.00     0.134 A 
ATOM     78  C   UNL     1       1.854   9.401  13.515  1.00  0.00     0.134 A 
ATOM     79  F   UNL     1       1.910  12.438  15.499  1.00  0.00    -0.206 F 
ATOM     80  C   UNL     1       0.606  10.500  15.738  1.00  0.00     0.040 A 
ATOM     81  C   UNL     1       0.864   8.680  14.184  1.00  0.00     0.040 A 
ATOM     82  F   UNL     1       2.435   8.835  12.446  1.00  0.00    -0.206 F 
ATOM     83  C   UNL     1       0.243   9.226  15.305  1.00  0.00     0.006 A 
ENDBRANCH  55  76
BRANCH  67  84
ATOM     84  C   UNL     1       8.675  12.652  15.675  1.00  0.00     0.057 A 
ATOM     85  C   UNL     1       9.207  11.416  16.063  1.00  0.00     0.134 A 
ATOM     86  C   UNL     1       8.948  13.759  16.489  1.00  0.00     0.134 A 
ATOM     87  F   UNL     1       8.971  10.315  15.333  1.00  0.00    -0.206 F 
ATOM     88  C   UNL     1       9.964  11.282  17.227  1.00  0.00     0.040 A 
ATOM     89  C   UNL     1       9.725  13.643  17.642  1.00  0.00     0.040 A 
ATOM     90  F   UNL     1       8.475  14.973  16.169  1.00  0.00    -0.206 F 
ATOM     91  C   UNL     1      10.231  12.400  18.017  1.00  0.00     0.006 A 
ENDBRANCH  67  84
ENDBRANCH  41  42
ENDBRANCH  33  36
ENDBRANCH  31  32
ENDBRANCH  30  31
ENDBRANCH  29  30
ENDBRANCH   1  29
TORSDOF 17
