REMARK SMILES Cc1ccc(C)c(/C=C2\SC(=S)N(CC(=O)NCCCCCCNC(=O)c3ccc(-c4c5nc(c(-c6c(F)cccc6F)c6ccc([nH]6)c(-c6c(F)cccc6F)c6nc(c(-c7c(F)cccc7F)c7ccc4[nH]7)C=C6)C=C5)cc3)C2=O)c1
REMARK SMILES IDX 20 1 19 2 18 3 17 4 15 5 16 6 14 8 13 9 8 10 9 11 10 12
REMARK SMILES IDX 81 13 11 14 82 15 12 16 7 17 1 18 2 19 3 20 83 21 4 22 5 23
REMARK SMILES IDX 6 24 21 25 22 26 23 27 24 28 25 29 26 31 27 32 28 33 80 34
REMARK SMILES IDX 29 35 79 36 30 37 31 38 32 39 73 40 33 41 78 42 72 43 74 44
REMARK SMILES IDX 34 45 77 46 71 47 70 48 35 50 61 51 44 52 60 53 45 54 48 55
REMARK SMILES IDX 59 56 75 57 46 58 47 59 58 61 76 62 49 63 36 64 37 65 42 66
REMARK SMILES IDX 38 67 39 68 41 69 43 70 40 71 62 72 63 73 68 74 64 75 65 76
REMARK SMILES IDX 67 77 69 78 66 79 50 80 51 81 56 82 52 83 53 84 55 85 57 86
REMARK SMILES IDX 54 87
REMARK H PARENT 17 7 24 30 74 49 48 60
REMARK Flexibility Score: inf
ROOT
ATOM      1  C   UNL     1      -5.454   3.487  -4.767  1.00  0.00     0.002 C 
ENDROOT
BRANCH   1   2
ATOM      2  C   UNL     1      -3.993   3.780  -4.420  1.00  0.00     0.021 C 
BRANCH   2   3
ATOM      3  C   UNL     1      -3.618   5.255  -4.531  1.00  0.00     0.116 C 
BRANCH   3   4
ATOM      4  N   UNL     1      -4.250   6.054  -3.503  1.00  0.00    -0.355 N 
ATOM      5  C   UNL     1      -3.732   6.931  -2.598  1.00  0.00     0.240 C 
ATOM      6  O   UNL     1      -4.533   7.686  -2.040  1.00  0.00    -0.273 OA
ATOM      7  H   UNL     1      -5.227   5.945  -3.448  1.00  0.00     0.163 HD
BRANCH   5   8
ATOM      8  C   UNL     1      -2.222   7.129  -2.404  1.00  0.00     0.227 C 
BRANCH   8   9
ATOM      9  N   UNL     1      -1.447   5.898  -2.284  1.00  0.00    -0.283 N 
ATOM     10  C   UNL     1      -1.036   2.866  -0.390  1.00  0.00     0.029 C 
ATOM     11  C   UNL     1      -0.870   3.868  -1.258  1.00  0.00     0.081 C 
ATOM     12  S   UNL     1       0.172   3.927  -2.618  1.00  0.00    -0.054 SA
ATOM     13  C   UNL     1      -1.700   5.096  -1.182  1.00  0.00     0.266 C 
ATOM     14  C   UNL     1      -0.400   5.518  -3.095  1.00  0.00     0.148 C 
ATOM     15  O   UNL     1      -2.487   5.329  -0.287  1.00  0.00    -0.268 OA
ATOM     16  S   UNL     1       0.288   6.351  -4.366  1.00  0.00    -0.052 S 
BRANCH  10  17
ATOM     17  C   UNL     1      -0.397   1.554  -0.514  1.00  0.00    -0.021 A 
ATOM     18  C   UNL     1       2.983  -0.058   0.155  1.00  0.00     0.044 C 
ATOM     19  C   UNL     1       1.536   0.118  -0.195  1.00  0.00    -0.051 A 
ATOM     20  C   UNL     1       0.788  -0.972  -0.650  1.00  0.00     0.004 A 
ATOM     21  C   UNL     1       0.920   1.370  -0.082  1.00  0.00     0.011 A 
ATOM     22  C   UNL     1      -0.516  -0.788  -1.108  1.00  0.00     0.004 A 
ATOM     23  C   UNL     1      -1.096   0.487  -1.102  1.00  0.00    -0.044 A 
ATOM     24  C   UNL     1      -2.441   0.698  -1.735  1.00  0.00     0.045 C 
ENDBRANCH  10  17
ENDBRANCH   8   9
ENDBRANCH   5   8
ENDBRANCH   3   4
ENDBRANCH   2   3
ENDBRANCH   1   2
BRANCH   1  25
ATOM     25  C   UNL     1      -5.928   3.899  -6.170  1.00  0.00     0.002 C 
BRANCH  25  26
ATOM     26  C   UNL     1      -5.071   3.517  -7.389  1.00  0.00     0.021 C 
BRANCH  26  27
ATOM     27  C   UNL     1      -5.011   2.041  -7.788  1.00  0.00     0.116 C 
BRANCH  27  28
ATOM     28  N   UNL     1      -6.331   1.464  -8.075  1.00  0.00    -0.352 N 
ATOM     29  C   UNL     1      -6.866   0.201  -7.878  1.00  0.00     0.251 C 
ATOM     30  H   UNL     1      -6.959   2.099  -8.488  1.00  0.00     0.163 HD
ATOM     31  O   UNL     1      -7.843  -0.147  -8.530  1.00  0.00    -0.269 OA
BRANCH  29  32
ATOM     32  C   UNL     1      -6.294  -0.724  -6.873  1.00  0.00     0.039 A 
ATOM     33  C   UNL     1      -6.541  -2.101  -6.868  1.00  0.00     0.014 A 
ATOM     34  C   UNL     1      -5.511  -0.185  -5.869  1.00  0.00     0.014 A 
ATOM     35  C   UNL     1      -6.001  -2.880  -5.838  1.00  0.00     0.010 A 
ATOM     36  C   UNL     1      -4.763  -0.965  -5.043  1.00  0.00     0.010 A 
ATOM     37  C   UNL     1      -5.124  -2.286  -4.916  1.00  0.00    -0.014 A 
BRANCH  37  38
ATOM     38  C   UNL     1      -4.437  -3.010  -3.860  1.00  0.00     0.031 A 
ATOM     39  C   UNL     1      -3.519  -4.031  -4.392  1.00  0.00     0.074 A 
ATOM     40  C   UNL     1      -4.453  -2.627  -2.561  1.00  0.00     0.049 A 
ATOM     41  N   UNL     1      -3.711  -5.304  -4.375  1.00  0.00    -0.248 NA
ATOM     42  C   UNL     1      -2.379  -3.599  -5.215  1.00  0.00     0.031 C 
ATOM     43  C   UNL     1      -5.146  -1.482  -1.959  1.00  0.00     0.029 A 
ATOM     44  N   UNL     1      -3.780  -3.155  -1.496  1.00  0.00    -0.354 N 
ATOM     45  C   UNL     1      -2.585  -5.850  -4.972  1.00  0.00     0.074 A 
ATOM     46  C   UNL     1      -1.945  -4.774  -5.679  1.00  0.00     0.031 C 
ATOM     47  C   UNL     1      -4.743  -1.324  -0.676  1.00  0.00     0.029 A 
ATOM     48  C   UNL     1      -3.834  -2.397  -0.316  1.00  0.00     0.049 A 
ATOM     49  H   UNL     1      -3.292  -4.008  -1.551  1.00  0.00     0.167 HD
ATOM     50  C   UNL     1      -2.119  -7.060  -4.563  1.00  0.00     0.037 A 
ATOM     51  C   UNL     1      -3.158  -2.654   0.841  1.00  0.00     0.037 A 
ATOM     52  C   UNL     1      -3.113  -7.744  -3.765  1.00  0.00     0.049 A 
ATOM     53  C   UNL     1      -2.883  -4.113   0.803  1.00  0.00     0.074 A 
ATOM     54  C   UNL     1      -4.395  -8.210  -3.977  1.00  0.00     0.029 A 
ATOM     55  N   UNL     1      -2.956  -7.656  -2.403  1.00  0.00    -0.354 N 
ATOM     56  N   UNL     1      -3.814  -5.015   0.930  1.00  0.00    -0.248 NA
ATOM     57  C   UNL     1      -1.625  -4.597   0.249  1.00  0.00     0.031 C 
ATOM     58  C   UNL     1      -5.084  -8.011  -2.743  1.00  0.00     0.029 A 
ATOM     59  C   UNL     1      -4.183  -7.485  -1.817  1.00  0.00     0.049 A 
ATOM     60  H   UNL     1      -2.098  -7.708  -1.923  1.00  0.00     0.167 HD
ATOM     61  C   UNL     1      -3.434  -6.031   0.071  1.00  0.00     0.074 A 
ATOM     62  C   UNL     1      -2.016  -5.799  -0.185  1.00  0.00     0.031 C 
ATOM     63  C   UNL     1      -4.381  -6.772  -0.575  1.00  0.00     0.037 A 
BRANCH  50  64
ATOM     64  C   UNL     1      -0.653  -7.419  -4.487  1.00  0.00     0.057 A 
ATOM     65  C   UNL     1      -0.304  -8.732  -4.123  1.00  0.00     0.134 A 
ATOM     66  C   UNL     1       0.412  -6.494  -4.464  1.00  0.00     0.134 A 
ATOM     67  F   UNL     1      -1.226  -9.707  -4.097  1.00  0.00    -0.206 F 
ATOM     68  C   UNL     1       0.980  -9.075  -3.684  1.00  0.00     0.040 A 
ATOM     69  C   UNL     1       1.711  -6.838  -4.080  1.00  0.00     0.040 A 
ATOM     70  F   UNL     1       0.251  -5.189  -4.706  1.00  0.00    -0.206 F 
ATOM     71  C   UNL     1       1.991  -8.124  -3.654  1.00  0.00     0.006 A 
ENDBRANCH  50  64
BRANCH  51  72
ATOM     72  C   UNL     1      -2.614  -1.795   1.942  1.00  0.00     0.057 A 
ATOM     73  C   UNL     1      -1.780  -2.361   2.931  1.00  0.00     0.134 A 
ATOM     74  C   UNL     1      -2.648  -0.394   1.947  1.00  0.00     0.134 A 
ATOM     75  F   UNL     1      -1.698  -3.691   3.085  1.00  0.00    -0.206 F 
ATOM     76  C   UNL     1      -0.947  -1.597   3.762  1.00  0.00     0.040 A 
ATOM     77  C   UNL     1      -1.808   0.385   2.762  1.00  0.00     0.040 A 
ATOM     78  F   UNL     1      -3.471   0.288   1.146  1.00  0.00    -0.206 F 
ATOM     79  C   UNL     1      -0.927  -0.216   3.648  1.00  0.00     0.006 A 
ENDBRANCH  51  72
BRANCH  63  80
ATOM     80  C   UNL     1      -5.790  -6.656  -0.057  1.00  0.00     0.057 A 
ATOM     81  C   UNL     1      -6.570  -5.491  -0.134  1.00  0.00     0.134 A 
ATOM     82  C   UNL     1      -6.405  -7.790   0.477  1.00  0.00     0.134 A 
ATOM     83  F   UNL     1      -6.102  -4.382  -0.715  1.00  0.00    -0.206 F 
ATOM     84  C   UNL     1      -7.879  -5.442   0.351  1.00  0.00     0.040 A 
ATOM     85  C   UNL     1      -7.725  -7.766   0.933  1.00  0.00     0.040 A 
ATOM     86  F   UNL     1      -5.739  -8.954   0.535  1.00  0.00    -0.206 F 
ATOM     87  C   UNL     1      -8.462  -6.585   0.886  1.00  0.00     0.006 A 
ENDBRANCH  63  80
ENDBRANCH  37  38
ENDBRANCH  29  32
ENDBRANCH  27  28
ENDBRANCH  26  27
ENDBRANCH  25  26
ENDBRANCH   1  25
TORSDOF 15
