REMARK SMILES CN(C)c1ccc(CCC(=O)N2C[C@@H](C(=O)NCCCCCCNC(=O)c3ccc(-c4c5nc(c(-c6c(F)cccc6F)c6ccc([nH]6)c(-c6c(F)cccc6F)c6nc(c(-c7c(F)cccc7F)c7ccc4[nH]7)C=C6)C=C5)cc3)[C@H](c3cccnc3)C2)cc1
REMARK SMILES IDX 19 1 18 2 17 3 15 4 16 5 14 7 12 8 13 9 88 10 81 11 10 12
REMARK SMILES IDX 11 13 9 14 8 15 7 16 4 17 5 18 90 19 6 20 89 21 2 22 1 23
REMARK SMILES IDX 3 24 82 25 83 26 87 27 84 28 86 29 85 30 20 31 21 32 22 33
REMARK SMILES IDX 23 34 24 35 25 36 26 38 27 39 28 40 80 41 29 42 79 43 30 44
REMARK SMILES IDX 31 45 32 46 73 47 33 48 78 49 72 50 74 51 34 52 77 53 71 54
REMARK SMILES IDX 70 55 35 57 61 58 44 59 60 60 45 61 48 62 59 63 75 64 46 65
REMARK SMILES IDX 47 66 58 68 76 69 49 70 36 71 37 72 42 73 38 74 39 75 41 76
REMARK SMILES IDX 43 77 40 78 62 79 63 80 68 81 64 82 65 83 67 84 69 85 66 86
REMARK SMILES IDX 50 87 51 88 56 89 52 90 53 91 55 92 57 93 54 94
REMARK H PARENT 17 6 24 37 74 56 48 67
REMARK Flexibility Score: inf
ROOT
ATOM      1  C   UNL     1      -3.687   0.284   3.454  1.00  0.00     0.021 C 
ENDROOT
BRANCH   1   2
ATOM      2  C   UNL     1      -3.021  -1.076   3.238  1.00  0.00     0.116 C 
BRANCH   2   3
ATOM      3  N   UNL     1      -1.626  -0.874   2.926  1.00  0.00    -0.356 N 
ATOM      4  C   UNL     1      -0.608  -0.542   3.765  1.00  0.00     0.225 C 
ATOM      5  O   UNL     1       0.214   0.308   3.417  1.00  0.00    -0.275 OA
ATOM      6  H   UNL     1      -1.378  -0.991   1.980  1.00  0.00     0.163 HD
BRANCH   4   7
ATOM      7  C   UNL     1      -0.371  -1.266   5.059  1.00  0.00     0.107 C 
ATOM      8  N   UNL     1      -0.170  -3.426   5.868  1.00  0.00    -0.341 N 
ATOM      9  C   UNL     1      -0.097  -2.674   4.674  1.00  0.00     0.133 C 
ATOM     10  C   UNL     1      -1.028  -2.734   6.846  1.00  0.00     0.128 C 
ATOM     11  C   UNL     1      -1.374  -1.334   6.207  1.00  0.00     0.054 C 
BRANCH   8  12
ATOM     12  C   UNL     1       0.399  -4.679   5.946  1.00  0.00     0.222 C 
ATOM     13  O   UNL     1       0.031  -5.502   6.784  1.00  0.00    -0.275 OA
BRANCH  12  14
ATOM     14  C   UNL     1       1.647  -4.950   5.048  1.00  0.00     0.105 C 
BRANCH  14  15
ATOM     15  C   UNL     1       1.534  -5.285   3.534  1.00  0.00     0.045 C 
BRANCH  15  16
ATOM     16  C   UNL     1       1.403  -4.156   2.511  1.00  0.00    -0.047 A 
ATOM     17  C   UNL     1       0.946  -1.850   0.849  1.00  0.00     0.036 A 
ATOM     18  C   UNL     1       0.023  -2.903   0.920  1.00  0.00     0.026 A 
ATOM     19  C   UNL     1       2.140  -2.013   1.563  1.00  0.00     0.026 A 
ATOM     20  C   UNL     1       0.244  -4.036   1.731  1.00  0.00     0.006 A 
ATOM     21  C   UNL     1       2.380  -3.155   2.363  1.00  0.00     0.006 A 
BRANCH  17  22
ATOM     22  N   UNL     1       0.673  -0.736   0.042  1.00  0.00    -0.378 N 
ATOM     23  C   UNL     1       1.370  -0.759  -1.239  1.00  0.00     0.143 C 
ATOM     24  C   UNL     1       0.612   0.597   0.650  1.00  0.00     0.143 C 
ENDBRANCH  17  22
ENDBRANCH  15  16
ENDBRANCH  14  15
ENDBRANCH  12  14
ENDBRANCH   8  12
BRANCH  11  25
ATOM     25  C   UNL     1      -1.256  -0.034   6.992  1.00  0.00    -0.024 A 
ATOM     26  C   UNL     1      -1.200   1.199   6.306  1.00  0.00     0.007 A 
ATOM     27  C   UNL     1      -1.181   0.050   8.371  1.00  0.00     0.115 A 
ATOM     28  C   UNL     1      -1.000   2.400   6.967  1.00  0.00     0.020 A 
ATOM     29  N   UNL     1      -1.011   1.213   9.053  1.00  0.00    -0.264 NA
ATOM     30  C   UNL     1      -0.907   2.355   8.336  1.00  0.00     0.111 A 
ENDBRANCH  11  25
ENDBRANCH   4   7
ENDBRANCH   2   3
ENDBRANCH   1   2
BRANCH   1  31
ATOM     31  C   UNL     1      -3.911   1.062   2.149  1.00  0.00     0.002 C 
BRANCH  31  32
ATOM     32  C   UNL     1      -4.954   0.445   1.212  1.00  0.00     0.002 C 
BRANCH  32  33
ATOM     33  C   UNL     1      -6.289   0.113   1.879  1.00  0.00     0.021 C 
BRANCH  33  34
ATOM     34  C   UNL     1      -6.963   1.303   2.552  1.00  0.00     0.116 C 
BRANCH  34  35
ATOM     35  N   UNL     1      -7.439   2.272   1.581  1.00  0.00    -0.352 N 
ATOM     36  C   UNL     1      -8.709   2.766   1.409  1.00  0.00     0.251 C 
ATOM     37  H   UNL     1      -6.759   2.622   0.961  1.00  0.00     0.163 HD
ATOM     38  O   UNL     1      -8.995   3.405   0.406  1.00  0.00    -0.269 OA
BRANCH  36  39
ATOM     39  C   UNL     1      -9.736   2.507   2.443  1.00  0.00     0.039 A 
ATOM     40  C   UNL     1     -11.021   2.134   2.042  1.00  0.00     0.014 A 
ATOM     41  C   UNL     1      -9.436   2.648   3.801  1.00  0.00     0.014 A 
ATOM     42  C   UNL     1     -11.995   1.865   3.006  1.00  0.00     0.010 A 
ATOM     43  C   UNL     1     -10.382   2.299   4.760  1.00  0.00     0.010 A 
ATOM     44  C   UNL     1     -11.678   1.924   4.373  1.00  0.00    -0.014 A 
BRANCH  44  45
ATOM     45  C   UNL     1     -12.700   1.646   5.414  1.00  0.00     0.031 A 
ATOM     46  C   UNL     1     -13.116   2.737   6.366  1.00  0.00     0.074 A 
ATOM     47  C   UNL     1     -13.227   0.411   5.531  1.00  0.00     0.049 A 
ATOM     48  N   UNL     1     -13.944   2.683   7.378  1.00  0.00    -0.248 NA
ATOM     49  C   UNL     1     -12.498   4.059   6.168  1.00  0.00     0.031 C 
ATOM     50  C   UNL     1     -12.887  -0.739   4.692  1.00  0.00     0.029 A 
ATOM     51  N   UNL     1     -14.159  -0.082   6.409  1.00  0.00    -0.354 N 
ATOM     52  C   UNL     1     -13.940   3.956   7.937  1.00  0.00     0.074 A 
ATOM     53  C   UNL     1     -12.977   4.740   7.197  1.00  0.00     0.031 C 
ATOM     54  C   UNL     1     -13.622  -1.796   5.077  1.00  0.00     0.029 A 
ATOM     55  C   UNL     1     -14.453  -1.410   6.213  1.00  0.00     0.049 A 
ATOM     56  H   UNL     1     -14.579   0.464   7.113  1.00  0.00     0.167 HD
ATOM     57  C   UNL     1     -14.694   4.440   8.953  1.00  0.00     0.037 A 
ATOM     58  C   UNL     1     -15.294  -2.224   6.879  1.00  0.00     0.037 A 
ATOM     59  C   UNL     1     -15.663   3.663   9.680  1.00  0.00     0.049 A 
ATOM     60  C   UNL     1     -16.093  -1.670   8.029  1.00  0.00     0.074 A 
ATOM     61  C   UNL     1     -16.492   4.064  10.712  1.00  0.00     0.029 A 
ATOM     62  N   UNL     1     -15.934   2.323   9.445  1.00  0.00    -0.354 N 
ATOM     63  N   UNL     1     -16.113  -0.453   8.515  1.00  0.00    -0.248 NA
ATOM     64  C   UNL     1     -16.995  -2.605   8.717  1.00  0.00     0.031 C 
ATOM     65  C   UNL     1     -17.235   2.956  11.132  1.00  0.00     0.029 A 
ATOM     66  C   UNL     1     -16.912   1.880  10.321  1.00  0.00     0.049 A 
ATOM     67  H   UNL     1     -15.497   1.769   8.759  1.00  0.00     0.167 HD
ATOM     68  C   UNL     1     -17.063  -0.464   9.530  1.00  0.00     0.074 A 
ATOM     69  C   UNL     1     -17.601  -1.807   9.583  1.00  0.00     0.031 C 
ATOM     70  C   UNL     1     -17.458   0.547  10.342  1.00  0.00     0.037 A 
BRANCH  57  71
ATOM     71  C   UNL     1     -14.505   5.882   9.328  1.00  0.00     0.057 A 
ATOM     72  C   UNL     1     -14.907   6.923   8.479  1.00  0.00     0.134 A 
ATOM     73  C   UNL     1     -13.948   6.238  10.563  1.00  0.00     0.134 A 
ATOM     74  F   UNL     1     -15.436   6.653   7.276  1.00  0.00    -0.206 F 
ATOM     75  C   UNL     1     -14.735   8.262   8.831  1.00  0.00     0.040 A 
ATOM     76  C   UNL     1     -13.799   7.574  10.940  1.00  0.00     0.040 A 
ATOM     77  F   UNL     1     -13.547   5.294  11.428  1.00  0.00    -0.206 F 
ATOM     78  C   UNL     1     -14.186   8.591  10.069  1.00  0.00     0.006 A 
ENDBRANCH  57  71
BRANCH  58  79
ATOM     79  C   UNL     1     -15.454  -3.644   6.469  1.00  0.00     0.057 A 
ATOM     80  C   UNL     1     -16.662  -4.109   5.934  1.00  0.00     0.134 A 
ATOM     81  C   UNL     1     -14.426  -4.578   6.642  1.00  0.00     0.134 A 
ATOM     82  F   UNL     1     -17.691  -3.266   5.760  1.00  0.00    -0.206 F 
ATOM     83  C   UNL     1     -16.855  -5.455   5.620  1.00  0.00     0.040 A 
ATOM     84  C   UNL     1     -14.595  -5.922   6.304  1.00  0.00     0.040 A 
ATOM     85  F   UNL     1     -13.241  -4.198   7.141  1.00  0.00    -0.206 F 
ATOM     86  C   UNL     1     -15.818  -6.366   5.803  1.00  0.00     0.006 A 
ENDBRANCH  58  79
BRANCH  70  87
ATOM     87  C   UNL     1     -18.576   0.262  11.304  1.00  0.00     0.057 A 
ATOM     88  C   UNL     1     -18.413  -0.573  12.416  1.00  0.00     0.134 A 
ATOM     89  C   UNL     1     -19.830   0.861  11.125  1.00  0.00     0.134 A 
ATOM     90  F   UNL     1     -17.241  -1.187  12.640  1.00  0.00    -0.206 F 
ATOM     91  C   UNL     1     -19.466  -0.829  13.296  1.00  0.00     0.040 A 
ATOM     92  C   UNL     1     -20.881   0.639  12.016  1.00  0.00     0.040 A 
ATOM     93  F   UNL     1     -20.052   1.682  10.087  1.00  0.00    -0.206 F 
ATOM     94  C   UNL     1     -20.703  -0.216  13.100  1.00  0.00     0.006 A 
ENDBRANCH  70  87
ENDBRANCH  44  45
ENDBRANCH  36  39
ENDBRANCH  34  35
ENDBRANCH  33  34
ENDBRANCH  32  33
ENDBRANCH  31  32
ENDBRANCH   1  31
TORSDOF 19
