REMARK SMILES CC(C)N1C[C@@H](C(=O)NCCCCCCNC(=O)c2ccc(-c3c4nc(c(-c5c(F)cccc5F)c5ccc([nH]5)c(-c5c(F)cccc5F)c5nc(c(-c6c(F)cccc6F)c6ccc3[nH]6)C=C5)C=C4)cc2)CC1=O
REMARK SMILES IDX 13 1 12 2 11 3 10 4 9 5 7 6 8 7 6 9 4 10 5 11 74 12 73 13
REMARK SMILES IDX 75 14 2 15 1 16 3 17 14 18 15 19 16 20 17 21 18 23 19 24
REMARK SMILES IDX 20 25 72 26 21 27 71 28 22 29 23 30 24 31 65 32 25 33 70 34
REMARK SMILES IDX 64 35 66 36 26 37 69 38 63 39 62 40 27 42 53 43 36 44 52 45
REMARK SMILES IDX 37 46 40 47 51 48 67 49 38 50 39 51 50 53 68 54 41 55 28 56
REMARK SMILES IDX 29 57 34 58 30 59 31 60 33 61 35 62 32 63 54 64 55 65 60 66
REMARK SMILES IDX 56 67 57 68 59 69 61 70 58 71 42 72 43 73 48 74 44 75 45 76
REMARK SMILES IDX 47 77 49 78 46 79
REMARK H PARENT 9 8 16 22 66 41 40 52
REMARK Flexibility Score: inf
ROOT
ATOM      1  C   UNL     1      -4.624  -1.734   3.804  1.00  0.00     0.002 C 
ENDROOT
BRANCH   1   2
ATOM      2  C   UNL     1      -5.254  -0.624   2.958  1.00  0.00     0.002 C 
BRANCH   2   3
ATOM      3  C   UNL     1      -4.260   0.228   2.157  1.00  0.00     0.021 C 
BRANCH   3   4
ATOM      4  C   UNL     1      -3.361  -0.576   1.220  1.00  0.00     0.116 C 
BRANCH   4   5
ATOM      5  N   UNL     1      -4.137  -1.202   0.165  1.00  0.00    -0.356 N 
ATOM      6  C   UNL     1      -4.103  -1.060  -1.183  1.00  0.00     0.225 C 
ATOM      7  O   UNL     1      -4.931  -1.697  -1.840  1.00  0.00    -0.275 OA
ATOM      8  H   UNL     1      -4.809  -1.845   0.487  1.00  0.00     0.163 HD
BRANCH   6   9
ATOM      9  C   UNL     1      -3.076  -0.203  -1.889  1.00  0.00     0.107 C 
ATOM     10  N   UNL     1      -0.857   0.475  -1.536  1.00  0.00    -0.339 N 
ATOM     11  C   UNL     1      -1.665  -0.714  -1.661  1.00  0.00     0.133 C 
ATOM     12  C   UNL     1      -1.615   1.623  -1.378  1.00  0.00     0.223 C 
ATOM     13  C   UNL     1      -3.074   1.273  -1.510  1.00  0.00     0.115 C 
ATOM     14  O   UNL     1      -1.192   2.746  -1.145  1.00  0.00    -0.275 OA
BRANCH  10  15
ATOM     15  C   UNL     1       0.601   0.448  -1.405  1.00  0.00     0.078 C 
ATOM     16  C   UNL     1       1.018   0.021   0.002  1.00  0.00     0.031 C 
ATOM     17  C   UNL     1       1.259  -0.436  -2.462  1.00  0.00     0.031 C 
ENDBRANCH  10  15
ENDBRANCH   6   9
ENDBRANCH   4   5
ENDBRANCH   3   4
ENDBRANCH   2   3
ENDBRANCH   1   2
BRANCH   1  18
ATOM     18  C   UNL     1      -3.532  -1.269   4.769  1.00  0.00     0.021 C 
BRANCH  18  19
ATOM     19  C   UNL     1      -3.976  -0.198   5.757  1.00  0.00     0.116 C 
BRANCH  19  20
ATOM     20  N   UNL     1      -5.018  -0.675   6.651  1.00  0.00    -0.352 N 
ATOM     21  C   UNL     1      -5.070  -0.633   8.021  1.00  0.00     0.251 C 
ATOM     22  H   UNL     1      -5.797  -1.087   6.210  1.00  0.00     0.163 HD
ATOM     23  O   UNL     1      -5.936  -1.257   8.626  1.00  0.00    -0.269 OA
BRANCH  21  24
ATOM     24  C   UNL     1      -4.067   0.154   8.769  1.00  0.00     0.039 A 
ATOM     25  C   UNL     1      -3.496  -0.398   9.918  1.00  0.00     0.014 A 
ATOM     26  C   UNL     1      -3.701   1.435   8.347  1.00  0.00     0.014 A 
ATOM     27  C   UNL     1      -2.525   0.319  10.619  1.00  0.00     0.010 A 
ATOM     28  C   UNL     1      -2.674   2.111   8.996  1.00  0.00     0.010 A 
ATOM     29  C   UNL     1      -2.087   1.569  10.149  1.00  0.00    -0.014 A 
BRANCH  29  30
ATOM     30  C   UNL     1      -1.040   2.336  10.870  1.00  0.00     0.031 A 
ATOM     31  C   UNL     1      -1.369   3.674  11.474  1.00  0.00     0.074 A 
ATOM     32  C   UNL     1       0.216   1.854  10.940  1.00  0.00     0.049 A 
ATOM     33  N   UNL     1      -0.585   4.517  12.097  1.00  0.00    -0.248 NA
ATOM     34  C   UNL     1      -2.759   4.139  11.337  1.00  0.00     0.031 C 
ATOM     35  C   UNL     1       0.672   0.590  10.359  1.00  0.00     0.029 A 
ATOM     36  N   UNL     1       1.342   2.375  11.527  1.00  0.00    -0.354 N 
ATOM     37  C   UNL     1      -1.381   5.611  12.412  1.00  0.00     0.074 A 
ATOM     38  C   UNL     1      -2.692   5.354  11.857  1.00  0.00     0.031 C 
ATOM     39  C   UNL     1       1.974   0.420  10.643  1.00  0.00     0.029 A 
ATOM     40  C   UNL     1       2.453   1.579  11.390  1.00  0.00     0.049 A 
ATOM     41  H   UNL     1       1.352   3.237  12.002  1.00  0.00     0.167 HD
ATOM     42  C   UNL     1      -1.060   6.718  13.124  1.00  0.00     0.037 A 
ATOM     43  C   UNL     1       3.717   1.766  11.815  1.00  0.00     0.037 A 
ATOM     44  C   UNL     1       0.241   6.963  13.690  1.00  0.00     0.049 A 
ATOM     45  C   UNL     1       4.054   3.011  12.589  1.00  0.00     0.074 A 
ATOM     46  C   UNL     1       0.658   8.031  14.464  1.00  0.00     0.029 A 
ATOM     47  N   UNL     1       1.337   6.126  13.539  1.00  0.00    -0.354 N 
ATOM     48  N   UNL     1       3.276   4.009  12.933  1.00  0.00    -0.248 NA
ATOM     49  C   UNL     1       5.445   3.151  13.043  1.00  0.00     0.031 C 
ATOM     50  C   UNL     1       2.019   7.867  14.739  1.00  0.00     0.029 A 
ATOM     51  C   UNL     1       2.435   6.665  14.190  1.00  0.00     0.049 A 
ATOM     52  H   UNL     1       1.336   5.276  13.043  1.00  0.00     0.167 HD
ATOM     53  C   UNL     1       4.070   4.873  13.677  1.00  0.00     0.074 A 
ATOM     54  C   UNL     1       5.388   4.276  13.741  1.00  0.00     0.031 C 
ATOM     55  C   UNL     1       3.738   6.051  14.259  1.00  0.00     0.037 A 
BRANCH  42  56
ATOM     56  C   UNL     1      -2.136   7.745  13.329  1.00  0.00     0.057 A 
ATOM     57  C   UNL     1      -3.256   7.495  14.135  1.00  0.00     0.134 A 
ATOM     58  C   UNL     1      -2.043   9.010  12.734  1.00  0.00     0.134 A 
ATOM     59  F   UNL     1      -3.416   6.301  14.726  1.00  0.00    -0.206 F 
ATOM     60  C   UNL     1      -4.257   8.451  14.315  1.00  0.00     0.040 A 
ATOM     61  C   UNL     1      -3.021   9.986  12.932  1.00  0.00     0.040 A 
ATOM     62  F   UNL     1      -0.995   9.321  11.955  1.00  0.00    -0.206 F 
ATOM     63  C   UNL     1      -4.137   9.704  13.717  1.00  0.00     0.006 A 
ENDBRANCH  42  56
BRANCH  43  64
ATOM     64  C   UNL     1       4.755   0.738  11.545  1.00  0.00     0.057 A 
ATOM     65  C   UNL     1       5.307  -0.022  12.584  1.00  0.00     0.134 A 
ATOM     66  C   UNL     1       5.233   0.501  10.251  1.00  0.00     0.134 A 
ATOM     67  F   UNL     1       4.903   0.171  13.848  1.00  0.00    -0.206 F 
ATOM     68  C   UNL     1       6.313  -0.960  12.351  1.00  0.00     0.040 A 
ATOM     69  C   UNL     1       6.219  -0.455   9.999  1.00  0.00     0.040 A 
ATOM     70  F   UNL     1       4.739   1.187   9.210  1.00  0.00    -0.206 F 
ATOM     71  C   UNL     1       6.769  -1.181  11.053  1.00  0.00     0.006 A 
ENDBRANCH  43  64
BRANCH  55  72
ATOM     72  C   UNL     1       4.798   6.745  15.065  1.00  0.00     0.057 A 
ATOM     73  C   UNL     1       5.915   7.347  14.472  1.00  0.00     0.134 A 
ATOM     74  C   UNL     1       4.680   6.837  16.459  1.00  0.00     0.134 A 
ATOM     75  F   UNL     1       6.096   7.286  13.144  1.00  0.00    -0.206 F 
ATOM     76  C   UNL     1       6.892   7.987  15.238  1.00  0.00     0.040 A 
ATOM     77  C   UNL     1       5.633   7.502  17.231  1.00  0.00     0.040 A 
ATOM     78  F   UNL     1       3.629   6.292  17.091  1.00  0.00    -0.206 F 
ATOM     79  C   UNL     1       6.748   8.071  16.621  1.00  0.00     0.006 A 
ENDBRANCH  55  72
ENDBRANCH  29  30
ENDBRANCH  21  24
ENDBRANCH  19  20
ENDBRANCH  18  19
ENDBRANCH   1  18
TORSDOF 14
