REMARK SMILES O=C(NCCCCCCNC(=O)c1cc(OCc2ccc(Br)cc2F)cs1)c1ccc(-c2c3nc(c(-c4c(F)cccc4F)c4ccc([nH]4)c(-c4c(F)cccc4F)c4nc(c(-c5c(F)cccc5F)c5ccc2[nH]5)C=C4)C=C3)cc1
REMARK SMILES IDX 7 1 6 2 5 3 4 4 3 5 1 6 2 7 28 9 29 10 81 11 30 12 80 13
REMARK SMILES IDX 31 14 32 15 33 16 74 17 34 18 79 19 73 20 75 21 35 22 78 23
REMARK SMILES IDX 72 24 71 25 36 27 62 28 45 29 61 30 46 31 49 32 60 33 76 34
REMARK SMILES IDX 47 35 48 36 59 38 77 39 50 40 37 41 38 42 43 43 39 44 40 45
REMARK SMILES IDX 42 46 44 47 41 48 63 49 64 50 69 51 65 52 66 53 68 54 70 55
REMARK SMILES IDX 67 56 51 57 52 58 57 59 53 60 54 61 56 62 58 63 55 64 8 65
REMARK SMILES IDX 9 66 10 67 11 68 12 70 13 71 14 72 27 73 15 74 26 75 16 76
REMARK SMILES IDX 17 77 18 78 19 79 24 80 20 81 23 82 25 83 21 84 22 85
REMARK H PARENT 3 8 75 26 49 37 10 69
REMARK Flexibility Score: inf
ROOT
ATOM      1  C   UNL     1       4.651  -3.077  -3.203  1.00  0.00     0.002 C 
ENDROOT
BRANCH   1   2
ATOM      2  C   UNL     1       4.020  -3.487  -1.868  1.00  0.00     0.002 C 
BRANCH   2   3
ATOM      3  C   UNL     1       4.457  -2.672  -0.652  1.00  0.00     0.021 C 
BRANCH   3   4
ATOM      4  C   UNL     1       4.253  -1.166  -0.767  1.00  0.00     0.116 C 
BRANCH   4   5
ATOM      5  N   UNL     1       2.853  -0.777  -0.784  1.00  0.00    -0.352 N 
ATOM      6  O   UNL     1       0.966   0.221  -0.053  1.00  0.00    -0.269 OA
ATOM      7  C   UNL     1       2.187   0.118   0.021  1.00  0.00     0.251 C 
ATOM      8  H   UNL     1       2.302  -1.217  -1.471  1.00  0.00     0.163 HD
BRANCH   7   9
ATOM      9  C   UNL     1       2.934   0.934   1.008  1.00  0.00     0.039 A 
ATOM     10  C   UNL     1       4.140   1.550   0.669  1.00  0.00     0.014 A 
ATOM     11  C   UNL     1       2.417   1.081   2.299  1.00  0.00     0.014 A 
ATOM     12  C   UNL     1       4.906   2.163   1.657  1.00  0.00     0.010 A 
ATOM     13  C   UNL     1       3.146   1.779   3.268  1.00  0.00     0.010 A 
ATOM     14  C   UNL     1       4.418   2.288   2.969  1.00  0.00    -0.014 A 
BRANCH  14  15
ATOM     15  C   UNL     1       5.249   2.977   3.993  1.00  0.00     0.031 A 
ATOM     16  C   UNL     1       5.766   2.243   5.202  1.00  0.00     0.074 A 
ATOM     17  C   UNL     1       5.571   4.272   3.809  1.00  0.00     0.049 A 
ATOM     18  N   UNL     1       6.538   2.682   6.166  1.00  0.00    -0.248 NA
ATOM     19  C   UNL     1       5.356   0.840   5.359  1.00  0.00     0.031 C 
ATOM     20  C   UNL     1       5.121   5.101   2.689  1.00  0.00     0.029 A 
ATOM     21  N   UNL     1       6.368   5.113   4.545  1.00  0.00    -0.354 N 
ATOM     22  C   UNL     1       6.686   1.622   7.052  1.00  0.00     0.074 A 
ATOM     23  C   UNL     1       5.901   0.525   6.526  1.00  0.00     0.031 C 
ATOM     24  C   UNL     1       5.691   6.312   2.781  1.00  0.00     0.029 A 
ATOM     25  C   UNL     1       6.500   6.364   3.994  1.00  0.00     0.049 A 
ATOM     26  H   UNL     1       6.803   4.845   5.386  1.00  0.00     0.167 HD
ATOM     27  C   UNL     1       7.417   1.564   8.193  1.00  0.00     0.037 A 
ATOM     28  C   UNL     1       7.189   7.439   4.418  1.00  0.00     0.037 A 
ATOM     29  C   UNL     1       8.218   2.649   8.703  1.00  0.00     0.049 A 
ATOM     30  C   UNL     1       7.984   7.349   5.687  1.00  0.00     0.074 A 
ATOM     31  C   UNL     1       9.030   2.667   9.824  1.00  0.00     0.029 A 
ATOM     32  N   UNL     1       8.307   3.907   8.127  1.00  0.00    -0.354 N 
ATOM     33  N   UNL     1       8.151   6.324   6.487  1.00  0.00    -0.248 NA
ATOM     34  C   UNL     1       8.690   8.566   6.111  1.00  0.00     0.031 C 
ATOM     35  C   UNL     1       9.573   3.950   9.953  1.00  0.00     0.029 A 
ATOM     36  C   UNL     1       9.142   4.716   8.882  1.00  0.00     0.049 A 
ATOM     37  H   UNL     1       7.844   4.185   7.303  1.00  0.00     0.167 HD
ATOM     38  C   UNL     1       9.000   6.764   7.494  1.00  0.00     0.074 A 
ATOM     39  C   UNL     1       9.326   8.143   7.194  1.00  0.00     0.031 C 
ATOM     40  C   UNL     1       9.466   6.085   8.570  1.00  0.00     0.037 A 
BRANCH  27  41
ATOM     41  C   UNL     1       7.372   0.288   8.985  1.00  0.00     0.057 A 
ATOM     42  C   UNL     1       7.998  -0.884   8.544  1.00  0.00     0.134 A 
ATOM     43  C   UNL     1       6.732   0.247  10.232  1.00  0.00     0.134 A 
ATOM     44  F   UNL     1       8.621  -0.918   7.356  1.00  0.00    -0.206 F 
ATOM     45  C   UNL     1       7.970  -2.057   9.303  1.00  0.00     0.040 A 
ATOM     46  C   UNL     1       6.719  -0.912  11.010  1.00  0.00     0.040 A 
ATOM     47  F   UNL     1       6.120   1.337  10.720  1.00  0.00    -0.206 F 
ATOM     48  C   UNL     1       7.335  -2.071  10.543  1.00  0.00     0.006 A 
ENDBRANCH  27  41
BRANCH  28  49
ATOM     49  C   UNL     1       7.168   8.692   3.622  1.00  0.00     0.057 A 
ATOM     50  C   UNL     1       8.309   9.139   2.947  1.00  0.00     0.134 A 
ATOM     51  C   UNL     1       6.009   9.470   3.517  1.00  0.00     0.134 A 
ATOM     52  F   UNL     1       9.454   8.444   3.025  1.00  0.00    -0.206 F 
ATOM     53  C   UNL     1       8.305  10.323   2.210  1.00  0.00     0.040 A 
ATOM     54  C   UNL     1       5.982  10.642   2.760  1.00  0.00     0.040 A 
ATOM     55  F   UNL     1       4.880   9.091   4.134  1.00  0.00    -0.206 F 
ATOM     56  C   UNL     1       7.136  11.076   2.110  1.00  0.00     0.006 A 
ENDBRANCH  28  49
BRANCH  40  57
ATOM     57  C   UNL     1      10.416   6.813   9.476  1.00  0.00     0.057 A 
ATOM     58  C   UNL     1       9.992   7.846  10.321  1.00  0.00     0.134 A 
ATOM     59  C   UNL     1      11.773   6.464   9.511  1.00  0.00     0.134 A 
ATOM     60  F   UNL     1       8.709   8.238  10.325  1.00  0.00    -0.206 F 
ATOM     61  C   UNL     1      10.889   8.528  11.146  1.00  0.00     0.040 A 
ATOM     62  C   UNL     1      12.673   7.120  10.351  1.00  0.00     0.040 A 
ATOM     63  F   UNL     1      12.243   5.478   8.733  1.00  0.00    -0.206 F 
ATOM     64  C   UNL     1      12.233   8.161  11.166  1.00  0.00     0.006 A 
ENDBRANCH  40  57
ENDBRANCH  14  15
ENDBRANCH   7   9
ENDBRANCH   4   5
ENDBRANCH   3   4
ENDBRANCH   2   3
ENDBRANCH   1   2
BRANCH   1  65
ATOM     65  C   UNL     1       6.182  -3.002  -3.224  1.00  0.00     0.021 C 
BRANCH  65  66
ATOM     66  C   UNL     1       6.902  -4.294  -2.846  1.00  0.00     0.116 C 
BRANCH  66  67
ATOM     67  N   UNL     1       6.657  -5.362  -3.802  1.00  0.00    -0.351 N 
ATOM     68  C   UNL     1       7.564  -6.099  -4.526  1.00  0.00     0.261 C 
ATOM     69  H   UNL     1       5.710  -5.589  -3.951  1.00  0.00     0.163 HD
ATOM     70  O   UNL     1       7.127  -6.838  -5.415  1.00  0.00    -0.268 OA
BRANCH  68  71
ATOM     71  C   UNL     1       8.966  -5.973  -4.199  1.00  0.00     0.096 A 
ATOM     72  C   UNL     1       9.572  -6.074  -2.959  1.00  0.00     0.072 A 
ATOM     73  S   UNL     1      10.106  -5.661  -5.431  1.00  0.00    -0.135 S 
ATOM     74  C   UNL     1      10.943  -5.698  -3.001  1.00  0.00     0.131 A 
ATOM     75  C   UNL     1      11.371  -5.483  -4.291  1.00  0.00     0.112 A 
BRANCH  74  76
ATOM     76  O   UNL     1      11.821  -5.528  -1.981  1.00  0.00    -0.488 OA
BRANCH  76  77
ATOM     77  C   UNL     1      11.278  -5.589  -0.659  1.00  0.00     0.268 C 
BRANCH  77  78
ATOM     78  C   UNL     1      10.414  -4.407  -0.276  1.00  0.00     0.025 A 
ATOM     79  C   UNL     1       9.156  -4.602   0.317  1.00  0.00     0.011 A 
ATOM     80  C   UNL     1      10.867  -3.097  -0.460  1.00  0.00     0.130 A 
ATOM     81  C   UNL     1       8.373  -3.508   0.694  1.00  0.00     0.016 A 
ATOM     82  C   UNL     1      10.093  -2.001  -0.089  1.00  0.00     0.055 A 
ATOM     83  F   UNL     1      12.078  -2.874  -0.988  1.00  0.00    -0.207 F 
ATOM     84  C   UNL     1       8.846  -2.212   0.489  1.00  0.00     0.020 A 
ATOM     85  Br  UNL     1       7.798  -0.733   1.021  1.00  0.00    -0.051 Br
ENDBRANCH  77  78
ENDBRANCH  76  77
ENDBRANCH  74  76
ENDBRANCH  68  71
ENDBRANCH  66  67
ENDBRANCH  65  66
ENDBRANCH   1  65
TORSDOF 16
