REMARK SMILES O=C(Cc1ccccc1Nc1c(Cl)cccc1C(F)(F)F)NCCCCCCNC(=O)c1ccc(-c2c3nc(c(-c4c(F)cccc4F)c4ccc([nH]4)c(-c4c(F)cccc4F)c4nc(c(-c5c(F)cccc5F)c5ccc2[nH]5)C=C4)C=C3)cc1
REMARK SMILES IDX 24 1 23 2 22 3 1 4 2 5 3 7 4 8 5 9 9 10 6 11 8 12 7 13 10 14
REMARK SMILES IDX 11 16 12 17 17 18 13 19 14 20 16 21 15 22 18 23 19 24 20 25
REMARK SMILES IDX 21 26 25 27 26 28 27 29 28 30 29 31 30 32 31 34 32 35 33 36
REMARK SMILES IDX 85 37 34 38 84 39 35 40 36 41 37 42 78 43 38 44 83 45 77 46
REMARK SMILES IDX 79 47 39 48 82 49 76 50 75 51 40 53 66 54 49 55 65 56 50 57
REMARK SMILES IDX 53 58 64 59 80 60 51 61 52 62 63 64 81 65 54 66 41 67 42 68
REMARK SMILES IDX 47 69 43 70 44 71 46 72 48 73 45 74 67 75 68 76 73 77 69 78
REMARK SMILES IDX 70 79 72 80 74 81 71 82 55 83 56 84 61 85 57 86 58 87 60 88
REMARK SMILES IDX 62 89 59 90
REMARK H PARENT 22 6 10 15 29 33 79 52 53 63
REMARK Flexibility Score: inf
ROOT
ATOM      1  C   UNL     1       2.611  -3.198   1.227  1.00  0.00     0.021 C 
ENDROOT
BRANCH   1   2
ATOM      2  C   UNL     1       2.065  -1.779   1.405  1.00  0.00     0.116 C 
BRANCH   2   3
ATOM      3  N   UNL     1       2.814  -0.840   0.600  1.00  0.00    -0.356 N 
ATOM      4  O   UNL     1       1.061   0.327  -0.325  1.00  0.00    -0.275 OA
ATOM      5  C   UNL     1       2.266   0.139  -0.199  1.00  0.00     0.224 C 
ATOM      6  H   UNL     1       3.796  -0.905   0.625  1.00  0.00     0.163 HD
BRANCH   5   7
ATOM      7  C   UNL     1       3.315   0.962  -0.943  1.00  0.00     0.137 C 
BRANCH   7   8
ATOM      8  C   UNL     1       3.966   2.002  -0.054  1.00  0.00    -0.015 A 
ATOM      9  C   UNL     1       4.963   1.583   0.853  1.00  0.00     0.006 A 
ATOM     10  C   UNL     1       3.602   3.363  -0.086  1.00  0.00     0.042 A 
ATOM     11  C   UNL     1       5.533   2.468   1.765  1.00  0.00     0.000 A 
ATOM     12  C   UNL     1       4.181   4.234   0.853  1.00  0.00     0.026 A 
ATOM     13  C   UNL     1       5.128   3.792   1.776  1.00  0.00     0.002 A 
BRANCH  10  14
ATOM     14  N   UNL     1       2.739   3.859  -1.086  1.00  0.00    -0.354 N 
ATOM     15  H   UNL     1       2.143   3.187  -1.491  1.00  0.00     0.167 HD
BRANCH  14  16
ATOM     16  C   UNL     1       2.594   5.171  -1.597  1.00  0.00     0.070 A 
ATOM     17  C   UNL     1       1.289   5.714  -1.691  1.00  0.00     0.065 A 
ATOM     18  C   UNL     1       3.683   6.004  -1.937  1.00  0.00     0.080 A 
ATOM     19  Cl  UNL     1      -0.100   4.735  -1.352  1.00  0.00    -0.082 Cl
ATOM     20  C   UNL     1       1.068   7.048  -2.042  1.00  0.00     0.023 A 
ATOM     21  C   UNL     1       3.438   7.360  -2.264  1.00  0.00     0.015 A 
ATOM     22  C   UNL     1       2.147   7.879  -2.309  1.00  0.00     0.002 A 
BRANCH  18  23
ATOM     23  C   UNL     1       5.121   5.540  -2.020  1.00  0.00     0.418 C 
ATOM     24  F   UNL     1       5.790   6.160  -3.044  1.00  0.00    -0.166 F 
ATOM     25  F   UNL     1       5.839   5.854  -0.904  1.00  0.00    -0.166 F 
ATOM     26  F   UNL     1       5.306   4.213  -2.251  1.00  0.00    -0.166 F 
ENDBRANCH  18  23
ENDBRANCH  14  16
ENDBRANCH  10  14
ENDBRANCH   7   8
ENDBRANCH   5   7
ENDBRANCH   2   3
ENDBRANCH   1   2
BRANCH   1  27
ATOM     27  C   UNL     1       4.119  -3.354   1.485  1.00  0.00     0.002 C 
BRANCH  27  28
ATOM     28  C   UNL     1       4.594  -2.956   2.885  1.00  0.00     0.002 C 
BRANCH  28  29
ATOM     29  C   UNL     1       3.954  -3.738   4.032  1.00  0.00     0.021 C 
BRANCH  29  30
ATOM     30  C   UNL     1       4.107  -5.252   3.942  1.00  0.00     0.116 C 
BRANCH  30  31
ATOM     31  N   UNL     1       5.493  -5.684   4.026  1.00  0.00    -0.352 N 
ATOM     32  C   UNL     1       6.035  -6.705   4.764  1.00  0.00     0.251 C 
ATOM     33  H   UNL     1       6.131  -5.172   3.477  1.00  0.00     0.163 HD
ATOM     34  O   UNL     1       7.256  -6.838   4.833  1.00  0.00    -0.269 OA
BRANCH  32  35
ATOM     35  C   UNL     1       5.152  -7.637   5.499  1.00  0.00     0.039 A 
ATOM     36  C   UNL     1       5.485  -7.992   6.809  1.00  0.00     0.014 A 
ATOM     37  C   UNL     1       4.006  -8.168   4.900  1.00  0.00     0.014 A 
ATOM     38  C   UNL     1       4.644  -8.842   7.532  1.00  0.00     0.010 A 
ATOM     39  C   UNL     1       3.131  -8.952   5.647  1.00  0.00     0.010 A 
ATOM     40  C   UNL     1       3.447  -9.309   6.966  1.00  0.00    -0.014 A 
BRANCH  40  41
ATOM     41  C   UNL     1       2.535 -10.205   7.723  1.00  0.00     0.031 A 
ATOM     42  C   UNL     1       2.285 -11.607   7.235  1.00  0.00     0.074 A 
ATOM     43  C   UNL     1       1.900  -9.751   8.822  1.00  0.00     0.049 A 
ATOM     44  N   UNL     1       1.473 -12.518   7.710  1.00  0.00    -0.248 NA
ATOM     45  C   UNL     1       3.029 -12.035   6.038  1.00  0.00     0.031 C 
ATOM     46  C   UNL     1       2.024  -8.401   9.376  1.00  0.00     0.029 A 
ATOM     47  N   UNL     1       1.014 -10.375   9.664  1.00  0.00    -0.354 N 
ATOM     48  C   UNL     1       1.607 -13.618   6.872  1.00  0.00     0.074 A 
ATOM     49  C   UNL     1       2.526 -13.241   5.821  1.00  0.00     0.031 C 
ATOM     50  C   UNL     1       1.255  -8.304  10.474  1.00  0.00     0.029 A 
ATOM     51  C   UNL     1       0.558  -9.570  10.681  1.00  0.00     0.049 A 
ATOM     52  H   UNL     1       0.731 -11.311   9.551  1.00  0.00     0.167 HD
ATOM     53  C   UNL     1       1.044 -14.844   6.984  1.00  0.00     0.037 A 
ATOM     54  C   UNL     1      -0.328  -9.823  11.663  1.00  0.00     0.037 A 
ATOM     55  C   UNL     1       0.143 -15.228   8.039  1.00  0.00     0.049 A 
ATOM     56  C   UNL     1      -0.950 -11.191  11.757  1.00  0.00     0.074 A 
ATOM     57  C   UNL     1      -0.473 -16.450   8.246  1.00  0.00     0.029 A 
ATOM     58  N   UNL     1      -0.264 -14.394   9.069  1.00  0.00    -0.354 N 
ATOM     59  N   UNL     1      -0.779 -12.234  10.981  1.00  0.00    -0.248 NA
ATOM     60  C   UNL     1      -1.877 -11.422  12.874  1.00  0.00     0.031 C 
ATOM     61  C   UNL     1      -1.277 -16.347   9.386  1.00  0.00     0.029 A 
ATOM     62  C   UNL     1      -1.122 -15.076   9.916  1.00  0.00     0.049 A 
ATOM     63  H   UNL     1       0.015 -13.457   9.182  1.00  0.00     0.167 HD
ATOM     64  C   UNL     1      -1.541 -13.253  11.540  1.00  0.00     0.074 A 
ATOM     65  C   UNL     1      -2.164 -12.706  12.726  1.00  0.00     0.031 C 
ATOM     66  C   UNL     1      -1.710 -14.527  11.110  1.00  0.00     0.037 A 
BRANCH  53  67
ATOM     67  C   UNL     1       1.406 -15.871   5.950  1.00  0.00     0.057 A 
ATOM     68  C   UNL     1       2.686 -16.441   5.902  1.00  0.00     0.134 A 
ATOM     69  C   UNL     1       0.460 -16.329   5.025  1.00  0.00     0.134 A 
ATOM     70  F   UNL     1       3.643 -16.037   6.751  1.00  0.00    -0.206 F 
ATOM     71  C   UNL     1       3.017 -17.415   4.959  1.00  0.00     0.040 A 
ATOM     72  C   UNL     1       0.772 -17.323   4.096  1.00  0.00     0.040 A 
ATOM     73  F   UNL     1      -0.785 -15.831   5.019  1.00  0.00    -0.206 F 
ATOM     74  C   UNL     1       2.055 -17.865   4.058  1.00  0.00     0.006 A 
ENDBRANCH  53  67
BRANCH  54  75
ATOM     75  C   UNL     1      -0.679  -8.769  12.651  1.00  0.00     0.057 A 
ATOM     76  C   UNL     1      -0.319  -8.887  13.999  1.00  0.00     0.134 A 
ATOM     77  C   UNL     1      -1.426  -7.644  12.282  1.00  0.00     0.134 A 
ATOM     78  F   UNL     1       0.381  -9.952  14.419  1.00  0.00    -0.206 F 
ATOM     79  C   UNL     1      -0.720  -7.948  14.950  1.00  0.00     0.040 A 
ATOM     80  C   UNL     1      -1.808  -6.680  13.217  1.00  0.00     0.040 A 
ATOM     81  F   UNL     1      -1.795  -7.464  11.005  1.00  0.00    -0.206 F 
ATOM     82  C   UNL     1      -1.467  -6.839  14.558  1.00  0.00     0.006 A 
ENDBRANCH  54  75
BRANCH  66  83
ATOM     83  C   UNL     1      -2.544 -15.437  11.964  1.00  0.00     0.057 A 
ATOM     84  C   UNL     1      -3.933 -15.297  12.069  1.00  0.00     0.134 A 
ATOM     85  C   UNL     1      -1.945 -16.489  12.669  1.00  0.00     0.134 A 
ATOM     86  F   UNL     1      -4.567 -14.303  11.428  1.00  0.00    -0.206 F 
ATOM     87  C   UNL     1      -4.693 -16.151  12.870  1.00  0.00     0.040 A 
ATOM     88  C   UNL     1      -2.697 -17.367  13.450  1.00  0.00     0.040 A 
ATOM     89  F   UNL     1      -0.619 -16.687  12.603  1.00  0.00    -0.206 F 
ATOM     90  C   UNL     1      -4.075 -17.193  13.559  1.00  0.00     0.006 A 
ENDBRANCH  66  83
ENDBRANCH  40  41
ENDBRANCH  32  35
ENDBRANCH  30  31
ENDBRANCH  29  30
ENDBRANCH  28  29
ENDBRANCH  27  28
ENDBRANCH   1  27
TORSDOF 17
