REMARK SMILES CC(C)[C@@H]([NH2+][C@@H]1CSCC(C)(C)C1)C(=O)NCCCCCCNC(=O)c1ccc(-c2c3nc(c(-c4c(F)cccc4F)c4ccc([nH]4)c(-c4c(F)cccc4F)c4nc(c(-c5c(F)cccc5F)c5ccc2[nH]5)C=C4)C=C3)cc1
REMARK SMILES IDX 19 1 18 2 17 3 16 4 14 5 15 6 4 8 2 9 1 10 3 11 5 12 6 15
REMARK SMILES IDX 7 16 13 17 8 18 10 19 9 20 11 21 12 22 20 23 21 24 22 25
REMARK SMILES IDX 23 26 24 27 25 29 26 30 27 31 79 32 28 33 78 34 29 35 30 36
REMARK SMILES IDX 31 37 72 38 32 39 77 40 71 41 73 42 33 43 76 44 70 45 69 46
REMARK SMILES IDX 34 48 60 49 43 50 59 51 44 52 47 53 58 54 74 55 45 56 46 57
REMARK SMILES IDX 57 59 75 60 48 61 35 62 36 63 41 64 37 65 38 66 40 67 42 68
REMARK SMILES IDX 39 69 61 70 62 71 67 72 63 73 64 74 66 75 68 76 65 77 49 78
REMARK SMILES IDX 50 79 55 80 51 81 52 82 54 83 56 84 53 85
REMARK H PARENT 16 7 5 13 5 14 23 28 73 47 47 58
REMARK Flexibility Score: inf
ROOT
ATOM      1  C   UNL     1       0.664  -2.298  -6.085  1.00  0.00     0.002 C 
ENDROOT
BRANCH   1   2
ATOM      2  C   UNL     1       1.167  -1.686  -4.776  1.00  0.00     0.021 C 
BRANCH   2   3
ATOM      3  C   UNL     1       0.041  -1.226  -3.862  1.00  0.00     0.116 C 
BRANCH   3   4
ATOM      4  N   UNL     1      -0.525  -2.314  -3.099  1.00  0.00    -0.351 N 
ATOM      5  C   UNL     1      -1.010  -2.311  -1.821  1.00  0.00     0.278 C 
ATOM      6  O   UNL     1      -1.552  -3.341  -1.404  1.00  0.00    -0.268 OA
ATOM      7  H   UNL     1      -0.568  -3.181  -3.565  1.00  0.00     0.163 HD
BRANCH   5   8
ATOM      8  C   UNL     1      -0.815  -1.097  -0.880  1.00  0.00     0.275 C 
BRANCH   8   9
ATOM      9  C   UNL     1       0.715  -0.938  -0.572  1.00  0.00     0.051 C 
ATOM     10  C   UNL     1       1.005   0.090   0.524  1.00  0.00     0.014 C 
ATOM     11  C   UNL     1       1.367  -2.276  -0.182  1.00  0.00     0.014 C 
ENDBRANCH   8   9
BRANCH   8  12
ATOM     12  N   UNL     1      -1.438   0.136  -1.440  1.00  0.00    -0.333 N 
ATOM     13  H   UNL     1      -1.197   0.175  -2.431  1.00  0.00     0.347 HD
ATOM     14  H   UNL     1      -1.068   0.893  -0.866  1.00  0.00     0.347 HD
BRANCH  12  15
ATOM     15  C   UNL     1      -2.912   0.278  -1.338  1.00  0.00     0.193 C 
ATOM     16  C   UNL     1      -3.820  -0.909  -1.700  1.00  0.00     0.134 C 
ATOM     17  C   UNL     1      -3.404   1.512  -2.149  1.00  0.00     0.073 C 
ATOM     18  S   UNL     1      -3.707  -1.445  -3.430  1.00  0.00    -0.155 SA
ATOM     19  C   UNL     1      -3.251   1.444  -3.692  1.00  0.00    -0.021 C 
ATOM     20  C   UNL     1      -3.785   0.131  -4.317  1.00  0.00     0.076 C 
ATOM     21  C   UNL     1      -1.795   1.746  -4.100  1.00  0.00     0.012 C 
ATOM     22  C   UNL     1      -4.075   2.586  -4.342  1.00  0.00     0.012 C 
ENDBRANCH  12  15
ENDBRANCH   8  12
ENDBRANCH   5   8
ENDBRANCH   3   4
ENDBRANCH   2   3
ENDBRANCH   1   2
BRANCH   1  23
ATOM     23  C   UNL     1      -0.161  -1.353  -6.970  1.00  0.00     0.002 C 
BRANCH  23  24
ATOM     24  C   UNL     1       0.513  -0.024  -7.319  1.00  0.00     0.021 C 
BRANCH  24  25
ATOM     25  C   UNL     1       1.882  -0.160  -7.975  1.00  0.00     0.116 C 
BRANCH  25  26
ATOM     26  N   UNL     1       1.831  -0.946  -9.197  1.00  0.00    -0.352 N 
ATOM     27  C   UNL     1       2.344  -0.668 -10.439  1.00  0.00     0.251 C 
ATOM     28  H   UNL     1       1.358  -1.806  -9.122  1.00  0.00     0.163 HD
ATOM     29  O   UNL     1       2.050  -1.366 -11.400  1.00  0.00    -0.269 OA
BRANCH  27  30
ATOM     30  C   UNL     1       3.238   0.495 -10.616  1.00  0.00     0.039 A 
ATOM     31  C   UNL     1       3.045   1.329 -11.719  1.00  0.00     0.014 A 
ATOM     32  C   UNL     1       4.263   0.758  -9.704  1.00  0.00     0.014 A 
ATOM     33  C   UNL     1       3.847   2.459 -11.878  1.00  0.00     0.010 A 
ATOM     34  C   UNL     1       5.009   1.926  -9.820  1.00  0.00     0.010 A 
ATOM     35  C   UNL     1       4.813   2.784 -10.912  1.00  0.00    -0.014 A 
BRANCH  35  36
ATOM     36  C   UNL     1       5.628   4.019 -11.030  1.00  0.00     0.031 A 
ATOM     37  C   UNL     1       7.119   3.928 -11.194  1.00  0.00     0.074 A 
ATOM     38  C   UNL     1       5.029   5.222 -10.932  1.00  0.00     0.049 A 
ATOM     39  N   UNL     1       8.005   4.890 -11.256  1.00  0.00    -0.248 NA
ATOM     40  C   UNL     1       7.696   2.576 -11.271  1.00  0.00     0.031 C 
ATOM     41  C   UNL     1       3.596   5.440 -10.727  1.00  0.00     0.029 A 
ATOM     42  N   UNL     1       5.553   6.489 -10.982  1.00  0.00    -0.354 N 
ATOM     43  C   UNL     1       9.238   4.261 -11.369  1.00  0.00     0.074 A 
ATOM     44  C   UNL     1       8.994   2.837 -11.307  1.00  0.00     0.031 C 
ATOM     45  C   UNL     1       3.352   6.759 -10.696  1.00  0.00     0.029 A 
ATOM     46  C   UNL     1       4.613   7.480 -10.834  1.00  0.00     0.049 A 
ATOM     47  H   UNL     1       6.512   6.671 -11.113  1.00  0.00     0.167 HD
ATOM     48  C   UNL     1      10.460   4.820 -11.534  1.00  0.00     0.037 A 
ATOM     49  C   UNL     1       4.754   8.818 -10.804  1.00  0.00     0.037 A 
ATOM     50  C   UNL     1      10.695   6.239 -11.611  1.00  0.00     0.049 A 
ATOM     51  C   UNL     1       6.126   9.414 -10.967  1.00  0.00     0.074 A 
ATOM     52  C   UNL     1      11.888   6.904 -11.832  1.00  0.00     0.029 A 
ATOM     53  N   UNL     1       9.717   7.211 -11.463  1.00  0.00    -0.354 N 
ATOM     54  N   UNL     1       7.275   8.808 -11.143  1.00  0.00    -0.248 NA
ATOM     55  C   UNL     1       6.219  10.880 -10.934  1.00  0.00     0.031 C 
ATOM     56  C   UNL     1      11.642   8.278 -11.761  1.00  0.00     0.029 A 
ATOM     57  C   UNL     1      10.284   8.471 -11.559  1.00  0.00     0.049 A 
ATOM     58  H   UNL     1       8.761   7.032 -11.312  1.00  0.00     0.167 HD
ATOM     59  C   UNL     1       8.222   9.817 -11.273  1.00  0.00     0.074 A 
ATOM     60  C   UNL     1       7.508  11.073 -11.170  1.00  0.00     0.031 C 
ATOM     61  C   UNL     1       9.560   9.713 -11.460  1.00  0.00     0.037 A 
BRANCH  48  62
ATOM     62  C   UNL     1      11.638   3.894 -11.642  1.00  0.00     0.057 A 
ATOM     63  C   UNL     1      11.828   3.062 -12.753  1.00  0.00     0.134 A 
ATOM     64  C   UNL     1      12.614   3.858 -10.637  1.00  0.00     0.134 A 
ATOM     65  F   UNL     1      10.927   3.038 -13.747  1.00  0.00    -0.206 F 
ATOM     66  C   UNL     1      12.928   2.207 -12.848  1.00  0.00     0.040 A 
ATOM     67  C   UNL     1      13.734   3.030 -10.735  1.00  0.00     0.040 A 
ATOM     68  F   UNL     1      12.500   4.633  -9.548  1.00  0.00    -0.206 F 
ATOM     69  C   UNL     1      13.889   2.196 -11.840  1.00  0.00     0.006 A 
ENDBRANCH  48  62
BRANCH  49  70
ATOM     70  C   UNL     1       3.564   9.689 -10.627  1.00  0.00     0.057 A 
ATOM     71  C   UNL     1       3.108  10.510 -11.664  1.00  0.00     0.134 A 
ATOM     72  C   UNL     1       2.862   9.732  -9.416  1.00  0.00     0.134 A 
ATOM     73  F   UNL     1       3.748  10.527 -12.843  1.00  0.00    -0.206 F 
ATOM     74  C   UNL     1       2.013  11.360 -11.498  1.00  0.00     0.040 A 
ATOM     75  C   UNL     1       1.748  10.555  -9.245  1.00  0.00     0.040 A 
ATOM     76  F   UNL     1       3.241   8.963  -8.384  1.00  0.00    -0.206 F 
ATOM     77  C   UNL     1       1.326  11.380 -10.286  1.00  0.00     0.006 A 
ENDBRANCH  49  70
BRANCH  61  78
ATOM     78  C   UNL     1      10.336  10.991 -11.606  1.00  0.00     0.057 A 
ATOM     79  C   UNL     1      10.553  11.855 -10.526  1.00  0.00     0.134 A 
ATOM     80  C   UNL     1      10.906  11.339 -12.837  1.00  0.00     0.134 A 
ATOM     81  F   UNL     1      10.024  11.587  -9.322  1.00  0.00    -0.206 F 
ATOM     82  C   UNL     1      11.287  13.034 -10.671  1.00  0.00     0.040 A 
ATOM     83  C   UNL     1      11.668  12.498 -12.988  1.00  0.00     0.040 A 
ATOM     84  F   UNL     1      10.746  10.551 -13.911  1.00  0.00    -0.206 F 
ATOM     85  C   UNL     1      11.854  13.354 -11.904  1.00  0.00     0.006 A 
ENDBRANCH  61  78
ENDBRANCH  35  36
ENDBRANCH  27  30
ENDBRANCH  25  26
ENDBRANCH  24  25
ENDBRANCH  23  24
ENDBRANCH   1  23
TORSDOF 16
