REMARK SMILES CCCC[C@H](C(=O)OC)[C@H](O)C(=O)NCCCCCCNC(=O)c1ccc(-c2c3nc(c(-c4c(F)cccc4F)c4ccc([nH]4)c(-c4c(F)cccc4F)c4nc(c(-c5c(F)cccc5F)c5ccc2[nH]5)C=C4)C=C3)cc1
REMARK SMILES IDX 16 1 15 2 14 3 12 4 13 5 10 7 5 8 4 9 3 10 2 11 1 12 6 13
REMARK SMILES IDX 7 14 8 15 9 16 11 17 17 19 18 20 19 21 20 22 21 23 22 24
REMARK SMILES IDX 23 26 24 27 25 28 77 29 26 30 76 31 27 32 28 33 29 34 70 35
REMARK SMILES IDX 30 36 75 37 69 38 71 39 31 40 74 41 68 42 67 43 32 45 58 46
REMARK SMILES IDX 41 47 57 48 42 49 45 50 56 51 72 52 43 53 44 54 55 56 73 57
REMARK SMILES IDX 46 58 33 59 34 60 39 61 35 62 36 63 38 64 40 65 37 66 59 67
REMARK SMILES IDX 60 68 65 69 61 70 62 71 64 72 66 73 63 74 47 75 48 76 53 77
REMARK SMILES IDX 49 78 50 79 52 80 54 81 51 82
REMARK H PARENT 14 6 11 18 21 25 71 44 45 55
REMARK Flexibility Score: inf
ROOT
ATOM      1  C   UNL     1      -3.730   0.277   0.330  1.00  0.00     0.021 C 
ENDROOT
BRANCH   1   2
ATOM      2  C   UNL     1      -3.060   0.979  -0.845  1.00  0.00     0.116 C 
BRANCH   2   3
ATOM      3  N   UNL     1      -3.549   2.333  -0.980  1.00  0.00    -0.354 N 
ATOM      4  C   UNL     1      -2.993   3.428  -1.561  1.00  0.00     0.249 C 
ATOM      5  O   UNL     1      -3.693   4.440  -1.663  1.00  0.00    -0.272 OA
ATOM      6  H   UNL     1      -4.436   2.489  -0.583  1.00  0.00     0.163 HD
BRANCH   4   7
ATOM      7  C   UNL     1      -1.533   3.430  -2.040  1.00  0.00     0.217 C 
BRANCH   7   8
ATOM      8  C   UNL     1      -1.129   2.536  -3.232  1.00  0.00     0.137 C 
BRANCH   8   9
ATOM      9  C   UNL     1      -0.144   3.309  -4.157  1.00  0.00     0.018 C 
BRANCH   9  10
ATOM     10  C   UNL     1      -0.659   3.864  -5.497  1.00  0.00     0.001 C 
BRANCH  10  11
ATOM     11  C   UNL     1      -1.966   4.660  -5.503  1.00  0.00    -0.003 C 
ATOM     12  C   UNL     1      -1.875   6.026  -4.853  1.00  0.00     0.004 C 
ENDBRANCH  10  11
ENDBRANCH   9  10
ENDBRANCH   8   9
BRANCH   8  13
ATOM     13  C   UNL     1      -2.249   1.867  -4.013  1.00  0.00     0.311 C 
ATOM     14  O   UNL     1      -3.449   2.030  -3.850  1.00  0.00    -0.252 OA
BRANCH  13  15
ATOM     15  O   UNL     1      -1.726   1.032  -4.959  1.00  0.00    -0.469 OA
ATOM     16  C   UNL     1      -2.691   0.563  -5.905  1.00  0.00     0.282 C 
ENDBRANCH  13  15
ENDBRANCH   8  13
ENDBRANCH   7   8
BRANCH   7  17
ATOM     17  O   UNL     1      -0.583   3.265  -0.978  1.00  0.00    -0.382 OA
ATOM     18  H   UNL     1      -0.636   2.359  -0.633  1.00  0.00     0.211 HD
ENDBRANCH   7  17
ENDBRANCH   4   7
ENDBRANCH   2   3
ENDBRANCH   1   2
BRANCH   1  19
ATOM     19  C   UNL     1      -5.229   0.013   0.126  1.00  0.00     0.002 C 
BRANCH  19  20
ATOM     20  C   UNL     1      -5.579  -0.834  -1.101  1.00  0.00     0.002 C 
BRANCH  20  21
ATOM     21  C   UNL     1      -4.855  -2.178  -1.186  1.00  0.00     0.021 C 
BRANCH  21  22
ATOM     22  C   UNL     1      -4.975  -3.045   0.062  1.00  0.00     0.116 C 
BRANCH  22  23
ATOM     23  N   UNL     1      -6.354  -3.374   0.380  1.00  0.00    -0.352 N 
ATOM     24  C   UNL     1      -6.892  -4.589   0.719  1.00  0.00     0.251 C 
ATOM     25  H   UNL     1      -6.989  -2.623   0.347  1.00  0.00     0.163 HD
ATOM     26  O   UNL     1      -8.108  -4.730   0.803  1.00  0.00    -0.269 OA
BRANCH  24  27
ATOM     27  C   UNL     1      -5.996  -5.739   0.953  1.00  0.00     0.039 A 
ATOM     28  C   UNL     1      -6.301  -6.962   0.353  1.00  0.00     0.014 A 
ATOM     29  C   UNL     1      -4.851  -5.604   1.744  1.00  0.00     0.014 A 
ATOM     30  C   UNL     1      -5.424  -8.038   0.500  1.00  0.00     0.010 A 
ATOM     31  C   UNL     1      -3.940  -6.653   1.823  1.00  0.00     0.010 A 
ATOM     32  C   UNL     1      -4.220  -7.881   1.205  1.00  0.00    -0.014 A 
BRANCH  32  33
ATOM     33  C   UNL     1      -3.241  -8.993   1.304  1.00  0.00     0.031 A 
ATOM     34  C   UNL     1      -2.906  -9.589   2.643  1.00  0.00     0.074 A 
ATOM     35  C   UNL     1      -2.614  -9.427   0.194  1.00  0.00     0.049 A 
ATOM     36  N   UNL     1      -2.042 -10.528   2.936  1.00  0.00    -0.248 NA
ATOM     37  C   UNL     1      -3.615  -9.040   3.810  1.00  0.00     0.031 C 
ATOM     38  C   UNL     1      -2.819  -8.898  -1.156  1.00  0.00     0.029 A 
ATOM     39  N   UNL     1      -1.671 -10.409   0.025  1.00  0.00    -0.354 N 
ATOM     40  C   UNL     1      -2.098 -10.674   4.316  1.00  0.00     0.074 A 
ATOM     41  C   UNL     1      -3.034  -9.687   4.809  1.00  0.00     0.031 C 
ATOM     42  C   UNL     1      -2.047  -9.578  -2.017  1.00  0.00     0.029 A 
ATOM     43  C   UNL     1      -1.261 -10.561  -1.278  1.00  0.00     0.049 A 
ATOM     44  H   UNL     1      -1.320 -10.953   0.767  1.00  0.00     0.167 HD
ATOM     45  C   UNL     1      -1.447 -11.566   5.100  1.00  0.00     0.037 A 
ATOM     46  C   UNL     1      -0.349 -11.394  -1.815  1.00  0.00     0.037 A 
ATOM     47  C   UNL     1      -0.528 -12.557   4.603  1.00  0.00     0.049 A 
ATOM     48  C   UNL     1       0.376 -12.361  -0.920  1.00  0.00     0.074 A 
ATOM     49  C   UNL     1       0.141 -13.542   5.308  1.00  0.00     0.029 A 
ATOM     50  N   UNL     1      -0.143 -12.684   3.276  1.00  0.00    -0.354 N 
ATOM     51  N   UNL     1       0.261 -12.536   0.374  1.00  0.00    -0.248 NA
ATOM     52  C   UNL     1       1.353 -13.251  -1.562  1.00  0.00     0.031 C 
ATOM     53  C   UNL     1       0.973 -14.229   4.418  1.00  0.00     0.029 A 
ATOM     54  C   UNL     1       0.775 -13.713   3.147  1.00  0.00     0.049 A 
ATOM     55  H   UNL     1      -0.474 -12.125   2.536  1.00  0.00     0.167 HD
ATOM     56  C   UNL     1       1.126 -13.575   0.696  1.00  0.00     0.074 A 
ATOM     57  C   UNL     1       1.747 -13.999  -0.541  1.00  0.00     0.031 C 
ATOM     58  C   UNL     1       1.381 -14.128   1.907  1.00  0.00     0.037 A 
BRANCH  45  59
ATOM     59  C   UNL     1      -1.705 -11.509   6.579  1.00  0.00     0.057 A 
ATOM     60  C   UNL     1      -2.942 -11.873   7.129  1.00  0.00     0.134 A 
ATOM     61  C   UNL     1      -0.696 -11.118   7.467  1.00  0.00     0.134 A 
ATOM     62  F   UNL     1      -3.957 -12.247   6.335  1.00  0.00    -0.206 F 
ATOM     63  C   UNL     1      -3.174 -11.822   8.505  1.00  0.00     0.040 A 
ATOM     64  C   UNL     1      -0.905 -11.093   8.847  1.00  0.00     0.040 A 
ATOM     65  F   UNL     1       0.515 -10.763   7.010  1.00  0.00    -0.206 F 
ATOM     66  C   UNL     1      -2.150 -11.438   9.369  1.00  0.00     0.006 A 
ENDBRANCH  45  59
BRANCH  46  67
ATOM     67  C   UNL     1      -0.082 -11.364  -3.276  1.00  0.00     0.057 A 
ATOM     68  C   UNL     1      -0.448 -12.434  -4.100  1.00  0.00     0.134 A 
ATOM     69  C   UNL     1       0.555 -10.273  -3.881  1.00  0.00     0.134 A 
ATOM     70  F   UNL     1      -1.046 -13.515  -3.578  1.00  0.00    -0.206 F 
ATOM     71  C   UNL     1      -0.171 -12.432  -5.468  1.00  0.00     0.040 A 
ATOM     72  C   UNL     1       0.813 -10.245  -5.252  1.00  0.00     0.040 A 
ATOM     73  F   UNL     1       0.923  -9.211  -3.149  1.00  0.00    -0.206 F 
ATOM     74  C   UNL     1       0.457 -11.332  -6.049  1.00  0.00     0.006 A 
ENDBRANCH  46  67
BRANCH  58  75
ATOM     75  C   UNL     1       2.345 -15.279   1.949  1.00  0.00     0.057 A 
ATOM     76  C   UNL     1       3.719 -15.106   1.738  1.00  0.00     0.134 A 
ATOM     77  C   UNL     1       1.895 -16.573   2.242  1.00  0.00     0.134 A 
ATOM     78  F   UNL     1       4.215 -13.895   1.440  1.00  0.00    -0.206 F 
ATOM     79  C   UNL     1       4.606 -16.182   1.793  1.00  0.00     0.040 A 
ATOM     80  C   UNL     1       2.776 -17.651   2.330  1.00  0.00     0.040 A 
ATOM     81  F   UNL     1       0.592 -16.807   2.465  1.00  0.00    -0.206 F 
ATOM     82  C   UNL     1       4.136 -17.458   2.098  1.00  0.00     0.006 A 
ENDBRANCH  58  75
ENDBRANCH  32  33
ENDBRANCH  24  27
ENDBRANCH  22  23
ENDBRANCH  21  22
ENDBRANCH  20  21
ENDBRANCH  19  20
ENDBRANCH   1  19
TORSDOF 20
