REMARK SMILES CCCCCCNC(=O)Oc1cccc(-c2ccc([C@@H](C)C(=O)NCCCCCCNC(=O)c3ccc(-c4c5nc(c(-c6c(F)cccc6F)c6ccc([nH]6)c(-c6c(F)cccc6F)c6nc(c(-c7c(F)cccc7F)c7ccc4[nH]7)C=C6)C=C5)cc3)cc2C(F)(F)F)c1
REMARK SMILES IDX 22 1 23 2 24 3 20 5 21 6 19 7 16 8 17 9 89 10 18 11 88 12
REMARK SMILES IDX 15 13 11 14 12 15 94 16 13 17 14 18 10 19 8 20 7 21 9 23
REMARK SMILES IDX 6 24 5 25 4 26 3 27 2 28 1 29 90 30 91 31 92 32 93 33 25 34
REMARK SMILES IDX 26 35 27 36 28 37 29 38 30 39 31 40 32 41 33 43 34 44 35 45
REMARK SMILES IDX 87 46 36 47 86 48 37 49 38 50 39 51 80 52 40 53 85 54 79 55
REMARK SMILES IDX 81 56 41 57 84 58 78 59 77 60 42 62 68 63 51 64 67 65 52 66
REMARK SMILES IDX 55 67 66 68 82 69 53 70 54 71 65 73 83 74 56 75 43 76 44 77
REMARK SMILES IDX 49 78 45 79 46 80 48 81 50 82 47 83 69 84 70 85 75 86 71 87
REMARK SMILES IDX 72 88 74 89 76 90 73 91 57 92 58 93 63 94 59 95 60 96 62 97
REMARK SMILES IDX 64 98 61 99
REMARK H PARENT 24 4 7 22 31 42 81 61 55 72
REMARK Flexibility Score: inf
ROOT
ATOM      1  C   UNL     1      -3.014 -10.309  -9.812  1.00  0.00     0.227 C 
ATOM      2  O   UNL     1      -2.111 -10.847  -9.160  1.00  0.00    -0.274 OA
ATOM      3  N   UNL     1      -2.693  -9.922 -11.076  1.00  0.00    -0.356 N 
ATOM      4  H   UNL     1      -1.792 -10.196 -11.363  1.00  0.00     0.163 HD
ENDROOT
BRANCH   1   5
ATOM      5  C   UNL     1      -4.407 -10.135  -9.186  1.00  0.00     0.105 C 
ATOM      6  C   UNL     1      -5.533 -10.829  -9.950  1.00  0.00     0.023 C 
BRANCH   5   7
ATOM      7  C   UNL     1      -4.705  -8.716  -8.723  1.00  0.00    -0.035 A 
ATOM      8  C   UNL     1      -5.048  -6.024  -7.809  1.00  0.00    -0.006 A 
ATOM      9  C   UNL     1      -5.327  -6.408  -9.135  1.00  0.00     0.009 A 
ATOM     10  C   UNL     1      -4.690  -7.042  -6.902  1.00  0.00     0.064 A 
ATOM     11  C   UNL     1      -5.206  -7.731  -9.568  1.00  0.00     0.005 A 
ATOM     12  C   UNL     1      -4.469  -8.357  -7.388  1.00  0.00     0.018 A 
BRANCH   8  13
ATOM     13  C   UNL     1      -5.132  -4.587  -7.472  1.00  0.00    -0.014 A 
ATOM     14  C   UNL     1      -4.179  -2.566  -6.518  1.00  0.00     0.133 A 
ATOM     15  C   UNL     1      -5.300  -1.826  -6.882  1.00  0.00     0.047 A 
ATOM     16  C   UNL     1      -4.078  -3.926  -6.818  1.00  0.00     0.056 A 
ATOM     17  C   UNL     1      -6.337  -2.455  -7.560  1.00  0.00     0.004 A 
ATOM     18  C   UNL     1      -6.258  -3.823  -7.839  1.00  0.00     0.009 A 
BRANCH  14  19
ATOM     19  O   UNL     1      -3.236  -1.920  -5.700  1.00  0.00    -0.410 OA
BRANCH  19  20
ATOM     20  C   UNL     1      -1.887  -2.033  -5.996  1.00  0.00     0.412 C 
ATOM     21  N   UNL     1      -1.084  -1.517  -5.016  1.00  0.00    -0.321 N 
ATOM     22  H   UNL     1      -0.114  -1.535  -5.184  1.00  0.00     0.167 HD
ATOM     23  O   UNL     1      -1.412  -2.524  -7.012  1.00  0.00    -0.224 OA
BRANCH  21  24
ATOM     24  C   UNL     1      -1.515  -0.946  -3.753  1.00  0.00     0.119 C 
BRANCH  24  25
ATOM     25  C   UNL     1      -0.922  -1.688  -2.555  1.00  0.00     0.021 C 
BRANCH  25  26
ATOM     26  C   UNL     1       0.607  -1.625  -2.449  1.00  0.00     0.002 C 
BRANCH  26  27
ATOM     27  C   UNL     1       1.207  -0.217  -2.379  1.00  0.00    -0.000 C 
BRANCH  27  28
ATOM     28  C   UNL     1       0.720   0.649  -1.215  1.00  0.00    -0.003 C 
ATOM     29  C   UNL     1       1.085   0.084   0.149  1.00  0.00     0.004 C 
ENDBRANCH  27  28
ENDBRANCH  26  27
ENDBRANCH  25  26
ENDBRANCH  24  25
ENDBRANCH  21  24
ENDBRANCH  19  20
ENDBRANCH  14  19
ENDBRANCH   8  13
BRANCH  10  30
ATOM     30  C   UNL     1      -4.543  -6.845  -5.408  1.00  0.00     0.417 C 
ATOM     31  F   UNL     1      -5.164  -7.840  -4.705  1.00  0.00    -0.166 F 
ATOM     32  F   UNL     1      -3.241  -6.876  -5.006  1.00  0.00    -0.166 F 
ATOM     33  F   UNL     1      -5.065  -5.694  -4.906  1.00  0.00    -0.166 F 
ENDBRANCH  10  30
ENDBRANCH   5   7
ENDBRANCH   1   5
BRANCH   3  34
ATOM     34  C   UNL     1      -3.432  -9.182 -12.077  1.00  0.00     0.116 C 
BRANCH  34  35
ATOM     35  C   UNL     1      -2.997  -7.715 -12.128  1.00  0.00     0.021 C 
BRANCH  35  36
ATOM     36  C   UNL     1      -1.858  -7.441 -13.114  1.00  0.00     0.002 C 
BRANCH  36  37
ATOM     37  C   UNL     1      -2.200  -7.697 -14.588  1.00  0.00     0.002 C 
BRANCH  37  38
ATOM     38  C   UNL     1      -3.432  -6.957 -15.118  1.00  0.00     0.021 C 
BRANCH  38  39
ATOM     39  C   UNL     1      -3.350  -5.434 -15.031  1.00  0.00     0.116 C 
BRANCH  39  40
ATOM     40  N   UNL     1      -2.264  -4.905 -15.841  1.00  0.00    -0.352 N 
ATOM     41  C   UNL     1      -2.302  -4.040 -16.905  1.00  0.00     0.251 C 
ATOM     42  H   UNL     1      -1.365  -5.214 -15.587  1.00  0.00     0.163 HD
ATOM     43  O   UNL     1      -1.310  -3.890 -17.612  1.00  0.00    -0.269 OA
BRANCH  41  44
ATOM     44  C   UNL     1      -3.539  -3.291 -17.212  1.00  0.00     0.039 A 
ATOM     45  C   UNL     1      -3.945  -3.174 -18.545  1.00  0.00     0.014 A 
ATOM     46  C   UNL     1      -4.274  -2.672 -16.198  1.00  0.00     0.014 A 
ATOM     47  C   UNL     1      -5.118  -2.482 -18.855  1.00  0.00     0.010 A 
ATOM     48  C   UNL     1      -5.477  -2.038 -16.500  1.00  0.00     0.010 A 
ATOM     49  C   UNL     1      -5.907  -1.932 -17.832  1.00  0.00    -0.014 A 
BRANCH  49  50
ATOM     50  C   UNL     1      -7.188  -1.246 -18.135  1.00  0.00     0.031 A 
ATOM     51  C   UNL     1      -7.348   0.222 -17.852  1.00  0.00     0.074 A 
ATOM     52  C   UNL     1      -8.232  -1.962 -18.594  1.00  0.00     0.049 A 
ATOM     53  N   UNL     1      -8.410   0.977 -17.980  1.00  0.00    -0.248 NA
ATOM     54  C   UNL     1      -6.168   0.926 -17.328  1.00  0.00     0.031 C 
ATOM     55  C   UNL     1      -8.220  -3.403 -18.853  1.00  0.00     0.029 A 
ATOM     56  N   UNL     1      -9.512  -1.579 -18.906  1.00  0.00    -0.354 N 
ATOM     57  C   UNL     1      -8.032   2.237 -17.534  1.00  0.00     0.074 A 
ATOM     58  C   UNL     1      -6.659   2.134 -17.090  1.00  0.00     0.031 C 
ATOM     59  C   UNL     1      -9.430  -3.780 -19.293  1.00  0.00     0.029 A 
ATOM     60  C   UNL     1     -10.312  -2.616 -19.318  1.00  0.00     0.049 A 
ATOM     61  H   UNL     1      -9.827  -0.648 -18.840  1.00  0.00     0.167 HD
ATOM     62  C   UNL     1      -8.759   3.381 -17.514  1.00  0.00     0.037 A 
ATOM     63  C   UNL     1     -11.612  -2.632 -19.667  1.00  0.00     0.037 A 
ATOM     64  C   UNL     1     -10.115   3.486 -17.986  1.00  0.00     0.049 A 
ATOM     65  C   UNL     1     -12.391  -1.347 -19.658  1.00  0.00     0.074 A 
ATOM     66  C   UNL     1     -10.907   4.616 -18.086  1.00  0.00     0.029 A 
ATOM     67  N   UNL     1     -10.881   2.419 -18.431  1.00  0.00    -0.354 N 
ATOM     68  N   UNL     1     -11.997  -0.145 -19.312  1.00  0.00    -0.248 NA
ATOM     69  C   UNL     1     -13.792  -1.418 -20.097  1.00  0.00     0.031 C 
ATOM     70  C   UNL     1     -12.168   4.226 -18.551  1.00  0.00     0.029 A 
ATOM     71  C   UNL     1     -12.146   2.860 -18.783  1.00  0.00     0.049 A 
ATOM     72  H   UNL     1     -10.571   1.486 -18.489  1.00  0.00     0.167 HD
ATOM     73  C   UNL     1     -13.092   0.685 -19.510  1.00  0.00     0.074 A 
ATOM     74  C   UNL     1     -14.162  -0.147 -20.021  1.00  0.00     0.031 C 
ATOM     75  C   UNL     1     -13.201   2.018 -19.287  1.00  0.00     0.037 A 
BRANCH  62  76
ATOM     76  C   UNL     1      -8.098   4.610 -16.961  1.00  0.00     0.057 A 
ATOM     77  C   UNL     1      -7.063   5.265 -17.641  1.00  0.00     0.134 A 
ATOM     78  C   UNL     1      -8.520   5.160 -15.744  1.00  0.00     0.134 A 
ATOM     79  F   UNL     1      -6.604   4.784 -18.806  1.00  0.00    -0.206 F 
ATOM     80  C   UNL     1      -6.450   6.404 -17.116  1.00  0.00     0.040 A 
ATOM     81  C   UNL     1      -7.934   6.315 -15.222  1.00  0.00     0.040 A 
ATOM     82  F   UNL     1      -9.511   4.588 -15.044  1.00  0.00    -0.206 F 
ATOM     83  C   UNL     1      -6.890   6.936 -15.906  1.00  0.00     0.006 A 
ENDBRANCH  62  76
BRANCH  63  84
ATOM     84  C   UNL     1     -12.249  -3.908 -20.072  1.00  0.00     0.057 A 
ATOM     85  C   UNL     1     -12.589  -4.154 -21.407  1.00  0.00     0.134 A 
ATOM     86  C   UNL     1     -12.519  -4.917 -19.140  1.00  0.00     0.134 A 
ATOM     87  F   UNL     1     -12.370  -3.219 -22.343  1.00  0.00    -0.206 F 
ATOM     88  C   UNL     1     -13.188  -5.353 -21.799  1.00  0.00     0.040 A 
ATOM     89  C   UNL     1     -13.096  -6.129 -19.521  1.00  0.00     0.040 A 
ATOM     90  F   UNL     1     -12.208  -4.745 -17.847  1.00  0.00    -0.206 F 
ATOM     91  C   UNL     1     -13.437  -6.347 -20.855  1.00  0.00     0.006 A 
ENDBRANCH  63  84
BRANCH  75  92
ATOM     92  C   UNL     1     -14.516   2.661 -19.614  1.00  0.00     0.057 A 
ATOM     93  C   UNL     1     -15.650   2.469 -18.815  1.00  0.00     0.134 A 
ATOM     94  C   UNL     1     -14.639   3.514 -20.719  1.00  0.00     0.134 A 
ATOM     95  F   UNL     1     -15.602   1.653 -17.751  1.00  0.00    -0.206 F 
ATOM     96  C   UNL     1     -16.866   3.086 -19.115  1.00  0.00     0.040 A 
ATOM     97  C   UNL     1     -15.842   4.156 -21.014  1.00  0.00     0.040 A 
ATOM     98  F   UNL     1     -13.588   3.747 -21.520  1.00  0.00    -0.206 F 
ATOM     99  C   UNL     1     -16.961   3.938 -20.213  1.00  0.00     0.006 A 
ENDBRANCH  75  92
ENDBRANCH  49  50
ENDBRANCH  41  44
ENDBRANCH  39  40
ENDBRANCH  38  39
ENDBRANCH  37  38
ENDBRANCH  36  37
ENDBRANCH  35  36
ENDBRANCH  34  35
ENDBRANCH   3  34
TORSDOF 23
