REMARK SMILES Cc1ccc(CNC(=O)NC[C@@H]2CC[C@@H](C(=O)NCCCCCCNC(=O)c3ccc(-c4c5nc(c(-c6c(F)cccc6F)c6ccc([nH]6)c(-c6c(F)cccc6F)c6nc(c(-c7c(F)cccc7F)c7ccc4[nH]7)C=C6)C=C5)cc3)O2)cn1
REMARK SMILES IDX 20 1 19 2 18 3 16 4 17 5 15 7 12 8 13 9 82 10 14 11 11 12
REMARK SMILES IDX 10 13 7 14 8 15 9 17 6 19 5 20 1 21 2 22 3 23 84 24 4 25
REMARK SMILES IDX 83 26 21 27 22 28 23 29 24 30 25 31 26 32 27 34 28 35 29 36
REMARK SMILES IDX 81 37 30 38 80 39 31 40 32 41 33 42 74 43 34 44 79 45 73 46
REMARK SMILES IDX 75 47 35 48 78 49 72 50 71 51 36 53 62 54 45 55 61 56 46 57
REMARK SMILES IDX 49 58 60 59 76 60 47 61 48 62 59 64 77 65 50 66 37 67 38 68
REMARK SMILES IDX 43 69 39 70 40 71 42 72 44 73 41 74 63 75 64 76 69 77 65 78
REMARK SMILES IDX 66 79 68 80 70 81 67 82 51 83 52 84 57 85 53 86 54 87 56 88
REMARK SMILES IDX 58 89 55 90
REMARK H PARENT 18 6 7 16 10 18 25 33 75 52 49 63
REMARK Flexibility Score: inf
ROOT
ATOM      1  C   UNL     1      -7.634   5.333  -3.886  1.00  0.00     0.021 C 
ENDROOT
BRANCH   1   2
ATOM      2  C   UNL     1      -7.783   3.835  -3.640  1.00  0.00     0.116 C 
BRANCH   2   3
ATOM      3  N   UNL     1      -7.910   3.087  -4.875  1.00  0.00    -0.354 N 
ATOM      4  C   UNL     1      -7.096   2.167  -5.462  1.00  0.00     0.249 C 
ATOM      5  O   UNL     1      -7.463   1.701  -6.547  1.00  0.00    -0.272 OA
ATOM      6  H   UNL     1      -8.732   3.280  -5.381  1.00  0.00     0.163 HD
BRANCH   4   7
ATOM      7  C   UNL     1      -5.809   1.637  -4.792  1.00  0.00     0.207 C 
ATOM      8  C   UNL     1      -5.196   1.660  -2.547  1.00  0.00     0.138 C 
ATOM      9  C   UNL     1      -5.122   0.220  -3.001  1.00  0.00     0.037 C 
ATOM     10  O   UNL     1      -5.192   2.421  -3.772  1.00  0.00    -0.363 OA
ATOM     11  C   UNL     1      -6.055   0.252  -4.192  1.00  0.00     0.045 C 
BRANCH   8  12
ATOM     12  C   UNL     1      -4.080   2.160  -1.629  1.00  0.00     0.149 C 
BRANCH  12  13
ATOM     13  N   UNL     1      -4.590   2.482  -0.302  1.00  0.00    -0.336 N 
ATOM     14  N   UNL     1      -3.797   0.841   1.195  1.00  0.00    -0.334 N 
ATOM     15  C   UNL     1      -4.446   1.974   0.924  1.00  0.00     0.315 C 
ATOM     16  H   UNL     1      -3.655   0.700   2.159  1.00  0.00     0.165 HD
ATOM     17  O   UNL     1      -4.940   2.599   1.864  1.00  0.00    -0.249 OA
ATOM     18  H   UNL     1      -5.186   3.265  -0.313  1.00  0.00     0.165 HD
BRANCH  14  19
ATOM     19  C   UNL     1      -3.258  -0.223   0.383  1.00  0.00     0.155 C 
BRANCH  19  20
ATOM     20  C   UNL     1      -1.760  -0.201   0.275  1.00  0.00    -0.010 A 
ATOM     21  C   UNL     1       2.487  -0.059  -0.071  1.00  0.00     0.066 C 
ATOM     22  C   UNL     1       0.994  -0.143   0.028  1.00  0.00     0.037 A 
ATOM     23  C   UNL     1       0.343  -1.371   0.038  1.00  0.00     0.024 A 
ATOM     24  N   UNL     1       0.325   1.030   0.110  1.00  0.00    -0.261 NA
ATOM     25  C   UNL     1      -1.045  -1.395   0.155  1.00  0.00     0.009 A 
ATOM     26  C   UNL     1      -1.022   0.976   0.232  1.00  0.00     0.116 A 
ENDBRANCH  19  20
ENDBRANCH  14  19
ENDBRANCH  12  13
ENDBRANCH   8  12
ENDBRANCH   4   7
ENDBRANCH   2   3
ENDBRANCH   1   2
BRANCH   1  27
ATOM     27  C   UNL     1      -8.912   6.020  -4.373  1.00  0.00     0.002 C 
BRANCH  27  28
ATOM     28  C   UNL     1     -10.140   5.827  -3.475  1.00  0.00     0.002 C 
BRANCH  28  29
ATOM     29  C   UNL     1      -9.944   6.201  -2.003  1.00  0.00     0.021 C 
BRANCH  29  30
ATOM     30  C   UNL     1      -9.510   7.642  -1.757  1.00  0.00     0.116 C 
BRANCH  30  31
ATOM     31  N   UNL     1     -10.484   8.600  -2.252  1.00  0.00    -0.352 N 
ATOM     32  C   UNL     1     -11.091   9.649  -1.611  1.00  0.00     0.251 C 
ATOM     33  H   UNL     1     -10.748   8.477  -3.192  1.00  0.00     0.163 HD
ATOM     34  O   UNL     1     -12.031  10.228  -2.145  1.00  0.00    -0.269 OA
BRANCH  32  35
ATOM     35  C   UNL     1     -10.630  10.080  -0.273  1.00  0.00     0.039 A 
ATOM     36  C   UNL     1     -11.587  10.433   0.682  1.00  0.00     0.014 A 
ATOM     37  C   UNL     1      -9.269  10.182   0.032  1.00  0.00     0.014 A 
ATOM     38  C   UNL     1     -11.182  10.847   1.953  1.00  0.00     0.010 A 
ATOM     39  C   UNL     1      -8.868  10.528   1.321  1.00  0.00     0.010 A 
ATOM     40  C   UNL     1      -9.820  10.876   2.290  1.00  0.00    -0.014 A 
BRANCH  40  41
ATOM     41  C   UNL     1      -9.381  11.281   3.650  1.00  0.00     0.031 A 
ATOM     42  C   UNL     1      -8.575  12.536   3.845  1.00  0.00     0.074 A 
ATOM     43  C   UNL     1      -9.673  10.497   4.705  1.00  0.00     0.049 A 
ATOM     44  N   UNL     1      -8.083  13.039   4.949  1.00  0.00    -0.248 NA
ATOM     45  C   UNL     1      -8.261  13.318   2.639  1.00  0.00     0.031 C 
ATOM     46  C   UNL     1     -10.407   9.232   4.641  1.00  0.00     0.029 A 
ATOM     47  N   UNL     1      -9.385  10.646   6.038  1.00  0.00    -0.354 N 
ATOM     48  C   UNL     1      -7.393  14.184   4.569  1.00  0.00     0.074 A 
ATOM     49  C   UNL     1      -7.486  14.274   3.128  1.00  0.00     0.031 C 
ATOM     50  C   UNL     1     -10.535   8.735   5.881  1.00  0.00     0.029 A 
ATOM     51  C   UNL     1      -9.865   9.627   6.823  1.00  0.00     0.049 A 
ATOM     52  H   UNL     1      -8.881  11.412   6.398  1.00  0.00     0.167 HD
ATOM     53  C   UNL     1      -6.759  15.089   5.351  1.00  0.00     0.037 A 
ATOM     54  C   UNL     1      -9.775   9.432   8.152  1.00  0.00     0.037 A 
ATOM     55  C   UNL     1      -6.690  15.012   6.787  1.00  0.00     0.049 A 
ATOM     56  C   UNL     1      -9.064  10.452   8.998  1.00  0.00     0.074 A 
ATOM     57  C   UNL     1      -6.128  15.914   7.673  1.00  0.00     0.029 A 
ATOM     58  N   UNL     1      -7.198  13.969   7.546  1.00  0.00    -0.354 N 
ATOM     59  N   UNL     1      -8.482  11.569   8.633  1.00  0.00    -0.248 NA
ATOM     60  C   UNL     1      -9.003  10.187  10.442  1.00  0.00     0.031 C 
ATOM     61  C   UNL     1      -6.258  15.396   8.966  1.00  0.00     0.029 A 
ATOM     62  C   UNL     1      -6.942  14.194   8.889  1.00  0.00     0.049 A 
ATOM     63  H   UNL     1      -7.670  13.184   7.185  1.00  0.00     0.167 HD
ATOM     64  C   UNL     1      -8.013  12.153   9.802  1.00  0.00     0.074 A 
ATOM     65  C   UNL     1      -8.389  11.273  10.890  1.00  0.00     0.031 C 
ATOM     66  C   UNL     1      -7.332  13.314   9.961  1.00  0.00     0.037 A 
BRANCH  53  67
ATOM     67  C   UNL     1      -6.091  16.248   4.669  1.00  0.00     0.057 A 
ATOM     68  C   UNL     1      -6.829  17.274   4.063  1.00  0.00     0.134 A 
ATOM     69  C   UNL     1      -4.695  16.360   4.649  1.00  0.00     0.134 A 
ATOM     70  F   UNL     1      -8.169  17.223   4.037  1.00  0.00    -0.206 F 
ATOM     71  C   UNL     1      -6.202  18.354   3.439  1.00  0.00     0.040 A 
ATOM     72  C   UNL     1      -4.058  17.449   4.053  1.00  0.00     0.040 A 
ATOM     73  F   UNL     1      -3.928  15.417   5.217  1.00  0.00    -0.206 F 
ATOM     74  C   UNL     1      -4.812  18.447   3.439  1.00  0.00     0.006 A 
ENDBRANCH  53  67
BRANCH  54  75
ATOM     75  C   UNL     1     -10.400   8.238   8.773  1.00  0.00     0.057 A 
ATOM     76  C   UNL     1     -11.532   8.358   9.588  1.00  0.00     0.134 A 
ATOM     77  C   UNL     1      -9.881   6.953   8.577  1.00  0.00     0.134 A 
ATOM     78  F   UNL     1     -12.065   9.566   9.829  1.00  0.00    -0.206 F 
ATOM     79  C   UNL     1     -12.113   7.248  10.203  1.00  0.00     0.040 A 
ATOM     80  C   UNL     1     -10.466   5.831   9.165  1.00  0.00     0.040 A 
ATOM     81  F   UNL     1      -8.802   6.770   7.801  1.00  0.00    -0.206 F 
ATOM     82  C   UNL     1     -11.581   5.978   9.987  1.00  0.00     0.006 A 
ENDBRANCH  54  75
BRANCH  66  83
ATOM     83  C   UNL     1      -6.983  13.719  11.363  1.00  0.00     0.057 A 
ATOM     84  C   UNL     1      -5.985  13.064  12.095  1.00  0.00     0.134 A 
ATOM     85  C   UNL     1      -7.628  14.802  11.973  1.00  0.00     0.134 A 
ATOM     86  F   UNL     1      -5.338  12.010  11.573  1.00  0.00    -0.206 F 
ATOM     87  C   UNL     1      -5.656  13.459  13.393  1.00  0.00     0.040 A 
ATOM     88  C   UNL     1      -7.290  15.223  13.259  1.00  0.00     0.040 A 
ATOM     89  F   UNL     1      -8.588  15.478  11.322  1.00  0.00    -0.206 F 
ATOM     90  C   UNL     1      -6.305  14.546  13.976  1.00  0.00     0.006 A 
ENDBRANCH  66  83
ENDBRANCH  40  41
ENDBRANCH  32  35
ENDBRANCH  30  31
ENDBRANCH  29  30
ENDBRANCH  28  29
ENDBRANCH  27  28
ENDBRANCH   1  27
TORSDOF 17
