REMARK SMILES CC(=O)Nc1cccc(-c2cc(F)ccc2C(=O)NCCCCCCNC(=O)c2ccc(-c3c4nc(c(-c5c(F)cccc5F)c5ccc([nH]5)c(-c5c(F)cccc5F)c5nc(c(-c6c(F)cccc6F)c6ccc3[nH]6)C=C5)C=C4)cc2)c1
REMARK SMILES IDX 22 1 21 2 20 3 19 4 17 5 18 6 16 8 10 9 11 10 12 11 15 12
REMARK SMILES IDX 13 13 14 14 9 15 5 16 6 17 83 18 7 19 8 20 4 21 1 22 2 23
REMARK SMILES IDX 3 24 23 26 24 27 25 28 26 29 27 30 28 32 29 33 30 34 82 35
REMARK SMILES IDX 31 36 81 37 32 38 33 39 34 40 75 41 35 42 80 43 74 44 76 45
REMARK SMILES IDX 36 46 79 47 73 48 72 49 37 51 63 52 46 53 62 54 47 55 50 56
REMARK SMILES IDX 61 57 77 58 48 59 49 60 60 62 78 63 51 64 38 65 39 66 44 67
REMARK SMILES IDX 40 68 41 69 43 70 45 71 42 72 64 73 65 74 70 75 66 76 67 77
REMARK SMILES IDX 69 78 71 79 68 80 52 81 53 82 58 83 54 84 55 85 57 86 59 87
REMARK SMILES IDX 56 88
REMARK H PARENT 19 7 4 25 26 31 76 50 50 61
REMARK Flexibility Score: inf
ROOT
ATOM      1  C   UNL     1       2.545  -0.873  -5.757  1.00  0.00     0.002 C 
ENDROOT
BRANCH   1   2
ATOM      2  C   UNL     1       3.392   0.363  -5.428  1.00  0.00     0.021 C 
BRANCH   2   3
ATOM      3  C   UNL     1       3.707   0.663  -3.965  1.00  0.00     0.116 C 
BRANCH   3   4
ATOM      4  N   UNL     1       4.579  -0.261  -3.289  1.00  0.00    -0.352 N 
ATOM      5  C   UNL     1       5.400  -0.113  -2.196  1.00  0.00     0.251 C 
ATOM      6  O   UNL     1       5.907  -1.155  -1.765  1.00  0.00    -0.269 OA
ATOM      7  H   UNL     1       4.590  -1.164  -3.681  1.00  0.00     0.163 HD
BRANCH   5   8
ATOM      8  C   UNL     1       5.803   1.174  -1.522  1.00  0.00     0.047 A 
ATOM      9  C   UNL     1       5.020   2.308  -1.188  1.00  0.00    -0.003 A 
ATOM     10  C   UNL     1       5.632   3.355  -0.446  1.00  0.00     0.048 A 
ATOM     11  C   UNL     1       6.957   3.292  -0.039  1.00  0.00     0.123 A 
ATOM     12  C   UNL     1       7.157   1.151  -1.083  1.00  0.00     0.017 A 
ATOM     13  F   UNL     1       7.480   4.299   0.672  1.00  0.00    -0.207 F 
ATOM     14  C   UNL     1       7.730   2.194  -0.352  1.00  0.00     0.040 A 
BRANCH   9  15
ATOM     15  C   UNL     1       3.601   2.518  -1.511  1.00  0.00    -0.015 A 
ATOM     16  C   UNL     1       1.267   1.825  -1.431  1.00  0.00     0.041 A 
ATOM     17  C   UNL     1       0.935   2.897  -2.273  1.00  0.00     0.026 A 
ATOM     18  C   UNL     1       2.598   1.658  -1.034  1.00  0.00     0.034 A 
ATOM     19  C   UNL     1       1.907   3.793  -2.709  1.00  0.00     0.003 A 
ATOM     20  C   UNL     1       3.230   3.606  -2.326  1.00  0.00     0.009 A 
BRANCH  16  21
ATOM     21  N   UNL     1       0.240   0.907  -1.163  1.00  0.00    -0.326 N 
ATOM     22  C   UNL     1       1.050  -0.254   0.890  1.00  0.00     0.114 C 
ATOM     23  C   UNL     1       0.127  -0.131  -0.288  1.00  0.00     0.221 C 
ATOM     24  O   UNL     1      -0.789  -0.940  -0.457  1.00  0.00    -0.275 OA
ATOM     25  H   UNL     1      -0.561   1.039  -1.720  1.00  0.00     0.169 HD
ENDBRANCH  16  21
ENDBRANCH   9  15
ENDBRANCH   5   8
ENDBRANCH   3   4
ENDBRANCH   2   3
ENDBRANCH   1   2
BRANCH   1  26
ATOM     26  C   UNL     1       1.221  -1.104  -5.016  1.00  0.00     0.002 C 
BRANCH  26  27
ATOM     27  C   UNL     1       0.265   0.075  -4.828  1.00  0.00     0.021 C 
BRANCH  27  28
ATOM     28  C   UNL     1      -0.177   0.846  -6.068  1.00  0.00     0.116 C 
BRANCH  28  29
ATOM     29  N   UNL     1      -1.050   0.085  -6.940  1.00  0.00    -0.352 N 
ATOM     30  C   UNL     1      -2.323   0.334  -7.395  1.00  0.00     0.251 C 
ATOM     31  H   UNL     1      -0.662  -0.759  -7.265  1.00  0.00     0.163 HD
ATOM     32  O   UNL     1      -2.889  -0.531  -8.062  1.00  0.00    -0.269 OA
BRANCH  30  33
ATOM     33  C   UNL     1      -3.053   1.597  -7.098  1.00  0.00     0.039 A 
ATOM     34  C   UNL     1      -4.435   1.517  -6.875  1.00  0.00     0.014 A 
ATOM     35  C   UNL     1      -2.444   2.854  -7.123  1.00  0.00     0.014 A 
ATOM     36  C   UNL     1      -5.188   2.674  -6.640  1.00  0.00     0.010 A 
ATOM     37  C   UNL     1      -3.187   4.007  -6.831  1.00  0.00     0.010 A 
ATOM     38  C   UNL     1      -4.569   3.932  -6.595  1.00  0.00    -0.014 A 
BRANCH  38  39
ATOM     39  C   UNL     1      -5.359   5.166  -6.326  1.00  0.00     0.031 A 
ATOM     40  C   UNL     1      -5.529   6.216  -7.394  1.00  0.00     0.074 A 
ATOM     41  C   UNL     1      -5.902   5.369  -5.109  1.00  0.00     0.049 A 
ATOM     42  N   UNL     1      -6.133   7.377  -7.325  1.00  0.00    -0.248 NA
ATOM     43  C   UNL     1      -4.928   5.931  -8.706  1.00  0.00     0.031 C 
ATOM     44  C   UNL     1      -5.799   4.453  -3.972  1.00  0.00     0.029 A 
ATOM     45  N   UNL     1      -6.644   6.419  -4.623  1.00  0.00    -0.354 N 
ATOM     46  C   UNL     1      -5.968   7.968  -8.572  1.00  0.00     0.074 A 
ATOM     47  C   UNL     1      -5.180   7.051  -9.369  1.00  0.00     0.031 C 
ATOM     48  C   UNL     1      -6.461   4.975  -2.926  1.00  0.00     0.029 A 
ATOM     49  C   UNL     1      -7.011   6.273  -3.306  1.00  0.00     0.049 A 
ATOM     50  H   UNL     1      -6.889   7.202  -5.166  1.00  0.00     0.167 HD
ATOM     51  C   UNL     1      -6.442   9.155  -9.020  1.00  0.00     0.037 A 
ATOM     52  C   UNL     1      -7.706   7.092  -2.494  1.00  0.00     0.037 A 
ATOM     53  C   UNL     1      -7.263  10.054  -8.252  1.00  0.00     0.049 A 
ATOM     54  C   UNL     1      -8.227   8.402  -3.019  1.00  0.00     0.074 A 
ATOM     55  C   UNL     1      -7.842  11.247  -8.652  1.00  0.00     0.029 A 
ATOM     56  N   UNL     1      -7.627   9.858  -6.930  1.00  0.00    -0.354 N 
ATOM     57  N   UNL     1      -8.105   8.918  -4.217  1.00  0.00    -0.248 NA
ATOM     58  C   UNL     1      -8.986   9.240  -2.079  1.00  0.00     0.031 C 
ATOM     59  C   UNL     1      -8.530  11.790  -7.561  1.00  0.00     0.029 A 
ATOM     60  C   UNL     1      -8.407  10.917  -6.494  1.00  0.00     0.049 A 
ATOM     61  H   UNL     1      -7.369   9.082  -6.381  1.00  0.00     0.167 HD
ATOM     62  C   UNL     1      -8.793  10.124  -4.182  1.00  0.00     0.074 A 
ATOM     63  C   UNL     1      -9.339  10.260  -2.849  1.00  0.00     0.031 C 
ATOM     64  C   UNL     1      -8.956  11.038  -5.169  1.00  0.00     0.037 A 
BRANCH  51  65
ATOM     65  C   UNL     1      -6.091   9.560 -10.421  1.00  0.00     0.057 A 
ATOM     66  C   UNL     1      -6.701   8.968 -11.534  1.00  0.00     0.134 A 
ATOM     67  C   UNL     1      -5.182  10.600 -10.658  1.00  0.00     0.134 A 
ATOM     68  F   UNL     1      -7.574   7.962 -11.374  1.00  0.00    -0.206 F 
ATOM     69  C   UNL     1      -6.409   9.384 -12.833  1.00  0.00     0.040 A 
ATOM     70  C   UNL     1      -4.898  11.040 -11.952  1.00  0.00     0.040 A 
ATOM     71  F   UNL     1      -4.570  11.215  -9.635  1.00  0.00    -0.206 F 
ATOM     72  C   UNL     1      -5.511  10.429 -13.044  1.00  0.00     0.006 A 
ENDBRANCH  51  65
BRANCH  52  73
ATOM     73  C   UNL     1      -7.967   6.699  -1.086  1.00  0.00     0.057 A 
ATOM     74  C   UNL     1      -9.252   6.339  -0.664  1.00  0.00     0.134 A 
ATOM     75  C   UNL     1      -6.947   6.702  -0.128  1.00  0.00     0.134 A 
ATOM     76  F   UNL     1     -10.273   6.342  -1.533  1.00  0.00    -0.206 F 
ATOM     77  C   UNL     1      -9.519   6.015   0.667  1.00  0.00     0.040 A 
ATOM     78  C   UNL     1      -7.196   6.359   1.202  1.00  0.00     0.040 A 
ATOM     79  F   UNL     1      -5.695   7.036  -0.472  1.00  0.00    -0.206 F 
ATOM     80  C   UNL     1      -8.487   6.022   1.604  1.00  0.00     0.006 A 
ENDBRANCH  52  73
BRANCH  64  81
ATOM     81  C   UNL     1      -9.784  12.248  -4.856  1.00  0.00     0.057 A 
ATOM     82  C   UNL     1      -9.293  13.290  -4.059  1.00  0.00     0.134 A 
ATOM     83  C   UNL     1     -11.073  12.388  -5.385  1.00  0.00     0.134 A 
ATOM     84  F   UNL     1      -8.071  13.209  -3.512  1.00  0.00    -0.206 F 
ATOM     85  C   UNL     1     -10.063  14.421  -3.785  1.00  0.00     0.040 A 
ATOM     86  C   UNL     1     -11.844  13.524  -5.135  1.00  0.00     0.040 A 
ATOM     87  F   UNL     1     -11.598  11.428  -6.162  1.00  0.00    -0.206 F 
ATOM     88  C   UNL     1     -11.341  14.543  -4.328  1.00  0.00     0.006 A 
ENDBRANCH  64  81
ENDBRANCH  38  39
ENDBRANCH  30  33
ENDBRANCH  28  29
ENDBRANCH  27  28
ENDBRANCH  26  27
ENDBRANCH   1  26
TORSDOF 15
