REMARK SMILES Cc1ccc(S(=O)(=O)N2CCC(C(=O)N3CCC[C@@H](C(=O)NCCCCCCNC(=O)c4ccc(-c5c6nc(c(-c7c(F)cccc7F)c7ccc([nH]7)c(-c7c(F)cccc7F)c7nc(c(-c8c(F)cccc8F)c8ccc5[nH]8)C=C7)C=C6)cc4)C3)CC2)cc1
REMARK SMILES IDX 24 1 23 2 22 3 20 4 21 5 19 7 15 8 16 9 86 10 17 11 18 12
REMARK SMILES IDX 13 13 14 14 12 15 9 16 10 17 88 18 11 19 87 20 6 21 7 22
REMARK SMILES IDX 8 23 5 24 1 25 2 26 3 27 90 28 4 29 89 30 25 31 26 32 27 33
REMARK SMILES IDX 28 34 29 35 30 36 31 38 32 39 33 40 85 41 34 42 84 43 35 44
REMARK SMILES IDX 36 45 37 46 78 47 38 48 83 49 77 50 79 51 39 52 82 53 76 54
REMARK SMILES IDX 75 55 40 57 66 58 49 59 65 60 50 61 53 62 64 63 80 64 51 65
REMARK SMILES IDX 52 66 63 68 81 69 54 70 41 71 42 72 47 73 43 74 44 75 46 76
REMARK SMILES IDX 48 77 45 78 67 79 68 80 73 81 69 82 70 83 72 84 74 85 71 86
REMARK SMILES IDX 55 87 56 88 61 89 57 90 58 91 60 92 62 93 59 94
REMARK H PARENT 22 6 29 37 79 56 53 67
REMARK Flexibility Score: inf
ROOT
ATOM      1  C   UNL     1     -11.508   3.955  -0.091  1.00  0.00     0.021 C 
ENDROOT
BRANCH   1   2
ATOM      2  C   UNL     1     -11.146   5.354   0.399  1.00  0.00     0.116 C 
BRANCH   2   3
ATOM      3  N   UNL     1     -10.308   5.354   1.574  1.00  0.00    -0.356 N 
ATOM      4  C   UNL     1      -9.120   5.939   1.856  1.00  0.00     0.224 C 
ATOM      5  O   UNL     1      -8.756   5.870   3.037  1.00  0.00    -0.275 OA
ATOM      6  H   UNL     1     -10.673   4.823   2.319  1.00  0.00     0.163 HD
BRANCH   4   7
ATOM      7  C   UNL     1      -8.161   6.533   0.827  1.00  0.00     0.098 C 
ATOM      8  N   UNL     1      -6.218   5.906  -0.589  1.00  0.00    -0.342 N 
ATOM      9  C   UNL     1      -6.721   6.694  -1.703  1.00  0.00     0.119 C 
ATOM     10  C   UNL     1      -7.208   5.420   0.374  1.00  0.00     0.133 C 
ATOM     11  C   UNL     1      -7.537   7.878  -1.207  1.00  0.00     0.022 C 
ATOM     12  C   UNL     1      -8.688   7.352  -0.351  1.00  0.00     0.017 C 
BRANCH   8  13
ATOM     13  C   UNL     1      -4.851   5.840  -0.411  1.00  0.00     0.225 C 
ATOM     14  O   UNL     1      -4.120   6.797  -0.683  1.00  0.00    -0.275 OA
BRANCH  13  15
ATOM     15  C   UNL     1      -4.223   4.470  -0.180  1.00  0.00     0.081 C 
ATOM     16  N   UNL     1      -3.921   1.615  -0.081  1.00  0.00    -0.198 NA
ATOM     17  C   UNL     1      -3.806   2.412   1.165  1.00  0.00     0.103 C 
ATOM     18  C   UNL     1      -3.690   2.316  -1.366  1.00  0.00     0.103 C 
ATOM     19  C   UNL     1      -4.637   3.681   1.051  1.00  0.00     0.030 C 
ATOM     20  C   UNL     1      -4.465   3.619  -1.430  1.00  0.00     0.030 C 
BRANCH  16  21
ATOM     21  S   UNL     1      -3.408  -0.008  -0.005  1.00  0.00     0.243 S 
ATOM     22  O   UNL     1      -3.793  -0.642  -1.245  1.00  0.00    -0.207 OA
ATOM     23  O   UNL     1      -3.832  -0.542   1.277  1.00  0.00    -0.207 OA
BRANCH  21  24
ATOM     24  C   UNL     1      -1.626  -0.001   0.021  1.00  0.00     0.082 A 
ATOM     25  C   UNL     1       2.671  -0.228  -0.004  1.00  0.00     0.044 C 
ATOM     26  C   UNL     1       1.175  -0.149   0.010  1.00  0.00    -0.051 A 
ATOM     27  C   UNL     1       0.404  -1.318  -0.008  1.00  0.00     0.005 A 
ATOM     28  C   UNL     1       0.533   1.091   0.038  1.00  0.00     0.005 A 
ATOM     29  C   UNL     1      -0.991  -1.247  -0.004  1.00  0.00     0.022 A 
ATOM     30  C   UNL     1      -0.859   1.165   0.044  1.00  0.00     0.022 A 
ENDBRANCH  21  24
ENDBRANCH  16  21
ENDBRANCH  13  15
ENDBRANCH   8  13
ENDBRANCH   4   7
ENDBRANCH   2   3
ENDBRANCH   1   2
BRANCH   1  31
ATOM     31  C   UNL     1     -12.707   3.308   0.610  1.00  0.00     0.002 C 
BRANCH  31  32
ATOM     32  C   UNL     1     -13.958   4.188   0.781  1.00  0.00     0.002 C 
BRANCH  32  33
ATOM     33  C   UNL     1     -14.396   4.988  -0.447  1.00  0.00     0.021 C 
BRANCH  33  34
ATOM     34  C   UNL     1     -15.055   4.152  -1.529  1.00  0.00     0.116 C 
BRANCH  34  35
ATOM     35  N   UNL     1     -16.514   4.122  -1.438  1.00  0.00    -0.352 N 
ATOM     36  C   UNL     1     -17.445   3.544  -2.286  1.00  0.00     0.251 C 
ATOM     37  H   UNL     1     -16.893   4.583  -0.655  1.00  0.00     0.163 HD
ATOM     38  O   UNL     1     -18.641   3.606  -2.025  1.00  0.00    -0.269 OA
BRANCH  36  39
ATOM     39  C   UNL     1     -16.974   2.689  -3.401  1.00  0.00     0.039 A 
ATOM     40  C   UNL     1     -17.471   1.381  -3.426  1.00  0.00     0.014 A 
ATOM     41  C   UNL     1     -15.795   3.012  -4.058  1.00  0.00     0.014 A 
ATOM     42  C   UNL     1     -16.608   0.350  -3.762  1.00  0.00     0.010 A 
ATOM     43  C   UNL     1     -14.890   1.999  -4.251  1.00  0.00     0.010 A 
ATOM     44  C   UNL     1     -15.281   0.678  -4.014  1.00  0.00    -0.014 A 
BRANCH  44  45
ATOM     45  C   UNL     1     -14.221  -0.299  -4.143  1.00  0.00     0.031 A 
ATOM     46  C   UNL     1     -13.943  -0.778  -5.502  1.00  0.00     0.074 A 
ATOM     47  C   UNL     1     -13.483  -0.635  -3.063  1.00  0.00     0.049 A 
ATOM     48  N   UNL     1     -13.343  -1.874  -5.785  1.00  0.00    -0.248 NA
ATOM     49  C   UNL     1     -14.413  -0.056  -6.681  1.00  0.00     0.031 C 
ATOM     50  C   UNL     1     -12.228  -1.376  -3.018  1.00  0.00     0.029 A 
ATOM     51  N   UNL     1     -13.852  -0.510  -1.721  1.00  0.00    -0.354 N 
ATOM     52  C   UNL     1     -13.093  -1.873  -7.140  1.00  0.00     0.074 A 
ATOM     53  C   UNL     1     -13.867  -0.777  -7.660  1.00  0.00     0.031 C 
ATOM     54  C   UNL     1     -12.063  -1.883  -1.783  1.00  0.00     0.029 A 
ATOM     55  C   UNL     1     -13.277  -1.603  -1.034  1.00  0.00     0.049 A 
ATOM     56  H   UNL     1     -14.408   0.202  -1.329  1.00  0.00     0.167 HD
ATOM     57  C   UNL     1     -12.135  -2.720  -7.612  1.00  0.00     0.037 A 
ATOM     58  C   UNL     1     -14.077  -2.550  -0.454  1.00  0.00     0.037 A 
ATOM     59  C   UNL     1     -11.720  -3.630  -6.538  1.00  0.00     0.049 A 
ATOM     60  C   UNL     1     -13.968  -3.881  -1.159  1.00  0.00     0.074 A 
ATOM     61  C   UNL     1     -10.685  -3.562  -5.619  1.00  0.00     0.029 A 
ATOM     62  N   UNL     1     -12.643  -4.539  -6.021  1.00  0.00    -0.354 N 
ATOM     63  N   UNL     1     -13.532  -4.019  -2.382  1.00  0.00    -0.248 NA
ATOM     64  C   UNL     1     -14.323  -5.153  -0.538  1.00  0.00     0.031 C 
ATOM     65  C   UNL     1     -11.061  -4.331  -4.485  1.00  0.00     0.029 A 
ATOM     66  C   UNL     1     -12.298  -4.907  -4.731  1.00  0.00     0.049 A 
ATOM     67  H   UNL     1     -13.432  -4.874  -6.506  1.00  0.00     0.167 HD
ATOM     68  C   UNL     1     -13.538  -5.343  -2.719  1.00  0.00     0.074 A 
ATOM     69  C   UNL     1     -14.030  -6.014  -1.527  1.00  0.00     0.031 C 
ATOM     70  C   UNL     1     -13.143  -5.799  -3.945  1.00  0.00     0.037 A 
BRANCH  57  71
ATOM     71  C   UNL     1     -11.364  -2.513  -8.904  1.00  0.00     0.057 A 
ATOM     72  C   UNL     1     -10.078  -3.070  -9.052  1.00  0.00     0.134 A 
ATOM     73  C   UNL     1     -11.766  -1.723  -9.998  1.00  0.00     0.134 A 
ATOM     74  F   UNL     1      -9.564  -3.905  -8.138  1.00  0.00    -0.206 F 
ATOM     75  C   UNL     1      -9.239  -2.795 -10.144  1.00  0.00     0.040 A 
ATOM     76  C   UNL     1     -10.927  -1.411 -11.080  1.00  0.00     0.040 A 
ATOM     77  F   UNL     1     -13.005  -1.244 -10.119  1.00  0.00    -0.206 F 
ATOM     78  C   UNL     1      -9.652  -1.940 -11.152  1.00  0.00     0.006 A 
ENDBRANCH  57  71
BRANCH  58  79
ATOM     79  C   UNL     1     -15.335  -1.950   0.087  1.00  0.00     0.057 A 
ATOM     80  C   UNL     1     -15.171  -0.912   1.027  1.00  0.00     0.134 A 
ATOM     81  C   UNL     1     -16.503  -1.940  -0.678  1.00  0.00     0.134 A 
ATOM     82  F   UNL     1     -14.106  -0.907   1.845  1.00  0.00    -0.206 F 
ATOM     83  C   UNL     1     -15.962   0.236   0.983  1.00  0.00     0.040 A 
ATOM     84  C   UNL     1     -17.335  -0.816  -0.686  1.00  0.00     0.040 A 
ATOM     85  F   UNL     1     -16.774  -2.935  -1.534  1.00  0.00    -0.206 F 
ATOM     86  C   UNL     1     -17.012   0.309   0.075  1.00  0.00     0.006 A 
ENDBRANCH  58  79
BRANCH  70  87
ATOM     87  C   UNL     1     -13.427  -7.191  -4.436  1.00  0.00     0.057 A 
ATOM     88  C   UNL     1     -14.545  -7.941  -4.037  1.00  0.00     0.134 A 
ATOM     89  C   UNL     1     -12.627  -7.786  -5.432  1.00  0.00     0.134 A 
ATOM     90  F   UNL     1     -15.479  -7.432  -3.221  1.00  0.00    -0.206 F 
ATOM     91  C   UNL     1     -14.780  -9.240  -4.498  1.00  0.00     0.040 A 
ATOM     92  C   UNL     1     -12.892  -9.054  -5.952  1.00  0.00     0.040 A 
ATOM     93  F   UNL     1     -11.570  -7.152  -5.960  1.00  0.00    -0.206 F 
ATOM     94  C   UNL     1     -13.951  -9.801  -5.460  1.00  0.00     0.006 A 
ENDBRANCH  70  87
ENDBRANCH  44  45
ENDBRANCH  36  39
ENDBRANCH  34  35
ENDBRANCH  33  34
ENDBRANCH  32  33
ENDBRANCH  31  32
ENDBRANCH   1  31
TORSDOF 17
