REMARK SMILES NS(=O)(=O)c1ccc(/N=N/c2ccc(O)c(C(=O)NCCCCCCNC(=O)c3ccc(-c4c5nc(c(-c6c(F)cccc6F)c6ccc([nH]6)c(-c6c(F)cccc6F)c6nc(c(-c7c(F)cccc7F)c7ccc4[nH]7)C=C6)C=C5)cc3)c2)cc1
REMARK SMILES IDX 21 1 20 2 19 3 17 4 18 5 16 7 11 8 12 9 83 10 13 11 14 12
REMARK SMILES IDX 10 13 9 14 8 15 5 16 6 17 85 18 7 19 84 20 2 21 3 22 4 23
REMARK SMILES IDX 1 24 15 27 22 29 23 30 24 31 25 32 26 33 27 34 28 36 29 37
REMARK SMILES IDX 30 38 82 39 31 40 81 41 32 42 33 43 34 44 75 45 35 46 80 47
REMARK SMILES IDX 74 48 76 49 36 50 79 51 73 52 72 53 37 55 63 56 46 57 62 58
REMARK SMILES IDX 47 59 50 60 61 61 77 62 48 63 49 64 60 66 78 67 51 68 38 69
REMARK SMILES IDX 39 70 44 71 40 72 41 73 43 74 45 75 42 76 64 77 65 78 70 79
REMARK SMILES IDX 66 80 67 81 69 82 71 83 68 84 52 85 53 86 58 87 54 88 55 89
REMARK SMILES IDX 57 90 59 91 56 92
REMARK H PARENT 19 6 1 25 1 26 15 28 26 35 76 54 50 65
REMARK Flexibility Score: inf
ROOT
ATOM      1  C   UNL     1       5.719  -8.005   1.737  1.00  0.00     0.021 C 
ENDROOT
BRANCH   1   2
ATOM      2  C   UNL     1       4.522  -8.337   2.622  1.00  0.00     0.116 C 
BRANCH   2   3
ATOM      3  N   UNL     1       4.661  -9.570   3.380  1.00  0.00    -0.352 N 
ATOM      4  C   UNL     1       4.324  -9.861   4.683  1.00  0.00     0.255 C 
ATOM      5  O   UNL     1       4.620 -10.963   5.149  1.00  0.00    -0.269 OA
ATOM      6  H   UNL     1       5.061 -10.318   2.881  1.00  0.00     0.163 HD
BRANCH   4   7
ATOM      7  C   UNL     1       3.687  -8.869   5.587  1.00  0.00     0.083 A 
ATOM      8  C   UNL     1       2.395  -6.826   5.909  1.00  0.00     0.087 A 
ATOM      9  C   UNL     1       2.758  -6.824   7.260  1.00  0.00     0.034 A 
ATOM     10  C   UNL     1       2.789  -7.911   5.112  1.00  0.00     0.048 A 
ATOM     11  C   UNL     1       3.539  -7.857   7.787  1.00  0.00     0.049 A 
ATOM     12  C   UNL     1       4.012  -8.865   6.949  1.00  0.00     0.128 A 
BRANCH   8  13
ATOM     13  N   UNL     1       1.708  -5.710   5.372  1.00  0.00    -0.151 NA
ATOM     14  N   UNL     1       2.155  -5.446   4.231  1.00  0.00    -0.151 NA
BRANCH  14  15
ATOM     15  C   UNL     1       1.672  -4.232   3.720  1.00  0.00     0.086 A 
ATOM     16  C   UNL     1       0.954  -1.811   2.508  1.00  0.00     0.082 A 
ATOM     17  C   UNL     1       0.639  -3.019   1.880  1.00  0.00     0.024 A 
ATOM     18  C   UNL     1       1.613  -1.799   3.739  1.00  0.00     0.024 A 
ATOM     19  C   UNL     1       1.007  -4.224   2.487  1.00  0.00     0.031 A 
ATOM     20  C   UNL     1       1.973  -3.010   4.338  1.00  0.00     0.031 A 
BRANCH  16  21
ATOM     21  S   UNL     1       0.511  -0.285   1.728  1.00  0.00     0.238 S 
ATOM     22  O   UNL     1       1.145   0.805   2.429  1.00  0.00    -0.207 OA
ATOM     23  O   UNL     1      -0.905  -0.315   1.443  1.00  0.00    -0.207 OA
BRANCH  21  24
ATOM     24  N   UNL     1       1.302  -0.386   0.249  1.00  0.00    -0.225 NA
ATOM     25  H   UNL     1       1.114   0.457  -0.295  1.00  0.00     0.137 HD
ATOM     26  H   UNL     1       0.965  -1.202  -0.262  1.00  0.00     0.137 HD
ENDBRANCH  21  24
ENDBRANCH  16  21
ENDBRANCH  14  15
ENDBRANCH   8  13
BRANCH  12  27
ATOM     27  O   UNL     1       4.803  -9.820   7.530  1.00  0.00    -0.507 OA
ATOM     28  H   UNL     1       4.993  -9.777   8.447  1.00  0.00     0.293 HD
ENDBRANCH  12  27
ENDBRANCH   4   7
ENDBRANCH   2   3
ENDBRANCH   1   2
BRANCH   1  29
ATOM     29  C   UNL     1       6.034  -8.987   0.609  1.00  0.00     0.002 C 
BRANCH  29  30
ATOM     30  C   UNL     1       4.885  -9.338  -0.339  1.00  0.00     0.002 C 
BRANCH  30  31
ATOM     31  C   UNL     1       4.122  -8.165  -0.958  1.00  0.00     0.021 C 
BRANCH  31  32
ATOM     32  C   UNL     1       4.967  -7.116  -1.676  1.00  0.00     0.116 C 
BRANCH  32  33
ATOM     33  N   UNL     1       5.706  -7.655  -2.804  1.00  0.00    -0.352 N 
ATOM     34  C   UNL     1       5.755  -7.230  -4.109  1.00  0.00     0.251 C 
ATOM     35  H   UNL     1       6.257  -8.446  -2.602  1.00  0.00     0.163 HD
ATOM     36  O   UNL     1       6.345  -7.902  -4.950  1.00  0.00    -0.269 OA
BRANCH  34  37
ATOM     37  C   UNL     1       5.074  -5.981  -4.520  1.00  0.00     0.039 A 
ATOM     38  C   UNL     1       4.320  -5.987  -5.697  1.00  0.00     0.014 A 
ATOM     39  C   UNL     1       5.184  -4.807  -3.769  1.00  0.00     0.014 A 
ATOM     40  C   UNL     1       3.620  -4.841  -6.082  1.00  0.00     0.010 A 
ATOM     41  C   UNL     1       4.434  -3.685  -4.118  1.00  0.00     0.010 A 
ATOM     42  C   UNL     1       3.639  -3.693  -5.275  1.00  0.00    -0.014 A 
BRANCH  42  43
ATOM     43  C   UNL     1       2.812  -2.505  -5.613  1.00  0.00     0.031 A 
ATOM     44  C   UNL     1       3.461  -1.196  -5.964  1.00  0.00     0.074 A 
ATOM     45  C   UNL     1       1.469  -2.592  -5.540  1.00  0.00     0.049 A 
ATOM     46  N   UNL     1       2.902  -0.041  -6.223  1.00  0.00    -0.248 NA
ATOM     47  C   UNL     1       4.931  -1.175  -6.005  1.00  0.00     0.031 C 
ATOM     48  C   UNL     1       0.718  -3.792  -5.168  1.00  0.00     0.029 A 
ATOM     49  N   UNL     1       0.497  -1.649  -5.767  1.00  0.00    -0.354 N 
ATOM     50  C   UNL     1       3.949   0.844  -6.450  1.00  0.00     0.074 A 
ATOM     51  C   UNL     1       5.176   0.105  -6.247  1.00  0.00     0.031 C 
ATOM     52  C   UNL     1      -0.596  -3.521  -5.213  1.00  0.00     0.029 A 
ATOM     53  C   UNL     1      -0.780  -2.120  -5.580  1.00  0.00     0.049 A 
ATOM     54  H   UNL     1       0.696  -0.724  -6.038  1.00  0.00     0.167 HD
ATOM     55  C   UNL     1       3.892   2.148  -6.814  1.00  0.00     0.037 A 
ATOM     56  C   UNL     1      -1.967  -1.493  -5.685  1.00  0.00     0.037 A 
ATOM     57  C   UNL     1       2.670   2.876  -7.039  1.00  0.00     0.049 A 
ATOM     58  C   UNL     1      -2.003  -0.044  -6.080  1.00  0.00     0.074 A 
ATOM     59  C   UNL     1       2.512   4.183  -7.469  1.00  0.00     0.029 A 
ATOM     60  N   UNL     1       1.396   2.362  -6.850  1.00  0.00    -0.354 N 
ATOM     61  N   UNL     1      -1.005   0.762  -6.351  1.00  0.00    -0.248 NA
ATOM     62  C   UNL     1      -3.328   0.582  -6.186  1.00  0.00     0.031 C 
ATOM     63  C   UNL     1       1.144   4.473  -7.494  1.00  0.00     0.029 A 
ATOM     64  C   UNL     1       0.448   3.333  -7.126  1.00  0.00     0.049 A 
ATOM     65  H   UNL     1       1.196   1.442  -6.562  1.00  0.00     0.167 HD
ATOM     66  C   UNL     1      -1.582   1.981  -6.684  1.00  0.00     0.074 A 
ATOM     67  C   UNL     1      -3.016   1.804  -6.594  1.00  0.00     0.031 C 
ATOM     68  C   UNL     1      -0.977   3.143  -7.031  1.00  0.00     0.037 A 
BRANCH  55  69
ATOM     69  C   UNL     1       5.193   2.875  -6.994  1.00  0.00     0.057 A 
ATOM     70  C   UNL     1       6.046   2.608  -8.073  1.00  0.00     0.134 A 
ATOM     71  C   UNL     1       5.579   3.882  -6.100  1.00  0.00     0.134 A 
ATOM     72  F   UNL     1       5.740   1.648  -8.959  1.00  0.00    -0.206 F 
ATOM     73  C   UNL     1       7.247   3.299  -8.244  1.00  0.00     0.040 A 
ATOM     74  C   UNL     1       6.764   4.599  -6.275  1.00  0.00     0.040 A 
ATOM     75  F   UNL     1       4.807   4.192  -5.048  1.00  0.00    -0.206 F 
ATOM     76  C   UNL     1       7.605   4.303  -7.347  1.00  0.00     0.006 A 
ENDBRANCH  55  69
BRANCH  56  77
ATOM     77  C   UNL     1      -3.225  -2.238  -5.425  1.00  0.00     0.057 A 
ATOM     78  C   UNL     1      -4.108  -2.549  -6.465  1.00  0.00     0.134 A 
ATOM     79  C   UNL     1      -3.576  -2.650  -4.134  1.00  0.00     0.134 A 
ATOM     80  F   UNL     1      -3.834  -2.164  -7.720  1.00  0.00    -0.206 F 
ATOM     81  C   UNL     1      -5.305  -3.227  -6.229  1.00  0.00     0.040 A 
ATOM     82  C   UNL     1      -4.758  -3.350  -3.887  1.00  0.00     0.040 A 
ATOM     83  F   UNL     1      -2.766  -2.391  -3.097  1.00  0.00    -0.206 F 
ATOM     84  C   UNL     1      -5.630  -3.634  -4.937  1.00  0.00     0.006 A 
ENDBRANCH  56  77
BRANCH  68  85
ATOM     85  C   UNL     1      -1.866   4.307  -7.361  1.00  0.00     0.057 A 
ATOM     86  C   UNL     1      -2.574   4.997  -6.369  1.00  0.00     0.134 A 
ATOM     87  C   UNL     1      -1.988   4.761  -8.680  1.00  0.00     0.134 A 
ATOM     88  F   UNL     1      -2.510   4.603  -5.088  1.00  0.00    -0.206 F 
ATOM     89  C   UNL     1      -3.391   6.085  -6.681  1.00  0.00     0.040 A 
ATOM     90  C   UNL     1      -2.781   5.864  -9.001  1.00  0.00     0.040 A 
ATOM     91  F   UNL     1      -1.330   4.149  -9.675  1.00  0.00    -0.206 F 
ATOM     92  C   UNL     1      -3.490   6.526  -8.000  1.00  0.00     0.006 A 
ENDBRANCH  68  85
ENDBRANCH  42  43
ENDBRANCH  34  37
ENDBRANCH  32  33
ENDBRANCH  31  32
ENDBRANCH  30  31
ENDBRANCH  29  30
ENDBRANCH   1  29
TORSDOF 18
