REMARK SMILES CC(C)(C)N(CC(=O)NCCCCCCNC(=O)c1ccc(-c2c3nc(c(-c4c(F)cccc4F)c4ccc([nH]4)c(-c4c(F)cccc4F)c4nc(c(-c5c(F)cccc5F)c5ccc2[nH]5)C=C4)C=C3)cc1)C(=O)c1cc2ccccc2o1
REMARK SMILES IDX 12 1 11 2 10 3 9 4 7 5 8 6 6 8 5 9 2 10 1 11 3 12 4 13 73 14
REMARK SMILES IDX 74 15 75 16 76 17 83 18 77 19 82 20 78 21 81 22 79 23 80 24
REMARK SMILES IDX 13 25 14 26 15 27 16 28 17 29 18 31 19 32 20 33 72 34 21 35
REMARK SMILES IDX 71 36 22 37 23 38 24 39 65 40 25 41 70 42 64 43 66 44 26 45
REMARK SMILES IDX 69 46 63 47 62 48 27 50 53 51 36 52 52 53 37 54 40 55 51 56
REMARK SMILES IDX 67 57 38 58 39 59 50 61 68 62 41 63 28 64 29 65 34 66 30 67
REMARK SMILES IDX 31 68 33 69 35 70 32 71 54 72 55 73 60 74 56 75 57 76 59 77
REMARK SMILES IDX 61 78 58 79 42 80 43 81 48 82 44 83 45 84 47 85 49 86 46 87
REMARK H PARENT 9 7 16 30 66 49 40 60
REMARK Flexibility Score: inf
ROOT
ATOM      1  C   UNL     1       5.511  -1.658  -3.266  1.00  0.00     0.002 C 
ENDROOT
BRANCH   1   2
ATOM      2  C   UNL     1       4.089  -1.343  -2.795  1.00  0.00     0.021 C 
BRANCH   2   3
ATOM      3  C   UNL     1       3.958  -0.146  -1.853  1.00  0.00     0.116 C 
BRANCH   3   4
ATOM      4  N   UNL     1       3.827   1.101  -2.585  1.00  0.00    -0.355 N 
ATOM      5  C   UNL     1       2.737   1.879  -2.844  1.00  0.00     0.239 C 
ATOM      6  O   UNL     1       2.948   2.951  -3.423  1.00  0.00    -0.273 OA
ATOM      7  H   UNL     1       4.670   1.445  -2.958  1.00  0.00     0.163 HD
BRANCH   5   8
ATOM      8  C   UNL     1       1.328   1.578  -2.282  1.00  0.00     0.220 C 
BRANCH   8   9
ATOM      9  N   UNL     1       0.921   0.169  -2.210  1.00  0.00    -0.322 N 
BRANCH   9  10
ATOM     10  C   UNL     1       0.120  -0.336  -1.039  1.00  0.00     0.035 C 
ATOM     11  C   UNL     1       0.508   0.328   0.302  1.00  0.00     0.034 C 
ATOM     12  C   UNL     1       0.284  -1.860  -0.818  1.00  0.00     0.034 C 
ATOM     13  C   UNL     1      -1.372  -0.045  -1.300  1.00  0.00     0.034 C 
ENDBRANCH   9  10
BRANCH   9  14
ATOM     14  C   UNL     1       0.859  -0.569  -3.406  1.00  0.00     0.290 C 
ATOM     15  O   UNL     1       1.093  -1.777  -3.417  1.00  0.00    -0.265 OA
BRANCH  14  16
ATOM     16  C   UNL     1       0.443   0.088  -4.624  1.00  0.00     0.192 A 
ATOM     17  C   UNL     1       1.111   0.298  -5.816  1.00  0.00     0.065 A 
ATOM     18  O   UNL     1      -0.907   0.205  -4.820  1.00  0.00    -0.451 OA
ATOM     19  C   UNL     1       0.113   0.318  -6.829  1.00  0.00     0.021 A 
ATOM     20  C   UNL     1      -1.105   0.251  -6.165  1.00  0.00     0.135 A 
ATOM     21  C   UNL     1       0.111   0.285  -8.235  1.00  0.00     0.012 A 
ATOM     22  C   UNL     1      -2.341   0.145  -6.797  1.00  0.00     0.048 A 
ATOM     23  C   UNL     1      -1.114   0.124  -8.900  1.00  0.00     0.001 A 
ATOM     24  C   UNL     1      -2.317   0.052  -8.192  1.00  0.00     0.004 A 
ENDBRANCH  14  16
ENDBRANCH   9  14
ENDBRANCH   8   9
ENDBRANCH   5   8
ENDBRANCH   3   4
ENDBRANCH   2   3
ENDBRANCH   1   2
BRANCH   1  25
ATOM     25  C   UNL     1       6.501  -2.084  -2.178  1.00  0.00     0.002 C 
BRANCH  25  26
ATOM     26  C   UNL     1       6.042  -3.206  -1.240  1.00  0.00     0.021 C 
BRANCH  26  27
ATOM     27  C   UNL     1       5.607  -4.511  -1.909  1.00  0.00     0.116 C 
BRANCH  27  28
ATOM     28  N   UNL     1       6.676  -5.131  -2.669  1.00  0.00    -0.352 N 
ATOM     29  C   UNL     1       7.144  -6.420  -2.664  1.00  0.00     0.251 C 
ATOM     30  H   UNL     1       7.142  -4.527  -3.292  1.00  0.00     0.163 HD
ATOM     31  O   UNL     1       8.162  -6.688  -3.301  1.00  0.00    -0.269 OA
BRANCH  29  32
ATOM     32  C   UNL     1       6.466  -7.498  -1.904  1.00  0.00     0.039 A 
ATOM     33  C   UNL     1       7.264  -8.455  -1.264  1.00  0.00     0.014 A 
ATOM     34  C   UNL     1       5.075  -7.642  -1.891  1.00  0.00     0.014 A 
ATOM     35  C   UNL     1       6.677  -9.533  -0.596  1.00  0.00     0.010 A 
ATOM     36  C   UNL     1       4.486  -8.698  -1.188  1.00  0.00     0.010 A 
ATOM     37  C   UNL     1       5.282  -9.661  -0.548  1.00  0.00    -0.014 A 
BRANCH  37  38
ATOM     38  C   UNL     1       4.651 -10.827   0.121  1.00  0.00     0.031 A 
ATOM     39  C   UNL     1       3.989 -11.900  -0.699  1.00  0.00     0.074 A 
ATOM     40  C   UNL     1       4.643 -10.913   1.465  1.00  0.00     0.049 A 
ATOM     41  N   UNL     1       3.337 -12.964  -0.300  1.00  0.00    -0.248 NA
ATOM     42  C   UNL     1       4.054 -11.748  -2.161  1.00  0.00     0.031 C 
ATOM     43  C   UNL     1       5.221  -9.930   2.380  1.00  0.00     0.029 A 
ATOM     44  N   UNL     1       4.119 -11.874   2.293  1.00  0.00    -0.354 N 
ATOM     45  C   UNL     1       2.889 -13.589  -1.456  1.00  0.00     0.074 A 
ATOM     46  C   UNL     1       3.331 -12.781  -2.572  1.00  0.00     0.031 C 
ATOM     47  C   UNL     1       5.028 -10.342   3.645  1.00  0.00     0.029 A 
ATOM     48  C   UNL     1       4.300 -11.608   3.628  1.00  0.00     0.049 A 
ATOM     49  H   UNL     1       3.658 -12.678   1.962  1.00  0.00     0.167 HD
ATOM     50  C   UNL     1       2.178 -14.735  -1.578  1.00  0.00     0.037 A 
ATOM     51  C   UNL     1       3.923 -12.307   4.715  1.00  0.00     0.037 A 
ATOM     52  C   UNL     1       1.772 -15.569  -0.479  1.00  0.00     0.049 A 
ATOM     53  C   UNL     1       3.200 -13.613   4.549  1.00  0.00     0.074 A 
ATOM     54  C   UNL     1       1.075 -16.765  -0.512  1.00  0.00     0.029 A 
ATOM     55  N   UNL     1       2.040 -15.299   0.853  1.00  0.00    -0.354 N 
ATOM     56  N   UNL     1       2.808 -14.205   3.447  1.00  0.00    -0.248 NA
ATOM     57  C   UNL     1       2.879 -14.356   5.777  1.00  0.00     0.031 C 
ATOM     58  C   UNL     1       0.917 -17.217   0.803  1.00  0.00     0.029 A 
ATOM     59  C   UNL     1       1.531 -16.310   1.650  1.00  0.00     0.049 A 
ATOM     60  H   UNL     1       2.522 -14.506   1.183  1.00  0.00     0.167 HD
ATOM     61  C   UNL     1       2.218 -15.396   3.846  1.00  0.00     0.074 A 
ATOM     62  C   UNL     1       2.306 -15.448   5.291  1.00  0.00     0.031 C 
ATOM     63  C   UNL     1       1.651 -16.360   3.082  1.00  0.00     0.037 A 
BRANCH  50  64
ATOM     64  C   UNL     1       1.791 -15.156  -2.962  1.00  0.00     0.057 A 
ATOM     65  C   UNL     1       2.708 -15.763  -3.828  1.00  0.00     0.134 A 
ATOM     66  C   UNL     1       0.479 -14.981  -3.420  1.00  0.00     0.134 A 
ATOM     67  F   UNL     1       3.982 -15.945  -3.449  1.00  0.00    -0.206 F 
ATOM     68  C   UNL     1       2.337 -16.169  -5.111  1.00  0.00     0.040 A 
ATOM     69  C   UNL     1       0.093 -15.396  -4.695  1.00  0.00     0.040 A 
ATOM     70  F   UNL     1      -0.445 -14.407  -2.635  1.00  0.00    -0.206 F 
ATOM     71  C   UNL     1       1.024 -15.990  -5.545  1.00  0.00     0.006 A 
ENDBRANCH  50  64
BRANCH  51  72
ATOM     72  C   UNL     1       4.252 -11.802   6.067  1.00  0.00     0.057 A 
ATOM     73  C   UNL     1       5.295 -12.365   6.810  1.00  0.00     0.134 A 
ATOM     74  C   UNL     1       3.527 -10.758   6.651  1.00  0.00     0.134 A 
ATOM     75  F   UNL     1       6.009 -13.382   6.307  1.00  0.00    -0.206 F 
ATOM     76  C   UNL     1       5.599 -11.915   8.096  1.00  0.00     0.040 A 
ATOM     77  C   UNL     1       3.830 -10.288   7.929  1.00  0.00     0.040 A 
ATOM     78  F   UNL     1       2.518 -10.179   5.984  1.00  0.00    -0.206 F 
ATOM     79  C   UNL     1       4.866 -10.871   8.657  1.00  0.00     0.006 A 
ENDBRANCH  51  72
BRANCH  63  80
ATOM     80  C   UNL     1       1.124 -17.569   3.788  1.00  0.00     0.057 A 
ATOM     81  C   UNL     1      -0.115 -17.557   4.439  1.00  0.00     0.134 A 
ATOM     82  C   UNL     1       1.849 -18.766   3.787  1.00  0.00     0.134 A 
ATOM     83  F   UNL     1      -0.849 -16.435   4.482  1.00  0.00    -0.206 F 
ATOM     84  C   UNL     1      -0.611 -18.695   5.077  1.00  0.00     0.040 A 
ATOM     85  C   UNL     1       1.359 -19.913   4.411  1.00  0.00     0.040 A 
ATOM     86  F   UNL     1       3.043 -18.838   3.179  1.00  0.00    -0.206 F 
ATOM     87  C   UNL     1       0.126 -19.879   5.060  1.00  0.00     0.006 A 
ENDBRANCH  63  80
ENDBRANCH  37  38
ENDBRANCH  29  32
ENDBRANCH  27  28
ENDBRANCH  26  27
ENDBRANCH  25  26
ENDBRANCH   1  25
TORSDOF 17
