REMARK SMILES CCOc1ccccc1NC(=O)N[C@@](C)(CC)C(=O)NCCCCCCNC(=O)c1ccc(-c2c3nc(c(-c4c(F)cccc4F)c4ccc([nH]4)c(-c4c(F)cccc4F)c4nc(c(-c5c(F)cccc5F)c5ccc2[nH]5)C=C4)C=C3)cc1
REMARK SMILES IDX 22 1 21 2 20 3 18 4 19 5 14 7 15 8 13 9 10 10 11 11 12 13
REMARK SMILES IDX 9 15 4 16 5 17 6 18 8 19 7 20 3 21 2 22 1 23 16 24 17 25
REMARK SMILES IDX 23 26 24 27 25 28 26 29 27 30 28 31 29 33 30 34 31 35 83 36
REMARK SMILES IDX 32 37 82 38 33 39 34 40 35 41 76 42 36 43 81 44 75 45 77 46
REMARK SMILES IDX 37 47 80 48 74 49 73 50 38 52 64 53 47 54 63 55 48 56 51 57
REMARK SMILES IDX 62 58 78 59 49 60 50 61 61 63 79 64 52 65 39 66 40 67 45 68
REMARK SMILES IDX 41 69 42 70 44 71 46 72 43 73 65 74 66 75 71 76 67 77 68 78
REMARK SMILES IDX 70 79 72 80 69 81 53 82 54 83 59 84 55 85 56 86 58 87 60 88
REMARK SMILES IDX 57 89
REMARK H PARENT 20 6 10 12 13 14 27 32 77 51 51 62
REMARK Flexibility Score: inf
ROOT
ATOM      1  C   UNL     1       5.947   4.112  -3.845  1.00  0.00     0.021 C 
ENDROOT
BRANCH   1   2
ATOM      2  C   UNL     1       6.587   3.328  -2.714  1.00  0.00     0.116 C 
BRANCH   2   3
ATOM      3  N   UNL     1       5.843   2.164  -2.336  1.00  0.00    -0.354 N 
ATOM      4  C   UNL     1       6.392   1.333  -1.390  1.00  0.00     0.245 C 
ATOM      5  O   UNL     1       7.093   1.787  -0.482  1.00  0.00    -0.272 OA
ATOM      6  H   UNL     1       4.967   1.966  -2.740  1.00  0.00     0.163 HD
BRANCH   4   7
ATOM      7  C   UNL     1       6.123  -0.185  -1.572  1.00  0.00     0.117 C 
ATOM      8  C   UNL     1       7.401  -0.817  -0.924  1.00  0.00     0.045 C 
BRANCH   7   9
ATOM      9  N   UNL     1       5.002  -0.814  -0.840  1.00  0.00    -0.324 N 
ATOM     10  N   UNL     1       2.930   0.335  -0.977  1.00  0.00    -0.305 N 
ATOM     11  C   UNL     1       3.679  -0.765  -0.998  1.00  0.00     0.320 C 
ATOM     12  H   UNL     1       2.081   0.200  -1.457  1.00  0.00     0.172 HD
ATOM     13  O   UNL     1       3.103  -1.846  -1.163  1.00  0.00    -0.248 OA
ATOM     14  H   UNL     1       5.289  -1.380  -0.087  1.00  0.00     0.166 HD
BRANCH  10  15
ATOM     15  C   UNL     1       3.019   1.633  -0.458  1.00  0.00     0.085 A 
ATOM     16  C   UNL     1       1.904   2.459  -0.674  1.00  0.00     0.142 A 
ATOM     17  C   UNL     1       1.954   3.835  -0.463  1.00  0.00     0.048 A 
ATOM     18  C   UNL     1       3.091   4.378   0.122  1.00  0.00     0.004 A 
ATOM     19  C   UNL     1       4.064   2.152   0.284  1.00  0.00     0.030 A 
ATOM     20  C   UNL     1       4.115   3.529   0.549  1.00  0.00     0.002 A 
BRANCH  16  21
ATOM     21  O   UNL     1       0.704   1.879  -1.026  1.00  0.00    -0.492 OA
BRANCH  21  22
ATOM     22  C   UNL     1      -0.031   1.549   0.177  1.00  0.00     0.226 C 
ATOM     23  C   UNL     1       0.042   0.058   0.478  1.00  0.00     0.049 C 
ENDBRANCH  21  22
ENDBRANCH  16  21
ENDBRANCH  10  15
ENDBRANCH   7   9
BRANCH   7  24
ATOM     24  C   UNL     1       6.210  -0.569  -3.086  1.00  0.00     0.035 C 
ATOM     25  C   UNL     1       4.944  -0.502  -3.930  1.00  0.00     0.007 C 
ENDBRANCH   7  24
ENDBRANCH   4   7
ENDBRANCH   2   3
ENDBRANCH   1   2
BRANCH   1  26
ATOM     26  C   UNL     1       4.975   5.201  -3.388  1.00  0.00     0.002 C 
BRANCH  26  27
ATOM     27  C   UNL     1       5.490   6.144  -2.292  1.00  0.00     0.002 C 
BRANCH  27  28
ATOM     28  C   UNL     1       6.908   6.686  -2.479  1.00  0.00     0.021 C 
BRANCH  28  29
ATOM     29  C   UNL     1       7.162   7.385  -3.803  1.00  0.00     0.116 C 
BRANCH  29  30
ATOM     30  N   UNL     1       6.347   8.572  -3.974  1.00  0.00    -0.352 N 
ATOM     31  C   UNL     1       6.736   9.826  -4.369  1.00  0.00     0.251 C 
ATOM     32  H   UNL     1       5.388   8.463  -3.782  1.00  0.00     0.163 HD
ATOM     33  O   UNL     1       5.946  10.767  -4.324  1.00  0.00    -0.269 OA
BRANCH  31  34
ATOM     34  C   UNL     1       8.128  10.047  -4.814  1.00  0.00     0.039 A 
ATOM     35  C   UNL     1       8.831  11.140  -4.305  1.00  0.00     0.014 A 
ATOM     36  C   UNL     1       8.746   9.162  -5.702  1.00  0.00     0.014 A 
ATOM     37  C   UNL     1      10.175  11.311  -4.639  1.00  0.00     0.010 A 
ATOM     38  C   UNL     1      10.107   9.283  -5.962  1.00  0.00     0.010 A 
ATOM     39  C   UNL     1      10.835  10.363  -5.440  1.00  0.00    -0.014 A 
BRANCH  39  40
ATOM     40  C   UNL     1      12.281  10.491  -5.750  1.00  0.00     0.031 A 
ATOM     41  C   UNL     1      12.734  10.663  -7.174  1.00  0.00     0.074 A 
ATOM     42  C   UNL     1      13.189  10.395  -4.758  1.00  0.00     0.049 A 
ATOM     43  N   UNL     1      13.950  10.729  -7.653  1.00  0.00    -0.248 NA
ATOM     44  C   UNL     1      11.681  10.743  -8.200  1.00  0.00     0.031 C 
ATOM     45  C   UNL     1      12.879  10.178  -3.343  1.00  0.00     0.029 A 
ATOM     46  N   UNL     1      14.559  10.458  -4.790  1.00  0.00    -0.354 N 
ATOM     47  C   UNL     1      13.808  10.844  -9.030  1.00  0.00     0.074 A 
ATOM     48  C   UNL     1      12.392  10.777  -9.316  1.00  0.00     0.031 C 
ATOM     49  C   UNL     1      14.023  10.155  -2.641  1.00  0.00     0.029 A 
ATOM     50  C   UNL     1      15.148  10.311  -3.557  1.00  0.00     0.049 A 
ATOM     51  H   UNL     1      15.073  10.595  -5.619  1.00  0.00     0.167 HD
ATOM     52  C   UNL     1      14.768  11.017  -9.969  1.00  0.00     0.037 A 
ATOM     53  C   UNL     1      16.448  10.296  -3.206  1.00  0.00     0.037 A 
ATOM     54  C   UNL     1      16.174  11.107  -9.677  1.00  0.00     0.049 A 
ATOM     55  C   UNL     1      17.495  10.477  -4.271  1.00  0.00     0.074 A 
ATOM     56  C   UNL     1      17.222  11.338 -10.551  1.00  0.00     0.029 A 
ATOM     57  N   UNL     1      16.729  10.968  -8.414  1.00  0.00    -0.354 N 
ATOM     58  N   UNL     1      17.342  10.655  -5.561  1.00  0.00    -0.248 NA
ATOM     59  C   UNL     1      18.897  10.463  -3.829  1.00  0.00     0.031 C 
ATOM     60  C   UNL     1      18.416  11.289  -9.824  1.00  0.00     0.029 A 
ATOM     61  C   UNL     1      18.108  11.084  -8.489  1.00  0.00     0.049 A 
ATOM     62  H   UNL     1      16.220  10.810  -7.586  1.00  0.00     0.167 HD
ATOM     63  C   UNL     1      18.622  10.804  -6.079  1.00  0.00     0.074 A 
ATOM     64  C   UNL     1      19.539  10.712  -4.962  1.00  0.00     0.031 C 
ATOM     65  C   UNL     1      19.005  11.000  -7.365  1.00  0.00     0.037 A 
BRANCH  52  66
ATOM     66  C   UNL     1      14.327  11.127 -11.400  1.00  0.00     0.057 A 
ATOM     67  C   UNL     1      13.620  12.240 -11.873  1.00  0.00     0.134 A 
ATOM     68  C   UNL     1      14.646  10.125 -12.326  1.00  0.00     0.134 A 
ATOM     69  F   UNL     1      13.271  13.230 -11.037  1.00  0.00    -0.206 F 
ATOM     70  C   UNL     1      13.222  12.341 -13.207  1.00  0.00     0.040 A 
ATOM     71  C   UNL     1      14.280  10.228 -13.669  1.00  0.00     0.040 A 
ATOM     72  F   UNL     1      15.326   9.034 -11.943  1.00  0.00    -0.206 F 
ATOM     73  C   UNL     1      13.559  11.336 -14.111  1.00  0.00     0.006 A 
ENDBRANCH  52  66
BRANCH  53  74
ATOM     74  C   UNL     1      16.836  10.121  -1.783  1.00  0.00     0.057 A 
ATOM     75  C   UNL     1      17.426  11.165  -1.061  1.00  0.00     0.134 A 
ATOM     76  C   UNL     1      16.647   8.905  -1.116  1.00  0.00     0.134 A 
ATOM     77  F   UNL     1      17.651  12.350  -1.649  1.00  0.00    -0.206 F 
ATOM     78  C   UNL     1      17.836  11.000   0.263  1.00  0.00     0.040 A 
ATOM     79  C   UNL     1      17.026   8.734   0.216  1.00  0.00     0.040 A 
ATOM     80  F   UNL     1      16.080   7.867  -1.749  1.00  0.00    -0.206 F 
ATOM     81  C   UNL     1      17.632   9.781   0.907  1.00  0.00     0.006 A 
ENDBRANCH  53  74
BRANCH  65  82
ATOM     82  C   UNL     1      20.474  11.171  -7.627  1.00  0.00     0.057 A 
ATOM     83  C   UNL     1      21.374  10.103  -7.529  1.00  0.00     0.134 A 
ATOM     84  C   UNL     1      20.984  12.413  -8.025  1.00  0.00     0.134 A 
ATOM     85  F   UNL     1      20.952   8.890  -7.142  1.00  0.00    -0.206 F 
ATOM     86  C   UNL     1      22.735  10.271  -7.792  1.00  0.00     0.040 A 
ATOM     87  C   UNL     1      22.337  12.586  -8.320  1.00  0.00     0.040 A 
ATOM     88  F   UNL     1      20.174  13.476  -8.149  1.00  0.00    -0.206 F 
ATOM     89  C   UNL     1      23.218  11.514  -8.197  1.00  0.00     0.006 A 
ENDBRANCH  65  82
ENDBRANCH  39  40
ENDBRANCH  31  34
ENDBRANCH  29  30
ENDBRANCH  28  29
ENDBRANCH  27  28
ENDBRANCH  26  27
ENDBRANCH   1  26
TORSDOF 18
