REMARK SMILES CS(=O)(=O)c1ccc(/C=C(/C(=O)NCCCCCCNC(=O)c2ccc(-c3c4nc(c(-c5c(F)cccc5F)c5ccc([nH]5)c(-c5c(F)cccc5F)c5nc(c(-c6c(F)cccc6F)c6ccc3[nH]6)C=C5)C=C4)cc2)c2ccc(-c3ccc(F)cc3F)cc2)cc1
REMARK SMILES IDX 16 1 15 2 14 3 13 4 11 5 12 6 10 8 9 9 8 10 5 11 6 12 92 13
REMARK SMILES IDX 7 14 91 15 2 16 1 17 3 18 4 19 77 20 78 21 90 22 79 23 89 24
REMARK SMILES IDX 80 25 81 26 82 27 87 28 83 29 86 30 88 31 84 32 85 33 17 34
REMARK SMILES IDX 18 35 19 36 20 37 21 38 22 40 23 41 24 42 76 43 25 44 75 45
REMARK SMILES IDX 26 46 27 47 28 48 69 49 29 50 74 51 68 52 70 53 30 54 73 55
REMARK SMILES IDX 67 56 66 57 31 59 57 60 40 61 56 62 41 63 44 64 55 65 71 66
REMARK SMILES IDX 42 67 43 68 54 70 72 71 45 72 32 73 33 74 38 75 34 76 35 77
REMARK SMILES IDX 37 78 39 79 36 80 58 81 59 82 64 83 60 84 61 85 63 86 65 87
REMARK SMILES IDX 62 88 46 89 47 90 52 91 48 92 49 93 51 94 53 95 50 96
REMARK H PARENT 13 7 20 39 70 58 44 69
REMARK Flexibility Score: inf
ROOT
ATOM      1  C   UNL     1       1.198  11.591  -0.022  1.00  0.00     0.002 C 
ENDROOT
BRANCH   1   2
ATOM      2  C   UNL     1       0.998  10.093  -0.309  1.00  0.00     0.021 C 
BRANCH   2   3
ATOM      3  C   UNL     1       2.294   9.369  -0.688  1.00  0.00     0.116 C 
BRANCH   3   4
ATOM      4  N   UNL     1       3.153   9.287   0.473  1.00  0.00    -0.352 N 
ATOM      5  C   UNL     1       3.440   8.319   1.377  1.00  0.00     0.251 C 
ATOM      6  O   UNL     1       4.127   8.680   2.337  1.00  0.00    -0.269 OA
ATOM      7  H   UNL     1       3.639  10.125   0.646  1.00  0.00     0.163 HD
BRANCH   5   8
ATOM      8  C   UNL     1       3.057   6.862   1.213  1.00  0.00     0.047 C 
ATOM      9  C   UNL     1       1.915   6.467   0.604  1.00  0.00     0.022 C 
BRANCH   9  10
ATOM     10  C   UNL     1       1.466   5.106   0.230  1.00  0.00    -0.025 A 
ATOM     11  C   UNL     1       0.722   2.556  -0.701  1.00  0.00     0.067 A 
ATOM     12  C   UNL     1       1.208   2.707   0.596  1.00  0.00     0.021 A 
ATOM     13  C   UNL     1       0.561   3.673  -1.524  1.00  0.00     0.021 A 
ATOM     14  C   UNL     1       1.551   3.984   1.063  1.00  0.00     0.009 A 
ATOM     15  C   UNL     1       0.931   4.938  -1.058  1.00  0.00     0.009 A 
BRANCH  11  16
ATOM     16  S   UNL     1       0.311   0.971  -1.389  1.00  0.00     0.175 S 
ATOM     17  C   UNL     1       0.899  -0.266  -0.269  1.00  0.00     0.163 C 
ATOM     18  O   UNL     1       1.081   0.843  -2.610  1.00  0.00    -0.224 OA
ATOM     19  O   UNL     1      -1.139   0.898  -1.405  1.00  0.00    -0.224 OA
ENDBRANCH  11  16
ENDBRANCH   9  10
BRANCH   8  20
ATOM     20  C   UNL     1       3.911   5.885   1.932  1.00  0.00    -0.013 A 
ATOM     21  C   UNL     1       3.910   5.931   3.332  1.00  0.00     0.009 A 
ATOM     22  C   UNL     1       4.660   4.891   1.296  1.00  0.00     0.009 A 
ATOM     23  C   UNL     1       4.615   4.994   4.081  1.00  0.00     0.009 A 
ATOM     24  C   UNL     1       5.342   3.927   2.058  1.00  0.00     0.009 A 
ATOM     25  C   UNL     1       5.320   3.949   3.465  1.00  0.00    -0.015 A 
BRANCH  25  26
ATOM     26  C   UNL     1       5.987   2.922   4.295  1.00  0.00     0.018 A 
ATOM     27  C   UNL     1       5.369   2.450   5.474  1.00  0.00     0.015 A 
ATOM     28  C   UNL     1       7.250   2.393   3.981  1.00  0.00     0.133 A 
ATOM     29  C   UNL     1       6.000   1.524   6.308  1.00  0.00     0.040 A 
ATOM     30  C   UNL     1       7.884   1.462   4.802  1.00  0.00     0.079 A 
ATOM     31  F   UNL     1       7.899   2.791   2.876  1.00  0.00    -0.206 F 
ATOM     32  C   UNL     1       7.254   1.043   5.964  1.00  0.00     0.126 A 
ATOM     33  F   UNL     1       7.863   0.162   6.767  1.00  0.00    -0.207 F 
ENDBRANCH  25  26
ENDBRANCH   8  20
ENDBRANCH   5   8
ENDBRANCH   3   4
ENDBRANCH   2   3
ENDBRANCH   1   2
BRANCH   1  34
ATOM     34  C   UNL     1       1.774  12.403  -1.189  1.00  0.00     0.002 C 
BRANCH  34  35
ATOM     35  C   UNL     1       1.015  12.252  -2.509  1.00  0.00     0.021 C 
BRANCH  35  36
ATOM     36  C   UNL     1      -0.444  12.689  -2.441  1.00  0.00     0.116 C 
BRANCH  36  37
ATOM     37  N   UNL     1      -0.569  14.125  -2.249  1.00  0.00    -0.352 N 
ATOM     38  C   UNL     1      -1.284  15.030  -2.993  1.00  0.00     0.251 C 
ATOM     39  H   UNL     1      -0.075  14.498  -1.483  1.00  0.00     0.163 HD
ATOM     40  O   UNL     1      -1.128  16.235  -2.832  1.00  0.00    -0.269 OA
BRANCH  38  41
ATOM     41  C   UNL     1      -2.237  14.536  -4.007  1.00  0.00     0.039 A 
ATOM     42  C   UNL     1      -2.211  15.084  -5.292  1.00  0.00     0.014 A 
ATOM     43  C   UNL     1      -3.149  13.526  -3.684  1.00  0.00     0.014 A 
ATOM     44  C   UNL     1      -3.067  14.579  -6.273  1.00  0.00     0.010 A 
ATOM     45  C   UNL     1      -3.953  12.982  -4.679  1.00  0.00     0.010 A 
ATOM     46  C   UNL     1      -3.924  13.507  -5.980  1.00  0.00    -0.014 A 
BRANCH  46  47
ATOM     47  C   UNL     1      -4.820  12.925  -7.009  1.00  0.00     0.031 A 
ATOM     48  C   UNL     1      -6.310  13.031  -6.843  1.00  0.00     0.074 A 
ATOM     49  C   UNL     1      -4.300  12.234  -8.040  1.00  0.00     0.049 A 
ATOM     50  N   UNL     1      -7.263  12.485  -7.554  1.00  0.00    -0.248 NA
ATOM     51  C   UNL     1      -6.790  13.835  -5.708  1.00  0.00     0.031 C 
ATOM     52  C   UNL     1      -2.872  12.034  -8.292  1.00  0.00     0.029 A 
ATOM     53  N   UNL     1      -4.916  11.554  -9.060  1.00  0.00    -0.354 N 
ATOM     54  C   UNL     1      -8.451  12.860  -6.941  1.00  0.00     0.074 A 
ATOM     55  C   UNL     1      -8.099  13.641  -5.774  1.00  0.00     0.031 C 
ATOM     56  C   UNL     1      -2.721  11.294  -9.403  1.00  0.00     0.029 A 
ATOM     57  C   UNL     1      -4.039  10.934  -9.917  1.00  0.00     0.049 A 
ATOM     58  H   UNL     1      -5.894  11.515  -9.168  1.00  0.00     0.167 HD
ATOM     59  C   UNL     1      -9.722  12.595  -7.325  1.00  0.00     0.037 A 
ATOM     60  C   UNL     1      -4.274  10.153 -10.988  1.00  0.00     0.037 A 
ATOM     61  C   UNL     1     -10.068  11.843  -8.502  1.00  0.00     0.049 A 
ATOM     62  C   UNL     1      -5.694   9.862 -11.390  1.00  0.00     0.074 A 
ATOM     63  C   UNL     1     -11.325  11.565  -9.009  1.00  0.00     0.029 A 
ATOM     64  N   UNL     1      -9.151  11.251  -9.357  1.00  0.00    -0.354 N 
ATOM     65  N   UNL     1      -6.809  10.264 -10.830  1.00  0.00    -0.248 NA
ATOM     66  C   UNL     1      -5.887   9.011 -12.572  1.00  0.00     0.031 C 
ATOM     67  C   UNL     1     -11.170  10.772 -10.151  1.00  0.00     0.029 A 
ATOM     68  C   UNL     1      -9.815  10.594 -10.379  1.00  0.00     0.049 A 
ATOM     69  H   UNL     1      -8.173  11.291  -9.252  1.00  0.00     0.167 HD
ATOM     70  C   UNL     1      -7.834   9.744 -11.608  1.00  0.00     0.074 A 
ATOM     71  C   UNL     1      -7.209   9.000 -12.682  1.00  0.00     0.031 C 
ATOM     72  C   UNL     1      -9.174   9.873 -11.449  1.00  0.00     0.037 A 
BRANCH  59  73
ATOM     73  C   UNL     1     -10.829  13.125  -6.462  1.00  0.00     0.057 A 
ATOM     74  C   UNL     1     -11.121  14.494  -6.394  1.00  0.00     0.134 A 
ATOM     75  C   UNL     1     -11.625  12.257  -5.705  1.00  0.00     0.134 A 
ATOM     76  F   UNL     1     -10.387  15.381  -7.084  1.00  0.00    -0.206 F 
ATOM     77  C   UNL     1     -12.145  14.983  -5.582  1.00  0.00     0.040 A 
ATOM     78  C   UNL     1     -12.670  12.731  -4.910  1.00  0.00     0.040 A 
ATOM     79  F   UNL     1     -11.403  10.934  -5.729  1.00  0.00    -0.206 F 
ATOM     80  C   UNL     1     -12.927  14.099  -4.841  1.00  0.00     0.006 A 
ENDBRANCH  59  73
BRANCH  60  81
ATOM     81  C   UNL     1      -3.137   9.607 -11.771  1.00  0.00     0.057 A 
ATOM     82  C   UNL     1      -2.852  10.090 -13.053  1.00  0.00     0.134 A 
ATOM     83  C   UNL     1      -2.312   8.598 -11.261  1.00  0.00     0.134 A 
ATOM     84  F   UNL     1      -3.618  11.045 -13.600  1.00  0.00    -0.206 F 
ATOM     85  C   UNL     1      -1.795   9.579 -13.808  1.00  0.00     0.040 A 
ATOM     86  C   UNL     1      -1.238   8.093 -11.996  1.00  0.00     0.040 A 
ATOM     87  F   UNL     1      -2.529   8.099 -10.036  1.00  0.00    -0.206 F 
ATOM     88  C   UNL     1      -0.981   8.580 -13.277  1.00  0.00     0.006 A 
ENDBRANCH  60  81
BRANCH  72  89
ATOM     89  C   UNL     1     -10.055   9.237 -12.482  1.00  0.00     0.057 A 
ATOM     90  C   UNL     1     -10.260   7.854 -12.530  1.00  0.00     0.134 A 
ATOM     91  C   UNL     1     -10.753  10.029 -13.404  1.00  0.00     0.134 A 
ATOM     92  F   UNL     1      -9.611   7.041 -11.682  1.00  0.00    -0.206 F 
ATOM     93  C   UNL     1     -11.118   7.277 -13.467  1.00  0.00     0.040 A 
ATOM     94  C   UNL     1     -11.631   9.467 -14.330  1.00  0.00     0.040 A 
ATOM     95  F   UNL     1     -10.605  11.363 -13.405  1.00  0.00    -0.206 F 
ATOM     96  C   UNL     1     -11.813   8.086 -14.365  1.00  0.00     0.006 A 
ENDBRANCH  72  89
ENDBRANCH  46  47
ENDBRANCH  38  41
ENDBRANCH  36  37
ENDBRANCH  35  36
ENDBRANCH  34  35
ENDBRANCH   1  34
TORSDOF 17
