REMARK SMILES CC(C)C[C@H](NC(=O)CNC(=O)[C@@H](NC(=O)OCc1ccccc1)C(C)C)C(=O)N[C@@H](C)C(=O)NCCCCCCNC(=O)c1ccc(-c2c3nc(c(-c4c(F)cccc4F)c4ccc([nH]4)c(-c4c(F)cccc4F)c4nc(c(-c5c(F)cccc5F)c5ccc2[nH]5)C=C4)C=C3)cc1
REMARK SMILES IDX 31 1 32 2 30 3 28 4 29 5 5 7 4 8 2 9 1 10 3 11 6 12 7 13
REMARK SMILES IDX 8 15 9 16 10 17 11 18 12 20 13 21 14 22 15 23 16 25 17 26
REMARK SMILES IDX 18 27 19 28 20 29 24 30 21 31 23 32 22 33 25 34 26 35 27 36
REMARK SMILES IDX 33 37 34 38 35 39 36 41 37 42 38 43 39 44 40 45 41 46 42 47
REMARK SMILES IDX 43 48 44 50 45 51 46 52 98 53 47 54 97 55 48 56 49 57 50 58
REMARK SMILES IDX 91 59 51 60 96 61 90 62 92 63 52 64 95 65 89 66 88 67 53 69
REMARK SMILES IDX 79 70 62 71 78 72 63 73 66 74 77 75 93 76 64 77 65 78 76 80
REMARK SMILES IDX 94 81 67 82 54 83 55 84 60 85 56 86 57 87 59 88 61 89 58 90
REMARK SMILES IDX 80 91 81 92 86 93 82 94 83 95 85 96 87 97 84 98 68 99 69 100
REMARK SMILES IDX 74 101 70 102 71 103 73 104 75 105 72 106
REMARK H PARENT 30 6 6 14 10 19 14 24 35 40 42 49 92 68 66 79
REMARK Flexibility Score: inf
ROOT
ATOM      1  C   UNL     1      -3.318  -0.772   3.705  1.00  0.00     0.168 C 
ATOM      2  C   UNL     1      -3.634   0.409   4.609  1.00  0.00     0.041 C 
ENDROOT
BRANCH   1   3
ATOM      3  N   UNL     1      -3.926  -0.592   2.380  1.00  0.00    -0.343 N 
ATOM      4  C   UNL     1      -3.434  -0.901   1.145  1.00  0.00     0.243 C 
ATOM      5  O   UNL     1      -4.205  -0.835   0.186  1.00  0.00    -0.273 OA
ATOM      6  H   UNL     1      -4.824  -0.188   2.383  1.00  0.00     0.164 HD
BRANCH   4   7
ATOM      7  C   UNL     1      -1.980  -1.379   0.990  1.00  0.00     0.171 C 
BRANCH   7   8
ATOM      8  C   UNL     1      -1.828  -2.786   1.554  1.00  0.00     0.038 C 
BRANCH   8   9
ATOM      9  C   UNL     1      -2.886  -3.855   1.234  1.00  0.00    -0.015 C 
ATOM     10  C   UNL     1      -3.044  -4.097  -0.268  1.00  0.00     0.007 C 
ATOM     11  C   UNL     1      -2.458  -5.166   1.910  1.00  0.00     0.007 C 
ENDBRANCH   8   9
ENDBRANCH   7   8
BRANCH   7  12
ATOM     12  N   UNL     1      -1.147  -0.322   1.609  1.00  0.00    -0.343 N 
ATOM     13  C   UNL     1       0.110  -0.123   2.054  1.00  0.00     0.240 C 
ATOM     14  H   UNL     1      -1.681   0.495   1.735  1.00  0.00     0.164 HD
ATOM     15  O   UNL     1       0.349   1.044   2.404  1.00  0.00    -0.273 OA
BRANCH  13  16
ATOM     16  C   UNL     1       1.268  -1.127   2.051  1.00  0.00     0.216 C 
BRANCH  16  17
ATOM     17  N   UNL     1       1.041  -2.493   2.455  1.00  0.00    -0.345 N 
ATOM     18  C   UNL     1       1.200  -3.672   1.801  1.00  0.00     0.243 C 
ATOM     19  H   UNL     1       0.710  -2.588   3.377  1.00  0.00     0.164 HD
ATOM     20  O   UNL     1       1.097  -4.691   2.495  1.00  0.00    -0.273 OA
BRANCH  18  21
ATOM     21  C   UNL     1       1.531  -3.802   0.282  1.00  0.00     0.177 C 
BRANCH  21  22
ATOM     22  N   UNL     1       0.802  -2.849  -0.572  1.00  0.00    -0.309 N 
ATOM     23  C   UNL     1       1.134  -1.660  -1.134  1.00  0.00     0.408 C 
ATOM     24  H   UNL     1      -0.117  -3.135  -0.777  1.00  0.00     0.167 HD
ATOM     25  O   UNL     1       0.268  -0.907  -1.542  1.00  0.00    -0.225 OA
BRANCH  23  26
ATOM     26  O   UNL     1       2.465  -1.460  -1.233  1.00  0.00    -0.445 OA
BRANCH  26  27
ATOM     27  C   UNL     1       2.861  -0.313  -1.996  1.00  0.00     0.270 C 
BRANCH  27  28
ATOM     28  C   UNL     1       2.621  -0.407  -3.492  1.00  0.00    -0.011 A 
ATOM     29  C   UNL     1       3.008   0.673  -4.297  1.00  0.00     0.007 A 
ATOM     30  C   UNL     1       1.989  -1.499  -4.109  1.00  0.00     0.007 A 
ATOM     31  C   UNL     1       2.742   0.673  -5.668  1.00  0.00     0.000 A 
ATOM     32  C   UNL     1       1.708  -1.493  -5.475  1.00  0.00     0.000 A 
ATOM     33  C   UNL     1       2.082  -0.405  -6.254  1.00  0.00     0.000 A 
ENDBRANCH  27  28
ENDBRANCH  26  27
ENDBRANCH  23  26
ENDBRANCH  21  22
BRANCH  21  34
ATOM     34  C   UNL     1       3.039  -3.987   0.021  1.00  0.00     0.015 C 
ATOM     35  C   UNL     1       3.639  -5.080   0.918  1.00  0.00     0.010 C 
ATOM     36  C   UNL     1       3.305  -4.396  -1.434  1.00  0.00     0.010 C 
ENDBRANCH  21  34
ENDBRANCH  18  21
ENDBRANCH  16  17
ENDBRANCH  13  16
ENDBRANCH   7  12
ENDBRANCH   4   7
ENDBRANCH   1   3
BRANCH   1  37
ATOM     37  C   UNL     1      -3.659  -2.106   4.398  1.00  0.00     0.242 C 
ATOM     38  O   UNL     1      -2.775  -2.771   4.947  1.00  0.00    -0.273 OA
ATOM     39  N   UNL     1      -4.938  -2.537   4.540  1.00  0.00    -0.354 N 
ATOM     40  H   UNL     1      -5.033  -3.424   4.957  1.00  0.00     0.163 HD
BRANCH  39  41
ATOM     41  C   UNL     1      -6.180  -1.900   4.174  1.00  0.00     0.116 C 
BRANCH  41  42
ATOM     42  C   UNL     1      -7.032  -2.808   3.297  1.00  0.00     0.021 C 
BRANCH  42  43
ATOM     43  C   UNL     1      -7.618  -4.010   4.045  1.00  0.00     0.002 C 
BRANCH  43  44
ATOM     44  C   UNL     1      -8.366  -3.661   5.337  1.00  0.00     0.002 C 
BRANCH  44  45
ATOM     45  C   UNL     1      -9.431  -2.571   5.191  1.00  0.00     0.021 C 
BRANCH  45  46
ATOM     46  C   UNL     1     -10.515  -2.891   4.171  1.00  0.00     0.116 C 
BRANCH  46  47
ATOM     47  N   UNL     1     -11.275  -4.069   4.551  1.00  0.00    -0.352 N 
ATOM     48  C   UNL     1     -12.623  -4.198   4.764  1.00  0.00     0.251 C 
ATOM     49  H   UNL     1     -10.748  -4.891   4.673  1.00  0.00     0.163 HD
ATOM     50  O   UNL     1     -13.070  -5.202   5.309  1.00  0.00    -0.269 OA
BRANCH  48  51
ATOM     51  C   UNL     1     -13.535  -3.112   4.351  1.00  0.00     0.039 A 
ATOM     52  C   UNL     1     -14.543  -2.709   5.228  1.00  0.00     0.014 A 
ATOM     53  C   UNL     1     -13.396  -2.494   3.104  1.00  0.00     0.014 A 
ATOM     54  C   UNL     1     -15.373  -1.643   4.880  1.00  0.00     0.010 A 
ATOM     55  C   UNL     1     -14.175  -1.384   2.791  1.00  0.00     0.010 A 
ATOM     56  C   UNL     1     -15.171  -0.947   3.677  1.00  0.00    -0.014 A 
BRANCH  56  57
ATOM     57  C   UNL     1     -15.977   0.256   3.347  1.00  0.00     0.031 A 
ATOM     58  C   UNL     1     -16.884   0.260   2.147  1.00  0.00     0.074 A 
ATOM     59  C   UNL     1     -15.844   1.365   4.101  1.00  0.00     0.049 A 
ATOM     60  N   UNL     1     -17.621   1.234   1.676  1.00  0.00    -0.248 NA
ATOM     61  C   UNL     1     -16.956  -0.981   1.359  1.00  0.00     0.031 C 
ATOM     62  C   UNL     1     -14.957   1.501   5.259  1.00  0.00     0.029 A 
ATOM     63  N   UNL     1     -16.444   2.596   3.999  1.00  0.00    -0.354 N 
ATOM     64  C   UNL     1     -18.232   0.729   0.535  1.00  0.00     0.074 A 
ATOM     65  C   UNL     1     -17.748  -0.623   0.358  1.00  0.00     0.031 C 
ATOM     66  C   UNL     1     -15.084   2.736   5.769  1.00  0.00     0.029 A 
ATOM     67  C   UNL     1     -16.026   3.493   4.953  1.00  0.00     0.049 A 
ATOM     68  H   UNL     1     -17.110   2.815   3.309  1.00  0.00     0.167 HD
ATOM     69  C   UNL     1     -19.129   1.333  -0.279  1.00  0.00     0.037 A 
ATOM     70  C   UNL     1     -16.351   4.787   5.138  1.00  0.00     0.037 A 
ATOM     71  C   UNL     1     -19.630   2.669  -0.083  1.00  0.00     0.049 A 
ATOM     72  C   UNL     1     -17.345   5.431   4.210  1.00  0.00     0.074 A 
ATOM     73  C   UNL     1     -20.600   3.338  -0.809  1.00  0.00     0.029 A 
ATOM     74  N   UNL     1     -19.195   3.540   0.904  1.00  0.00    -0.354 N 
ATOM     75  N   UNL     1     -17.983   4.910   3.190  1.00  0.00    -0.248 NA
ATOM     76  C   UNL     1     -17.669   6.842   4.462  1.00  0.00     0.031 C 
ATOM     77  C   UNL     1     -20.709   4.635  -0.300  1.00  0.00     0.029 A 
ATOM     78  C   UNL     1     -19.853   4.753   0.782  1.00  0.00     0.049 A 
ATOM     79  H   UNL     1     -18.521   3.329   1.589  1.00  0.00     0.167 HD
ATOM     80  C   UNL     1     -18.802   5.918   2.699  1.00  0.00     0.074 A 
ATOM     81  C   UNL     1     -18.598   7.074   3.546  1.00  0.00     0.031 C 
ATOM     82  C   UNL     1     -19.645   5.892   1.638  1.00  0.00     0.037 A 
BRANCH  69  83
ATOM     83  C   UNL     1     -19.640   0.563  -1.462  1.00  0.00     0.057 A 
ATOM     84  C   UNL     1     -20.528  -0.511  -1.319  1.00  0.00     0.134 A 
ATOM     85  C   UNL     1     -19.310   0.960  -2.764  1.00  0.00     0.134 A 
ATOM     86  F   UNL     1     -20.878  -0.946  -0.099  1.00  0.00    -0.206 F 
ATOM     87  C   UNL     1     -21.062  -1.168  -2.428  1.00  0.00     0.040 A 
ATOM     88  C   UNL     1     -19.858   0.327  -3.881  1.00  0.00     0.040 A 
ATOM     89  F   UNL     1     -18.471   1.985  -2.972  1.00  0.00    -0.206 F 
ATOM     90  C   UNL     1     -20.737  -0.741  -3.714  1.00  0.00     0.006 A 
ENDBRANCH  69  83
BRANCH  70  91
ATOM     91  C   UNL     1     -15.729   5.571   6.237  1.00  0.00     0.057 A 
ATOM     92  C   UNL     1     -16.490   6.051   7.309  1.00  0.00     0.134 A 
ATOM     93  C   UNL     1     -14.367   5.900   6.217  1.00  0.00     0.134 A 
ATOM     94  F   UNL     1     -17.803   5.786   7.377  1.00  0.00    -0.206 F 
ATOM     95  C   UNL     1     -15.930   6.860   8.300  1.00  0.00     0.040 A 
ATOM     96  C   UNL     1     -13.788   6.680   7.218  1.00  0.00     0.040 A 
ATOM     97  F   UNL     1     -13.579   5.463   5.223  1.00  0.00    -0.206 F 
ATOM     98  C   UNL     1     -14.574   7.175   8.256  1.00  0.00     0.006 A 
ENDBRANCH  70  91
BRANCH  82  99
ATOM     99  C   UNL     1     -20.435   7.138   1.356  1.00  0.00     0.057 A 
ATOM    100  C   UNL     1     -19.833   8.300   0.858  1.00  0.00     0.134 A 
ATOM    101  C   UNL     1     -21.822   7.162   1.553  1.00  0.00     0.134 A 
ATOM    102  F   UNL     1     -18.507   8.348   0.659  1.00  0.00    -0.206 F 
ATOM    103  C   UNL     1     -20.578   9.450   0.592  1.00  0.00     0.040 A 
ATOM    104  C   UNL     1     -22.581   8.295   1.261  1.00  0.00     0.040 A 
ATOM    105  F   UNL     1     -22.464   6.079   2.018  1.00  0.00    -0.206 F 
ATOM    106  C   UNL     1     -21.957   9.447   0.786  1.00  0.00     0.006 A 
ENDBRANCH  82  99
ENDBRANCH  56  57
ENDBRANCH  48  51
ENDBRANCH  46  47
ENDBRANCH  45  46
ENDBRANCH  44  45
ENDBRANCH  43  44
ENDBRANCH  42  43
ENDBRANCH  41  42
ENDBRANCH  39  41
ENDBRANCH   1  37
TORSDOF 26
