REMARK SMILES CC1=C2C(=O)CC(C)(C)CC2=N[C@@H]1C(=O)NCCCCCCNC(=O)c1ccc(-c2c3nc(c(-c4c(F)cccc4F)c4ccc([nH]4)c(-c4c(F)cccc4F)c4nc(c(-c5c(F)cccc5F)c5ccc2[nH]5)C=C4)C=C3)cc1
REMARK SMILES IDX 20 1 19 2 18 3 17 4 16 5 14 6 15 7 13 9 1 10 2 11 3 12 4 13
REMARK SMILES IDX 11 14 12 15 5 16 6 17 10 18 7 19 8 20 9 21 21 22 22 23 23 24
REMARK SMILES IDX 24 25 25 27 26 28 27 29 79 30 28 31 78 32 29 33 30 34 31 35
REMARK SMILES IDX 72 36 32 37 77 38 71 39 73 40 33 41 76 42 70 43 69 44 34 46
REMARK SMILES IDX 60 47 43 48 59 49 44 50 47 51 58 52 74 53 45 54 46 55 57 57
REMARK SMILES IDX 75 58 48 59 35 60 36 61 41 62 37 63 38 64 40 65 42 66 39 67
REMARK SMILES IDX 61 68 62 69 67 70 63 71 64 72 66 73 68 74 65 75 49 76 50 77
REMARK SMILES IDX 55 78 51 79 52 80 54 81 56 82 53 83
REMARK H PARENT 16 8 23 26 73 45 47 56
REMARK Flexibility Score: inf
ROOT
ATOM      1  C   UNL     1      -3.224   1.805  -4.232  1.00  0.00     0.002 C 
ENDROOT
BRANCH   1   2
ATOM      2  C   UNL     1      -2.638   3.133  -3.716  1.00  0.00     0.002 C 
BRANCH   2   3
ATOM      3  C   UNL     1      -2.028   3.093  -2.314  1.00  0.00     0.021 C 
BRANCH   3   4
ATOM      4  C   UNL     1      -0.962   2.014  -2.141  1.00  0.00     0.116 C 
BRANCH   4   5
ATOM      5  N   UNL     1       0.401   2.465  -2.279  1.00  0.00    -0.354 N 
ATOM      6  C   UNL     1       1.366   2.609  -1.318  1.00  0.00     0.249 C 
ATOM      7  O   UNL     1       2.533   2.709  -1.717  1.00  0.00    -0.272 OA
ATOM      8  H   UNL     1       0.676   2.704  -3.193  1.00  0.00     0.163 HD
BRANCH   6   9
ATOM      9  C   UNL     1       1.063   2.599   0.216  1.00  0.00     0.221 C 
ATOM     10  C   UNL     1       2.173   0.230   0.530  1.00  0.00     0.043 C 
ATOM     11  C   UNL     1       1.188   1.272   0.931  1.00  0.00    -0.027 C 
ATOM     12  C   UNL     1       0.188   1.115   1.807  1.00  0.00     0.040 C 
ATOM     13  C   UNL     1      -0.268   0.032   2.705  1.00  0.00     0.165 C 
ATOM     14  C   UNL     1      -0.776   2.024   1.200  1.00  0.00     0.048 C 
ATOM     15  N   UNL     1      -0.351   3.015   0.473  1.00  0.00    -0.271 NA
ATOM     16  O   UNL     1       0.428  -0.336   3.646  1.00  0.00    -0.294 OA
ATOM     17  C   UNL     1      -1.678  -0.520   2.466  1.00  0.00     0.088 C 
ATOM     18  C   UNL     1      -2.209   1.586   1.220  1.00  0.00     0.063 C 
ATOM     19  C   UNL     1      -2.292   0.019   1.151  1.00  0.00    -0.023 C 
ATOM     20  C   UNL     1      -1.564  -0.712  -0.015  1.00  0.00     0.012 C 
ATOM     21  C   UNL     1      -3.776  -0.346   0.975  1.00  0.00     0.012 C 
ENDBRANCH   6   9
ENDBRANCH   4   5
ENDBRANCH   3   4
ENDBRANCH   2   3
ENDBRANCH   1   2
BRANCH   1  22
ATOM     22  C   UNL     1      -4.270   1.111  -3.344  1.00  0.00     0.021 C 
BRANCH  22  23
ATOM     23  C   UNL     1      -5.596   1.851  -3.280  1.00  0.00     0.116 C 
BRANCH  23  24
ATOM     24  N   UNL     1      -6.252   1.927  -4.587  1.00  0.00    -0.352 N 
ATOM     25  C   UNL     1      -7.421   2.575  -4.941  1.00  0.00     0.251 C 
ATOM     26  H   UNL     1      -5.797   1.448  -5.317  1.00  0.00     0.163 HD
ATOM     27  O   UNL     1      -8.022   2.283  -5.961  1.00  0.00    -0.269 OA
BRANCH  25  28
ATOM     28  C   UNL     1      -7.926   3.638  -4.056  1.00  0.00     0.039 A 
ATOM     29  C   UNL     1      -9.291   3.792  -3.797  1.00  0.00     0.014 A 
ATOM     30  C   UNL     1      -6.990   4.471  -3.455  1.00  0.00     0.014 A 
ATOM     31  C   UNL     1      -9.688   4.745  -2.864  1.00  0.00     0.010 A 
ATOM     32  C   UNL     1      -7.360   5.255  -2.400  1.00  0.00     0.010 A 
ATOM     33  C   UNL     1      -8.710   5.460  -2.153  1.00  0.00    -0.014 A 
BRANCH  33  34
ATOM     34  C   UNL     1      -9.065   6.360  -1.065  1.00  0.00     0.031 A 
ATOM     35  C   UNL     1      -9.909   5.737  -0.013  1.00  0.00     0.074 A 
ATOM     36  C   UNL     1      -8.495   7.576  -0.907  1.00  0.00     0.049 A 
ATOM     37  N   UNL     1     -11.139   6.007   0.269  1.00  0.00    -0.248 NA
ATOM     38  C   UNL     1      -9.376   4.570   0.712  1.00  0.00     0.031 C 
ATOM     39  C   UNL     1      -7.416   8.194  -1.691  1.00  0.00     0.029 A 
ATOM     40  N   UNL     1      -8.700   8.494   0.075  1.00  0.00    -0.354 N 
ATOM     41  C   UNL     1     -11.468   5.204   1.357  1.00  0.00     0.074 A 
ATOM     42  C   UNL     1     -10.427   4.215   1.455  1.00  0.00     0.031 C 
ATOM     43  C   UNL     1      -6.910   9.252  -1.020  1.00  0.00     0.029 A 
ATOM     44  C   UNL     1      -7.741   9.500   0.142  1.00  0.00     0.049 A 
ATOM     45  H   UNL     1      -9.468   8.450   0.690  1.00  0.00     0.167 HD
ATOM     46  C   UNL     1     -12.430   5.591   2.240  1.00  0.00     0.037 A 
ATOM     47  C   UNL     1      -7.635  10.456   1.099  1.00  0.00     0.037 A 
ATOM     48  C   UNL     1     -13.254   6.635   1.677  1.00  0.00     0.049 A 
ATOM     49  C   UNL     1      -8.953  10.541   1.775  1.00  0.00     0.074 A 
ATOM     50  C   UNL     1     -14.055   6.746   0.557  1.00  0.00     0.029 A 
ATOM     51  N   UNL     1     -13.013   7.925   2.086  1.00  0.00    -0.354 N 
ATOM     52  N   UNL     1     -10.033  10.987   1.198  1.00  0.00    -0.248 NA
ATOM     53  C   UNL     1      -9.168   9.687   2.932  1.00  0.00     0.031 C 
ATOM     54  C   UNL     1     -13.830   8.070   0.073  1.00  0.00     0.029 A 
ATOM     55  C   UNL     1     -12.972   8.713   0.965  1.00  0.00     0.049 A 
ATOM     56  H   UNL     1     -12.891   8.227   3.015  1.00  0.00     0.167 HD
ATOM     57  C   UNL     1     -11.036  10.129   1.622  1.00  0.00     0.074 A 
ATOM     58  C   UNL     1     -10.460   9.401   2.752  1.00  0.00     0.031 C 
ATOM     59  C   UNL     1     -12.125   9.876   0.836  1.00  0.00     0.037 A 
BRANCH  46  60
ATOM     60  C   UNL     1     -12.373   5.333   3.728  1.00  0.00     0.057 A 
ATOM     61  C   UNL     1     -13.470   5.710   4.525  1.00  0.00     0.134 A 
ATOM     62  C   UNL     1     -11.198   5.024   4.443  1.00  0.00     0.134 A 
ATOM     63  F   UNL     1     -14.648   6.032   3.968  1.00  0.00    -0.206 F 
ATOM     64  C   UNL     1     -13.375   5.861   5.914  1.00  0.00     0.040 A 
ATOM     65  C   UNL     1     -11.107   5.122   5.834  1.00  0.00     0.040 A 
ATOM     66  F   UNL     1     -10.045   4.710   3.841  1.00  0.00    -0.206 F 
ATOM     67  C   UNL     1     -12.186   5.577   6.572  1.00  0.00     0.006 A 
ENDBRANCH  46  60
BRANCH  47  68
ATOM     68  C   UNL     1      -6.420  11.080   1.670  1.00  0.00     0.057 A 
ATOM     69  C   UNL     1      -6.507  12.239   2.457  1.00  0.00     0.134 A 
ATOM     70  C   UNL     1      -5.194  10.396   1.714  1.00  0.00     0.134 A 
ATOM     71  F   UNL     1      -7.648  12.942   2.510  1.00  0.00    -0.206 F 
ATOM     72  C   UNL     1      -5.451  12.669   3.272  1.00  0.00     0.040 A 
ATOM     73  C   UNL     1      -4.129  10.818   2.520  1.00  0.00     0.040 A 
ATOM     74  F   UNL     1      -5.020   9.243   1.052  1.00  0.00    -0.206 F 
ATOM     75  C   UNL     1      -4.262  11.948   3.317  1.00  0.00     0.006 A 
ENDBRANCH  47  68
BRANCH  59  76
ATOM     76  C   UNL     1     -12.326  10.740  -0.382  1.00  0.00     0.057 A 
ATOM     77  C   UNL     1     -11.435  10.810  -1.465  1.00  0.00     0.134 A 
ATOM     78  C   UNL     1     -13.535  11.429  -0.521  1.00  0.00     0.134 A 
ATOM     79  F   UNL     1     -10.296  10.108  -1.475  1.00  0.00    -0.206 F 
ATOM     80  C   UNL     1     -11.712  11.571  -2.606  1.00  0.00     0.040 A 
ATOM     81  C   UNL     1     -13.840  12.165  -1.670  1.00  0.00     0.040 A 
ATOM     82  F   UNL     1     -14.464  11.366   0.446  1.00  0.00    -0.206 F 
ATOM     83  C   UNL     1     -12.921  12.248  -2.712  1.00  0.00     0.006 A 
ENDBRANCH  59  76
ENDBRANCH  33  34
ENDBRANCH  25  28
ENDBRANCH  23  24
ENDBRANCH  22  23
ENDBRANCH   1  22
TORSDOF 13
