REMARK SMILES COCc1cc(C)nc(N/N=C\c2ccc(-c3cccc(C(=O)NCCCCCCNC(=O)c4ccc(-c5c6nc(c(-c7c(F)cccc7F)c7ccc([nH]7)c(-c7c(F)cccc7F)c7nc(c(-c8c(F)cccc8F)c8ccc5[nH]8)C=C7)C=C6)cc4)c3)o2)c1C#N
REMARK SMILES IDX 25 1 24 2 22 3 23 4 21 6 17 7 18 8 88 9 19 10 20 11 16 12
REMARK SMILES IDX 13 13 14 14 89 15 15 16 12 17 11 18 10 19 9 21 4 22 5 23
REMARK SMILES IDX 90 24 6 25 7 26 8 27 3 28 2 29 1 30 91 31 92 32 26 33 27 34
REMARK SMILES IDX 28 35 29 36 30 37 31 38 32 39 33 41 34 42 35 43 87 44 36 45
REMARK SMILES IDX 86 46 37 47 38 48 39 49 80 50 40 51 85 52 79 53 81 54 41 55
REMARK SMILES IDX 84 56 78 57 77 58 42 60 68 61 51 62 67 63 52 64 55 65 66 66
REMARK SMILES IDX 82 67 53 68 54 69 65 71 83 72 56 73 43 74 44 75 49 76 45 77
REMARK SMILES IDX 46 78 48 79 50 80 47 81 69 82 70 83 75 84 71 85 72 86 74 87
REMARK SMILES IDX 76 88 73 89 57 90 58 91 63 92 59 93 60 94 62 95 64 96 61 97
REMARK H PARENT 24 5 10 20 31 40 81 59 55 70
REMARK Flexibility Score: inf
ROOT
ATOM      1  C   UNL     1       2.794  -4.953   3.903  1.00  0.00     0.116 C 
ENDROOT
BRANCH   1   2
ATOM      2  N   UNL     1       2.205  -6.056   3.165  1.00  0.00    -0.352 N 
ATOM      3  C   UNL     1       0.905  -6.299   2.780  1.00  0.00     0.251 C 
ATOM      4  O   UNL     1       0.674  -7.268   2.062  1.00  0.00    -0.269 OA
ATOM      5  H   UNL     1       2.846  -6.752   2.893  1.00  0.00     0.163 HD
BRANCH   3   6
ATOM      6  C   UNL     1      -0.201  -5.372   3.141  1.00  0.00     0.040 A 
ATOM      7  C   UNL     1      -1.085  -3.596   4.543  1.00  0.00     0.018 A 
ATOM      8  C   UNL     1      -2.058  -3.332   3.568  1.00  0.00     0.012 A 
ATOM      9  C   UNL     1      -0.237  -4.691   4.358  1.00  0.00     0.025 A 
ATOM     10  C   UNL     1      -2.133  -4.113   2.410  1.00  0.00     0.002 A 
ATOM     11  C   UNL     1      -1.187  -5.114   2.183  1.00  0.00     0.014 A 
BRANCH   7  12
ATOM     12  C   UNL     1      -0.715  -2.589   5.541  1.00  0.00     0.134 A 
ATOM     13  C   UNL     1      -0.982  -0.595   6.394  1.00  0.00     0.147 A 
ATOM     14  C   UNL     1       0.336  -0.920   6.621  1.00  0.00     0.053 A 
ATOM     15  O   UNL     1      -1.646  -1.642   5.826  1.00  0.00    -0.455 OA
ATOM     16  C   UNL     1       0.506  -2.219   6.088  1.00  0.00     0.051 A 
BRANCH  13  17
ATOM     17  C   UNL     1      -1.733   0.580   6.650  1.00  0.00     0.180 C 
ATOM     18  N   UNL     1      -1.750   1.734   6.065  1.00  0.00    -0.178 NA
BRANCH  18  19
ATOM     19  N   UNL     1      -1.075   2.191   4.984  1.00  0.00    -0.260 N 
ATOM     20  H   UNL     1      -1.111   3.172   4.910  1.00  0.00     0.192 HD
BRANCH  19  21
ATOM     21  C   UNL     1      -0.321   1.597   3.923  1.00  0.00     0.164 A 
ATOM     22  C   UNL     1       0.926   1.940   1.837  1.00  0.00     0.001 A 
ATOM     23  C   UNL     1       1.479   0.688   2.019  1.00  0.00     0.031 A 
ATOM     24  C   UNL     1       0.073   2.433   2.841  1.00  0.00     0.102 A 
ATOM     25  C   UNL     1       0.930  -0.139   2.967  1.00  0.00     0.040 A 
ATOM     26  C   UNL     1       1.275  -1.587   2.793  1.00  0.00     0.067 C 
ATOM     27  N   UNL     1       0.049   0.293   3.909  1.00  0.00    -0.233 NA
BRANCH  22  28
ATOM     28  C   UNL     1       1.196   2.603   0.509  1.00  0.00     0.196 C 
BRANCH  28  29
ATOM     29  O   UNL     1       0.448   1.986  -0.552  1.00  0.00    -0.380 OA
ATOM     30  C   UNL     1       0.846   0.666  -0.913  1.00  0.00     0.195 C 
ENDBRANCH  28  29
ENDBRANCH  22  28
BRANCH  24  31
ATOM     31  C   UNL     1      -0.343   3.799   2.796  1.00  0.00     0.103 C 
ATOM     32  N   UNL     1      -0.652   4.921   2.822  1.00  0.00    -0.192 NA
ENDBRANCH  24  31
ENDBRANCH  19  21
ENDBRANCH  18  19
ENDBRANCH  13  17
ENDBRANCH   7  12
ENDBRANCH   3   6
ENDBRANCH   1   2
BRANCH   1  33
ATOM     33  C   UNL     1       3.055  -5.340   5.360  1.00  0.00     0.021 C 
BRANCH  33  34
ATOM     34  C   UNL     1       4.329  -6.161   5.556  1.00  0.00     0.002 C 
BRANCH  34  35
ATOM     35  C   UNL     1       5.616  -5.433   5.160  1.00  0.00     0.002 C 
BRANCH  35  36
ATOM     36  C   UNL     1       5.824  -4.083   5.850  1.00  0.00     0.021 C 
BRANCH  36  37
ATOM     37  C   UNL     1       5.871  -4.164   7.371  1.00  0.00     0.116 C 
BRANCH  37  38
ATOM     38  N   UNL     1       6.973  -4.997   7.827  1.00  0.00    -0.352 N 
ATOM     39  C   UNL     1       8.020  -4.676   8.651  1.00  0.00     0.251 C 
ATOM     40  H   UNL     1       6.965  -5.924   7.497  1.00  0.00     0.163 HD
ATOM     41  O   UNL     1       8.997  -5.414   8.726  1.00  0.00    -0.269 OA
BRANCH  39  42
ATOM     42  C   UNL     1       7.971  -3.429   9.440  1.00  0.00     0.039 A 
ATOM     43  C   UNL     1       9.124  -2.651   9.548  1.00  0.00     0.014 A 
ATOM     44  C   UNL     1       6.790  -3.035  10.076  1.00  0.00     0.014 A 
ATOM     45  C   UNL     1       9.078  -1.451  10.256  1.00  0.00     0.010 A 
ATOM     46  C   UNL     1       6.721  -1.793  10.696  1.00  0.00     0.010 A 
ATOM     47  C   UNL     1       7.868  -0.995  10.807  1.00  0.00    -0.014 A 
BRANCH  47  48
ATOM     48  C   UNL     1       7.797   0.314  11.501  1.00  0.00     0.031 A 
ATOM     49  C   UNL     1       7.418   0.391  12.953  1.00  0.00     0.074 A 
ATOM     50  C   UNL     1       8.037   1.443  10.807  1.00  0.00     0.049 A 
ATOM     51  N   UNL     1       7.313   1.443  13.725  1.00  0.00    -0.248 NA
ATOM     52  C   UNL     1       7.083  -0.877  13.619  1.00  0.00     0.031 C 
ATOM     53  C   UNL     1       8.351   1.504   9.379  1.00  0.00     0.029 A 
ATOM     54  N   UNL     1       8.053   2.754  11.208  1.00  0.00    -0.354 N 
ATOM     55  C   UNL     1       6.895   0.965  14.960  1.00  0.00     0.074 A 
ATOM     56  C   UNL     1       6.691  -0.459  14.813  1.00  0.00     0.031 C 
ATOM     57  C   UNL     1       8.568   2.781   9.032  1.00  0.00     0.029 A 
ATOM     58  C   UNL     1       8.361   3.633  10.199  1.00  0.00     0.049 A 
ATOM     59  H   UNL     1       7.862   3.038  12.131  1.00  0.00     0.167 HD
ATOM     60  C   UNL     1       6.722   1.645  16.119  1.00  0.00     0.037 A 
ATOM     61  C   UNL     1       8.460   4.975  10.209  1.00  0.00     0.037 A 
ATOM     62  C   UNL     1       6.923   3.065  16.254  1.00  0.00     0.049 A 
ATOM     63  C   UNL     1       8.246   5.716  11.498  1.00  0.00     0.074 A 
ATOM     64  C   UNL     1       6.832   3.843  17.394  1.00  0.00     0.029 A 
ATOM     65  N   UNL     1       7.232   3.923  15.208  1.00  0.00    -0.354 N 
ATOM     66  N   UNL     1       7.941   5.243  12.682  1.00  0.00    -0.248 NA
ATOM     67  C   UNL     1       8.400   7.176  11.455  1.00  0.00     0.031 C 
ATOM     68  C   UNL     1       7.009   5.181  17.024  1.00  0.00     0.029 A 
ATOM     69  C   UNL     1       7.294   5.229  15.669  1.00  0.00     0.049 A 
ATOM     70  H   UNL     1       7.386   3.645  14.276  1.00  0.00     0.167 HD
ATOM     71  C   UNL     1       7.888   6.341  13.531  1.00  0.00     0.074 A 
ATOM     72  C   UNL     1       8.210   7.502  12.726  1.00  0.00     0.031 C 
ATOM     73  C   UNL     1       7.604   6.381  14.857  1.00  0.00     0.037 A 
BRANCH  60  74
ATOM     74  C   UNL     1       6.271   0.856  17.318  1.00  0.00     0.057 A 
ATOM     75  C   UNL     1       7.069  -0.140  17.902  1.00  0.00     0.134 A 
ATOM     76  C   UNL     1       5.015   1.086  17.893  1.00  0.00     0.134 A 
ATOM     77  F   UNL     1       8.283  -0.420  17.401  1.00  0.00    -0.206 F 
ATOM     78  C   UNL     1       6.613  -0.912  18.973  1.00  0.00     0.040 A 
ATOM     79  C   UNL     1       4.564   0.348  18.989  1.00  0.00     0.040 A 
ATOM     80  F   UNL     1       4.200   2.030  17.398  1.00  0.00    -0.206 F 
ATOM     81  C   UNL     1       5.357  -0.665  19.521  1.00  0.00     0.006 A 
ENDBRANCH  60  74
BRANCH  61  82
ATOM     82  C   UNL     1       8.797   5.689   8.951  1.00  0.00     0.057 A 
ATOM     83  C   UNL     1      10.039   6.311   8.777  1.00  0.00     0.134 A 
ATOM     84  C   UNL     1       7.899   5.731   7.878  1.00  0.00     0.134 A 
ATOM     85  F   UNL     1      10.937   6.317   9.772  1.00  0.00    -0.206 F 
ATOM     86  C   UNL     1      10.372   6.955   7.584  1.00  0.00     0.040 A 
ATOM     87  C   UNL     1       8.229   6.347   6.670  1.00  0.00     0.040 A 
ATOM     88  F   UNL     1       6.698   5.142   7.977  1.00  0.00    -0.206 F 
ATOM     89  C   UNL     1       9.468   6.966   6.523  1.00  0.00     0.006 A 
ENDBRANCH  61  82
BRANCH  73  90
ATOM     90  C   UNL     1       7.657   7.723  15.533  1.00  0.00     0.057 A 
ATOM     91  C   UNL     1       6.716   8.728  15.273  1.00  0.00     0.134 A 
ATOM     92  C   UNL     1       8.642   7.997  16.492  1.00  0.00     0.134 A 
ATOM     93  F   UNL     1       5.752   8.539  14.360  1.00  0.00    -0.206 F 
ATOM     94  C   UNL     1       6.771   9.965  15.920  1.00  0.00     0.040 A 
ATOM     95  C   UNL     1       8.685   9.215  17.171  1.00  0.00     0.040 A 
ATOM     96  F   UNL     1       9.568   7.076  16.800  1.00  0.00    -0.206 F 
ATOM     97  C   UNL     1       7.753  10.207  16.879  1.00  0.00     0.006 A 
ENDBRANCH  73  90
ENDBRANCH  47  48
ENDBRANCH  39  42
ENDBRANCH  37  38
ENDBRANCH  36  37
ENDBRANCH  35  36
ENDBRANCH  34  35
ENDBRANCH  33  34
ENDBRANCH   1  33
TORSDOF 20
