REMARK SMILES O=C1C[C@@H](c2cccc(O)c2)c2c(c(C(=O)NCCCCCCNC(=O)c3ccc(-c4c5nc(c(-c6c(F)cccc6F)c6ccc([nH]6)c(-c6c(F)cccc6F)c6nc(c(-c7c(F)cccc7F)c7ccc4[nH]7)C=C6)C=C5)cc3)cn2-c2cccc(C(F)(F)F)c2)N1
REMARK SMILES IDX 20 1 19 2 18 3 17 4 15 5 16 6 14 8 1 9 2 10 3 11 93 12 4 13
REMARK SMILES IDX 13 14 12 16 82 17 81 18 5 19 6 20 11 21 7 22 9 23 8 24 10 25
REMARK SMILES IDX 83 27 84 28 92 29 85 30 87 31 86 32 88 33 89 34 90 35 91 36
REMARK SMILES IDX 21 37 22 38 23 39 24 40 25 41 26 43 27 44 28 45 80 46 29 47
REMARK SMILES IDX 79 48 30 49 31 50 32 51 73 52 33 53 78 54 72 55 74 56 34 57
REMARK SMILES IDX 77 58 71 59 70 60 35 62 61 63 44 64 60 65 45 66 48 67 59 68
REMARK SMILES IDX 75 69 46 70 47 71 58 73 76 74 49 75 36 76 37 77 42 78 38 79
REMARK SMILES IDX 39 80 41 81 43 82 40 83 62 84 63 85 68 86 64 87 65 88 67 89
REMARK SMILES IDX 69 90 66 91 50 92 51 93 56 94 52 95 53 96 55 97 57 98 54 99
REMARK H PARENT 17 7 93 15 10 26 24 42 74 61 48 72
REMARK Flexibility Score: inf
ROOT
ATOM      1  C   UNL     1       6.654  -5.740   4.909  1.00  0.00     0.002 C 
ENDROOT
BRANCH   1   2
ATOM      2  C   UNL     1       6.373  -4.239   4.915  1.00  0.00     0.021 C 
BRANCH   2   3
ATOM      3  C   UNL     1       6.748  -3.508   3.631  1.00  0.00     0.116 C 
BRANCH   3   4
ATOM      4  N   UNL     1       5.848  -3.796   2.536  1.00  0.00    -0.352 N 
ATOM      5  C   UNL     1       5.077  -2.989   1.738  1.00  0.00     0.254 C 
ATOM      6  O   UNL     1       4.327  -3.551   0.939  1.00  0.00    -0.269 OA
ATOM      7  H   UNL     1       5.775  -4.754   2.322  1.00  0.00     0.163 HD
BRANCH   5   8
ATOM      8  C   UNL     1       5.094  -1.532   1.840  1.00  0.00     0.081 A 
ATOM      9  O   UNL     1       1.506  -0.259  -1.062  1.00  0.00    -0.275 OA
ATOM     10  C   UNL     1       2.472   0.021  -0.353  1.00  0.00     0.225 C 
ATOM     11  C   UNL     1       3.063   1.427  -0.317  1.00  0.00     0.115 C 
ATOM     12  N   UNL     1       3.148  -0.952   0.341  1.00  0.00    -0.324 N 
ATOM     13  C   UNL     1       3.683   1.822   1.040  1.00  0.00     0.078 C 
ATOM     14  C   UNL     1       4.170  -0.657   1.213  1.00  0.00     0.076 A 
ATOM     15  H   UNL     1       2.893  -1.893   0.210  1.00  0.00     0.170 HD
ATOM     16  C   UNL     1       4.421   0.641   1.595  1.00  0.00     0.055 A 
ATOM     17  N   UNL     1       5.504   0.619   2.449  1.00  0.00    -0.317 N 
ATOM     18  C   UNL     1       6.011  -0.672   2.422  1.00  0.00     0.107 A 
BRANCH  13  19
ATOM     19  C   UNL     1       2.632   2.380   1.983  1.00  0.00    -0.035 A 
ATOM     20  C   UNL     1       1.605   1.585   2.518  1.00  0.00     0.005 A 
ATOM     21  C   UNL     1       2.722   3.722   2.386  1.00  0.00     0.050 A 
ATOM     22  C   UNL     1       0.721   2.107   3.463  1.00  0.00     0.004 A 
ATOM     23  C   UNL     1       1.858   4.220   3.353  1.00  0.00     0.115 A 
ATOM     24  C   UNL     1       0.856   3.425   3.895  1.00  0.00     0.046 A 
BRANCH  23  25
ATOM     25  O   UNL     1       2.066   5.497   3.783  1.00  0.00    -0.508 OA
ATOM     26  H   UNL     1       1.504   5.868   4.435  1.00  0.00     0.293 HD
ENDBRANCH  23  25
ENDBRANCH  13  19
BRANCH  17  27
ATOM     27  C   UNL     1       6.034   1.629   3.294  1.00  0.00     0.046 A 
ATOM     28  C   UNL     1       7.422   1.766   3.416  1.00  0.00     0.026 A 
ATOM     29  C   UNL     1       5.189   2.360   4.137  1.00  0.00     0.039 A 
ATOM     30  C   UNL     1       7.959   2.664   4.339  1.00  0.00     0.003 A 
ATOM     31  C   UNL     1       5.721   3.261   5.076  1.00  0.00     0.058 A 
ATOM     32  C   UNL     1       7.114   3.412   5.158  1.00  0.00     0.013 A 
BRANCH  31  33
ATOM     33  C   UNL     1       4.830   4.041   6.015  1.00  0.00     0.416 C 
ATOM     34  F   UNL     1       5.222   3.918   7.316  1.00  0.00    -0.166 F 
ATOM     35  F   UNL     1       4.836   5.377   5.755  1.00  0.00    -0.166 F 
ATOM     36  F   UNL     1       3.524   3.656   5.995  1.00  0.00    -0.166 F 
ENDBRANCH  31  33
ENDBRANCH  17  27
ENDBRANCH   5   8
ENDBRANCH   3   4
ENDBRANCH   2   3
ENDBRANCH   1   2
BRANCH   1  37
ATOM     37  C   UNL     1       8.067  -6.157   4.475  1.00  0.00     0.002 C 
BRANCH  37  38
ATOM     38  C   UNL     1       9.248  -5.445   5.156  1.00  0.00     0.021 C 
BRANCH  38  39
ATOM     39  C   UNL     1       9.361  -5.716   6.646  1.00  0.00     0.116 C 
BRANCH  39  40
ATOM     40  N   UNL     1       9.634  -7.128   6.938  1.00  0.00    -0.352 N 
ATOM     41  C   UNL     1       9.720  -7.776   8.161  1.00  0.00     0.251 C 
ATOM     42  H   UNL     1       9.777  -7.699   6.149  1.00  0.00     0.163 HD
ATOM     43  O   UNL     1      10.313  -8.836   8.270  1.00  0.00    -0.269 OA
BRANCH  41  44
ATOM     44  C   UNL     1       9.051  -7.172   9.327  1.00  0.00     0.039 A 
ATOM     45  C   UNL     1       9.542  -7.276  10.634  1.00  0.00     0.014 A 
ATOM     46  C   UNL     1       7.890  -6.461   9.069  1.00  0.00     0.014 A 
ATOM     47  C   UNL     1       8.837  -6.644  11.659  1.00  0.00     0.010 A 
ATOM     48  C   UNL     1       7.416  -5.594   9.999  1.00  0.00     0.010 A 
ATOM     49  C   UNL     1       7.759  -5.818  11.318  1.00  0.00    -0.014 A 
BRANCH  49  50
ATOM     50  C   UNL     1       6.966  -5.070  12.277  1.00  0.00     0.031 A 
ATOM     51  C   UNL     1       7.711  -3.945  12.883  1.00  0.00     0.074 A 
ATOM     52  C   UNL     1       5.617  -5.177  12.311  1.00  0.00     0.049 A 
ATOM     53  N   UNL     1       8.174  -3.864  14.085  1.00  0.00    -0.248 NA
ATOM     54  C   UNL     1       8.192  -2.877  11.987  1.00  0.00     0.031 C 
ATOM     55  C   UNL     1       4.737  -5.986  11.455  1.00  0.00     0.029 A 
ATOM     56  N   UNL     1       4.725  -4.473  13.060  1.00  0.00    -0.354 N 
ATOM     57  C   UNL     1       8.774  -2.611  14.159  1.00  0.00     0.074 A 
ATOM     58  C   UNL     1       9.012  -2.211  12.801  1.00  0.00     0.031 C 
ATOM     59  C   UNL     1       3.456  -5.565  11.585  1.00  0.00     0.029 A 
ATOM     60  C   UNL     1       3.398  -4.562  12.631  1.00  0.00     0.049 A 
ATOM     61  H   UNL     1       4.994  -3.941  13.844  1.00  0.00     0.167 HD
ATOM     62  C   UNL     1       8.709  -1.875  15.303  1.00  0.00     0.037 A 
ATOM     63  C   UNL     1       2.367  -3.806  13.095  1.00  0.00     0.037 A 
ATOM     64  C   UNL     1       8.277  -2.704  16.409  1.00  0.00     0.049 A 
ATOM     65  C   UNL     1       2.818  -3.206  14.381  1.00  0.00     0.074 A 
ATOM     66  C   UNL     1       8.732  -3.879  16.979  1.00  0.00     0.029 A 
ATOM     67  N   UNL     1       6.971  -2.578  16.822  1.00  0.00    -0.354 N 
ATOM     68  N   UNL     1       3.032  -3.899  15.466  1.00  0.00    -0.248 NA
ATOM     69  C   UNL     1       3.514  -1.929  14.306  1.00  0.00     0.031 C 
ATOM     70  C   UNL     1       7.553  -4.631  17.264  1.00  0.00     0.029 A 
ATOM     71  C   UNL     1       6.449  -3.839  16.951  1.00  0.00     0.049 A 
ATOM     72  H   UNL     1       6.496  -1.733  16.994  1.00  0.00     0.167 HD
ATOM     73  C   UNL     1       4.206  -3.375  15.991  1.00  0.00     0.074 A 
ATOM     74  C   UNL     1       4.425  -2.124  15.264  1.00  0.00     0.031 C 
ATOM     75  C   UNL     1       5.055  -4.147  16.732  1.00  0.00     0.037 A 
BRANCH  62  76
ATOM     76  C   UNL     1       8.603  -0.361  15.353  1.00  0.00     0.057 A 
ATOM     77  C   UNL     1       8.554   0.259  16.617  1.00  0.00     0.134 A 
ATOM     78  C   UNL     1       8.269   0.484  14.274  1.00  0.00     0.134 A 
ATOM     79  F   UNL     1       8.870  -0.418  17.730  1.00  0.00    -0.206 F 
ATOM     80  C   UNL     1       8.092   1.568  16.800  1.00  0.00     0.040 A 
ATOM     81  C   UNL     1       7.854   1.808  14.442  1.00  0.00     0.040 A 
ATOM     82  F   UNL     1       8.234   0.076  13.002  1.00  0.00    -0.206 F 
ATOM     83  C   UNL     1       7.724   2.343  15.710  1.00  0.00     0.006 A 
ENDBRANCH  62  76
BRANCH  63  84
ATOM     84  C   UNL     1       1.157  -3.301  12.397  1.00  0.00     0.057 A 
ATOM     85  C   UNL     1       0.091  -2.734  13.117  1.00  0.00     0.134 A 
ATOM     86  C   UNL     1       1.142  -3.081  11.010  1.00  0.00     0.134 A 
ATOM     87  F   UNL     1       0.027  -2.860  14.450  1.00  0.00    -0.206 F 
ATOM     88  C   UNL     1      -0.901  -1.957  12.501  1.00  0.00     0.040 A 
ATOM     89  C   UNL     1       0.154  -2.312  10.382  1.00  0.00     0.040 A 
ATOM     90  F   UNL     1       2.137  -3.524  10.228  1.00  0.00    -0.206 F 
ATOM     91  C   UNL     1      -0.862  -1.730  11.130  1.00  0.00     0.006 A 
ENDBRANCH  63  84
BRANCH  75  92
ATOM     92  C   UNL     1       4.580  -5.508  17.169  1.00  0.00     0.057 A 
ATOM     93  C   UNL     1       4.215  -6.546  16.294  1.00  0.00     0.134 A 
ATOM     94  C   UNL     1       4.632  -5.826  18.530  1.00  0.00     0.134 A 
ATOM     95  F   UNL     1       4.236  -6.375  14.967  1.00  0.00    -0.206 F 
ATOM     96  C   UNL     1       3.872  -7.820  16.759  1.00  0.00     0.040 A 
ATOM     97  C   UNL     1       4.327  -7.103  19.004  1.00  0.00     0.040 A 
ATOM     98  F   UNL     1       5.026  -4.904  19.423  1.00  0.00    -0.206 F 
ATOM     99  C   UNL     1       3.932  -8.102  18.120  1.00  0.00     0.006 A 
ENDBRANCH  75  92
ENDBRANCH  49  50
ENDBRANCH  41  44
ENDBRANCH  39  40
ENDBRANCH  38  39
ENDBRANCH  37  38
ENDBRANCH   1  37
TORSDOF 17
