REMARK SMILES CC1(C)Cc2c(-c3ccccc3)c(-c3ccc(Cl)cc3)c(CC(=O)NCCCCCCNC(=O)c3ccc(-c4c5nc(c(-c6c(F)cccc6F)c6ccc([nH]6)c(-c6c(F)cccc6F)c6nc(c(-c7c(F)cccc7F)c7ccc4[nH]7)C=C6)C=C5)cc3)n2C1
REMARK SMILES IDX 28 1 27 2 26 3 25 4 23 5 24 6 22 8 21 9 1 10 2 11 3 12 4 13
REMARK SMILES IDX 90 14 5 15 89 16 6 17 13 18 7 19 8 20 12 21 9 22 11 23 10 24
REMARK SMILES IDX 14 25 15 26 20 27 16 28 19 29 17 30 18 31 29 32 30 33 31 34
REMARK SMILES IDX 32 35 33 36 34 38 35 39 36 40 88 41 37 42 87 43 38 44 39 45
REMARK SMILES IDX 40 46 81 47 41 48 86 49 80 50 82 51 42 52 85 53 79 54 78 55
REMARK SMILES IDX 43 57 69 58 52 59 68 60 53 61 56 62 67 63 83 64 54 65 55 66
REMARK SMILES IDX 66 68 84 69 57 70 44 71 45 72 50 73 46 74 47 75 49 76 51 77
REMARK SMILES IDX 48 78 70 79 71 80 76 81 72 82 73 83 75 84 77 85 74 86 58 87
REMARK SMILES IDX 59 88 64 89 60 90 61 91 63 92 65 93 62 94
REMARK H PARENT 25 7 32 37 82 56 56 67
REMARK Flexibility Score: inf
ROOT
ATOM      1  C   UNL     1      -2.918  -4.386  -4.445  1.00  0.00     0.002 C 
ENDROOT
BRANCH   1   2
ATOM      2  C   UNL     1      -2.252  -3.834  -3.184  1.00  0.00     0.021 C 
BRANCH   2   3
ATOM      3  C   UNL     1      -3.217  -3.157  -2.214  1.00  0.00     0.116 C 
BRANCH   3   4
ATOM      4  N   UNL     1      -4.075  -4.096  -1.534  1.00  0.00    -0.356 N 
ATOM      5  C   UNL     1      -4.105  -4.416  -0.206  1.00  0.00     0.225 C 
ATOM      6  O   UNL     1      -4.990  -5.186   0.176  1.00  0.00    -0.275 OA
ATOM      7  H   UNL     1      -4.725  -4.569  -2.101  1.00  0.00     0.163 HD
BRANCH   5   8
ATOM      8  C   UNL     1      -3.130  -3.776   0.773  1.00  0.00     0.154 C 
BRANCH   8   9
ATOM      9  C   UNL     1      -1.688  -4.065   0.468  1.00  0.00     0.036 A 
ATOM     10  C   UNL     1       1.169   0.022   0.155  1.00  0.00     0.013 C 
ATOM     11  C   UNL     1       0.585  -1.274  -0.410  1.00  0.00    -0.012 C 
ATOM     12  C   UNL     1       0.421  -1.118  -1.934  1.00  0.00     0.013 C 
ATOM     13  C   UNL     1       1.492  -2.511  -0.105  1.00  0.00     0.063 C 
ATOM     14  C   UNL     1      -0.770  -1.623   0.274  1.00  0.00     0.129 C 
ATOM     15  C   UNL     1       0.493  -3.589   0.084  1.00  0.00     0.027 A 
ATOM     16  N   UNL     1      -0.756  -3.082   0.296  1.00  0.00    -0.346 N 
ATOM     17  C   UNL     1       0.400  -4.954   0.104  1.00  0.00     0.011 A 
ATOM     18  C   UNL     1      -0.982  -5.266   0.362  1.00  0.00     0.011 A 
BRANCH  17  19
ATOM     19  C   UNL     1       1.497  -5.881  -0.062  1.00  0.00    -0.016 A 
ATOM     20  C   UNL     1       2.503  -5.959   0.904  1.00  0.00     0.009 A 
ATOM     21  C   UNL     1       1.449  -6.823  -1.098  1.00  0.00     0.009 A 
ATOM     22  C   UNL     1       3.420  -7.009   0.865  1.00  0.00     0.001 A 
ATOM     23  C   UNL     1       2.377  -7.860  -1.146  1.00  0.00     0.001 A 
ATOM     24  C   UNL     1       3.348  -7.965  -0.152  1.00  0.00     0.000 A 
ENDBRANCH  17  19
BRANCH  18  25
ATOM     25  C   UNL     1      -1.535  -6.605   0.532  1.00  0.00    -0.016 A 
ATOM     26  C   UNL     1      -1.071  -7.414   1.580  1.00  0.00     0.010 A 
ATOM     27  C   UNL     1      -2.400  -7.155  -0.419  1.00  0.00     0.010 A 
ATOM     28  C   UNL     1      -1.472  -8.749   1.678  1.00  0.00     0.021 A 
ATOM     29  C   UNL     1      -2.822  -8.483  -0.309  1.00  0.00     0.021 A 
ATOM     30  C   UNL     1      -2.351  -9.276   0.734  1.00  0.00     0.041 A 
ATOM     31  Cl  UNL     1      -2.833 -10.924   0.842  1.00  0.00    -0.084 Cl
ENDBRANCH  18  25
ENDBRANCH   8   9
ENDBRANCH   5   8
ENDBRANCH   3   4
ENDBRANCH   2   3
ENDBRANCH   1   2
BRANCH   1  32
ATOM     32  C   UNL     1      -3.848  -3.409  -5.186  1.00  0.00     0.002 C 
BRANCH  32  33
ATOM     33  C   UNL     1      -3.276  -2.019  -5.512  1.00  0.00     0.021 C 
BRANCH  33  34
ATOM     34  C   UNL     1      -2.137  -2.054  -6.510  1.00  0.00     0.116 C 
BRANCH  34  35
ATOM     35  N   UNL     1      -2.558  -2.481  -7.851  1.00  0.00    -0.352 N 
ATOM     36  C   UNL     1      -1.788  -2.601  -9.002  1.00  0.00     0.251 C 
ATOM     37  H   UNL     1      -3.510  -2.712  -7.947  1.00  0.00     0.163 HD
ATOM     38  O   UNL     1      -2.290  -2.629 -10.110  1.00  0.00    -0.269 OA
BRANCH  36  39
ATOM     39  C   UNL     1      -0.329  -2.722  -8.831  1.00  0.00     0.039 A 
ATOM     40  C   UNL     1       0.609  -2.121  -9.673  1.00  0.00     0.014 A 
ATOM     41  C   UNL     1       0.077  -3.429  -7.712  1.00  0.00     0.014 A 
ATOM     42  C   UNL     1       1.957  -2.230  -9.331  1.00  0.00     0.010 A 
ATOM     43  C   UNL     1       1.314  -3.203  -7.207  1.00  0.00     0.010 A 
ATOM     44  C   UNL     1       2.290  -2.787  -8.087  1.00  0.00    -0.014 A 
BRANCH  44  45
ATOM     45  C   UNL     1       3.649  -2.952  -7.605  1.00  0.00     0.031 A 
ATOM     46  C   UNL     1       4.396  -1.681  -7.487  1.00  0.00     0.074 A 
ATOM     47  C   UNL     1       4.072  -4.119  -7.061  1.00  0.00     0.049 A 
ATOM     48  N   UNL     1       5.383  -1.273  -8.210  1.00  0.00    -0.248 NA
ATOM     49  C   UNL     1       3.869  -0.662  -6.563  1.00  0.00     0.031 C 
ATOM     50  C   UNL     1       3.310  -5.354  -6.795  1.00  0.00     0.029 A 
ATOM     51  N   UNL     1       5.294  -4.425  -6.551  1.00  0.00    -0.354 N 
ATOM     52  C   UNL     1       5.755  -0.044  -7.674  1.00  0.00     0.074 A 
ATOM     53  C   UNL     1       4.668   0.372  -6.829  1.00  0.00     0.031 C 
ATOM     54  C   UNL     1       4.022  -6.177  -5.991  1.00  0.00     0.029 A 
ATOM     55  C   UNL     1       5.352  -5.625  -5.846  1.00  0.00     0.049 A 
ATOM     56  H   UNL     1       6.078  -3.842  -6.670  1.00  0.00     0.167 HD
ATOM     57  C   UNL     1       7.045   0.384  -7.750  1.00  0.00     0.037 A 
ATOM     58  C   UNL     1       6.430  -6.120  -5.187  1.00  0.00     0.037 A 
ATOM     59  C   UNL     1       7.781  -0.377  -8.731  1.00  0.00     0.049 A 
ATOM     60  C   UNL     1       7.619  -5.396  -5.687  1.00  0.00     0.074 A 
ATOM     61  C   UNL     1       7.688  -0.570 -10.095  1.00  0.00     0.029 A 
ATOM     62  N   UNL     1       8.557  -1.409  -8.262  1.00  0.00    -0.354 N 
ATOM     63  N   UNL     1       8.077  -5.524  -6.899  1.00  0.00    -0.248 NA
ATOM     64  C   UNL     1       8.002  -4.178  -4.992  1.00  0.00     0.031 C 
ATOM     65  C   UNL     1       8.007  -1.948 -10.299  1.00  0.00     0.029 A 
ATOM     66  C   UNL     1       8.344  -2.501  -9.063  1.00  0.00     0.049 A 
ATOM     67  H   UNL     1       9.161  -1.371  -7.486  1.00  0.00     0.167 HD
ATOM     68  C   UNL     1       8.430  -4.237  -7.276  1.00  0.00     0.074 A 
ATOM     69  C   UNL     1       8.435  -3.464  -6.034  1.00  0.00     0.031 C 
ATOM     70  C   UNL     1       8.390  -3.863  -8.588  1.00  0.00     0.037 A 
BRANCH  57  71
ATOM     71  C   UNL     1       7.740   1.175  -6.665  1.00  0.00     0.057 A 
ATOM     72  C   UNL     1       9.043   1.649  -6.903  1.00  0.00     0.134 A 
ATOM     73  C   UNL     1       7.322   1.237  -5.319  1.00  0.00     0.134 A 
ATOM     74  F   UNL     1       9.562   1.641  -8.140  1.00  0.00    -0.206 F 
ATOM     75  C   UNL     1       9.891   2.067  -5.870  1.00  0.00     0.040 A 
ATOM     76  C   UNL     1       8.144   1.700  -4.288  1.00  0.00     0.040 A 
ATOM     77  F   UNL     1       6.142   0.764  -4.903  1.00  0.00    -0.206 F 
ATOM     78  C   UNL     1       9.446   2.083  -4.555  1.00  0.00     0.006 A 
ENDBRANCH  57  71
BRANCH  58  79
ATOM     79  C   UNL     1       6.442  -6.730  -3.841  1.00  0.00     0.057 A 
ATOM     80  C   UNL     1       7.474  -7.583  -3.428  1.00  0.00     0.134 A 
ATOM     81  C   UNL     1       5.644  -6.175  -2.831  1.00  0.00     0.134 A 
ATOM     82  F   UNL     1       8.330  -8.094  -4.325  1.00  0.00    -0.206 F 
ATOM     83  C   UNL     1       7.704  -7.866  -2.075  1.00  0.00     0.040 A 
ATOM     84  C   UNL     1       5.896  -6.412  -1.481  1.00  0.00     0.040 A 
ATOM     85  F   UNL     1       4.676  -5.294  -3.124  1.00  0.00    -0.206 F 
ATOM     86  C   UNL     1       6.921  -7.267  -1.093  1.00  0.00     0.006 A 
ENDBRANCH  58  79
BRANCH  70  87
ATOM     87  C   UNL     1       8.160  -4.957  -9.599  1.00  0.00     0.057 A 
ATOM     88  C   UNL     1       6.954  -5.663  -9.740  1.00  0.00     0.134 A 
ATOM     89  C   UNL     1       9.156  -5.227 -10.538  1.00  0.00     0.134 A 
ATOM     90  F   UNL     1       5.910  -5.414  -8.944  1.00  0.00    -0.206 F 
ATOM     91  C   UNL     1       6.763  -6.620 -10.742  1.00  0.00     0.040 A 
ATOM     92  C   UNL     1       8.970  -6.159 -11.563  1.00  0.00     0.040 A 
ATOM     93  F   UNL     1      10.318  -4.556 -10.498  1.00  0.00    -0.206 F 
ATOM     94  C   UNL     1       7.774  -6.866 -11.662  1.00  0.00     0.006 A 
ENDBRANCH  70  87
ENDBRANCH  44  45
ENDBRANCH  36  39
ENDBRANCH  34  35
ENDBRANCH  33  34
ENDBRANCH  32  33
ENDBRANCH   1  32
TORSDOF 16
