REMARK SMILES CCCCOC(=O)c1ccc(N2C[C@H](C(=O)NCCCCCCNC(=O)c3ccc(-c4c5nc(c(-c6c(F)cccc6F)c6ccc([nH]6)c(-c6c(F)cccc6F)c6nc(c(-c7c(F)cccc7F)c7ccc4[nH]7)C=C6)C=C5)cc3)CC2=O)cc1
REMARK SMILES IDX 18 1 17 2 15 3 16 4 14 6 12 7 13 8 82 9 81 10 83 11 11 12
REMARK SMILES IDX 8 13 9 14 85 15 10 16 84 17 6 18 7 19 5 20 4 21 3 22 2 23
REMARK SMILES IDX 1 24 19 25 20 26 21 27 22 28 23 29 24 30 25 31 26 33 27 34
REMARK SMILES IDX 28 35 80 36 29 37 79 38 30 39 31 40 32 41 73 42 33 43 78 44
REMARK SMILES IDX 72 45 74 46 34 47 77 48 71 49 70 50 35 52 61 53 44 54 60 55
REMARK SMILES IDX 45 56 48 57 59 58 75 59 46 60 47 61 58 63 76 64 49 65 36 66
REMARK SMILES IDX 37 67 42 68 38 69 39 70 41 71 43 72 40 73 62 74 63 75 68 76
REMARK SMILES IDX 64 77 65 78 67 79 69 80 66 81 50 82 51 83 56 84 52 85 53 86
REMARK SMILES IDX 55 87 57 88 54 89
REMARK H PARENT 17 5 24 32 74 51 48 62
REMARK Flexibility Score: inf
ROOT
ATOM      1  C   UNL     1      -8.119   0.901   1.068  1.00  0.00     0.116 C 
ENDROOT
BRANCH   1   2
ATOM      2  N   UNL     1      -9.280   1.193   0.247  1.00  0.00    -0.356 N 
ATOM      3  C   UNL     1      -9.919   0.490  -0.721  1.00  0.00     0.225 C 
ATOM      4  O   UNL     1     -10.911   1.019  -1.232  1.00  0.00    -0.275 OA
ATOM      5  H   UNL     1      -9.682   2.073   0.429  1.00  0.00     0.163 HD
BRANCH   3   6
ATOM      6  C   UNL     1      -9.481  -0.886  -1.200  1.00  0.00     0.107 C 
ATOM      7  N   UNL     1      -7.318  -1.781  -0.862  1.00  0.00    -0.312 N 
ATOM      8  C   UNL     1      -8.069  -0.917  -1.743  1.00  0.00     0.139 C 
ATOM      9  C   UNL     1      -8.153  -2.455   0.039  1.00  0.00     0.227 C 
ATOM     10  C   UNL     1      -9.568  -1.977  -0.152  1.00  0.00     0.116 C 
ATOM     11  O   UNL     1      -7.855  -3.255   0.913  1.00  0.00    -0.274 OA
BRANCH   7  12
ATOM     12  C   UNL     1      -5.895  -1.841  -0.864  1.00  0.00     0.044 A 
ATOM     13  C   UNL     1      -3.091  -1.811  -0.636  1.00  0.00     0.060 A 
ATOM     14  C   UNL     1      -3.733  -0.810  -1.361  1.00  0.00     0.018 A 
ATOM     15  C   UNL     1      -3.819  -2.849  -0.065  1.00  0.00     0.018 A 
ATOM     16  C   UNL     1      -5.128  -0.840  -1.488  1.00  0.00     0.027 A 
ATOM     17  C   UNL     1      -5.211  -2.861  -0.185  1.00  0.00     0.027 A 
BRANCH  13  18
ATOM     18  C   UNL     1      -1.651  -1.738  -0.379  1.00  0.00     0.338 C 
ATOM     19  O   UNL     1      -1.186  -1.349   0.682  1.00  0.00    -0.246 OA
BRANCH  18  20
ATOM     20  O   UNL     1      -0.995  -2.202  -1.463  1.00  0.00    -0.462 OA
BRANCH  20  21
ATOM     21  C   UNL     1       0.429  -2.337  -1.324  1.00  0.00     0.233 C 
BRANCH  21  22
ATOM     22  C   UNL     1       1.149  -1.235  -2.096  1.00  0.00     0.041 C 
BRANCH  22  23
ATOM     23  C   UNL     1       0.935   0.178  -1.546  1.00  0.00     0.000 C 
ATOM     24  C   UNL     1       1.603   0.407  -0.198  1.00  0.00     0.004 C 
ENDBRANCH  22  23
ENDBRANCH  21  22
ENDBRANCH  20  21
ENDBRANCH  18  20
ENDBRANCH  13  18
ENDBRANCH   7  12
ENDBRANCH   3   6
ENDBRANCH   1   2
BRANCH   1  25
ATOM     25  C   UNL     1      -6.985   1.898   0.831  1.00  0.00     0.021 C 
BRANCH  25  26
ATOM     26  C   UNL     1      -7.214   3.281   1.451  1.00  0.00     0.002 C 
BRANCH  26  27
ATOM     27  C   UNL     1      -7.434   3.297   2.969  1.00  0.00     0.002 C 
BRANCH  27  28
ATOM     28  C   UNL     1      -6.364   2.587   3.804  1.00  0.00     0.021 C 
BRANCH  28  29
ATOM     29  C   UNL     1      -4.938   3.101   3.616  1.00  0.00     0.116 C 
BRANCH  29  30
ATOM     30  N   UNL     1      -4.799   4.501   3.983  1.00  0.00    -0.352 N 
ATOM     31  C   UNL     1      -3.910   5.106   4.836  1.00  0.00     0.251 C 
ATOM     32  H   UNL     1      -5.442   5.109   3.553  1.00  0.00     0.163 HD
ATOM     33  O   UNL     1      -4.060   6.288   5.131  1.00  0.00    -0.269 OA
BRANCH  31  34
ATOM     34  C   UNL     1      -2.785   4.344   5.422  1.00  0.00     0.039 A 
ATOM     35  C   UNL     1      -2.489   4.529   6.777  1.00  0.00     0.014 A 
ATOM     36  C   UNL     1      -2.000   3.486   4.647  1.00  0.00     0.014 A 
ATOM     37  C   UNL     1      -1.445   3.813   7.366  1.00  0.00     0.010 A 
ATOM     38  C   UNL     1      -0.995   2.728   5.248  1.00  0.00     0.010 A 
ATOM     39  C   UNL     1      -0.707   2.886   6.612  1.00  0.00    -0.014 A 
BRANCH  39  40
ATOM     40  C   UNL     1       0.356   2.066   7.245  1.00  0.00     0.031 A 
ATOM     41  C   UNL     1       1.797   2.261   6.870  1.00  0.00     0.074 A 
ATOM     42  C   UNL     1       0.013   1.098   8.116  1.00  0.00     0.049 A 
ATOM     43  N   UNL     1       2.855   1.614   7.291  1.00  0.00    -0.248 NA
ATOM     44  C   UNL     1       2.086   3.304   5.874  1.00  0.00     0.031 C 
ATOM     45  C   UNL     1      -1.355   0.769   8.518  1.00  0.00     0.029 A 
ATOM     46  N   UNL     1       0.789   0.204   8.810  1.00  0.00    -0.354 N 
ATOM     47  C   UNL     1       3.930   2.156   6.599  1.00  0.00     0.074 A 
ATOM     48  C   UNL     1       3.393   3.160   5.705  1.00  0.00     0.031 C 
ATOM     49  C   UNL     1      -1.322  -0.246   9.396  1.00  0.00     0.029 A 
ATOM     50  C   UNL     1       0.065  -0.653   9.601  1.00  0.00     0.049 A 
ATOM     51  H   UNL     1       1.771   0.180   8.746  1.00  0.00     0.167 HD
ATOM     52  C   UNL     1       5.246   1.855   6.710  1.00  0.00     0.037 A 
ATOM     53  C   UNL     1       0.472  -1.657  10.399  1.00  0.00     0.037 A 
ATOM     54  C   UNL     1       5.783   0.878   7.619  1.00  0.00     0.049 A 
ATOM     55  C   UNL     1       1.938  -1.953  10.528  1.00  0.00     0.074 A 
ATOM     56  C   UNL     1       7.109   0.567   7.868  1.00  0.00     0.029 A 
ATOM     57  N   UNL     1       5.020   0.048   8.426  1.00  0.00    -0.354 N 
ATOM     58  N   UNL     1       2.951  -1.374   9.931  1.00  0.00    -0.248 NA
ATOM     59  C   UNL     1       2.318  -3.035  11.447  1.00  0.00     0.031 C 
ATOM     60  C   UNL     1       7.147  -0.476   8.801  1.00  0.00     0.029 A 
ATOM     61  C   UNL     1       5.846  -0.791   9.157  1.00  0.00     0.049 A 
ATOM     62  H   UNL     1       4.037   0.054   8.473  1.00  0.00     0.167 HD
ATOM     63  C   UNL     1       4.088  -2.010  10.411  1.00  0.00     0.074 A 
ATOM     64  C   UNL     1       3.641  -3.008  11.361  1.00  0.00     0.031 C 
ATOM     65  C   UNL     1       5.386  -1.785  10.093  1.00  0.00     0.037 A 
BRANCH  52  66
ATOM     66  C   UNL     1       6.197   2.599   5.820  1.00  0.00     0.057 A 
ATOM     67  C   UNL     1       6.507   3.948   6.035  1.00  0.00     0.134 A 
ATOM     68  C   UNL     1       6.829   1.953   4.750  1.00  0.00     0.134 A 
ATOM     69  F   UNL     1       5.927   4.627   7.037  1.00  0.00    -0.206 F 
ATOM     70  C   UNL     1       7.389   4.636   5.201  1.00  0.00     0.040 A 
ATOM     71  C   UNL     1       7.730   2.624   3.923  1.00  0.00     0.040 A 
ATOM     72  F   UNL     1       6.581   0.660   4.493  1.00  0.00    -0.206 F 
ATOM     73  C   UNL     1       8.008   3.972   4.144  1.00  0.00     0.006 A 
ENDBRANCH  52  66
BRANCH  53  74
ATOM     74  C   UNL     1      -0.531  -2.438  11.161  1.00  0.00     0.057 A 
ATOM     75  C   UNL     1      -0.693  -2.252  12.538  1.00  0.00     0.134 A 
ATOM     76  C   UNL     1      -1.364  -3.369  10.530  1.00  0.00     0.134 A 
ATOM     77  F   UNL     1       0.090  -1.385  13.198  1.00  0.00    -0.206 F 
ATOM     78  C   UNL     1      -1.643  -2.970  13.265  1.00  0.00     0.040 A 
ATOM     79  C   UNL     1      -2.331  -4.080  11.241  1.00  0.00     0.040 A 
ATOM     80  F   UNL     1      -1.259  -3.585   9.211  1.00  0.00    -0.206 F 
ATOM     81  C   UNL     1      -2.470  -3.883  12.614  1.00  0.00     0.006 A 
ENDBRANCH  53  74
BRANCH  65  82
ATOM     82  C   UNL     1       6.413  -2.629  10.785  1.00  0.00     0.057 A 
ATOM     83  C   UNL     1       6.621  -3.968  10.434  1.00  0.00     0.134 A 
ATOM     84  C   UNL     1       7.223  -2.088  11.792  1.00  0.00     0.134 A 
ATOM     85  F   UNL     1       5.867  -4.547   9.487  1.00  0.00    -0.206 F 
ATOM     86  C   UNL     1       7.586  -4.747  11.074  1.00  0.00     0.040 A 
ATOM     87  C   UNL     1       8.205  -2.851  12.425  1.00  0.00     0.040 A 
ATOM     88  F   UNL     1       7.077  -0.809  12.171  1.00  0.00    -0.206 F 
ATOM     89  C   UNL     1       8.386  -4.186  12.069  1.00  0.00     0.006 A 
ENDBRANCH  65  82
ENDBRANCH  39  40
ENDBRANCH  31  34
ENDBRANCH  29  30
ENDBRANCH  28  29
ENDBRANCH  27  28
ENDBRANCH  26  27
ENDBRANCH  25  26
ENDBRANCH   1  25
TORSDOF 19
