REMARK SMILES COc1ccccc1N1CC[NH+]([C@@H](C(=O)NCCCCCCNC(=O)c2ccc(-c3c4nc(c(-c5c(F)cccc5F)c5ccc([nH]5)c(-c5c(F)cccc5F)c5nc(c(-c6c(F)cccc6F)c6ccc3[nH]6)C=C5)C=C4)cc2)c2c[nH]c3ccc(OCC#N)cc23)CC1
REMARK SMILES IDX 18 1 17 2 16 3 14 4 15 5 13 7 12 8 9 9 10 10 94 11 11 12
REMARK SMILES IDX 93 13 8 15 3 16 4 17 5 18 7 19 6 20 2 21 1 22 80 23 81 24
REMARK SMILES IDX 92 25 82 26 83 27 91 28 84 30 86 31 85 32 87 33 88 34 89 35
REMARK SMILES IDX 90 36 19 37 20 38 21 39 22 40 23 41 24 42 25 44 26 45 27 46
REMARK SMILES IDX 79 47 28 48 78 49 29 50 30 51 31 52 72 53 32 54 77 55 71 56
REMARK SMILES IDX 73 57 33 58 76 59 70 60 69 61 34 63 60 64 43 65 59 66 44 67
REMARK SMILES IDX 47 68 58 69 74 70 45 71 46 72 57 74 75 75 48 76 35 77 36 78
REMARK SMILES IDX 41 79 37 80 38 81 40 82 42 83 39 84 61 85 62 86 67 87 63 88
REMARK SMILES IDX 64 89 66 90 68 91 65 92 49 93 50 94 55 95 51 96 52 97 54 98
REMARK SMILES IDX 56 99 53 100
REMARK H PARENT 16 6 12 14 82 29 23 43 73 62 47 73
REMARK Flexibility Score: inf
ROOT
ATOM      1  C   UNL     1       4.046   0.365   3.116  1.00  0.00     0.021 C 
ENDROOT
BRANCH   1   2
ATOM      2  C   UNL     1       5.341   0.479   2.231  1.00  0.00     0.116 C 
BRANCH   2   3
ATOM      3  N   UNL     1       5.698  -0.681   1.373  1.00  0.00    -0.351 N 
ATOM      4  C   UNL     1       5.780  -1.077   0.046  1.00  0.00     0.283 C 
ATOM      5  O   UNL     1       6.284  -2.204  -0.086  1.00  0.00    -0.268 OA
ATOM      6  H   UNL     1       5.971  -1.432   1.948  1.00  0.00     0.163 HD
BRANCH   4   7
ATOM      7  C   UNL     1       5.390  -0.238  -1.231  1.00  0.00     0.307 C 
BRANCH   7   8
ATOM      8  N   UNL     1       3.957   0.226  -1.403  1.00  0.00    -0.318 N 
ATOM      9  N   UNL     1       1.963  -1.727  -0.482  1.00  0.00    -0.357 N 
ATOM     10  C   UNL     1       2.657  -1.920  -1.756  1.00  0.00     0.178 C 
ATOM     11  C   UNL     1       2.660  -0.879   0.489  1.00  0.00     0.178 C 
ATOM     12  C   UNL     1       3.033  -0.527  -2.272  1.00  0.00     0.284 C 
ATOM     13  C   UNL     1       3.197   0.424  -0.163  1.00  0.00     0.284 C 
ATOM     14  H   UNL     1       4.210   1.094  -1.875  1.00  0.00     0.349 HD
BRANCH   9  15
ATOM     15  C   UNL     1       1.274  -2.778   0.117  1.00  0.00     0.080 A 
ATOM     16  C   UNL     1       0.049  -2.570   0.788  1.00  0.00     0.142 A 
ATOM     17  C   UNL     1      -0.533  -3.614   1.517  1.00  0.00     0.048 A 
ATOM     18  C   UNL     1       0.078  -4.865   1.587  1.00  0.00     0.004 A 
ATOM     19  C   UNL     1       1.868  -4.051   0.196  1.00  0.00     0.030 A 
ATOM     20  C   UNL     1       1.281  -5.084   0.928  1.00  0.00     0.002 A 
BRANCH  16  21
ATOM     21  O   UNL     1      -0.651  -1.390   0.884  1.00  0.00    -0.495 OA
ATOM     22  C   UNL     1      -0.581  -0.498  -0.223  1.00  0.00     0.278 C 
ENDBRANCH  16  21
ENDBRANCH   9  15
ENDBRANCH   7   8
BRANCH   7  23
ATOM     23  C   UNL     1       6.056  -0.727  -2.648  1.00  0.00     0.044 A 
ATOM     24  C   UNL     1       6.421   0.244  -3.586  1.00  0.00     0.094 A 
ATOM     25  C   UNL     1       5.723  -1.799  -3.623  1.00  0.00     0.013 A 
ATOM     26  N   UNL     1       5.395   0.210  -4.500  1.00  0.00    -0.361 N 
ATOM     27  C   UNL     1       5.072  -1.120  -4.661  1.00  0.00     0.046 A 
ATOM     28  C   UNL     1       6.087  -3.156  -3.965  1.00  0.00     0.057 A 
ATOM     29  H   UNL     1       4.976   0.980  -4.949  1.00  0.00     0.166 HD
ATOM     30  C   UNL     1       4.300  -1.757  -5.632  1.00  0.00     0.030 A 
ATOM     31  C   UNL     1       5.568  -3.758  -5.166  1.00  0.00     0.121 A 
ATOM     32  C   UNL     1       4.543  -3.111  -5.846  1.00  0.00     0.048 A 
BRANCH  31  33
ATOM     33  O   UNL     1       6.094  -4.952  -5.668  1.00  0.00    -0.479 OA
BRANCH  33  34
ATOM     34  C   UNL     1       6.170  -5.124  -7.175  1.00  0.00     0.349 C 
BRANCH  34  35
ATOM     35  C   UNL     1       6.842  -3.901  -7.779  1.00  0.00     0.104 C 
ATOM     36  N   UNL     1       7.400  -2.888  -8.279  1.00  0.00    -0.195 NA
ENDBRANCH  34  35
ENDBRANCH  33  34
ENDBRANCH  31  33
ENDBRANCH   7  23
ENDBRANCH   4   7
ENDBRANCH   2   3
ENDBRANCH   1   2
BRANCH   1  37
ATOM     37  C   UNL     1       3.692  -1.025   3.688  1.00  0.00     0.002 C 
BRANCH  37  38
ATOM     38  C   UNL     1       3.632  -1.117   5.220  1.00  0.00     0.002 C 
BRANCH  38  39
ATOM     39  C   UNL     1       2.473  -0.379   5.903  1.00  0.00     0.021 C 
BRANCH  39  40
ATOM     40  C   UNL     1       1.072  -0.930   5.620  1.00  0.00     0.116 C 
BRANCH  40  41
ATOM     41  N   UNL     1       0.835  -2.212   6.271  1.00  0.00    -0.352 N 
ATOM     42  C   UNL     1      -0.020  -2.530   7.304  1.00  0.00     0.251 C 
ATOM     43  H   UNL     1       1.365  -2.964   5.920  1.00  0.00     0.163 HD
ATOM     44  O   UNL     1       0.063  -3.610   7.870  1.00  0.00    -0.269 OA
BRANCH  42  45
ATOM     45  C   UNL     1      -1.041  -1.551   7.743  1.00  0.00     0.039 A 
ATOM     46  C   UNL     1      -1.188  -1.283   9.107  1.00  0.00     0.014 A 
ATOM     47  C   UNL     1      -1.868  -0.918   6.812  1.00  0.00     0.014 A 
ATOM     48  C   UNL     1      -2.115  -0.326   9.529  1.00  0.00     0.010 A 
ATOM     49  C   UNL     1      -2.745   0.083   7.228  1.00  0.00     0.010 A 
ATOM     50  C   UNL     1      -2.878   0.391   8.591  1.00  0.00    -0.014 A 
BRANCH  50  51
ATOM     51  C   UNL     1      -3.805   1.471   9.022  1.00  0.00     0.031 A 
ATOM     52  C   UNL     1      -5.287   1.341   8.798  1.00  0.00     0.074 A 
ATOM     53  C   UNL     1      -3.305   2.599   9.565  1.00  0.00     0.049 A 
ATOM     54  N   UNL     1      -6.243   2.192   9.077  1.00  0.00    -0.248 NA
ATOM     55  C   UNL     1      -5.755   0.104   8.155  1.00  0.00     0.031 C 
ATOM     56  C   UNL     1      -1.883   2.874   9.782  1.00  0.00     0.029 A 
ATOM     57  N   UNL     1      -3.934   3.729  10.025  1.00  0.00    -0.354 N 
ATOM     58  C   UNL     1      -7.419   1.599   8.635  1.00  0.00     0.074 A 
ATOM     59  C   UNL     1      -7.052   0.341   8.022  1.00  0.00     0.031 C 
ATOM     60  C   UNL     1      -1.751   4.082  10.354  1.00  0.00     0.029 A 
ATOM     61  C   UNL     1      -3.072   4.682  10.512  1.00  0.00     0.049 A 
ATOM     62  H   UNL     1      -4.912   3.846  10.008  1.00  0.00     0.167 HD
ATOM     63  C   UNL     1      -8.692   2.050   8.749  1.00  0.00     0.037 A 
ATOM     64  C   UNL     1      -3.316   5.904  11.023  1.00  0.00     0.037 A 
ATOM     65  C   UNL     1      -9.057   3.293   9.378  1.00  0.00     0.049 A 
ATOM     66  C   UNL     1      -4.738   6.381  11.139  1.00  0.00     0.074 A 
ATOM     67  C   UNL     1     -10.323   3.804   9.605  1.00  0.00     0.029 A 
ATOM     68  N   UNL     1      -8.156   4.224   9.873  1.00  0.00    -0.354 N 
ATOM     69  N   UNL     1      -5.846   5.771  10.794  1.00  0.00    -0.248 NA
ATOM     70  C   UNL     1      -4.943   7.713  11.724  1.00  0.00     0.031 C 
ATOM     71  C   UNL     1     -10.187   5.068  10.190  1.00  0.00     0.029 A 
ATOM     72  C   UNL     1      -8.837   5.319  10.378  1.00  0.00     0.049 A 
ATOM     73  H   UNL     1      -7.177   4.121   9.866  1.00  0.00     0.167 HD
ATOM     74  C   UNL     1      -6.879   6.633  11.141  1.00  0.00     0.074 A 
ATOM     75  C   UNL     1      -6.266   7.798  11.744  1.00  0.00     0.031 C 
ATOM     76  C   UNL     1      -8.215   6.474  10.974  1.00  0.00     0.037 A 
BRANCH  63  77
ATOM     77  C   UNL     1      -9.788   1.192   8.184  1.00  0.00     0.057 A 
ATOM     78  C   UNL     1     -10.148  -0.030   8.769  1.00  0.00     0.134 A 
ATOM     79  C   UNL     1     -10.522   1.613   7.068  1.00  0.00     0.134 A 
ATOM     80  F   UNL     1      -9.480  -0.496   9.835  1.00  0.00    -0.206 F 
ATOM     81  C   UNL     1     -11.180  -0.813   8.249  1.00  0.00     0.040 A 
ATOM     82  C   UNL     1     -11.575   0.852   6.557  1.00  0.00     0.040 A 
ATOM     83  F   UNL     1     -10.237   2.776   6.463  1.00  0.00    -0.206 F 
ATOM     84  C   UNL     1     -11.903  -0.368   7.144  1.00  0.00     0.006 A 
ENDBRANCH  63  77
BRANCH  64  85
ATOM     85  C   UNL     1      -2.191   6.759  11.481  1.00  0.00     0.057 A 
ATOM     86  C   UNL     1      -2.001   7.042  12.839  1.00  0.00     0.134 A 
ATOM     87  C   UNL     1      -1.288   7.326  10.574  1.00  0.00     0.134 A 
ATOM     88  F   UNL     1      -2.844   6.545  13.756  1.00  0.00    -0.206 F 
ATOM     89  C   UNL     1      -0.970   7.875  13.277  1.00  0.00     0.040 A 
ATOM     90  C   UNL     1      -0.235   8.138  10.999  1.00  0.00     0.040 A 
ATOM     91  F   UNL     1      -1.409   7.088   9.259  1.00  0.00    -0.206 F 
ATOM     92  C   UNL     1      -0.080   8.422  12.355  1.00  0.00     0.006 A 
ENDBRANCH  64  85
BRANCH  76  93
ATOM     93  C   UNL     1      -9.103   7.577  11.473  1.00  0.00     0.057 A 
ATOM     94  C   UNL     1      -9.166   8.823  10.836  1.00  0.00     0.134 A 
ATOM     95  C   UNL     1      -9.927   7.380  12.589  1.00  0.00     0.134 A 
ATOM     96  F   UNL     1      -8.394   9.082   9.770  1.00  0.00    -0.206 F 
ATOM     97  C   UNL     1      -9.994   9.843  11.308  1.00  0.00     0.040 A 
ATOM     98  C   UNL     1     -10.781   8.382  13.052  1.00  0.00     0.040 A 
ATOM     99  F   UNL     1      -9.924   6.207  13.240  1.00  0.00    -0.206 F 
ATOM    100  C   UNL     1     -10.810   9.621  12.416  1.00  0.00     0.006 A 
ENDBRANCH  76  93
ENDBRANCH  50  51
ENDBRANCH  42  45
ENDBRANCH  40  41
ENDBRANCH  39  40
ENDBRANCH  38  39
ENDBRANCH  37  38
ENDBRANCH   1  37
TORSDOF 20
