REMARK SMILES Cc1ccccc1OCCN1C(=O)CC[C@H](C(=O)NCCCCCCNC(=O)c2ccc(-c3c4nc(c(-c5c(F)cccc5F)c5ccc([nH]5)c(-c5c(F)cccc5F)c5nc(c(-c6c(F)cccc6F)c6ccc3[nH]6)C=C5)C=C4)cc2)[C@@H]1c1ccco1
REMARK SMILES IDX 21 1 20 2 19 3 17 4 18 5 16 7 11 8 12 9 83 10 13 11 14 12
REMARK SMILES IDX 15 13 10 14 9 15 8 16 7 17 1 18 2 19 3 20 4 21 6 22 5 23
REMARK SMILES IDX 84 24 85 25 88 26 86 27 87 28 22 29 23 30 24 31 25 32 26 33
REMARK SMILES IDX 27 34 28 36 29 37 30 38 82 39 31 40 81 41 32 42 33 43 34 44
REMARK SMILES IDX 75 45 35 46 80 47 74 48 76 49 36 50 79 51 73 52 72 53 37 55
REMARK SMILES IDX 63 56 46 57 62 58 47 59 50 60 61 61 77 62 48 63 49 64 60 66
REMARK SMILES IDX 78 67 51 68 38 69 39 70 44 71 40 72 41 73 43 74 45 75 42 76
REMARK SMILES IDX 64 77 65 78 70 79 66 80 67 81 69 82 71 83 68 84 52 85 53 86
REMARK SMILES IDX 58 87 54 88 55 89 57 90 59 91 56 92
REMARK H PARENT 19 6 26 35 76 54 50 65
REMARK Flexibility Score: inf
ROOT
ATOM      1  C   UNL     1       3.215  -4.506   4.759  1.00  0.00     0.021 C 
ENDROOT
BRANCH   1   2
ATOM      2  C   UNL     1       3.519  -3.378   3.785  1.00  0.00     0.116 C 
BRANCH   2   3
ATOM      3  N   UNL     1       3.893  -3.793   2.453  1.00  0.00    -0.356 N 
ATOM      4  C   UNL     1       3.770  -3.085   1.293  1.00  0.00     0.225 C 
ATOM      5  O   UNL     1       4.494  -3.407   0.347  1.00  0.00    -0.275 OA
ATOM      6  H   UNL     1       4.283  -4.693   2.373  1.00  0.00     0.163 HD
BRANCH   4   7
ATOM      7  C   UNL     1       2.780  -1.929   1.137  1.00  0.00     0.109 C 
ATOM      8  N   UNL     1       2.271   0.481   1.649  1.00  0.00    -0.328 N 
ATOM      9  C   UNL     1       1.059   0.209   2.259  1.00  0.00     0.223 C 
ATOM     10  C   UNL     1       3.322  -0.540   1.505  1.00  0.00     0.164 C 
ATOM     11  O   UNL     1       0.294   1.090   2.658  1.00  0.00    -0.275 OA
ATOM     12  C   UNL     1       0.704  -1.236   2.500  1.00  0.00     0.101 C 
ATOM     13  C   UNL     1       1.356  -2.258   1.590  1.00  0.00     0.026 C 
BRANCH   8  14
ATOM     14  C   UNL     1       2.615   1.889   1.410  1.00  0.00     0.162 C 
BRANCH  14  15
ATOM     15  C   UNL     1       2.398   2.387  -0.026  1.00  0.00     0.251 C 
BRANCH  15  16
ATOM     16  O   UNL     1       1.042   2.472  -0.467  1.00  0.00    -0.491 OA
BRANCH  16  17
ATOM     17  C   UNL     1       0.344   1.326  -0.730  1.00  0.00     0.122 A 
ATOM     18  C   UNL     1       2.094   0.153  -2.193  1.00  0.00     0.048 C 
ATOM     19  C   UNL     1       0.775   0.225  -1.484  1.00  0.00    -0.009 A 
ATOM     20  C   UNL     1      -0.090  -0.881  -1.615  1.00  0.00     0.007 A 
ATOM     21  C   UNL     1      -1.373  -0.871  -1.069  1.00  0.00     0.001 A 
ATOM     22  C   UNL     1      -0.967   1.344  -0.228  1.00  0.00     0.047 A 
ATOM     23  C   UNL     1      -1.820   0.253  -0.388  1.00  0.00     0.004 A 
ENDBRANCH  16  17
ENDBRANCH  15  16
ENDBRANCH  14  15
ENDBRANCH   8  14
BRANCH  10  24
ATOM     24  C   UNL     1       4.243  -0.471   2.692  1.00  0.00     0.127 A 
ATOM     25  C   UNL     1       5.607  -0.657   2.830  1.00  0.00     0.048 A 
ATOM     26  O   UNL     1       3.713  -0.089   3.893  1.00  0.00    -0.467 OA
ATOM     27  C   UNL     1       5.924  -0.349   4.176  1.00  0.00     0.042 A 
ATOM     28  C   UNL     1       4.740   0.011   4.775  1.00  0.00     0.195 A 
ENDBRANCH  10  24
ENDBRANCH   4   7
ENDBRANCH   2   3
ENDBRANCH   1   2
BRANCH   1  29
ATOM     29  C   UNL     1       4.409  -5.369   5.186  1.00  0.00     0.002 C 
BRANCH  29  30
ATOM     30  C   UNL     1       5.720  -4.655   5.558  1.00  0.00     0.002 C 
BRANCH  30  31
ATOM     31  C   UNL     1       5.635  -3.454   6.501  1.00  0.00     0.021 C 
BRANCH  31  32
ATOM     32  C   UNL     1       5.087  -3.749   7.883  1.00  0.00     0.116 C 
BRANCH  32  33
ATOM     33  N   UNL     1       6.078  -4.162   8.863  1.00  0.00    -0.352 N 
ATOM     34  C   UNL     1       5.898  -4.586  10.171  1.00  0.00     0.251 C 
ATOM     35  H   UNL     1       7.012  -4.137   8.554  1.00  0.00     0.163 HD
ATOM     36  O   UNL     1       6.868  -4.824  10.872  1.00  0.00    -0.269 OA
BRANCH  34  37
ATOM     37  C   UNL     1       4.529  -4.902  10.664  1.00  0.00     0.039 A 
ATOM     38  C   UNL     1       4.363  -6.081  11.403  1.00  0.00     0.014 A 
ATOM     39  C   UNL     1       3.415  -4.212  10.203  1.00  0.00     0.014 A 
ATOM     40  C   UNL     1       3.118  -6.705  11.424  1.00  0.00     0.010 A 
ATOM     41  C   UNL     1       2.219  -4.888  10.104  1.00  0.00     0.010 A 
ATOM     42  C   UNL     1       2.091  -6.164  10.658  1.00  0.00    -0.014 A 
BRANCH  42  43
ATOM     43  C   UNL     1       0.887  -6.889  10.277  1.00  0.00     0.031 A 
ATOM     44  C   UNL     1      -0.427  -6.479  10.813  1.00  0.00     0.074 A 
ATOM     45  C   UNL     1       0.968  -7.824   9.302  1.00  0.00     0.049 A 
ATOM     46  N   UNL     1      -1.483  -7.216  10.770  1.00  0.00    -0.248 NA
ATOM     47  C   UNL     1      -0.652  -5.198  11.479  1.00  0.00     0.031 C 
ATOM     48  C   UNL     1      -0.130  -8.383   8.518  1.00  0.00     0.029 A 
ATOM     49  N   UNL     1       2.078  -8.604   8.948  1.00  0.00    -0.354 N 
ATOM     50  C   UNL     1      -2.554  -6.445  11.156  1.00  0.00     0.074 A 
ATOM     51  C   UNL     1      -1.981  -5.205  11.622  1.00  0.00     0.031 C 
ATOM     52  C   UNL     1       0.260  -9.556   7.997  1.00  0.00     0.029 A 
ATOM     53  C   UNL     1       1.563  -9.861   8.558  1.00  0.00     0.049 A 
ATOM     54  H   UNL     1       3.024  -8.332   8.967  1.00  0.00     0.167 HD
ATOM     55  C   UNL     1      -3.817  -6.903  10.935  1.00  0.00     0.037 A 
ATOM     56  C   UNL     1       1.861 -11.001   9.249  1.00  0.00     0.037 A 
ATOM     57  C   UNL     1      -3.799  -8.233  10.343  1.00  0.00     0.049 A 
ATOM     58  C   UNL     1       0.653 -11.704   9.824  1.00  0.00     0.074 A 
ATOM     59  C   UNL     1      -3.845  -8.674   9.030  1.00  0.00     0.029 A 
ATOM     60  N   UNL     1      -3.376  -9.309  11.109  1.00  0.00    -0.354 N 
ATOM     61  N   UNL     1      -0.503 -11.127   9.999  1.00  0.00    -0.248 NA
ATOM     62  C   UNL     1       0.647 -13.098  10.262  1.00  0.00     0.031 C 
ATOM     63  C   UNL     1      -3.394 -10.016   9.004  1.00  0.00     0.029 A 
ATOM     64  C   UNL     1      -3.102 -10.394  10.302  1.00  0.00     0.049 A 
ATOM     65  H   UNL     1      -3.286  -9.300  12.089  1.00  0.00     0.167 HD
ATOM     66  C   UNL     1      -1.382 -12.014  10.566  1.00  0.00     0.074 A 
ATOM     67  C   UNL     1      -0.619 -13.239  10.697  1.00  0.00     0.031 C 
ATOM     68  C   UNL     1      -2.659 -11.650  10.885  1.00  0.00     0.037 A 
BRANCH  55  69
ATOM     69  C   UNL     1      -5.048  -6.043  11.024  1.00  0.00     0.057 A 
ATOM     70  C   UNL     1      -6.131  -6.237  10.144  1.00  0.00     0.134 A 
ATOM     71  C   UNL     1      -5.216  -4.990  11.939  1.00  0.00     0.134 A 
ATOM     72  F   UNL     1      -6.150  -7.244   9.261  1.00  0.00    -0.206 F 
ATOM     73  C   UNL     1      -7.248  -5.394  10.115  1.00  0.00     0.040 A 
ATOM     74  C   UNL     1      -6.304  -4.107  11.887  1.00  0.00     0.040 A 
ATOM     75  F   UNL     1      -4.353  -4.798  12.946  1.00  0.00    -0.206 F 
ATOM     76  C   UNL     1      -7.323  -4.303  10.966  1.00  0.00     0.006 A 
ENDBRANCH  55  69
BRANCH  56  77
ATOM     77  C   UNL     1       3.217 -10.968   9.855  1.00  0.00     0.057 A 
ATOM     78  C   UNL     1       4.328 -10.969   8.993  1.00  0.00     0.134 A 
ATOM     79  C   UNL     1       3.424 -10.513  11.161  1.00  0.00     0.134 A 
ATOM     80  F   UNL     1       4.196 -11.396   7.726  1.00  0.00    -0.206 F 
ATOM     81  C   UNL     1       5.555 -10.419   9.370  1.00  0.00     0.040 A 
ATOM     82  C   UNL     1       4.654  -9.970  11.553  1.00  0.00     0.040 A 
ATOM     83  F   UNL     1       2.408 -10.462  12.034  1.00  0.00    -0.206 F 
ATOM     84  C   UNL     1       5.708  -9.881  10.644  1.00  0.00     0.006 A 
ENDBRANCH  56  77
BRANCH  68  85
ATOM     85  C   UNL     1      -3.647 -12.432  11.717  1.00  0.00     0.057 A 
ATOM     86  C   UNL     1      -3.289 -13.330  12.730  1.00  0.00     0.134 A 
ATOM     87  C   UNL     1      -5.031 -12.148  11.629  1.00  0.00     0.134 A 
ATOM     88  F   UNL     1      -2.008 -13.624  12.988  1.00  0.00    -0.206 F 
ATOM     89  C   UNL     1      -4.239 -13.923  13.575  1.00  0.00     0.040 A 
ATOM     90  C   UNL     1      -5.978 -12.690  12.501  1.00  0.00     0.040 A 
ATOM     91  F   UNL     1      -5.523 -11.305  10.708  1.00  0.00    -0.206 F 
ATOM     92  C   UNL     1      -5.584 -13.591  13.475  1.00  0.00     0.006 A 
ENDBRANCH  68  85
ENDBRANCH  42  43
ENDBRANCH  34  37
ENDBRANCH  32  33
ENDBRANCH  31  32
ENDBRANCH  30  31
ENDBRANCH  29  30
ENDBRANCH   1  29
TORSDOF 18
