REMARK SMILES Cc1noc(C)c1CCC(=O)N1CCC2(CC1)NC(=O)C[C@@H]2C(=O)NCCCCCCNC(=O)c1ccc(-c2c3nc(c(-c4c(F)cccc4F)c4ccc([nH]4)c(-c4c(F)cccc4F)c4nc(c(-c5c(F)cccc5F)c5ccc2[nH]5)C=C4)C=C3)cc1
REMARK SMILES IDX 28 1 27 2 26 3 25 4 23 5 24 6 22 8 10 9 11 10 12 11 13 12
REMARK SMILES IDX 17 13 14 14 16 15 15 16 18 17 19 18 21 20 20 21 9 22 8 23
REMARK SMILES IDX 7 24 1 25 2 26 3 27 4 28 5 29 6 30 29 31 30 32 31 33 32 34
REMARK SMILES IDX 33 35 34 37 35 38 36 39 88 40 37 41 87 42 38 43 39 44 40 45
REMARK SMILES IDX 81 46 41 47 86 48 80 49 82 50 42 51 85 52 79 53 78 54 43 56
REMARK SMILES IDX 69 57 52 58 68 59 53 60 56 61 67 62 83 63 54 64 55 65 66 67
REMARK SMILES IDX 84 68 57 69 44 70 45 71 50 72 46 73 47 74 49 75 51 76 48 77
REMARK SMILES IDX 70 78 71 79 76 80 72 81 73 82 75 83 77 84 74 85 58 86 59 87
REMARK SMILES IDX 64 88 60 89 61 90 63 91 65 92 62 93
REMARK H PARENT 25 7 18 19 32 36 82 55 56 66
REMARK Flexibility Score: inf
ROOT
ATOM      1  C   UNL     1      -7.147   1.004  -3.755  1.00  0.00     0.002 C 
ENDROOT
BRANCH   1   2
ATOM      2  C   UNL     1      -6.237  -0.228  -3.740  1.00  0.00     0.021 C 
BRANCH   2   3
ATOM      3  C   UNL     1      -5.440  -0.350  -2.459  1.00  0.00     0.116 C 
BRANCH   3   4
ATOM      4  N   UNL     1      -5.241  -1.680  -1.934  1.00  0.00    -0.356 N 
ATOM      5  C   UNL     1      -4.341  -1.842  -0.915  1.00  0.00     0.226 C 
ATOM      6  O   UNL     1      -4.787  -1.807   0.238  1.00  0.00    -0.275 OA
ATOM      7  H   UNL     1      -5.738  -2.448  -2.298  1.00  0.00     0.163 HD
BRANCH   5   8
ATOM      8  C   UNL     1      -2.907  -2.335  -1.149  1.00  0.00     0.113 C 
ATOM      9  C   UNL     1      -1.055   2.259  -1.558  1.00  0.00     0.222 C 
ATOM     10  O   UNL     1      -2.022   3.003  -1.748  1.00  0.00    -0.275 OA
ATOM     11  N   UNL     1      -1.066   0.912  -1.957  1.00  0.00    -0.343 N 
ATOM     12  C   UNL     1      -2.230   0.536  -2.711  1.00  0.00     0.122 C 
ATOM     13  C   UNL     1      -0.495  -0.125  -1.116  1.00  0.00     0.122 C 
ATOM     14  C   UNL     1      -2.207  -0.871  -3.302  1.00  0.00     0.051 C 
ATOM     15  C   UNL     1      -0.517  -1.540  -1.674  1.00  0.00     0.051 C 
ATOM     16  C   UNL     1      -1.888  -1.952  -2.272  1.00  0.00     0.055 C 
ATOM     17  N   UNL     1      -1.657  -3.209  -2.962  1.00  0.00    -0.350 N 
ATOM     18  C   UNL     1      -2.134  -4.316  -2.314  1.00  0.00     0.221 C 
ATOM     19  H   UNL     1      -1.194  -3.261  -3.829  1.00  0.00     0.164 HD
ATOM     20  C   UNL     1      -3.017  -3.879  -1.193  1.00  0.00     0.116 C 
ATOM     21  O   UNL     1      -1.872  -5.463  -2.621  1.00  0.00    -0.275 OA
BRANCH   9  22
ATOM     22  C   UNL     1       0.204   2.820  -0.938  1.00  0.00     0.105 C 
BRANCH  22  23
ATOM     23  C   UNL     1       0.158   2.954   0.583  1.00  0.00     0.051 C 
BRANCH  23  24
ATOM     24  C   UNL     1       0.346   1.677   1.331  1.00  0.00     0.018 A 
ATOM     25  C   UNL     1      -2.067   1.222   2.274  1.00  0.00     0.071 C 
ATOM     26  C   UNL     1      -0.621   0.944   2.083  1.00  0.00     0.084 A 
ATOM     27  N   UNL     1      -0.103  -0.191   2.566  1.00  0.00    -0.085 NA
ATOM     28  O   UNL     1       1.204  -0.228   2.132  1.00  0.00    -0.361 OA
ATOM     29  C   UNL     1       1.471   0.874   1.385  1.00  0.00     0.137 A 
ATOM     30  C   UNL     1       2.802   0.901   0.742  1.00  0.00     0.091 C 
ENDBRANCH  23  24
ENDBRANCH  22  23
ENDBRANCH   9  22
ENDBRANCH   5   8
ENDBRANCH   3   4
ENDBRANCH   2   3
ENDBRANCH   1   2
BRANCH   1  31
ATOM     31  C   UNL     1      -6.568   2.342  -3.265  1.00  0.00     0.002 C 
BRANCH  31  32
ATOM     32  C   UNL     1      -5.354   2.910  -4.001  1.00  0.00     0.021 C 
BRANCH  32  33
ATOM     33  C   UNL     1      -5.467   3.013  -5.519  1.00  0.00     0.116 C 
BRANCH  33  34
ATOM     34  N   UNL     1      -6.708   3.632  -5.957  1.00  0.00    -0.352 N 
ATOM     35  C   UNL     1      -6.936   4.695  -6.792  1.00  0.00     0.251 C 
ATOM     36  H   UNL     1      -7.522   3.218  -5.591  1.00  0.00     0.163 HD
ATOM     37  O   UNL     1      -8.076   5.128  -6.929  1.00  0.00    -0.269 OA
BRANCH  35  38
ATOM     38  C   UNL     1      -5.819   5.344  -7.507  1.00  0.00     0.039 A 
ATOM     39  C   UNL     1      -5.766   6.742  -7.532  1.00  0.00     0.014 A 
ATOM     40  C   UNL     1      -4.843   4.593  -8.166  1.00  0.00     0.014 A 
ATOM     41  C   UNL     1      -4.692   7.386  -8.148  1.00  0.00     0.010 A 
ATOM     42  C   UNL     1      -3.741   5.234  -8.728  1.00  0.00     0.010 A 
ATOM     43  C   UNL     1      -3.649   6.635  -8.712  1.00  0.00    -0.014 A 
BRANCH  43  44
ATOM     44  C   UNL     1      -2.433   7.290  -9.254  1.00  0.00     0.031 A 
ATOM     45  C   UNL     1      -2.104   7.189 -10.716  1.00  0.00     0.074 A 
ATOM     46  C   UNL     1      -1.580   7.899  -8.407  1.00  0.00     0.049 A 
ATOM     47  N   UNL     1      -1.030   7.584 -11.350  1.00  0.00    -0.248 NA
ATOM     48  C   UNL     1      -3.104   6.535 -11.573  1.00  0.00     0.031 C 
ATOM     49  C   UNL     1      -1.774   8.031  -6.962  1.00  0.00     0.029 A 
ATOM     50  N   UNL     1      -0.367   8.500  -8.636  1.00  0.00    -0.354 N 
ATOM     51  C   UNL     1      -1.216   7.215 -12.675  1.00  0.00     0.074 A 
ATOM     52  C   UNL     1      -2.488   6.527 -12.747  1.00  0.00     0.031 C 
ATOM     53  C   UNL     1      -0.723   8.678  -6.435  1.00  0.00     0.029 A 
ATOM     54  C   UNL     1       0.240   8.964  -7.494  1.00  0.00     0.049 A 
ATOM     55  H   UNL     1       0.030   8.589  -9.532  1.00  0.00     0.167 HD
ATOM     56  C   UNL     1      -0.407   7.442 -13.737  1.00  0.00     0.037 A 
ATOM     57  C   UNL     1       1.446   9.535  -7.316  1.00  0.00     0.037 A 
ATOM     58  C   UNL     1       0.848   8.144 -13.661  1.00  0.00     0.049 A 
ATOM     59  C   UNL     1       2.340   9.747  -8.505  1.00  0.00     0.074 A 
ATOM     60  C   UNL     1       1.708   8.485 -14.690  1.00  0.00     0.029 A 
ATOM     61  N   UNL     1       1.426   8.605 -12.487  1.00  0.00    -0.354 N 
ATOM     62  N   UNL     1       2.123   9.451  -9.764  1.00  0.00    -0.248 NA
ATOM     63  C   UNL     1       3.647  10.368  -8.251  1.00  0.00     0.031 C 
ATOM     64  C   UNL     1       2.831   9.106 -14.133  1.00  0.00     0.029 A 
ATOM     65  C   UNL     1       2.648   9.197 -12.763  1.00  0.00     0.049 A 
ATOM     66  H   UNL     1       1.027   8.524 -11.591  1.00  0.00     0.167 HD
ATOM     67  C   UNL     1       3.254   9.867 -10.454  1.00  0.00     0.074 A 
ATOM     68  C   UNL     1       4.148  10.451  -9.476  1.00  0.00     0.031 C 
ATOM     69  C   UNL     1       3.527   9.773 -11.777  1.00  0.00     0.037 A 
BRANCH  56  70
ATOM     70  C   UNL     1      -0.850   6.923 -15.074  1.00  0.00     0.057 A 
ATOM     71  C   UNL     1      -1.926   7.490 -15.768  1.00  0.00     0.134 A 
ATOM     72  C   UNL     1      -0.164   5.871 -15.694  1.00  0.00     0.134 A 
ATOM     73  F   UNL     1      -2.632   8.494 -15.226  1.00  0.00    -0.206 F 
ATOM     74  C   UNL     1      -2.320   7.014 -17.020  1.00  0.00     0.040 A 
ATOM     75  C   UNL     1      -0.531   5.404 -16.958  1.00  0.00     0.040 A 
ATOM     76  F   UNL     1       0.881   5.287 -15.089  1.00  0.00    -0.206 F 
ATOM     77  C   UNL     1      -1.616   5.972 -17.622  1.00  0.00     0.006 A 
ENDBRANCH  56  70
BRANCH  57  78
ATOM     78  C   UNL     1       1.882   9.941  -5.956  1.00  0.00     0.057 A 
ATOM     79  C   UNL     1       2.004  11.292  -5.611  1.00  0.00     0.134 A 
ATOM     80  C   UNL     1       2.190   8.995  -4.971  1.00  0.00     0.134 A 
ATOM     81  F   UNL     1       1.742  12.246  -6.518  1.00  0.00    -0.206 F 
ATOM     82  C   UNL     1       2.433  11.688  -4.343  1.00  0.00     0.040 A 
ATOM     83  C   UNL     1       2.595   9.376  -3.691  1.00  0.00     0.040 A 
ATOM     84  F   UNL     1       2.088   7.684  -5.235  1.00  0.00    -0.206 F 
ATOM     85  C   UNL     1       2.725  10.728  -3.377  1.00  0.00     0.006 A 
ENDBRANCH  57  78
BRANCH  69  86
ATOM     86  C   UNL     1       4.838  10.327 -12.250  1.00  0.00     0.057 A 
ATOM     87  C   UNL     1       6.050   9.675 -11.990  1.00  0.00     0.134 A 
ATOM     88  C   UNL     1       4.884  11.497 -13.019  1.00  0.00     0.134 A 
ATOM     89  F   UNL     1       6.075   8.558 -11.247  1.00  0.00    -0.206 F 
ATOM     90  C   UNL     1       7.263  10.174 -12.467  1.00  0.00     0.040 A 
ATOM     91  C   UNL     1       6.087  11.992 -13.523  1.00  0.00     0.040 A 
ATOM     92  F   UNL     1       3.758  12.166 -13.309  1.00  0.00    -0.206 F 
ATOM     93  C   UNL     1       7.282  11.331 -13.244  1.00  0.00     0.006 A 
ENDBRANCH  69  86
ENDBRANCH  43  44
ENDBRANCH  35  38
ENDBRANCH  33  34
ENDBRANCH  32  33
ENDBRANCH  31  32
ENDBRANCH   1  31
TORSDOF 16
