REMARK SMILES CN(CC(=O)NCC(=O)NCCCCCCNC(=O)c1ccc(-c2c3nc(c(-c4c(F)cccc4F)c4ccc([nH]4)c(-c4c(F)cccc4F)c4nc(c(-c5c(F)cccc5F)c5ccc2[nH]5)C=C4)C=C3)cc1)c1ncccn1
REMARK SMILES IDX 12 1 11 2 10 3 8 4 9 5 7 7 6 8 4 9 5 10 3 12 2 13 1 14 74 15
REMARK SMILES IDX 75 16 79 17 76 18 78 19 77 20 13 21 14 22 15 23 16 24 17 25
REMARK SMILES IDX 18 26 19 28 20 29 21 30 73 31 22 32 72 33 23 34 24 35 25 36
REMARK SMILES IDX 66 37 26 38 71 39 65 40 67 41 27 42 70 43 64 44 63 45 28 47
REMARK SMILES IDX 54 48 37 49 53 50 38 51 41 52 52 53 68 54 39 55 40 56 51 58
REMARK SMILES IDX 69 59 42 60 29 61 30 62 35 63 31 64 32 65 34 66 36 67 33 68
REMARK SMILES IDX 55 69 56 70 61 71 57 72 58 73 60 74 62 75 59 76 43 77 44 78
REMARK SMILES IDX 49 79 45 80 46 81 48 82 50 83 47 84
REMARK H PARENT 10 6 6 11 17 27 67 46 41 57
REMARK Flexibility Score: inf
ROOT
ATOM      1  C   UNL     1      -0.929  -1.300   4.104  1.00  0.00     0.021 C 
ENDROOT
BRANCH   1   2
ATOM      2  C   UNL     1      -0.639  -1.374   2.608  1.00  0.00     0.116 C 
BRANCH   2   3
ATOM      3  N   UNL     1      -1.624  -2.153   1.884  1.00  0.00    -0.355 N 
ATOM      4  C   UNL     1      -2.320  -1.817   0.757  1.00  0.00     0.239 C 
ATOM      5  O   UNL     1      -2.966  -2.703   0.191  1.00  0.00    -0.273 OA
ATOM      6  H   UNL     1      -1.818  -3.044   2.255  1.00  0.00     0.163 HD
BRANCH   4   7
ATOM      7  C   UNL     1      -2.184  -0.423   0.131  1.00  0.00     0.216 C 
BRANCH   7   8
ATOM      8  N   UNL     1      -2.486   0.674   1.034  1.00  0.00    -0.345 N 
ATOM      9  C   UNL     1      -1.867   1.889   1.149  1.00  0.00     0.240 C 
ATOM     10  O   UNL     1      -2.400   2.730   1.879  1.00  0.00    -0.273 OA
ATOM     11  H   UNL     1      -3.239   0.522   1.648  1.00  0.00     0.164 HD
BRANCH   9  12
ATOM     12  C   UNL     1      -0.609   2.207   0.320  1.00  0.00     0.219 C 
BRANCH  12  13
ATOM     13  N   UNL     1       0.562   1.398   0.668  1.00  0.00    -0.335 N 
ATOM     14  C   UNL     1       1.299   0.680  -0.349  1.00  0.00     0.147 C 
BRANCH  13  15
ATOM     15  C   UNL     1       1.167   1.577   1.896  1.00  0.00     0.225 A 
ATOM     16  N   UNL     1       0.526   2.278   2.840  1.00  0.00    -0.221 NA
ATOM     17  N   UNL     1       2.359   0.998   2.125  1.00  0.00    -0.221 NA
ATOM     18  C   UNL     1       1.113   2.418   4.042  1.00  0.00     0.117 A 
ATOM     19  C   UNL     1       2.927   1.182   3.333  1.00  0.00     0.117 A 
ATOM     20  C   UNL     1       2.337   1.887   4.349  1.00  0.00     0.040 A 
ENDBRANCH  13  15
ENDBRANCH  12  13
ENDBRANCH   9  12
ENDBRANCH   7   8
ENDBRANCH   4   7
ENDBRANCH   2   3
ENDBRANCH   1   2
BRANCH   1  21
ATOM     21  C   UNL     1      -0.610  -2.577   4.889  1.00  0.00     0.002 C 
BRANCH  21  22
ATOM     22  C   UNL     1       0.864  -3.005   4.921  1.00  0.00     0.002 C 
BRANCH  22  23
ATOM     23  C   UNL     1       1.880  -1.928   5.309  1.00  0.00     0.021 C 
BRANCH  23  24
ATOM     24  C   UNL     1       1.645  -1.223   6.645  1.00  0.00     0.116 C 
BRANCH  24  25
ATOM     25  N   UNL     1       1.932  -2.074   7.785  1.00  0.00    -0.352 N 
ATOM     26  C   UNL     1       2.771  -1.874   8.855  1.00  0.00     0.251 C 
ATOM     27  H   UNL     1       1.449  -2.931   7.793  1.00  0.00     0.163 HD
ATOM     28  O   UNL     1       2.978  -2.799   9.636  1.00  0.00    -0.269 OA
BRANCH  26  29
ATOM     29  C   UNL     1       3.448  -0.572   9.085  1.00  0.00     0.039 A 
ATOM     30  C   UNL     1       4.772  -0.585   9.540  1.00  0.00     0.014 A 
ATOM     31  C   UNL     1       2.783   0.651   8.948  1.00  0.00     0.014 A 
ATOM     32  C   UNL     1       5.436   0.614   9.826  1.00  0.00     0.010 A 
ATOM     33  C   UNL     1       3.463   1.852   9.185  1.00  0.00     0.010 A 
ATOM     34  C   UNL     1       4.791   1.846   9.640  1.00  0.00    -0.014 A 
BRANCH  34  35
ATOM     35  C   UNL     1       5.484   3.125   9.960  1.00  0.00     0.031 A 
ATOM     36  C   UNL     1       5.022   3.974  11.115  1.00  0.00     0.074 A 
ATOM     37  C   UNL     1       6.514   3.548   9.201  1.00  0.00     0.049 A 
ATOM     38  N   UNL     1       5.471   5.136  11.521  1.00  0.00    -0.248 NA
ATOM     39  C   UNL     1       3.896   3.456  11.907  1.00  0.00     0.031 C 
ATOM     40  C   UNL     1       7.055   2.844   8.039  1.00  0.00     0.029 A 
ATOM     41  N   UNL     1       7.286   4.681   9.294  1.00  0.00    -0.354 N 
ATOM     42  C   UNL     1       4.673   5.496  12.601  1.00  0.00     0.074 A 
ATOM     43  C   UNL     1       3.689   4.447  12.763  1.00  0.00     0.031 C 
ATOM     44  C   UNL     1       8.080   3.551   7.536  1.00  0.00     0.029 A 
ATOM     45  C   UNL     1       8.254   4.770   8.322  1.00  0.00     0.049 A 
ATOM     46  H   UNL     1       7.159   5.364   9.991  1.00  0.00     0.167 HD
ATOM     47  C   UNL     1       4.761   6.588  13.398  1.00  0.00     0.037 A 
ATOM     48  C   UNL     1       9.176   5.723   8.090  1.00  0.00     0.037 A 
ATOM     49  C   UNL     1       5.756   7.620  13.270  1.00  0.00     0.049 A 
ATOM     50  C   UNL     1       9.259   6.923   8.993  1.00  0.00     0.074 A 
ATOM     51  C   UNL     1       5.949   8.736  14.067  1.00  0.00     0.029 A 
ATOM     52  N   UNL     1       6.729   7.660  12.285  1.00  0.00    -0.354 N 
ATOM     53  N   UNL     1       8.528   7.222  10.038  1.00  0.00    -0.248 NA
ATOM     54  C   UNL     1      10.303   7.913   8.688  1.00  0.00     0.031 C 
ATOM     55  C   UNL     1       7.022   9.468  13.546  1.00  0.00     0.029 A 
ATOM     56  C   UNL     1       7.518   8.788  12.447  1.00  0.00     0.049 A 
ATOM     57  H   UNL     1       6.843   6.988  11.575  1.00  0.00     0.167 HD
ATOM     58  C   UNL     1       9.041   8.415  10.532  1.00  0.00     0.074 A 
ATOM     59  C   UNL     1      10.149   8.782   9.677  1.00  0.00     0.031 C 
ATOM     60  C   UNL     1       8.629   9.139  11.601  1.00  0.00     0.037 A 
BRANCH  47  61
ATOM     61  C   UNL     1       3.745   6.722  14.494  1.00  0.00     0.057 A 
ATOM     62  C   UNL     1       3.791   5.921  15.642  1.00  0.00     0.134 A 
ATOM     63  C   UNL     1       2.732   7.686  14.417  1.00  0.00     0.134 A 
ATOM     64  F   UNL     1       4.731   4.972  15.771  1.00  0.00    -0.206 F 
ATOM     65  C   UNL     1       2.850   6.057  16.664  1.00  0.00     0.040 A 
ATOM     66  C   UNL     1       1.799   7.847  15.443  1.00  0.00     0.040 A 
ATOM     67  F   UNL     1       2.638   8.491  13.348  1.00  0.00    -0.206 F 
ATOM     68  C   UNL     1       1.853   7.026  16.568  1.00  0.00     0.006 A 
ENDBRANCH  47  61
BRANCH  48  69
ATOM     69  C   UNL     1      10.126   5.573   6.960  1.00  0.00     0.057 A 
ATOM     70  C   UNL     1      11.473   5.269   7.188  1.00  0.00     0.134 A 
ATOM     71  C   UNL     1       9.715   5.742   5.633  1.00  0.00     0.134 A 
ATOM     72  F   UNL     1      11.927   5.117   8.441  1.00  0.00    -0.206 F 
ATOM     73  C   UNL     1      12.383   5.153   6.137  1.00  0.00     0.040 A 
ATOM     74  C   UNL     1      10.611   5.610   4.571  1.00  0.00     0.040 A 
ATOM     75  F   UNL     1       8.436   6.031   5.352  1.00  0.00    -0.206 F 
ATOM     76  C   UNL     1      11.951   5.320   4.822  1.00  0.00     0.006 A 
ENDBRANCH  48  69
BRANCH  60  77
ATOM     77  C   UNL     1       9.403  10.379  11.933  1.00  0.00     0.057 A 
ATOM     78  C   UNL     1       9.280  11.551  11.178  1.00  0.00     0.134 A 
ATOM     79  C   UNL     1      10.254  10.410  13.045  1.00  0.00     0.134 A 
ATOM     80  F   UNL     1       8.491  11.581  10.093  1.00  0.00    -0.206 F 
ATOM     81  C   UNL     1       9.991  12.707  11.507  1.00  0.00     0.040 A 
ATOM     82  C   UNL     1      10.954  11.566  13.396  1.00  0.00     0.040 A 
ATOM     83  F   UNL     1      10.411   9.322  13.814  1.00  0.00    -0.206 F 
ATOM     84  C   UNL     1      10.826  12.718  12.623  1.00  0.00     0.006 A 
ENDBRANCH  60  77
ENDBRANCH  34  35
ENDBRANCH  26  29
ENDBRANCH  24  25
ENDBRANCH  23  24
ENDBRANCH  22  23
ENDBRANCH  21  22
ENDBRANCH   1  21
TORSDOF 17
