REMARK SMILES O=C(C[NH+]1CCN(c2nccc(N3CCCCC3)n2)CC1)NCCCCCCNC(=O)c1ccc(-c2c3nc(c(-c4c(F)cccc4F)c4ccc([nH]4)c(-c4c(F)cccc4F)c4nc(c(-c5c(F)cccc5F)c5ccc2[nH]5)C=C4)C=C3)cc1
REMARK SMILES IDX 25 1 24 2 23 3 22 4 1 5 2 6 3 8 4 9 5 10 21 11 6 13 20 14
REMARK SMILES IDX 7 15 8 16 9 17 19 18 10 19 12 20 11 21 13 22 14 23 18 24
REMARK SMILES IDX 15 25 17 26 16 27 26 28 27 29 28 30 29 31 30 32 31 34 32 35
REMARK SMILES IDX 33 36 85 37 34 38 84 39 35 40 36 41 37 42 78 43 38 44 83 45
REMARK SMILES IDX 77 46 79 47 39 48 82 49 76 50 75 51 40 53 66 54 49 55 65 56
REMARK SMILES IDX 50 57 53 58 64 59 80 60 51 61 52 62 63 64 81 65 54 66 41 67
REMARK SMILES IDX 42 68 47 69 43 70 44 71 46 72 48 73 45 74 67 75 68 76 73 77
REMARK SMILES IDX 69 78 70 79 72 80 74 81 71 82 55 83 56 84 61 85 57 86 58 87
REMARK SMILES IDX 60 88 62 89 59 90
REMARK H PARENT 22 7 4 12 29 33 79 52 53 63
REMARK Flexibility Score: inf
ROOT
ATOM      1  C   UNL     1       3.283  -0.675   3.822  1.00  0.00     0.002 C 
ENDROOT
BRANCH   1   2
ATOM      2  C   UNL     1       1.866  -1.082   3.407  1.00  0.00     0.021 C 
BRANCH   2   3
ATOM      3  C   UNL     1       1.276  -0.209   2.302  1.00  0.00     0.116 C 
BRANCH   3   4
ATOM      4  N   UNL     1       1.986  -0.360   1.049  1.00  0.00    -0.351 N 
ATOM      5  O   UNL     1       0.643   1.096  -0.095  1.00  0.00    -0.269 OA
ATOM      6  C   UNL     1       1.603   0.330  -0.078  1.00  0.00     0.275 C 
ATOM      7  H   UNL     1       2.758  -0.969   1.003  1.00  0.00     0.163 HD
BRANCH   6   8
ATOM      8  C   UNL     1       2.453   0.045  -1.317  1.00  0.00     0.363 C 
BRANCH   8   9
ATOM      9  N   UNL     1       3.747   0.731  -1.386  1.00  0.00    -0.324 N 
ATOM     10  C   UNL     1       3.951   1.951  -0.596  1.00  0.00     0.284 C 
ATOM     11  C   UNL     1       4.942  -0.117  -1.396  1.00  0.00     0.284 C 
ATOM     12  H   UNL     1       3.630   1.085  -2.335  1.00  0.00     0.348 HD
ATOM     13  C   UNL     1       4.585   1.757   0.805  1.00  0.00     0.181 C 
ATOM     14  C   UNL     1       5.575  -0.401  -0.020  1.00  0.00     0.181 C 
ATOM     15  N   UNL     1       5.708   0.821   0.767  1.00  0.00    -0.329 N 
BRANCH  15  16
ATOM     16  C   UNL     1       6.544   0.755   1.867  1.00  0.00     0.227 A 
ATOM     17  N   UNL     1       6.170   1.354   3.006  1.00  0.00    -0.221 NA
ATOM     18  N   UNL     1       7.712   0.107   1.747  1.00  0.00    -0.196 NA
ATOM     19  C   UNL     1       6.978   1.219   4.073  1.00  0.00     0.119 A 
ATOM     20  C   UNL     1       8.532   0.049   2.813  1.00  0.00     0.134 A 
ATOM     21  C   UNL     1       8.164   0.544   4.042  1.00  0.00     0.067 A 
BRANCH  20  22
ATOM     22  N   UNL     1       9.844  -0.341   2.630  1.00  0.00    -0.356 N 
ATOM     23  C   UNL     1      10.599   0.414   1.642  1.00  0.00     0.118 C 
ATOM     24  C   UNL     1      10.283  -1.674   3.001  1.00  0.00     0.118 C 
ATOM     25  C   UNL     1      10.824  -0.419   0.388  1.00  0.00     0.022 C 
ATOM     26  C   UNL     1      10.576  -2.512   1.753  1.00  0.00     0.022 C 
ATOM     27  C   UNL     1      11.455  -1.760   0.752  1.00  0.00     0.004 C 
ENDBRANCH  20  22
ENDBRANCH  15  16
ENDBRANCH   8   9
ENDBRANCH   6   8
ENDBRANCH   3   4
ENDBRANCH   2   3
ENDBRANCH   1   2
BRANCH   1  28
ATOM     28  C   UNL     1       3.360   0.656   4.572  1.00  0.00     0.002 C 
BRANCH  28  29
ATOM     29  C   UNL     1       2.788   0.657   5.982  1.00  0.00     0.021 C 
BRANCH  29  30
ATOM     30  C   UNL     1       3.340  -0.427   6.899  1.00  0.00     0.116 C 
BRANCH  30  31
ATOM     31  N   UNL     1       4.796  -0.424   7.021  1.00  0.00    -0.352 N 
ATOM     32  C   UNL     1       5.583  -0.412   8.150  1.00  0.00     0.251 C 
ATOM     33  H   UNL     1       5.287  -0.432   6.168  1.00  0.00     0.163 HD
ATOM     34  O   UNL     1       6.803  -0.311   8.060  1.00  0.00    -0.269 OA
BRANCH  32  35
ATOM     35  C   UNL     1       4.934  -0.468   9.479  1.00  0.00     0.039 A 
ATOM     36  C   UNL     1       5.296   0.460  10.458  1.00  0.00     0.014 A 
ATOM     37  C   UNL     1       3.899  -1.372   9.716  1.00  0.00     0.014 A 
ATOM     38  C   UNL     1       4.531   0.564  11.623  1.00  0.00     0.010 A 
ATOM     39  C   UNL     1       3.074  -1.192  10.818  1.00  0.00     0.010 A 
ATOM     40  C   UNL     1       3.371  -0.212  11.779  1.00  0.00    -0.014 A 
BRANCH  40  41
ATOM     41  C   UNL     1       2.431  -0.011  12.914  1.00  0.00     0.031 A 
ATOM     42  C   UNL     1       2.104  -1.157  13.832  1.00  0.00     0.074 A 
ATOM     43  C   UNL     1       1.782   1.163  13.051  1.00  0.00     0.049 A 
ATOM     44  N   UNL     1       1.206  -1.229  14.781  1.00  0.00    -0.248 NA
ATOM     45  C   UNL     1       2.858  -2.404  13.624  1.00  0.00     0.031 C 
ATOM     46  C   UNL     1       1.950   2.337  12.190  1.00  0.00     0.029 A 
ATOM     47  N   UNL     1       0.833   1.558  13.962  1.00  0.00    -0.354 N 
ATOM     48  C   UNL     1       1.258  -2.536  15.249  1.00  0.00     0.074 A 
ATOM     49  C   UNL     1       2.237  -3.235  14.446  1.00  0.00     0.031 C 
ATOM     50  C   UNL     1       1.163   3.329  12.637  1.00  0.00     0.029 A 
ATOM     51  C   UNL     1       0.401   2.851  13.786  1.00  0.00     0.049 A 
ATOM     52  H   UNL     1       0.494   0.971  14.675  1.00  0.00     0.167 HD
ATOM     53  C   UNL     1       0.573  -3.099  16.273  1.00  0.00     0.037 A 
ATOM     54  C   UNL     1      -0.509   3.569  14.470  1.00  0.00     0.037 A 
ATOM     55  C   UNL     1      -0.356  -2.389  17.111  1.00  0.00     0.049 A 
ATOM     56  C   UNL     1      -1.231   2.934  15.625  1.00  0.00     0.074 A 
ATOM     57  C   UNL     1      -1.030  -2.844  18.230  1.00  0.00     0.029 A 
ATOM     58  N   UNL     1      -0.734  -1.068  16.924  1.00  0.00    -0.354 N 
ATOM     59  N   UNL     1      -1.121   1.718  16.101  1.00  0.00    -0.248 NA
ATOM     60  C   UNL     1      -2.205   3.774  16.338  1.00  0.00     0.031 C 
ATOM     61  C   UNL     1      -1.840  -1.806  18.704  1.00  0.00     0.029 A 
ATOM     62  C   UNL     1      -1.643  -0.695  17.900  1.00  0.00     0.049 A 
ATOM     63  H   UNL     1      -0.405  -0.482  16.204  1.00  0.00     0.167 HD
ATOM     64  C   UNL     1      -1.986   1.655  17.185  1.00  0.00     0.074 A 
ATOM     65  C   UNL     1      -2.608   2.958  17.302  1.00  0.00     0.031 C 
ATOM     66  C   UNL     1      -2.241   0.611  18.011  1.00  0.00     0.037 A 
BRANCH  53  67
ATOM     67  C   UNL     1       0.819  -4.554  16.546  1.00  0.00     0.057 A 
ATOM     68  C   UNL     1       2.034  -5.012  17.072  1.00  0.00     0.134 A 
ATOM     69  C   UNL     1      -0.173  -5.507  16.285  1.00  0.00     0.134 A 
ATOM     70  F   UNL     1       3.030  -4.152  17.330  1.00  0.00    -0.206 F 
ATOM     71  C   UNL     1       2.268  -6.370  17.294  1.00  0.00     0.040 A 
ATOM     72  C   UNL     1       0.038  -6.865  16.530  1.00  0.00     0.040 A 
ATOM     73  F   UNL     1      -1.362  -5.136  15.787  1.00  0.00    -0.206 F 
ATOM     74  C   UNL     1       1.266  -7.301  17.027  1.00  0.00     0.006 A 
ENDBRANCH  53  67
BRANCH  54  75
ATOM     75  C   UNL     1      -0.761   4.988  14.113  1.00  0.00     0.057 A 
ATOM     76  C   UNL     1      -0.311   6.022  14.943  1.00  0.00     0.134 A 
ATOM     77  C   UNL     1      -1.456   5.347  12.953  1.00  0.00     0.134 A 
ATOM     78  F   UNL     1       0.344   5.738  16.078  1.00  0.00    -0.206 F 
ATOM     79  C   UNL     1      -0.557   7.362  14.641  1.00  0.00     0.040 A 
ATOM     80  C   UNL     1      -1.690   6.684  12.628  1.00  0.00     0.040 A 
ATOM     81  F   UNL     1      -1.907   4.403  12.115  1.00  0.00    -0.206 F 
ATOM     82  C   UNL     1      -1.245   7.696  13.477  1.00  0.00     0.006 A 
ENDBRANCH  54  75
BRANCH  66  83
ATOM     83  C   UNL     1      -3.202   0.847  19.136  1.00  0.00     0.057 A 
ATOM     84  C   UNL     1      -4.582   0.942  18.921  1.00  0.00     0.134 A 
ATOM     85  C   UNL     1      -2.742   0.943  20.456  1.00  0.00     0.134 A 
ATOM     86  F   UNL     1      -5.083   0.872  17.679  1.00  0.00    -0.206 F 
ATOM     87  C   UNL     1      -5.471   1.141  19.979  1.00  0.00     0.040 A 
ATOM     88  C   UNL     1      -3.622   1.119  21.523  1.00  0.00     0.040 A 
ATOM     89  F   UNL     1      -1.431   0.854  20.728  1.00  0.00    -0.206 F 
ATOM     90  C   UNL     1      -4.991   1.224  21.285  1.00  0.00     0.006 A 
ENDBRANCH  66  83
ENDBRANCH  40  41
ENDBRANCH  32  35
ENDBRANCH  30  31
ENDBRANCH  29  30
ENDBRANCH  28  29
ENDBRANCH   1  28
TORSDOF 16
