REMARK SMILES O=C(NCCCCCCNC(=O)c1cc(-c2ccoc2)n[nH]1)c1ccc(-c2c3nc(c(-c4c(F)cccc4F)c4ccc([nH]4)c(-c4c(F)cccc4F)c4nc(c(-c5c(F)cccc5F)c5ccc2[nH]5)C=C4)C=C3)cc1
REMARK SMILES IDX 6 1 5 2 4 3 3 4 1 5 2 6 23 8 24 9 76 10 25 11 75 12 26 13
REMARK SMILES IDX 27 14 28 15 69 16 29 17 74 18 68 19 70 20 30 21 73 22 67 23
REMARK SMILES IDX 66 24 31 26 57 27 40 28 56 29 41 30 44 31 55 32 71 33 42 34
REMARK SMILES IDX 43 35 54 37 72 38 45 39 32 40 33 41 38 42 34 43 35 44 37 45
REMARK SMILES IDX 39 46 36 47 58 48 59 49 64 50 60 51 61 52 63 53 65 54 62 55
REMARK SMILES IDX 46 56 47 57 52 58 48 59 49 60 51 61 53 62 50 63 7 64 8 65
REMARK SMILES IDX 9 66 10 67 11 68 12 70 13 71 14 72 22 73 15 74 21 75 16 77
REMARK SMILES IDX 17 78 20 79 18 80 19 81
REMARK H PARENT 3 7 70 25 44 36 10 69 22 76
REMARK Flexibility Score: inf
ROOT
ATOM      1  C   UNL     1       4.103  -2.041   3.301  1.00  0.00     0.002 C 
ENDROOT
BRANCH   1   2
ATOM      2  C   UNL     1       4.568  -0.795   2.541  1.00  0.00     0.021 C 
BRANCH   2   3
ATOM      3  C   UNL     1       4.392  -0.847   1.025  1.00  0.00     0.116 C 
BRANCH   3   4
ATOM      4  N   UNL     1       2.999  -0.966   0.633  1.00  0.00    -0.352 N 
ATOM      5  O   UNL     1       1.042  -0.356  -0.294  1.00  0.00    -0.269 OA
ATOM      6  C   UNL     1       2.255  -0.185  -0.214  1.00  0.00     0.251 C 
ATOM      7  H   UNL     1       2.516  -1.723   1.036  1.00  0.00     0.163 HD
BRANCH   6   8
ATOM      8  C   UNL     1       2.896   0.878  -1.018  1.00  0.00     0.039 A 
ATOM      9  C   UNL     1       4.066   0.640  -1.746  1.00  0.00     0.014 A 
ATOM     10  C   UNL     1       2.268   2.126  -1.090  1.00  0.00     0.014 A 
ATOM     11  C   UNL     1       4.656   1.674  -2.474  1.00  0.00     0.010 A 
ATOM     12  C   UNL     1       2.836   3.148  -1.853  1.00  0.00     0.010 A 
ATOM     13  C   UNL     1       4.044   2.935  -2.535  1.00  0.00    -0.014 A 
BRANCH  13  14
ATOM     14  C   UNL     1       4.641   4.024  -3.345  1.00  0.00     0.031 A 
ATOM     15  C   UNL     1       5.255   5.222  -2.681  1.00  0.00     0.074 A 
ATOM     16  C   UNL     1       4.595   3.949  -4.687  1.00  0.00     0.049 A 
ATOM     17  N   UNL     1       5.752   6.303  -3.226  1.00  0.00    -0.248 NA
ATOM     18  C   UNL     1       5.309   5.208  -1.211  1.00  0.00     0.031 C 
ATOM     19  C   UNL     1       4.013   2.844  -5.449  1.00  0.00     0.029 A 
ATOM     20  N   UNL     1       5.032   4.826  -5.646  1.00  0.00    -0.354 N 
ATOM     21  C   UNL     1       6.157   7.108  -2.170  1.00  0.00     0.074 A 
ATOM     22  C   UNL     1       5.840   6.395  -0.950  1.00  0.00     0.031 C 
ATOM     23  C   UNL     1       4.131   3.107  -6.760  1.00  0.00     0.029 A 
ATOM     24  C   UNL     1       4.762   4.414  -6.927  1.00  0.00     0.049 A 
ATOM     25  H   UNL     1       5.495   5.669  -5.437  1.00  0.00     0.167 HD
ATOM     26  C   UNL     1       6.743   8.328  -2.215  1.00  0.00     0.037 A 
ATOM     27  C   UNL     1       4.975   5.028  -8.105  1.00  0.00     0.037 A 
ATOM     28  C   UNL     1       7.078   9.030  -3.425  1.00  0.00     0.049 A 
ATOM     29  C   UNL     1       5.619   6.382  -8.129  1.00  0.00     0.074 A 
ATOM     30  C   UNL     1       7.719  10.248  -3.568  1.00  0.00     0.029 A 
ATOM     31  N   UNL     1       6.794   8.575  -4.704  1.00  0.00    -0.354 N 
ATOM     32  N   UNL     1       6.026   7.117  -7.124  1.00  0.00    -0.248 NA
ATOM     33  C   UNL     1       5.828   6.994  -9.449  1.00  0.00     0.031 C 
ATOM     34  C   UNL     1       7.800  10.543  -4.934  1.00  0.00     0.029 A 
ATOM     35  C   UNL     1       7.232   9.496  -5.641  1.00  0.00     0.049 A 
ATOM     36  H   UNL     1       6.347   7.723  -4.914  1.00  0.00     0.167 HD
ATOM     37  C   UNL     1       6.548   8.273  -7.686  1.00  0.00     0.074 A 
ATOM     38  C   UNL     1       6.415   8.139  -9.123  1.00  0.00     0.031 C 
ATOM     39  C   UNL     1       7.091   9.348  -7.066  1.00  0.00     0.037 A 
BRANCH  26  40
ATOM     40  C   UNL     1       7.047   8.991  -0.906  1.00  0.00     0.057 A 
ATOM     41  C   UNL     1       8.140   8.604  -0.121  1.00  0.00     0.134 A 
ATOM     42  C   UNL     1       6.254  10.046  -0.441  1.00  0.00     0.134 A 
ATOM     43  F   UNL     1       8.928   7.589  -0.507  1.00  0.00    -0.206 F 
ATOM     44  C   UNL     1       8.424   9.235   1.091  1.00  0.00     0.040 A 
ATOM     45  C   UNL     1       6.537  10.695   0.761  1.00  0.00     0.040 A 
ATOM     46  F   UNL     1       5.193  10.464  -1.149  1.00  0.00    -0.206 F 
ATOM     47  C   UNL     1       7.624  10.287   1.533  1.00  0.00     0.006 A 
ENDBRANCH  26  40
BRANCH  27  48
ATOM     48  C   UNL     1       4.562   4.355  -9.357  1.00  0.00     0.057 A 
ATOM     49  C   UNL     1       5.502   3.737 -10.187  1.00  0.00     0.134 A 
ATOM     50  C   UNL     1       3.214   4.275  -9.726  1.00  0.00     0.134 A 
ATOM     51  F   UNL     1       6.808   3.796  -9.889  1.00  0.00    -0.206 F 
ATOM     52  C   UNL     1       5.116   3.060 -11.344  1.00  0.00     0.040 A 
ATOM     53  C   UNL     1       2.813   3.587 -10.871  1.00  0.00     0.040 A 
ATOM     54  F   UNL     1       2.269   4.844  -8.963  1.00  0.00    -0.206 F 
ATOM     55  C   UNL     1       3.767   2.977 -11.684  1.00  0.00     0.006 A 
ENDBRANCH  27  48
BRANCH  39  56
ATOM     56  C   UNL     1       7.594  10.455  -7.937  1.00  0.00     0.057 A 
ATOM     57  C   UNL     1       6.724  11.397  -8.497  1.00  0.00     0.134 A 
ATOM     58  C   UNL     1       8.964  10.606  -8.181  1.00  0.00     0.134 A 
ATOM     59  F   UNL     1       5.400  11.297  -8.307  1.00  0.00    -0.206 F 
ATOM     60  C   UNL     1       7.200  12.450  -9.280  1.00  0.00     0.040 A 
ATOM     61  C   UNL     1       9.453  11.661  -8.951  1.00  0.00     0.040 A 
ATOM     62  F   UNL     1       9.847   9.735  -7.669  1.00  0.00    -0.206 F 
ATOM     63  C   UNL     1       8.569  12.587  -9.504  1.00  0.00     0.006 A 
ENDBRANCH  39  56
ENDBRANCH  13  14
ENDBRANCH   6   8
ENDBRANCH   3   4
ENDBRANCH   2   3
ENDBRANCH   1   2
BRANCH   1  64
ATOM     64  C   UNL     1       4.727  -3.367   2.854  1.00  0.00     0.002 C 
BRANCH  64  65
ATOM     65  C   UNL     1       6.258  -3.396   2.806  1.00  0.00     0.021 C 
BRANCH  65  66
ATOM     66  C   UNL     1       6.954  -3.062   4.127  1.00  0.00     0.116 C 
BRANCH  66  67
ATOM     67  N   UNL     1       6.743  -4.101   5.122  1.00  0.00    -0.351 N 
ATOM     68  C   UNL     1       7.661  -4.945   5.689  1.00  0.00     0.269 C 
ATOM     69  H   UNL     1       5.814  -4.213   5.429  1.00  0.00     0.163 HD
ATOM     70  O   UNL     1       7.259  -5.960   6.256  1.00  0.00    -0.268 OA
BRANCH  68  71
ATOM     71  C   UNL     1       9.055  -4.639   5.569  1.00  0.00     0.123 A 
ATOM     72  C   UNL     1       9.765  -3.461   5.707  1.00  0.00     0.064 A 
ATOM     73  N   UNL     1      10.003  -5.596   5.328  1.00  0.00    -0.272 N 
ATOM     74  C   UNL     1      11.097  -3.796   5.392  1.00  0.00     0.096 A 
ATOM     75  N   UNL     1      11.235  -5.097   5.119  1.00  0.00    -0.175 NA
ATOM     76  H   UNL     1       9.802  -6.559   5.310  1.00  0.00     0.190 HD
BRANCH  74  77
ATOM     77  C   UNL     1      12.190  -2.841   5.312  1.00  0.00     0.040 A 
ATOM     78  C   UNL     1      12.377  -1.709   6.143  1.00  0.00     0.052 A 
ATOM     79  C   UNL     1      13.236  -2.845   4.419  1.00  0.00     0.205 A 
ATOM     80  C   UNL     1      13.526  -1.097   5.693  1.00  0.00     0.195 A 
ATOM     81  O   UNL     1      14.048  -1.776   4.638  1.00  0.00    -0.472 OA
ENDBRANCH  74  77
ENDBRANCH  68  71
ENDBRANCH  66  67
ENDBRANCH  65  66
ENDBRANCH  64  65
ENDBRANCH   1  64
TORSDOF 14
