REMARK SMILES O=C(NCCCCCCNC(=O)c1cc(-c2ccccc2)nc(Nc2nc3ccccc3s2)n1)c1ccc(-c2c3nc(c(-c4c(F)cccc4F)c4ccc([nH]4)c(-c4c(F)cccc4F)c4nc(c(-c5c(F)cccc5F)c5ccc2[nH]5)C=C4)C=C3)cc1
REMARK SMILES IDX 6 1 5 2 4 3 3 4 1 5 2 6 35 8 36 9 88 10 37 11 87 12 38 13
REMARK SMILES IDX 39 14 40 15 81 16 41 17 86 18 80 19 82 20 42 21 85 22 79 23
REMARK SMILES IDX 78 24 43 26 69 27 52 28 68 29 53 30 56 31 67 32 83 33 54 34
REMARK SMILES IDX 55 35 66 37 84 38 57 39 44 40 45 41 50 42 46 43 47 44 49 45
REMARK SMILES IDX 51 46 48 47 70 48 71 49 76 50 72 51 73 52 75 53 77 54 74 55
REMARK SMILES IDX 58 56 59 57 64 58 60 59 61 60 63 61 65 62 62 63 7 64 8 65
REMARK SMILES IDX 9 66 10 67 11 68 12 70 13 71 14 72 34 73 15 74 23 75 22 76
REMARK SMILES IDX 16 77 17 78 21 79 18 80 20 81 19 82 24 83 25 85 26 86 33 87
REMARK SMILES IDX 27 88 32 89 28 90 31 91 29 92 30 93
REMARK H PARENT 3 7 82 25 56 36 10 69 24 84
REMARK Flexibility Score: inf
ROOT
ATOM      1  C   UNL     1       4.306   3.118   2.269  1.00  0.00     0.002 C 
ENDROOT
BRANCH   1   2
ATOM      2  C   UNL     1       4.788   2.426   0.995  1.00  0.00     0.021 C 
BRANCH   2   3
ATOM      3  C   UNL     1       4.509   0.932   0.944  1.00  0.00     0.116 C 
BRANCH   3   4
ATOM      4  N   UNL     1       3.086   0.640   0.918  1.00  0.00    -0.352 N 
ATOM      5  O   UNL     1       1.157  -0.106   0.014  1.00  0.00    -0.269 OA
ATOM      6  C   UNL     1       2.381  -0.105   0.006  1.00  0.00     0.251 C 
ATOM      7  H   UNL     1       2.558   1.029   1.652  1.00  0.00     0.163 HD
BRANCH   6   8
ATOM      8  C   UNL     1       3.118  -0.902  -0.996  1.00  0.00     0.039 A 
ATOM      9  C   UNL     1       4.207  -1.690  -0.610  1.00  0.00     0.014 A 
ATOM     10  C   UNL     1       2.700  -0.879  -2.329  1.00  0.00     0.014 A 
ATOM     11  C   UNL     1       4.939  -2.377  -1.570  1.00  0.00     0.010 A 
ATOM     12  C   UNL     1       3.385  -1.637  -3.280  1.00  0.00     0.010 A 
ATOM     13  C   UNL     1       4.510  -2.390  -2.907  1.00  0.00    -0.014 A 
BRANCH  13  14
ATOM     14  C   UNL     1       5.160  -3.313  -3.867  1.00  0.00     0.031 A 
ATOM     15  C   UNL     1       5.921  -2.804  -5.054  1.00  0.00     0.074 A 
ATOM     16  C   UNL     1       5.024  -4.638  -3.655  1.00  0.00     0.049 A 
ATOM     17  N   UNL     1       6.500  -3.486  -6.009  1.00  0.00    -0.248 NA
ATOM     18  C   UNL     1       6.047  -1.345  -5.197  1.00  0.00     0.031 C 
ATOM     19  C   UNL     1       4.285  -5.239  -2.540  1.00  0.00     0.029 A 
ATOM     20  N   UNL     1       5.489  -5.716  -4.362  1.00  0.00    -0.354 N 
ATOM     21  C   UNL     1       7.038  -2.547  -6.878  1.00  0.00     0.074 A 
ATOM     22  C   UNL     1       6.710  -1.242  -6.343  1.00  0.00     0.031 C 
ATOM     23  C   UNL     1       4.360  -6.574  -2.629  1.00  0.00     0.029 A 
ATOM     24  C   UNL     1       5.088  -6.923  -3.841  1.00  0.00     0.049 A 
ATOM     25  H   UNL     1       6.054  -5.634  -5.163  1.00  0.00     0.167 HD
ATOM     26  C   UNL     1       7.739  -2.764  -8.016  1.00  0.00     0.037 A 
ATOM     27  C   UNL     1       5.247  -8.173  -4.311  1.00  0.00     0.037 A 
ATOM     28  C   UNL     1       8.073  -4.071  -8.524  1.00  0.00     0.049 A 
ATOM     29  C   UNL     1       5.992  -8.373  -5.598  1.00  0.00     0.074 A 
ATOM     30  C   UNL     1       8.852  -4.392  -9.622  1.00  0.00     0.029 A 
ATOM     31  N   UNL     1       7.633  -5.269  -7.981  1.00  0.00    -0.354 N 
ATOM     32  N   UNL     1       6.567  -7.478  -6.364  1.00  0.00    -0.248 NA
ATOM     33  C   UNL     1       6.104  -9.751  -6.092  1.00  0.00     0.031 C 
ATOM     34  C   UNL     1       8.829  -5.780  -9.783  1.00  0.00     0.029 A 
ATOM     35  C   UNL     1       8.082  -6.328  -8.753  1.00  0.00     0.049 A 
ATOM     36  H   UNL     1       7.084  -5.354  -7.169  1.00  0.00     0.167 HD
ATOM     37  C   UNL     1       7.115  -8.184  -7.424  1.00  0.00     0.074 A 
ATOM     38  C   UNL     1       6.831  -9.584  -7.186  1.00  0.00     0.031 C 
ATOM     39  C   UNL     1       7.786  -7.715  -8.503  1.00  0.00     0.037 A 
BRANCH  26  40
ATOM     40  C   UNL     1       8.183  -1.576  -8.818  1.00  0.00     0.057 A 
ATOM     41  C   UNL     1       9.241  -0.755  -8.409  1.00  0.00     0.134 A 
ATOM     42  C   UNL     1       7.611  -1.316 -10.071  1.00  0.00     0.134 A 
ATOM     43  F   UNL     1       9.829  -0.946  -7.218  1.00  0.00    -0.206 F 
ATOM     44  C   UNL     1       9.713   0.282  -9.216  1.00  0.00     0.040 A 
ATOM     45  C   UNL     1       8.088  -0.296 -10.896  1.00  0.00     0.040 A 
ATOM     46  F   UNL     1       6.600  -2.070 -10.527  1.00  0.00    -0.206 F 
ATOM     47  C   UNL     1       9.143   0.507 -10.468  1.00  0.00     0.006 A 
ENDBRANCH  26  40
BRANCH  27  48
ATOM     48  C   UNL     1       4.641  -9.322  -3.591  1.00  0.00     0.057 A 
ATOM     49  C   UNL     1       5.434 -10.304  -2.989  1.00  0.00     0.134 A 
ATOM     50  C   UNL     1       3.250  -9.474  -3.507  1.00  0.00     0.134 A 
ATOM     51  F   UNL     1       6.771 -10.223  -3.049  1.00  0.00    -0.206 F 
ATOM     52  C   UNL     1       4.867 -11.409  -2.352  1.00  0.00     0.040 A 
ATOM     53  C   UNL     1       2.671 -10.556  -2.845  1.00  0.00     0.040 A 
ATOM     54  F   UNL     1       2.434  -8.562  -4.056  1.00  0.00    -0.206 F 
ATOM     55  C   UNL     1       3.481 -11.534  -2.275  1.00  0.00     0.006 A 
ENDBRANCH  27  48
BRANCH  39  56
ATOM     56  C   UNL     1       8.263  -8.726  -9.502  1.00  0.00     0.057 A 
ATOM     57  C   UNL     1       7.375  -9.385 -10.361  1.00  0.00     0.134 A 
ATOM     58  C   UNL     1       9.627  -9.014  -9.634  1.00  0.00     0.134 A 
ATOM     59  F   UNL     1       6.054  -9.166 -10.271  1.00  0.00    -0.206 F 
ATOM     60  C   UNL     1       7.824 -10.307 -11.306  1.00  0.00     0.040 A 
ATOM     61  C   UNL     1      10.092  -9.913 -10.595  1.00  0.00     0.040 A 
ATOM     62  F   UNL     1      10.531  -8.413  -8.846  1.00  0.00    -0.206 F 
ATOM     63  C   UNL     1       9.188 -10.566 -11.431  1.00  0.00     0.006 A 
ENDBRANCH  39  56
ENDBRANCH  13  14
ENDBRANCH   6   8
ENDBRANCH   3   4
ENDBRANCH   2   3
ENDBRANCH   1   2
BRANCH   1  64
ATOM     64  C   UNL     1       4.833   2.517   3.575  1.00  0.00     0.002 C 
BRANCH  64  65
ATOM     65  C   UNL     1       6.356   2.388   3.671  1.00  0.00     0.021 C 
BRANCH  65  66
ATOM     66  C   UNL     1       7.127   3.675   3.402  1.00  0.00     0.116 C 
BRANCH  66  67
ATOM     67  N   UNL     1       6.758   4.740   4.317  1.00  0.00    -0.351 N 
ATOM     68  C   UNL     1       7.574   5.527   5.095  1.00  0.00     0.270 C 
ATOM     69  H   UNL     1       5.794   4.924   4.390  1.00  0.00     0.163 HD
ATOM     70  O   UNL     1       7.083   6.336   5.876  1.00  0.00    -0.268 OA
BRANCH  68  71
ATOM     71  C   UNL     1       9.044   5.402   4.951  1.00  0.00     0.134 A 
ATOM     72  C   UNL     1       9.636   5.617   3.740  1.00  0.00     0.063 A 
ATOM     73  N   UNL     1       9.709   5.027   6.046  1.00  0.00    -0.207 NA
ATOM     74  C   UNL     1      10.986   5.357   3.693  1.00  0.00     0.077 A 
ATOM     75  C   UNL     1      11.024   4.827   5.943  1.00  0.00     0.230 A 
ATOM     76  N   UNL     1      11.694   4.973   4.785  1.00  0.00    -0.213 NA
BRANCH  74  77
ATOM     77  C   UNL     1      11.686   5.410   2.402  1.00  0.00     0.000 A 
ATOM     78  C   UNL     1      12.416   4.308   1.929  1.00  0.00     0.010 A 
ATOM     79  C   UNL     1      11.545   6.523   1.551  1.00  0.00     0.010 A 
ATOM     80  C   UNL     1      12.952   4.304   0.637  1.00  0.00     0.001 A 
ATOM     81  C   UNL     1      12.084   6.521   0.263  1.00  0.00     0.001 A 
ATOM     82  C   UNL     1      12.779   5.407  -0.196  1.00  0.00     0.000 A 
ENDBRANCH  74  77
BRANCH  75  83
ATOM     83  N   UNL     1      11.753   4.528   7.093  1.00  0.00    -0.300 N 
ATOM     84  H   UNL     1      12.735   4.473   7.033  1.00  0.00     0.172 HD
BRANCH  83  85
ATOM     85  C   UNL     1      11.160   4.311   8.286  1.00  0.00     0.190 A 
ATOM     86  N   UNL     1      10.010   3.696   8.450  1.00  0.00    -0.220 NA
ATOM     87  S   UNL     1      11.874   4.861   9.758  1.00  0.00    -0.097 S 
ATOM     88  C   UNL     1       9.534   3.872   9.727  1.00  0.00     0.084 A 
ATOM     89  C   UNL     1      10.409   4.511  10.603  1.00  0.00     0.056 A 
ATOM     90  C   UNL     1       8.259   3.485  10.185  1.00  0.00     0.030 A 
ATOM     91  C   UNL     1      10.046   4.784  11.933  1.00  0.00     0.021 A 
ATOM     92  C   UNL     1       7.881   3.766  11.499  1.00  0.00     0.002 A 
ATOM     93  C   UNL     1       8.764   4.409  12.360  1.00  0.00     0.002 A 
ENDBRANCH  83  85
ENDBRANCH  75  83
ENDBRANCH  68  71
ENDBRANCH  66  67
ENDBRANCH  65  66
ENDBRANCH  64  65
ENDBRANCH   1  64
TORSDOF 16
