REMARK SMILES COc1ccc(-c2sc(N)nc2C(=O)NCCCCCCNC(=O)c2ccc(-c3c4nc(c(-c5c(F)cccc5F)c5ccc([nH]5)c(-c5c(F)cccc5F)c5nc(c(-c6c(F)cccc6F)c6ccc3[nH]6)C=C5)C=C4)cc2)cc1OC
REMARK SMILES IDX 18 1 17 2 16 3 15 4 13 5 14 6 12 8 7 9 8 10 9 11 11 12 6 13
REMARK SMILES IDX 3 14 4 15 80 16 5 17 79 18 2 19 1 20 81 21 82 22 10 23 19 26
REMARK SMILES IDX 20 27 21 28 22 29 23 30 24 32 25 33 26 34 78 35 27 36 77 37
REMARK SMILES IDX 28 38 29 39 30 40 71 41 31 42 76 43 70 44 72 45 32 46 75 47
REMARK SMILES IDX 69 48 68 49 33 51 59 52 42 53 58 54 43 55 46 56 57 57 73 58
REMARK SMILES IDX 44 59 45 60 56 62 74 63 47 64 34 65 35 66 40 67 36 68 37 69
REMARK SMILES IDX 39 70 41 71 38 72 60 73 61 74 66 75 62 76 63 77 65 78 67 79
REMARK SMILES IDX 64 80 48 81 49 82 54 83 50 84 51 85 53 86 55 87 52 88
REMARK H PARENT 15 7 10 24 10 25 22 31 72 50 46 61
REMARK Flexibility Score: inf
ROOT
ATOM      1  C   UNL     1       7.674   1.070   8.251  1.00  0.00     0.002 C 
ENDROOT
BRANCH   1   2
ATOM      2  C   UNL     1       6.894  -0.243   8.384  1.00  0.00     0.021 C 
BRANCH   2   3
ATOM      3  C   UNL     1       5.405  -0.092   8.694  1.00  0.00     0.116 C 
BRANCH   3   4
ATOM      4  N   UNL     1       4.697   0.596   7.632  1.00  0.00    -0.351 N 
ATOM      5  C   UNL     1       3.628   0.226   6.856  1.00  0.00     0.271 C 
ATOM      6  O   UNL     1       3.259   1.054   6.015  1.00  0.00    -0.267 OA
ATOM      7  H   UNL     1       5.048   1.493   7.431  1.00  0.00     0.163 HD
BRANCH   5   8
ATOM      8  C   UNL     1       2.962  -1.077   7.022  1.00  0.00     0.149 A 
ATOM      9  C   UNL     1       2.115  -1.643   6.072  1.00  0.00     0.069 A 
ATOM     10  S   UNL     1       1.502  -3.141   6.645  1.00  0.00    -0.096 S 
ATOM     11  C   UNL     1       2.415  -2.962   8.079  1.00  0.00     0.181 A 
ATOM     12  N   UNL     1       3.096  -1.853   8.176  1.00  0.00    -0.215 NA
BRANCH   9  13
ATOM     13  C   UNL     1       1.764  -1.183   4.729  1.00  0.00    -0.002 A 
ATOM     14  C   UNL     1       1.230  -0.104   2.190  1.00  0.00     0.160 A 
ATOM     15  C   UNL     1       0.222  -0.164   3.164  1.00  0.00     0.051 A 
ATOM     16  C   UNL     1       2.510  -0.596   2.474  1.00  0.00     0.161 A 
ATOM     17  C   UNL     1       0.485  -0.708   4.426  1.00  0.00     0.014 A 
ATOM     18  C   UNL     1       2.758  -1.137   3.741  1.00  0.00     0.060 A 
BRANCH  14  19
ATOM     19  O   UNL     1       0.971   0.560   1.022  1.00  0.00    -0.493 OA
ATOM     20  C   UNL     1       0.058  -0.146   0.186  1.00  0.00     0.278 C 
ENDBRANCH  14  19
BRANCH  16  21
ATOM     21  O   UNL     1       3.621  -0.602   1.676  1.00  0.00    -0.493 OA
ATOM     22  C   UNL     1       3.462  -0.319   0.296  1.00  0.00     0.278 C 
ENDBRANCH  16  21
ENDBRANCH   9  13
BRANCH  11  23
ATOM     23  N   UNL     1       2.431  -3.902   9.029  1.00  0.00    -0.375 N 
ATOM     24  H   UNL     1       1.903  -4.725   8.916  1.00  0.00     0.159 HD
ATOM     25  H   UNL     1       2.972  -3.772   9.841  1.00  0.00     0.159 HD
ENDBRANCH  11  23
ENDBRANCH   5   8
ENDBRANCH   3   4
ENDBRANCH   2   3
ENDBRANCH   1   2
BRANCH   1  26
ATOM     26  C   UNL     1       7.564   2.033   9.437  1.00  0.00     0.002 C 
BRANCH  26  27
ATOM     27  C   UNL     1       7.907   1.441  10.806  1.00  0.00     0.021 C 
BRANCH  27  28
ATOM     28  C   UNL     1       9.298   0.826  10.923  1.00  0.00     0.116 C 
BRANCH  28  29
ATOM     29  N   UNL     1      10.358   1.798  10.719  1.00  0.00    -0.352 N 
ATOM     30  C   UNL     1      11.495   2.022  11.453  1.00  0.00     0.251 C 
ATOM     31  H   UNL     1      10.243   2.384   9.936  1.00  0.00     0.163 HD
ATOM     32  O   UNL     1      12.198   2.998  11.204  1.00  0.00    -0.269 OA
BRANCH  30  33
ATOM     33  C   UNL     1      11.873   1.113  12.559  1.00  0.00     0.039 A 
ATOM     34  C   UNL     1      12.374   1.673  13.738  1.00  0.00     0.014 A 
ATOM     35  C   UNL     1      11.775  -0.277  12.437  1.00  0.00     0.014 A 
ATOM     36  C   UNL     1      12.732   0.846  14.805  1.00  0.00     0.010 A 
ATOM     37  C   UNL     1      12.066  -1.097  13.527  1.00  0.00     0.010 A 
ATOM     38  C   UNL     1      12.557  -0.545  14.719  1.00  0.00    -0.014 A 
BRANCH  38  39
ATOM     39  C   UNL     1      12.888  -1.418  15.876  1.00  0.00     0.031 A 
ATOM     40  C   UNL     1      14.012  -2.413  15.790  1.00  0.00     0.074 A 
ATOM     41  C   UNL     1      12.159  -1.323  17.005  1.00  0.00     0.049 A 
ATOM     42  N   UNL     1      14.464  -3.230  16.710  1.00  0.00    -0.248 NA
ATOM     43  C   UNL     1      14.707  -2.524  14.499  1.00  0.00     0.031 C 
ATOM     44  C   UNL     1      11.007  -0.440  17.197  1.00  0.00     0.029 A 
ATOM     45  N   UNL     1      12.284  -1.970  18.209  1.00  0.00    -0.354 N 
ATOM     46  C   UNL     1      15.490  -3.948  16.109  1.00  0.00     0.074 A 
ATOM     47  C   UNL     1      15.556  -3.515  14.730  1.00  0.00     0.031 C 
ATOM     48  C   UNL     1      10.556  -0.571  18.455  1.00  0.00     0.029 A 
ATOM     49  C   UNL     1      11.370  -1.562  19.150  1.00  0.00     0.049 A 
ATOM     50  H   UNL     1      12.965  -2.660  18.382  1.00  0.00     0.167 HD
ATOM     51  C   UNL     1      16.323  -4.864  16.661  1.00  0.00     0.037 A 
ATOM     52  C   UNL     1      11.214  -1.937  20.434  1.00  0.00     0.037 A 
ATOM     53  C   UNL     1      16.270  -5.284  18.037  1.00  0.00     0.049 A 
ATOM     54  C   UNL     1      12.161  -2.943  21.026  1.00  0.00     0.074 A 
ATOM     55  C   UNL     1      17.094  -6.176  18.701  1.00  0.00     0.029 A 
ATOM     56  N   UNL     1      15.340  -4.836  18.963  1.00  0.00    -0.354 N 
ATOM     57  N   UNL     1      13.170  -3.562  20.463  1.00  0.00    -0.248 NA
ATOM     58  C   UNL     1      11.955  -3.290  22.439  1.00  0.00     0.031 C 
ATOM     59  C   UNL     1      16.642  -6.294  20.020  1.00  0.00     0.029 A 
ATOM     60  C   UNL     1      15.563  -5.441  20.190  1.00  0.00     0.049 A 
ATOM     61  H   UNL     1      14.626  -4.184  18.777  1.00  0.00     0.167 HD
ATOM     62  C   UNL     1      13.737  -4.347  21.459  1.00  0.00     0.074 A 
ATOM     63  C   UNL     1      12.971  -4.109  22.665  1.00  0.00     0.031 C 
ATOM     64  C   UNL     1      14.796  -5.191  21.382  1.00  0.00     0.037 A 
BRANCH  51  65
ATOM     65  C   UNL     1      17.375  -5.465  15.774  1.00  0.00     0.057 A 
ATOM     66  C   UNL     1      18.473  -4.718  15.326  1.00  0.00     0.134 A 
ATOM     67  C   UNL     1      17.313  -6.811  15.392  1.00  0.00     0.134 A 
ATOM     68  F   UNL     1      18.587  -3.419  15.646  1.00  0.00    -0.206 F 
ATOM     69  C   UNL     1      19.458  -5.280  14.513  1.00  0.00     0.040 A 
ATOM     70  C   UNL     1      18.306  -7.392  14.601  1.00  0.00     0.040 A 
ATOM     71  F   UNL     1      16.292  -7.586  15.790  1.00  0.00    -0.206 F 
ATOM     72  C   UNL     1      19.379  -6.624  14.154  1.00  0.00     0.006 A 
ENDBRANCH  51  65
BRANCH  52  73
ATOM     73  C   UNL     1      10.147  -1.326  21.266  1.00  0.00     0.057 A 
ATOM     74  C   UNL     1      10.461  -0.449  22.311  1.00  0.00     0.134 A 
ATOM     75  C   UNL     1       8.795  -1.619  21.054  1.00  0.00     0.134 A 
ATOM     76  F   UNL     1      11.741  -0.145  22.575  1.00  0.00    -0.206 F 
ATOM     77  C   UNL     1       9.473   0.093  23.134  1.00  0.00     0.040 A 
ATOM     78  C   UNL     1       7.794  -1.063  21.852  1.00  0.00     0.040 A 
ATOM     79  F   UNL     1       8.428  -2.445  20.063  1.00  0.00    -0.206 F 
ATOM     80  C   UNL     1       8.133  -0.212  22.902  1.00  0.00     0.006 A 
ENDBRANCH  52  73
BRANCH  64  81
ATOM     81  C   UNL     1      15.203  -5.885  22.649  1.00  0.00     0.057 A 
ATOM     82  C   UNL     1      14.426  -6.901  23.220  1.00  0.00     0.134 A 
ATOM     83  C   UNL     1      16.390  -5.532  23.304  1.00  0.00     0.134 A 
ATOM     84  F   UNL     1      13.271  -7.276  22.649  1.00  0.00    -0.206 F 
ATOM     85  C   UNL     1      14.794  -7.514  24.419  1.00  0.00     0.040 A 
ATOM     86  C   UNL     1      16.783  -6.159  24.488  1.00  0.00     0.040 A 
ATOM     87  F   UNL     1      17.186  -4.575  22.805  1.00  0.00    -0.206 F 
ATOM     88  C   UNL     1      15.979  -7.145  25.053  1.00  0.00     0.006 A 
ENDBRANCH  64  81
ENDBRANCH  38  39
ENDBRANCH  30  33
ENDBRANCH  28  29
ENDBRANCH  27  28
ENDBRANCH  26  27
ENDBRANCH   1  26
TORSDOF 17
