REMARK SMILES O=C(CCC(=O)N1N=C(c2ccc(F)cc2)C[C@@H]1c1ccc2nccnc2c1)NCCCCCCNC(=O)c1ccc(-c2c3nc(c(-c4c(F)cccc4F)c4ccc([nH]4)c(-c4c(F)cccc4F)c4nc(c(-c5c(F)cccc5F)c5ccc2[nH]5)C=C4)C=C3)cc1
REMARK SMILES IDX 31 1 30 2 29 3 1 4 2 5 3 7 4 8 5 9 6 10 7 11 8 12 18 13 9 14
REMARK SMILES IDX 17 15 19 16 20 17 28 18 21 19 27 20 22 21 26 22 23 23 25 24
REMARK SMILES IDX 24 25 10 26 11 27 16 28 12 29 15 30 13 31 14 32 32 33 33 34
REMARK SMILES IDX 34 35 35 36 36 37 37 38 38 40 39 41 40 42 92 43 41 44 91 45
REMARK SMILES IDX 42 46 43 47 44 48 85 49 45 50 90 51 84 52 86 53 46 54 89 55
REMARK SMILES IDX 83 56 82 57 47 59 73 60 56 61 72 62 57 63 60 64 71 65 87 66
REMARK SMILES IDX 58 67 59 68 70 70 88 71 61 72 48 73 49 74 54 75 50 76 51 77
REMARK SMILES IDX 53 78 55 79 52 80 74 81 75 82 80 83 76 84 77 85 79 86 81 87
REMARK SMILES IDX 78 88 62 89 63 90 68 91 64 92 65 93 67 94 69 95 66 96
REMARK H PARENT 29 6 36 39 86 58 60 69
REMARK Flexibility Score: inf
ROOT
ATOM      1  C   UNL     1       1.229   2.594  -2.891  1.00  0.00     0.021 C 
ENDROOT
BRANCH   1   2
ATOM      2  C   UNL     1       0.989   1.146  -2.348  1.00  0.00     0.116 C 
BRANCH   2   3
ATOM      3  N   UNL     1       1.304   0.766  -0.962  1.00  0.00    -0.356 N 
ATOM      4  O   UNL     1       1.118  -1.498  -1.322  1.00  0.00    -0.275 OA
ATOM      5  C   UNL     1       1.470  -0.577  -0.591  1.00  0.00     0.220 C 
ATOM      6  H   UNL     1       1.401   1.470  -0.280  1.00  0.00     0.163 HD
BRANCH   5   7
ATOM      7  C   UNL     1       2.283  -0.835   0.712  1.00  0.00     0.110 C 
BRANCH   7   8
ATOM      8  C   UNL     1       3.345  -1.967   0.557  1.00  0.00     0.112 C 
BRANCH   8   9
ATOM      9  C   UNL     1       4.845  -1.822   0.109  1.00  0.00     0.243 C 
ATOM     10  O   UNL     1       5.669  -2.617   0.577  1.00  0.00    -0.273 OA
BRANCH   9  11
ATOM     11  N   UNL     1       5.177  -0.985  -0.949  1.00  0.00    -0.225 N 
ATOM     12  N   UNL     1       5.787  -1.543  -2.103  1.00  0.00    -0.174 NA
ATOM     13  C   UNL     1       4.449   0.207  -1.297  1.00  0.00     0.147 C 
ATOM     14  C   UNL     1       5.183  -0.981  -3.112  1.00  0.00     0.071 C 
ATOM     15  C   UNL     1       4.044  -0.115  -2.716  1.00  0.00     0.091 C 
BRANCH  13  16
ATOM     16  C   UNL     1       4.921   1.508  -0.654  1.00  0.00    -0.021 A 
ATOM     17  C   UNL     1       3.942   2.451  -0.311  1.00  0.00     0.008 A 
ATOM     18  C   UNL     1       6.197   1.762  -0.139  1.00  0.00     0.036 A 
ATOM     19  C   UNL     1       4.176   3.577   0.467  1.00  0.00     0.031 A 
ATOM     20  C   UNL     1       6.466   2.886   0.679  1.00  0.00     0.089 A 
ATOM     21  C   UNL     1       5.423   3.804   0.976  1.00  0.00     0.089 A 
ATOM     22  N   UNL     1       7.684   3.089   1.219  1.00  0.00    -0.253 NA
ATOM     23  N   UNL     1       5.574   4.882   1.762  1.00  0.00    -0.253 NA
ATOM     24  C   UNL     1       7.826   4.172   2.027  1.00  0.00     0.132 A 
ATOM     25  C   UNL     1       6.796   5.052   2.290  1.00  0.00     0.132 A 
ENDBRANCH  13  16
BRANCH  14  26
ATOM     26  C   UNL     1       5.314  -1.258  -4.551  1.00  0.00    -0.002 A 
ATOM     27  C   UNL     1       5.921  -0.313  -5.386  1.00  0.00     0.013 A 
ATOM     28  C   UNL     1       4.540  -2.290  -5.101  1.00  0.00     0.013 A 
ATOM     29  C   UNL     1       5.774  -0.419  -6.775  1.00  0.00     0.040 A 
ATOM     30  C   UNL     1       4.397  -2.390  -6.489  1.00  0.00     0.040 A 
ATOM     31  C   UNL     1       5.013  -1.454  -7.312  1.00  0.00     0.123 A 
ATOM     32  F   UNL     1       4.845  -1.530  -8.639  1.00  0.00    -0.207 F 
ENDBRANCH  14  26
ENDBRANCH   9  11
ENDBRANCH   8   9
ENDBRANCH   7   8
ENDBRANCH   5   7
ENDBRANCH   2   3
ENDBRANCH   1   2
BRANCH   1  33
ATOM     33  C   UNL     1       2.515   3.473  -2.986  1.00  0.00     0.002 C 
BRANCH  33  34
ATOM     34  C   UNL     1       3.838   3.123  -3.690  1.00  0.00     0.002 C 
BRANCH  34  35
ATOM     35  C   UNL     1       3.757   2.919  -5.201  1.00  0.00     0.021 C 
BRANCH  35  36
ATOM     36  C   UNL     1       4.091   4.207  -5.945  1.00  0.00     0.116 C 
BRANCH  36  37
ATOM     37  N   UNL     1       5.521   4.495  -5.982  1.00  0.00    -0.352 N 
ATOM     38  C   UNL     1       6.208   5.193  -6.967  1.00  0.00     0.251 C 
ATOM     39  H   UNL     1       6.057   4.159  -5.228  1.00  0.00     0.163 HD
ATOM     40  O   UNL     1       7.420   5.290  -6.960  1.00  0.00    -0.269 OA
BRANCH  38  41
ATOM     41  C   UNL     1       5.403   5.777  -8.056  1.00  0.00     0.039 A 
ATOM     42  C   UNL     1       5.662   5.405  -9.376  1.00  0.00     0.014 A 
ATOM     43  C   UNL     1       4.297   6.565  -7.734  1.00  0.00     0.014 A 
ATOM     44  C   UNL     1       4.745   5.751 -10.371  1.00  0.00     0.010 A 
ATOM     45  C   UNL     1       3.338   6.814  -8.703  1.00  0.00     0.010 A 
ATOM     46  C   UNL     1       3.554   6.413 -10.030  1.00  0.00    -0.014 A 
BRANCH  46  47
ATOM     47  C   UNL     1       2.516   6.724 -11.041  1.00  0.00     0.031 A 
ATOM     48  C   UNL     1       2.140   8.157 -11.289  1.00  0.00     0.074 A 
ATOM     49  C   UNL     1       1.851   5.726 -11.655  1.00  0.00     0.049 A 
ATOM     50  N   UNL     1       1.178   8.643 -12.029  1.00  0.00    -0.248 NA
ATOM     51  C   UNL     1       2.918   9.179 -10.569  1.00  0.00     0.031 C 
ATOM     52  C   UNL     1       2.081   4.295 -11.443  1.00  0.00     0.029 A 
ATOM     53  N   UNL     1       0.837   5.765 -12.578  1.00  0.00    -0.354 N 
ATOM     54  C   UNL     1       1.216  10.018 -11.834  1.00  0.00     0.074 A 
ATOM     55  C   UNL     1       2.250  10.284 -10.860  1.00  0.00     0.031 C 
ATOM     56  C   UNL     1       1.258   3.595 -12.241  1.00  0.00     0.029 A 
ATOM     57  C   UNL     1       0.419   4.523 -12.992  1.00  0.00     0.049 A 
ATOM     58  H   UNL     1       0.445   6.604 -12.913  1.00  0.00     0.167 HD
ATOM     59  C   UNL     1       0.478  10.975 -12.439  1.00  0.00     0.037 A 
ATOM     60  C   UNL     1      -0.532   4.176 -13.880  1.00  0.00     0.037 A 
ATOM     61  C   UNL     1      -0.498  10.705 -13.458  1.00  0.00     0.049 A 
ATOM     62  C   UNL     1      -1.308   5.257 -14.578  1.00  0.00     0.074 A 
ATOM     63  C   UNL     1      -1.231  11.606 -14.207  1.00  0.00     0.029 A 
ATOM     64  N   UNL     1      -0.865   9.435 -13.878  1.00  0.00    -0.354 N 
ATOM     65  N   UNL     1      -1.219   6.557 -14.433  1.00  0.00    -0.248 NA
ATOM     66  C   UNL     1      -2.312   4.829 -15.562  1.00  0.00     0.031 C 
ATOM     67  C   UNL     1      -2.069  10.880 -15.058  1.00  0.00     0.029 A 
ATOM     68  C   UNL     1      -1.829   9.528 -14.866  1.00  0.00     0.049 A 
ATOM     69  H   UNL     1      -0.495   8.593 -13.525  1.00  0.00     0.167 HD
ATOM     70  C   UNL     1      -2.141   7.104 -15.314  1.00  0.00     0.074 A 
ATOM     71  C   UNL     1      -2.771   5.994 -16.001  1.00  0.00     0.031 C 
ATOM     72  C   UNL     1      -2.440   8.407 -15.534  1.00  0.00     0.037 A 
BRANCH  59  73
ATOM     73  C   UNL     1       0.719  12.398 -12.033  1.00  0.00     0.057 A 
ATOM     74  C   UNL     1      -0.256  13.114 -11.327  1.00  0.00     0.134 A 
ATOM     75  C   UNL     1       1.902  13.071 -12.364  1.00  0.00     0.134 A 
ATOM     76  F   UNL     1      -1.413  12.531 -10.980  1.00  0.00    -0.206 F 
ATOM     77  C   UNL     1      -0.062  14.449 -10.967  1.00  0.00     0.040 A 
ATOM     78  C   UNL     1       2.120  14.396 -11.984  1.00  0.00     0.040 A 
ATOM     79  F   UNL     1       2.883  12.437 -13.024  1.00  0.00    -0.206 F 
ATOM     80  C   UNL     1       1.131  15.091 -11.290  1.00  0.00     0.006 A 
ENDBRANCH  59  73
BRANCH  60  81
ATOM     81  C   UNL     1      -0.757   2.741 -14.188  1.00  0.00     0.057 A 
ATOM     82  C   UNL     1      -1.366   1.878 -13.269  1.00  0.00     0.134 A 
ATOM     83  C   UNL     1      -0.317   2.191 -15.397  1.00  0.00     0.134 A 
ATOM     84  F   UNL     1      -1.801   2.343 -12.089  1.00  0.00    -0.206 F 
ATOM     85  C   UNL     1      -1.512   0.515 -13.534  1.00  0.00     0.040 A 
ATOM     86  C   UNL     1      -0.474   0.833 -15.682  1.00  0.00     0.040 A 
ATOM     87  F   UNL     1       0.260   2.971 -16.322  1.00  0.00    -0.206 F 
ATOM     88  C   UNL     1      -1.065  -0.011 -14.745  1.00  0.00     0.006 A 
ENDBRANCH  60  81
BRANCH  72  89
ATOM     89  C   UNL     1      -3.486   8.716 -16.561  1.00  0.00     0.057 A 
ATOM     90  C   UNL     1      -3.134   9.289 -17.789  1.00  0.00     0.134 A 
ATOM     91  C   UNL     1      -4.848   8.542 -16.289  1.00  0.00     0.134 A 
ATOM     92  F   UNL     1      -1.845   9.492 -18.101  1.00  0.00    -0.206 F 
ATOM     93  C   UNL     1      -4.103   9.698 -18.705  1.00  0.00     0.040 A 
ATOM     94  C   UNL     1      -5.826   8.927 -17.207  1.00  0.00     0.040 A 
ATOM     95  F   UNL     1      -5.246   7.991 -15.133  1.00  0.00    -0.206 F 
ATOM     96  C   UNL     1      -5.453   9.518 -18.414  1.00  0.00     0.006 A 
ENDBRANCH  72  89
ENDBRANCH  46  47
ENDBRANCH  38  41
ENDBRANCH  36  37
ENDBRANCH  35  36
ENDBRANCH  34  35
ENDBRANCH  33  34
ENDBRANCH   1  33
TORSDOF 18
