REMARK SMILES Cc1ccc(C2=NN(C(=O)CCC(=O)NCCCCCCNC(=O)c3ccc(-c4c5nc(c(-c6c(F)cccc6F)c6ccc([nH]6)c(-c6c(F)cccc6F)c6nc(c(-c7c(F)cccc7F)c7ccc4[nH]7)C=C6)C=C5)cc3)[C@H](C[C@@H]3C=c4cccc(C)c4=NC3=O)C2)cc1
REMARK SMILES IDX 17 1 16 2 15 3 13 4 14 5 12 7 11 8 9 9 10 10 8 11 6 12 7 13
REMARK SMILES IDX 93 14 79 15 5 16 1 17 2 18 3 19 95 20 4 21 94 22 80 23 81 24
REMARK SMILES IDX 82 25 91 26 83 27 90 28 92 29 84 30 89 31 85 32 87 33 86 34
REMARK SMILES IDX 88 35 18 36 19 37 20 38 21 39 22 40 23 41 24 43 25 44 26 45
REMARK SMILES IDX 78 46 27 47 77 48 28 49 29 50 30 51 71 52 31 53 76 54 70 55
REMARK SMILES IDX 72 56 32 57 75 58 69 59 68 60 33 62 59 63 42 64 58 65 43 66
REMARK SMILES IDX 46 67 57 68 73 69 44 70 45 71 56 73 74 74 47 75 34 76 35 77
REMARK SMILES IDX 40 78 36 79 37 80 39 81 41 82 38 83 60 84 61 85 66 86 62 87
REMARK SMILES IDX 63 88 65 89 67 90 64 91 48 92 49 93 54 94 50 95 51 96 53 97
REMARK SMILES IDX 55 98 52 99
REMARK H PARENT 15 6 22 42 72 61 46 72
REMARK Flexibility Score: inf
ROOT
ATOM      1  C   UNL     1      -4.089  -0.010  -0.890  1.00  0.00     0.021 C 
ENDROOT
BRANCH   1   2
ATOM      2  C   UNL     1      -4.959   0.916   0.929  1.00  0.00     0.116 C 
BRANCH   2   3
ATOM      3  N   UNL     1      -6.241   1.891   1.051  1.00  0.00    -0.356 N 
ATOM      4  C   UNL     1      -7.496   1.812   1.534  1.00  0.00     0.220 C 
ATOM      5  O   UNL     1      -8.216   2.796   1.351  1.00  0.00    -0.275 OA
ATOM      6  H   UNL     1      -6.056   2.780   0.671  1.00  0.00     0.163 HD
BRANCH   4   7
ATOM      7  C   UNL     1      -7.981   0.611   2.284  1.00  0.00     0.110 C 
BRANCH   7   8
ATOM      8  C   UNL     1      -7.739  -0.750   1.654  1.00  0.00     0.112 C 
BRANCH   8   9
ATOM      9  C   UNL     1      -6.297  -1.294   1.698  1.00  0.00     0.243 C 
ATOM     10  O   UNL     1      -5.891  -1.884   2.698  1.00  0.00    -0.273 OA
BRANCH   9  11
ATOM     11  N   UNL     1      -5.451  -0.953   0.568  1.00  0.00    -0.230 N 
ATOM     12  C   UNL     1      -3.090   0.587   0.462  1.00  0.00     0.070 C 
ATOM     13  N   UNL     1      -3.710  -0.698   1.034  1.00  0.00    -0.174 NA
ATOM     14  C   UNL     1      -4.570   1.670  -0.675  1.00  0.00     0.086 C 
ATOM     15  C   UNL     1      -6.057   0.246  -0.707  1.00  0.00     0.118 C 
BRANCH  12  16
ATOM     16  C   UNL     1      -1.286   0.340   0.174  1.00  0.00    -0.002 A 
ATOM     17  C   UNL     1       3.058  -0.156  -0.444  1.00  0.00     0.044 C 
ATOM     18  C   UNL     1       1.570  -0.023  -0.450  1.00  0.00    -0.051 A 
ATOM     19  C   UNL     1       0.631  -1.058  -0.488  1.00  0.00     0.004 A 
ATOM     20  C   UNL     1       1.086   1.221  -0.257  1.00  0.00     0.004 A 
ATOM     21  C   UNL     1      -0.775  -0.904  -0.182  1.00  0.00     0.010 A 
ATOM     22  C   UNL     1      -0.253   1.349   0.075  1.00  0.00     0.010 A 
ENDBRANCH  12  16
BRANCH  15  23
ATOM     23  C   UNL     1      -6.537  -0.751  -1.990  1.00  0.00     0.045 C 
BRANCH  23  24
ATOM     24  C   UNL     1      -7.628  -1.842  -1.642  1.00  0.00     0.106 C 
ATOM     25  C   UNL     1      -7.151  -2.898  -0.680  1.00  0.00    -0.003 C 
ATOM     26  C   UNL     1      -8.335  -2.616  -2.774  1.00  0.00     0.253 C 
ATOM     27  C   UNL     1      -7.977  -3.850  -0.250  1.00  0.00    -0.003 A 
ATOM     28  N   UNL     1      -9.155  -3.690  -2.412  1.00  0.00    -0.212 NA
ATOM     29  O   UNL     1      -8.256  -2.222  -3.935  1.00  0.00    -0.272 OA
ATOM     30  C   UNL     1      -7.894  -4.458   1.055  1.00  0.00     0.010 A 
ATOM     31  C   UNL     1      -8.996  -4.264  -1.254  1.00  0.00     0.077 A 
ATOM     32  C   UNL     1      -8.765  -5.410   1.405  1.00  0.00     0.001 A 
ATOM     33  C   UNL     1      -9.744  -5.516  -0.844  1.00  0.00    -0.025 A 
ATOM     34  C   UNL     1      -9.637  -5.990   0.414  1.00  0.00     0.005 A 
ATOM     35  C   UNL     1     -10.430  -6.300  -1.915  1.00  0.00     0.047 C 
ENDBRANCH  23  24
ENDBRANCH  15  23
ENDBRANCH   9  11
ENDBRANCH   8   9
ENDBRANCH   7   8
ENDBRANCH   4   7
ENDBRANCH   2   3
ENDBRANCH   1   2
BRANCH   1  36
ATOM     36  C   UNL     1      -2.697   1.232  -1.560  1.00  0.00     0.002 C 
BRANCH  36  37
ATOM     37  C   UNL     1      -2.334   2.691  -0.425  1.00  0.00     0.002 C 
BRANCH  37  38
ATOM     38  C   UNL     1      -2.092   2.744   1.417  1.00  0.00     0.021 C 
BRANCH  38  39
ATOM     39  C   UNL     1      -1.511   1.570   2.581  1.00  0.00     0.116 C 
BRANCH  39  40
ATOM     40  N   UNL     1      -0.041   1.436   2.880  1.00  0.00    -0.352 N 
ATOM     41  C   UNL     1       0.933   0.436   3.054  1.00  0.00     0.251 C 
ATOM     42  H   UNL     1       0.366   2.327   2.986  1.00  0.00     0.163 HD
ATOM     43  O   UNL     1       2.045   0.842   3.422  1.00  0.00    -0.269 OA
BRANCH  41  44
ATOM     44  C   UNL     1       0.847  -1.045   2.757  1.00  0.00     0.039 A 
ATOM     45  C   UNL     1       2.024  -1.733   2.329  1.00  0.00     0.014 A 
ATOM     46  C   UNL     1      -0.325  -1.783   2.797  1.00  0.00     0.014 A 
ATOM     47  C   UNL     1       1.978  -3.011   1.714  1.00  0.00     0.010 A 
ATOM     48  C   UNL     1      -0.372  -3.057   2.196  1.00  0.00     0.010 A 
ATOM     49  C   UNL     1       0.745  -3.636   1.556  1.00  0.00    -0.014 A 
BRANCH  49  50
ATOM     50  C   UNL     1       0.487  -4.865   0.771  1.00  0.00     0.031 A 
ATOM     51  C   UNL     1       0.469  -6.184   1.462  1.00  0.00     0.074 A 
ATOM     52  C   UNL     1       0.005  -4.826  -0.502  1.00  0.00     0.049 A 
ATOM     53  N   UNL     1       0.407  -7.335   0.872  1.00  0.00    -0.248 NA
ATOM     54  C   UNL     1       0.558  -6.296   2.914  1.00  0.00     0.031 C 
ATOM     55  C   UNL     1      -0.923  -5.789  -1.103  1.00  0.00     0.029 A 
ATOM     56  N   UNL     1       0.279  -3.950  -1.565  1.00  0.00    -0.354 N 
ATOM     57  C   UNL     1       0.122  -8.281   1.835  1.00  0.00     0.074 A 
ATOM     58  C   UNL     1       0.323  -7.600   3.093  1.00  0.00     0.031 C 
ATOM     59  C   UNL     1      -0.981  -5.596  -2.430  1.00  0.00     0.029 A 
ATOM     60  C   UNL     1       0.071  -4.659  -2.765  1.00  0.00     0.049 A 
ATOM     61  H   UNL     1       0.564  -3.011  -1.486  1.00  0.00     0.167 HD
ATOM     62  C   UNL     1      -0.408  -9.487   1.472  1.00  0.00     0.037 A 
ATOM     63  C   UNL     1       1.024  -4.850  -3.721  1.00  0.00     0.037 A 
ATOM     64  C   UNL     1      -0.556  -9.592   0.026  1.00  0.00     0.049 A 
ATOM     65  C   UNL     1       1.204  -6.286  -4.130  1.00  0.00     0.074 A 
ATOM     66  C   UNL     1      -1.630  -9.338  -0.812  1.00  0.00     0.029 A 
ATOM     67  N   UNL     1       0.558  -9.735  -0.786  1.00  0.00    -0.354 N 
ATOM     68  N   UNL     1       0.797  -7.279  -3.399  1.00  0.00    -0.248 NA
ATOM     69  C   UNL     1       1.952  -6.723  -5.306  1.00  0.00     0.031 C 
ATOM     70  C   UNL     1      -1.151  -9.305  -2.140  1.00  0.00     0.029 A 
ATOM     71  C   UNL     1       0.212  -9.548  -2.111  1.00  0.00     0.049 A 
ATOM     72  H   UNL     1       1.466  -9.940  -0.465  1.00  0.00     0.167 HD
ATOM     73  C   UNL     1       1.321  -8.442  -3.886  1.00  0.00     0.074 A 
ATOM     74  C   UNL     1       1.982  -8.054  -5.116  1.00  0.00     0.031 C 
ATOM     75  C   UNL     1       1.213  -9.597  -3.169  1.00  0.00     0.037 A 
BRANCH  62  76
ATOM     76  C   UNL     1      -1.088 -10.449   2.426  1.00  0.00     0.057 A 
ATOM     77  C   UNL     1      -2.160 -11.262   1.996  1.00  0.00     0.134 A 
ATOM     78  C   UNL     1      -0.758 -10.605   3.782  1.00  0.00     0.134 A 
ATOM     79  F   UNL     1      -2.540 -11.316   0.714  1.00  0.00    -0.206 F 
ATOM     80  C   UNL     1      -2.909 -12.069   2.862  1.00  0.00     0.040 A 
ATOM     81  C   UNL     1      -1.528 -11.374   4.672  1.00  0.00     0.040 A 
ATOM     82  F   UNL     1       0.353 -10.065   4.298  1.00  0.00    -0.206 F 
ATOM     83  C   UNL     1      -2.618 -12.101   4.215  1.00  0.00     0.006 A 
ENDBRANCH  62  76
BRANCH  63  84
ATOM     84  C   UNL     1       2.166  -3.911  -3.656  1.00  0.00     0.057 A 
ATOM     85  C   UNL     1       2.003  -2.562  -3.995  1.00  0.00     0.134 A 
ATOM     86  C   UNL     1       3.336  -4.275  -2.979  1.00  0.00     0.134 A 
ATOM     87  F   UNL     1       0.891  -2.148  -4.623  1.00  0.00    -0.206 F 
ATOM     88  C   UNL     1       2.946  -1.603  -3.626  1.00  0.00     0.040 A 
ATOM     89  C   UNL     1       4.279  -3.325  -2.593  1.00  0.00     0.040 A 
ATOM     90  F   UNL     1       3.547  -5.548  -2.614  1.00  0.00    -0.206 F 
ATOM     91  C   UNL     1       4.083  -1.986  -2.916  1.00  0.00     0.006 A 
ENDBRANCH  63  84
BRANCH  75  92
ATOM     92  C   UNL     1       1.978 -10.864  -3.433  1.00  0.00     0.057 A 
ATOM     93  C   UNL     1       3.227 -10.916  -4.068  1.00  0.00     0.134 A 
ATOM     94  C   UNL     1       1.512 -12.096  -2.924  1.00  0.00     0.134 A 
ATOM     95  F   UNL     1       3.858  -9.807  -4.476  1.00  0.00    -0.206 F 
ATOM     96  C   UNL     1       3.921 -12.117  -4.265  1.00  0.00     0.040 A 
ATOM     97  C   UNL     1       2.224 -13.290  -3.062  1.00  0.00     0.040 A 
ATOM     98  F   UNL     1       0.357 -12.189  -2.249  1.00  0.00    -0.206 F 
ATOM     99  C   UNL     1       3.423 -13.309  -3.757  1.00  0.00     0.006 A 
ENDBRANCH  75  92
ENDBRANCH  49  50
ENDBRANCH  41  44
ENDBRANCH  39  40
ENDBRANCH  38  39
ENDBRANCH  37  38
ENDBRANCH  36  37
ENDBRANCH   1  36
TORSDOF 19
