REMARK SMILES Cc1ccc(C(=O)NC2CC2)cc1NC(=O)[C@@H]1[C@@H](C(=O)NCCCCCCNC(=O)c2ccc(-c3c4nc(c(-c5c(F)cccc5F)c5ccc([nH]5)c(-c5c(F)cccc5F)c5nc(c(-c6c(F)cccc6F)c6ccc3[nH]6)C=C5)C=C4)cc2)[C@H]2C=C[C@@H]1C2
REMARK SMILES IDX 23 1 22 2 21 3 19 4 20 5 18 7 17 8 88 9 85 10 87 11 89 12
REMARK SMILES IDX 86 13 15 14 14 15 16 17 13 18 1 19 2 20 3 21 4 22 12 23 5 24
REMARK SMILES IDX 6 25 7 26 8 27 9 29 10 30 11 31 24 32 25 33 26 34 27 35
REMARK SMILES IDX 28 36 29 37 30 39 31 40 32 41 84 42 33 43 83 44 34 45 35 46
REMARK SMILES IDX 36 47 77 48 37 49 82 50 76 51 78 52 38 53 81 54 75 55 74 56
REMARK SMILES IDX 39 58 65 59 48 60 64 61 49 62 52 63 63 64 79 65 50 66 51 67
REMARK SMILES IDX 62 69 80 70 53 71 40 72 41 73 46 74 42 75 43 76 45 77 47 78
REMARK SMILES IDX 44 79 66 80 67 81 72 82 68 83 69 84 71 85 73 86 70 87 54 88
REMARK SMILES IDX 55 89 60 90 56 91 57 92 59 93 61 94 58 95
REMARK H PARENT 21 6 14 16 8 28 28 38 78 57 52 68
REMARK Flexibility Score: inf
ROOT
ATOM      1  C   UNL     1      -3.827   9.117   0.077  1.00  0.00     0.021 C 
ENDROOT
BRANCH   1   2
ATOM      2  C   UNL     1      -3.549   7.691   0.553  1.00  0.00     0.116 C 
BRANCH   2   3
ATOM      3  N   UNL     1      -3.040   6.839  -0.493  1.00  0.00    -0.356 N 
ATOM      4  C   UNL     1      -2.143   5.824  -0.469  1.00  0.00     0.224 C 
ATOM      5  O   UNL     1      -1.920   5.289  -1.562  1.00  0.00    -0.275 OA
ATOM      6  H   UNL     1      -3.410   7.029  -1.385  1.00  0.00     0.163 HD
BRANCH   4   7
ATOM      7  C   UNL     1      -1.342   5.407   0.766  1.00  0.00     0.098 C 
ATOM      8  C   UNL     1      -0.957   3.878   0.621  1.00  0.00     0.099 C 
ATOM      9  C   UNL     1      -1.288   3.297   2.021  1.00  0.00     0.025 C 
ATOM     10  C   UNL     1      -1.983   5.421   2.173  1.00  0.00     0.025 C 
ATOM     11  C   UNL     1      -2.794   3.271   2.165  1.00  0.00    -0.027 C 
ATOM     12  C   UNL     1      -1.014   4.494   2.928  1.00  0.00     0.017 C 
ATOM     13  C   UNL     1      -3.213   4.544   2.221  1.00  0.00    -0.027 C 
BRANCH   8  14
ATOM     14  C   UNL     1       0.480   3.609   0.212  1.00  0.00     0.228 C 
ATOM     15  N   UNL     1       0.917   2.347  -0.108  1.00  0.00    -0.326 N 
ATOM     16  H   UNL     1       1.879   2.308  -0.314  1.00  0.00     0.169 HD
ATOM     17  O   UNL     1       1.327   4.508   0.237  1.00  0.00    -0.274 OA
BRANCH  15  18
ATOM     18  C   UNL     1       0.273   1.091  -0.203  1.00  0.00     0.044 A 
ATOM     19  C   UNL     1       2.500  -0.131   0.270  1.00  0.00     0.046 C 
ATOM     20  C   UNL     1       1.009  -0.081   0.057  1.00  0.00    -0.027 A 
ATOM     21  C   UNL     1       0.331  -1.312   0.095  1.00  0.00     0.006 A 
ATOM     22  C   UNL     1      -1.045  -1.385  -0.125  1.00  0.00     0.014 A 
ATOM     23  C   UNL     1      -1.079   0.965  -0.565  1.00  0.00     0.040 A 
ATOM     24  C   UNL     1      -1.777  -0.245  -0.474  1.00  0.00     0.041 A 
BRANCH  24  25
ATOM     25  C   UNL     1      -3.246  -0.438  -0.724  1.00  0.00     0.251 C 
ATOM     26  O   UNL     1      -3.704  -1.585  -0.697  1.00  0.00    -0.269 OA
ATOM     27  N   UNL     1      -4.149   0.581  -0.950  1.00  0.00    -0.349 N 
ATOM     28  H   UNL     1      -5.078   0.279  -1.070  1.00  0.00     0.164 HD
BRANCH  27  29
ATOM     29  C   UNL     1      -3.975   1.983  -1.041  1.00  0.00     0.082 C 
ATOM     30  C   UNL     1      -3.896   2.637  -2.392  1.00  0.00     0.027 C 
ATOM     31  C   UNL     1      -5.066   2.911  -1.496  1.00  0.00     0.027 C 
ENDBRANCH  27  29
ENDBRANCH  24  25
ENDBRANCH  15  18
ENDBRANCH   8  14
ENDBRANCH   4   7
ENDBRANCH   2   3
ENDBRANCH   1   2
BRANCH   1  32
ATOM     32  C   UNL     1      -4.915   9.306  -0.989  1.00  0.00     0.002 C 
BRANCH  32  33
ATOM     33  C   UNL     1      -6.317   8.752  -0.696  1.00  0.00     0.002 C 
BRANCH  33  34
ATOM     34  C   UNL     1      -6.898   9.009   0.694  1.00  0.00     0.021 C 
BRANCH  34  35
ATOM     35  C   UNL     1      -6.994  10.470   1.108  1.00  0.00     0.116 C 
BRANCH  35  36
ATOM     36  N   UNL     1      -8.231  11.146   0.752  1.00  0.00    -0.352 N 
ATOM     37  C   UNL     1      -8.558  12.491   0.875  1.00  0.00     0.251 C 
ATOM     38  H   UNL     1      -8.934  10.571   0.371  1.00  0.00     0.163 HD
ATOM     39  O   UNL     1      -9.663  12.884   0.557  1.00  0.00    -0.269 OA
BRANCH  37  40
ATOM     40  C   UNL     1      -7.501  13.467   1.266  1.00  0.00     0.039 A 
ATOM     41  C   UNL     1      -7.396  14.646   0.518  1.00  0.00     0.014 A 
ATOM     42  C   UNL     1      -6.514  13.142   2.192  1.00  0.00     0.014 A 
ATOM     43  C   UNL     1      -6.187  15.340   0.504  1.00  0.00     0.010 A 
ATOM     44  C   UNL     1      -5.285  13.765   2.107  1.00  0.00     0.010 A 
ATOM     45  C   UNL     1      -5.102  14.819   1.211  1.00  0.00    -0.014 A 
BRANCH  45  46
ATOM     46  C   UNL     1      -3.729  15.242   0.975  1.00  0.00     0.031 A 
ATOM     47  C   UNL     1      -3.052  16.164   1.904  1.00  0.00     0.074 A 
ATOM     48  C   UNL     1      -3.057  14.789  -0.107  1.00  0.00     0.049 A 
ATOM     49  N   UNL     1      -2.198  17.054   1.523  1.00  0.00    -0.248 NA
ATOM     50  C   UNL     1      -3.304  16.173   3.339  1.00  0.00     0.031 C 
ATOM     51  C   UNL     1      -1.634  14.951  -0.389  1.00  0.00     0.029 A 
ATOM     52  N   UNL     1      -3.589  14.256  -1.286  1.00  0.00    -0.354 N 
ATOM     53  C   UNL     1      -1.600  17.560   2.652  1.00  0.00     0.074 A 
ATOM     54  C   UNL     1      -2.373  17.039   3.758  1.00  0.00     0.031 C 
ATOM     55  C   UNL     1      -1.431  14.794  -1.706  1.00  0.00     0.029 A 
ATOM     56  C   UNL     1      -2.732  14.649  -2.333  1.00  0.00     0.049 A 
ATOM     57  H   UNL     1      -4.405  13.711  -1.367  1.00  0.00     0.167 HD
ATOM     58  C   UNL     1      -0.425  18.243   2.549  1.00  0.00     0.037 A 
ATOM     59  C   UNL     1      -3.178  15.380  -3.394  1.00  0.00     0.037 A 
ATOM     60  C   UNL     1       0.065  18.262   1.177  1.00  0.00     0.049 A 
ATOM     61  C   UNL     1      -2.469  16.699  -3.568  1.00  0.00     0.074 A 
ATOM     62  C   UNL     1       0.977  17.454   0.516  1.00  0.00     0.029 A 
ATOM     63  N   UNL     1      -0.598  18.991   0.199  1.00  0.00    -0.354 N 
ATOM     64  N   UNL     1      -1.803  17.292  -2.617  1.00  0.00    -0.248 NA
ATOM     65  C   UNL     1      -2.469  17.466  -4.809  1.00  0.00     0.031 C 
ATOM     66  C   UNL     1       0.867  17.702  -0.869  1.00  0.00     0.029 A 
ATOM     67  C   UNL     1      -0.111  18.664  -1.052  1.00  0.00     0.049 A 
ATOM     68  H   UNL     1      -1.312  19.646   0.372  1.00  0.00     0.167 HD
ATOM     69  C   UNL     1      -1.312  18.490  -3.076  1.00  0.00     0.074 A 
ATOM     70  C   UNL     1      -1.741  18.542  -4.460  1.00  0.00     0.031 C 
ATOM     71  C   UNL     1      -0.601  19.321  -2.254  1.00  0.00     0.037 A 
BRANCH  58  72
ATOM     72  C   UNL     1       0.430  18.601   3.740  1.00  0.00     0.057 A 
ATOM     73  C   UNL     1       1.837  18.593   3.663  1.00  0.00     0.134 A 
ATOM     74  C   UNL     1      -0.084  18.940   5.002  1.00  0.00     0.134 A 
ATOM     75  F   UNL     1       2.483  18.400   2.506  1.00  0.00    -0.206 F 
ATOM     76  C   UNL     1       2.661  18.779   4.778  1.00  0.00     0.040 A 
ATOM     77  C   UNL     1       0.727  19.083   6.138  1.00  0.00     0.040 A 
ATOM     78  F   UNL     1      -1.392  19.177   5.179  1.00  0.00    -0.206 F 
ATOM     79  C   UNL     1       2.107  18.985   6.031  1.00  0.00     0.006 A 
ENDBRANCH  58  72
BRANCH  59  80
ATOM     80  C   UNL     1      -4.604  15.129  -3.719  1.00  0.00     0.057 A 
ATOM     81  C   UNL     1      -4.962  13.866  -4.222  1.00  0.00     0.134 A 
ATOM     82  C   UNL     1      -5.624  15.914  -3.175  1.00  0.00     0.134 A 
ATOM     83  F   UNL     1      -4.027  13.064  -4.755  1.00  0.00    -0.206 F 
ATOM     84  C   UNL     1      -6.254  13.356  -4.079  1.00  0.00     0.040 A 
ATOM     85  C   UNL     1      -6.924  15.416  -3.036  1.00  0.00     0.040 A 
ATOM     86  F   UNL     1      -5.354  17.122  -2.659  1.00  0.00    -0.206 F 
ATOM     87  C   UNL     1      -7.232  14.120  -3.449  1.00  0.00     0.006 A 
ENDBRANCH  59  80
BRANCH  71  88
ATOM     88  C   UNL     1      -0.189  20.759  -2.507  1.00  0.00     0.057 A 
ATOM     89  C   UNL     1      -0.775  21.611  -3.453  1.00  0.00     0.134 A 
ATOM     90  C   UNL     1       0.770  21.386  -1.671  1.00  0.00     0.134 A 
ATOM     91  F   UNL     1      -1.772  21.206  -4.248  1.00  0.00    -0.206 F 
ATOM     92  C   UNL     1      -0.405  22.959  -3.591  1.00  0.00     0.040 A 
ATOM     93  C   UNL     1       1.105  22.741  -1.763  1.00  0.00     0.040 A 
ATOM     94  F   UNL     1       1.413  20.721  -0.699  1.00  0.00    -0.206 F 
ATOM     95  C   UNL     1       0.527  23.532  -2.737  1.00  0.00     0.006 A 
ENDBRANCH  71  88
ENDBRANCH  45  46
ENDBRANCH  37  40
ENDBRANCH  35  36
ENDBRANCH  34  35
ENDBRANCH  33  34
ENDBRANCH  32  33
ENDBRANCH   1  32
TORSDOF 17
