REMARK SMILES Cc1cc(C(=O)NCCCCCCNC(=O)c2ccc(-c3c4nc(c(-c5c(F)cccc5F)c5ccc([nH]5)c(-c5c(F)cccc5F)c5nc(c(-c6c(F)cccc6F)c6ccc3[nH]6)C=C5)C=C4)cc2)ccc1NS(=O)(=O)c1ccc(C#N)cc1C
REMARK SMILES IDX 9 1 8 2 7 3 5 4 6 5 4 7 1 8 2 9 3 10 73 11 72 12 71 13 74 14
REMARK SMILES IDX 75 16 76 17 77 18 78 19 79 20 85 21 80 22 84 23 86 24 81 25
REMARK SMILES IDX 82 26 83 27 10 28 11 29 12 30 13 31 14 32 15 33 16 35 17 36
REMARK SMILES IDX 18 37 70 38 19 39 69 40 20 41 21 42 22 43 63 44 23 45 68 46
REMARK SMILES IDX 62 47 64 48 24 49 67 50 61 51 60 52 25 54 51 55 34 56 50 57
REMARK SMILES IDX 35 58 38 59 49 60 65 61 36 62 37 63 48 65 66 66 39 67 26 68
REMARK SMILES IDX 27 69 32 70 28 71 29 72 31 73 33 74 30 75 52 76 53 77 58 78
REMARK SMILES IDX 54 79 55 80 57 81 59 82 56 83 40 84 41 85 46 86 42 87 43 88
REMARK SMILES IDX 45 89 47 90 44 91
REMARK H PARENT 7 6 74 15 14 34 64 53 38 64
REMARK Flexibility Score: inf
ROOT
ATOM      1  C   UNL     1      -4.804  -1.478  -1.056  1.00  0.00     0.021 C 
ENDROOT
BRANCH   1   2
ATOM      2  C   UNL     1      -3.878  -1.544   0.159  1.00  0.00     0.116 C 
BRANCH   2   3
ATOM      3  N   UNL     1      -2.909  -2.614   0.025  1.00  0.00    -0.352 N 
ATOM      4  C   UNL     1      -1.556  -2.588  -0.213  1.00  0.00     0.251 C 
ATOM      5  O   UNL     1      -0.927  -3.641  -0.133  1.00  0.00    -0.269 OA
ATOM      6  H   UNL     1      -3.286  -3.518   0.122  1.00  0.00     0.163 HD
BRANCH   4   7
ATOM      7  C   UNL     1      -0.824  -1.319  -0.476  1.00  0.00     0.040 A 
ATOM      8  C   UNL     1       2.635   0.026   0.264  1.00  0.00     0.046 C 
ATOM      9  C   UNL     1       1.159   0.024  -0.031  1.00  0.00    -0.026 A 
ATOM     10  C   UNL     1       0.488  -1.210  -0.006  1.00  0.00     0.019 A 
ATOM     11  C   UNL     1       0.455   1.172  -0.435  1.00  0.00     0.052 A 
ATOM     12  C   UNL     1      -0.717   1.000  -1.167  1.00  0.00     0.028 A 
ATOM     13  C   UNL     1      -1.358  -0.244  -1.184  1.00  0.00     0.016 A 
BRANCH  11  14
ATOM     14  N   UNL     1       0.714   2.385   0.278  1.00  0.00    -0.279 N 
ATOM     15  H   UNL     1       1.390   2.324   0.991  1.00  0.00     0.180 HD
BRANCH  14  16
ATOM     16  S   UNL     1       0.022   3.892   0.064  1.00  0.00     0.262 S 
ATOM     17  O   UNL     1       0.581   4.706   1.124  1.00  0.00    -0.201 OA
ATOM     18  O   UNL     1       0.183   4.251  -1.329  1.00  0.00    -0.201 OA
BRANCH  16  19
ATOM     19  C   UNL     1      -1.752   3.830   0.379  1.00  0.00     0.090 A 
ATOM     20  C   UNL     1      -2.371   2.641   0.779  1.00  0.00     0.024 A 
ATOM     21  C   UNL     1      -2.551   4.941   0.028  1.00  0.00    -0.029 A 
ATOM     22  C   UNL     1      -3.756   2.485   0.634  1.00  0.00     0.021 A 
ATOM     23  C   UNL     1      -3.947   4.770  -0.096  1.00  0.00     0.024 A 
ATOM     24  C   UNL     1      -2.019   6.340  -0.142  1.00  0.00     0.046 C 
ATOM     25  C   UNL     1      -4.541   3.532   0.150  1.00  0.00     0.052 A 
BRANCH  25  26
ATOM     26  C   UNL     1      -5.942   3.320  -0.108  1.00  0.00     0.099 C 
ATOM     27  N   UNL     1      -7.051   3.101  -0.339  1.00  0.00    -0.192 NA
ENDBRANCH  25  26
ENDBRANCH  16  19
ENDBRANCH  14  16
ENDBRANCH  11  14
ENDBRANCH   4   7
ENDBRANCH   2   3
ENDBRANCH   1   2
BRANCH   1  28
ATOM     28  C   UNL     1      -5.873  -2.579  -1.090  1.00  0.00     0.002 C 
BRANCH  28  29
ATOM     29  C   UNL     1      -6.779  -2.667   0.148  1.00  0.00     0.002 C 
BRANCH  29  30
ATOM     30  C   UNL     1      -7.406  -1.347   0.592  1.00  0.00     0.021 C 
BRANCH  30  31
ATOM     31  C   UNL     1      -8.464  -0.828  -0.361  1.00  0.00     0.116 C 
BRANCH  31  32
ATOM     32  N   UNL     1      -9.759  -1.465  -0.174  1.00  0.00    -0.352 N 
ATOM     33  C   UNL     1     -11.012  -1.105  -0.632  1.00  0.00     0.251 C 
ATOM     34  H   UNL     1      -9.740  -2.287   0.368  1.00  0.00     0.163 HD
ATOM     35  O   UNL     1     -11.996  -1.699  -0.196  1.00  0.00    -0.269 OA
BRANCH  33  36
ATOM     36  C   UNL     1     -11.164  -0.197  -1.802  1.00  0.00     0.039 A 
ATOM     37  C   UNL     1     -12.144  -0.588  -2.728  1.00  0.00     0.014 A 
ATOM     38  C   UNL     1     -10.098   0.584  -2.219  1.00  0.00     0.014 A 
ATOM     39  C   UNL     1     -11.841  -0.553  -4.077  1.00  0.00     0.010 A 
ATOM     40  C   UNL     1      -9.699   0.446  -3.516  1.00  0.00     0.010 A 
ATOM     41  C   UNL     1     -10.548  -0.189  -4.421  1.00  0.00    -0.014 A 
BRANCH  41  42
ATOM     42  C   UNL     1     -10.012  -0.209  -5.756  1.00  0.00     0.031 A 
ATOM     43  C   UNL     1     -10.251   1.018  -6.521  1.00  0.00     0.074 A 
ATOM     44  C   UNL     1      -9.151  -1.204  -6.061  1.00  0.00     0.049 A 
ATOM     45  N   UNL     1     -10.079   1.129  -7.780  1.00  0.00    -0.248 NA
ATOM     46  C   UNL     1     -10.763   2.247  -5.905  1.00  0.00     0.031 C 
ATOM     47  C   UNL     1      -8.184  -1.310  -7.144  1.00  0.00     0.029 A 
ATOM     48  N   UNL     1      -9.146  -2.483  -5.491  1.00  0.00    -0.354 N 
ATOM     49  C   UNL     1     -10.119   2.474  -8.082  1.00  0.00     0.074 A 
ATOM     50  C   UNL     1     -10.680   3.109  -6.920  1.00  0.00     0.031 C 
ATOM     51  C   UNL     1      -7.949  -2.616  -7.386  1.00  0.00     0.029 A 
ATOM     52  C   UNL     1      -8.870  -3.375  -6.555  1.00  0.00     0.049 A 
ATOM     53  H   UNL     1      -9.302  -2.714  -4.546  1.00  0.00     0.167 HD
ATOM     54  C   UNL     1      -9.513   2.866  -9.236  1.00  0.00     0.037 A 
ATOM     55  C   UNL     1      -9.886  -4.174  -7.013  1.00  0.00     0.037 A 
ATOM     56  C   UNL     1      -9.046   1.676  -9.952  1.00  0.00     0.049 A 
ATOM     57  C   UNL     1     -10.374  -3.752  -8.390  1.00  0.00     0.074 A 
ATOM     58  C   UNL     1      -7.852   0.976  -9.976  1.00  0.00     0.029 A 
ATOM     59  N   UNL     1     -10.006   0.804 -10.422  1.00  0.00    -0.354 N 
ATOM     60  N   UNL     1     -10.037  -2.632  -8.974  1.00  0.00    -0.248 NA
ATOM     61  C   UNL     1     -11.308  -4.534  -9.195  1.00  0.00     0.031 C 
ATOM     62  C   UNL     1      -8.140  -0.358 -10.412  1.00  0.00     0.029 A 
ATOM     63  C   UNL     1      -9.499  -0.453 -10.666  1.00  0.00     0.049 A 
ATOM     64  H   UNL     1     -10.947   1.053 -10.567  1.00  0.00     0.167 HD
ATOM     65  C   UNL     1     -10.649  -2.536 -10.192  1.00  0.00     0.074 A 
ATOM     66  C   UNL     1     -11.481  -3.728 -10.258  1.00  0.00     0.031 C 
ATOM     67  C   UNL     1     -10.434  -1.498 -11.058  1.00  0.00     0.037 A 
BRANCH  54  68
ATOM     68  C   UNL     1      -9.154   4.270  -9.652  1.00  0.00     0.057 A 
ATOM     69  C   UNL     1      -8.239   4.457 -10.709  1.00  0.00     0.134 A 
ATOM     70  C   UNL     1      -9.620   5.467  -9.078  1.00  0.00     0.134 A 
ATOM     71  F   UNL     1      -7.732   3.421 -11.392  1.00  0.00    -0.206 F 
ATOM     72  C   UNL     1      -7.792   5.715 -11.126  1.00  0.00     0.040 A 
ATOM     73  C   UNL     1      -9.169   6.735  -9.476  1.00  0.00     0.040 A 
ATOM     74  F   UNL     1     -10.559   5.492  -8.130  1.00  0.00    -0.206 F 
ATOM     75  C   UNL     1      -8.247   6.863 -10.501  1.00  0.00     0.006 A 
ENDBRANCH  54  68
BRANCH  55  76
ATOM     76  C   UNL     1     -10.752  -4.630  -5.872  1.00  0.00     0.057 A 
ATOM     77  C   UNL     1     -10.099  -5.265  -4.791  1.00  0.00     0.134 A 
ATOM     78  C   UNL     1     -11.960  -3.989  -5.589  1.00  0.00     0.134 A 
ATOM     79  F   UNL     1      -8.959  -5.945  -4.998  1.00  0.00    -0.206 F 
ATOM     80  C   UNL     1     -10.477  -5.028  -3.467  1.00  0.00     0.040 A 
ATOM     81  C   UNL     1     -12.381  -3.804  -4.267  1.00  0.00     0.040 A 
ATOM     82  F   UNL     1     -12.669  -3.400  -6.563  1.00  0.00    -0.206 F 
ATOM     83  C   UNL     1     -11.594  -4.245  -3.203  1.00  0.00     0.006 A 
ENDBRANCH  55  76
BRANCH  67  84
ATOM     84  C   UNL     1     -11.146  -1.389 -12.378  1.00  0.00     0.057 A 
ATOM     85  C   UNL     1     -11.309  -2.489 -13.226  1.00  0.00     0.134 A 
ATOM     86  C   UNL     1     -11.633  -0.162 -12.880  1.00  0.00     0.134 A 
ATOM     87  F   UNL     1     -10.767  -3.679 -12.927  1.00  0.00    -0.206 F 
ATOM     88  C   UNL     1     -12.027  -2.405 -14.422  1.00  0.00     0.040 A 
ATOM     89  C   UNL     1     -12.281  -0.050 -14.108  1.00  0.00     0.040 A 
ATOM     90  F   UNL     1     -11.540   0.987 -12.197  1.00  0.00    -0.206 F 
ATOM     91  C   UNL     1     -12.518  -1.183 -14.866  1.00  0.00     0.006 A 
ENDBRANCH  67  84
ENDBRANCH  41  42
ENDBRANCH  33  36
ENDBRANCH  31  32
ENDBRANCH  30  31
ENDBRANCH  29  30
ENDBRANCH  28  29
ENDBRANCH   1  28
TORSDOF 17
