REMARK SMILES O=C(NCCCCCCNC(=O)c1cc2c(c(S(=O)(=O)Nc3cc(C(F)(F)F)ccc3-n3cccn3)c1)CCC2)c1ccc(-c2c3nc(c(-c4c(F)cccc4F)c4ccc([nH]4)c(-c4c(F)cccc4F)c4nc(c(-c5c(F)cccc5F)c5ccc2[nH]5)C=C4)C=C3)cc1
REMARK SMILES IDX 7 1 6 2 5 3 4 4 3 5 1 6 2 7 41 9 42 10 94 11 43 12 93 13
REMARK SMILES IDX 44 14 45 15 46 16 87 17 47 18 92 19 86 20 88 21 48 22 91 23
REMARK SMILES IDX 85 24 84 25 49 27 75 28 58 29 74 30 59 31 62 32 73 33 89 34
REMARK SMILES IDX 60 35 61 36 72 38 90 39 63 40 50 41 51 42 56 43 52 44 53 45
REMARK SMILES IDX 55 46 57 47 54 48 76 49 77 50 82 51 78 52 79 53 81 54 83 55
REMARK SMILES IDX 80 56 64 57 65 58 70 59 66 60 67 61 69 62 71 63 68 64 8 65
REMARK SMILES IDX 9 66 10 67 11 68 12 70 13 71 14 72 37 73 15 74 17 75 16 76
REMARK SMILES IDX 40 77 38 78 39 79 18 80 19 81 20 82 21 83 22 85 23 86 31 87
REMARK SMILES IDX 24 88 30 89 29 90 32 91 33 92 36 93 34 94 35 95 25 96 26 97
REMARK SMILES IDX 27 98 28 99
REMARK H PARENT 3 8 88 26 62 37 10 69 21 84
REMARK Flexibility Score: inf
ROOT
ATOM      1  C   UNL     1       4.762   0.428   4.106  1.00  0.00     0.002 C 
ENDROOT
BRANCH   1   2
ATOM      2  C   UNL     1       4.300   1.548   3.167  1.00  0.00     0.002 C 
BRANCH   2   3
ATOM      3  C   UNL     1       4.865   1.528   1.739  1.00  0.00     0.021 C 
BRANCH   3   4
ATOM      4  C   UNL     1       4.651   0.228   0.964  1.00  0.00     0.116 C 
BRANCH   4   5
ATOM      5  N   UNL     1       3.264  -0.173   0.849  1.00  0.00    -0.352 N 
ATOM      6  O   UNL     1       1.199  -0.545   0.179  1.00  0.00    -0.269 OA
ATOM      7  C   UNL     1       2.227   0.116   0.007  1.00  0.00     0.251 C 
ATOM      8  H   UNL     1       3.004  -0.812   1.552  1.00  0.00     0.163 HD
BRANCH   7   9
ATOM      9  C   UNL     1       2.221   1.169  -1.049  1.00  0.00     0.039 A 
ATOM     10  C   UNL     1       3.324   1.895  -1.495  1.00  0.00     0.014 A 
ATOM     11  C   UNL     1       0.966   1.440  -1.636  1.00  0.00     0.014 A 
ATOM     12  C   UNL     1       3.169   2.889  -2.466  1.00  0.00     0.010 A 
ATOM     13  C   UNL     1       0.806   2.429  -2.607  1.00  0.00     0.010 A 
ATOM     14  C   UNL     1       1.909   3.168  -3.013  1.00  0.00    -0.014 A 
BRANCH  14  15
ATOM     15  C   UNL     1       1.834   4.112  -4.130  1.00  0.00     0.031 A 
ATOM     16  C   UNL     1       2.548   3.671  -5.363  1.00  0.00     0.074 A 
ATOM     17  C   UNL     1       1.090   5.237  -4.171  1.00  0.00     0.049 A 
ATOM     18  N   UNL     1       3.579   4.215  -5.921  1.00  0.00    -0.248 NA
ATOM     19  C   UNL     1       2.108   2.423  -6.003  1.00  0.00     0.031 C 
ATOM     20  C   UNL     1       0.077   5.689  -3.219  1.00  0.00     0.029 A 
ATOM     21  N   UNL     1       1.039   6.189  -5.152  1.00  0.00    -0.354 N 
ATOM     22  C   UNL     1       3.820   3.486  -7.085  1.00  0.00     0.074 A 
ATOM     23  C   UNL     1       2.970   2.325  -7.017  1.00  0.00     0.031 C 
ATOM     24  C   UNL     1      -0.622   6.714  -3.763  1.00  0.00     0.029 A 
ATOM     25  C   UNL     1      -0.022   7.079  -5.037  1.00  0.00     0.049 A 
ATOM     26  H   UNL     1       1.701   6.241  -5.880  1.00  0.00     0.167 HD
ATOM     27  C   UNL     1       4.558   4.000  -8.108  1.00  0.00     0.037 A 
ATOM     28  C   UNL     1      -0.404   8.018  -5.941  1.00  0.00     0.037 A 
ATOM     29  C   UNL     1       5.356   5.117  -7.672  1.00  0.00     0.049 A 
ATOM     30  C   UNL     1       0.740   8.282  -6.843  1.00  0.00     0.074 A 
ATOM     31  C   UNL     1       6.330   5.311  -6.712  1.00  0.00     0.029 A 
ATOM     32  N   UNL     1       4.963   6.376  -8.051  1.00  0.00    -0.354 N 
ATOM     33  N   UNL     1       1.817   8.926  -6.498  1.00  0.00    -0.248 NA
ATOM     34  C   UNL     1       0.848   7.493  -8.060  1.00  0.00     0.031 C 
ATOM     35  C   UNL     1       6.102   6.628  -6.214  1.00  0.00     0.029 A 
ATOM     36  C   UNL     1       5.040   7.169  -6.938  1.00  0.00     0.049 A 
ATOM     37  H   UNL     1       4.680   6.656  -8.951  1.00  0.00     0.167 HD
ATOM     38  C   UNL     1       2.839   8.276  -7.168  1.00  0.00     0.074 A 
ATOM     39  C   UNL     1       2.174   7.487  -8.201  1.00  0.00     0.031 C 
ATOM     40  C   UNL     1       4.097   8.220  -6.643  1.00  0.00     0.037 A 
BRANCH  27  41
ATOM     41  C   UNL     1       4.291   3.740  -9.574  1.00  0.00     0.057 A 
ATOM     42  C   UNL     1       5.182   4.256 -10.536  1.00  0.00     0.134 A 
ATOM     43  C   UNL     1       3.056   3.294 -10.086  1.00  0.00     0.134 A 
ATOM     44  F   UNL     1       6.391   4.716 -10.179  1.00  0.00    -0.206 F 
ATOM     45  C   UNL     1       4.831   4.410 -11.882  1.00  0.00     0.040 A 
ATOM     46  C   UNL     1       2.716   3.396 -11.438  1.00  0.00     0.040 A 
ATOM     47  F   UNL     1       2.076   2.834  -9.299  1.00  0.00    -0.206 F 
ATOM     48  C   UNL     1       3.588   3.990 -12.335  1.00  0.00     0.006 A 
ENDBRANCH  27  41
BRANCH  28  49
ATOM     49  C   UNL     1      -1.748   8.560  -6.243  1.00  0.00     0.057 A 
ATOM     50  C   UNL     1      -1.907   9.750  -6.972  1.00  0.00     0.134 A 
ATOM     51  C   UNL     1      -2.901   7.774  -6.089  1.00  0.00     0.134 A 
ATOM     52  F   UNL     1      -0.859  10.554  -7.205  1.00  0.00    -0.206 F 
ATOM     53  C   UNL     1      -3.132  10.117  -7.546  1.00  0.00     0.040 A 
ATOM     54  C   UNL     1      -4.132   8.132  -6.650  1.00  0.00     0.040 A 
ATOM     55  F   UNL     1      -2.849   6.586  -5.470  1.00  0.00    -0.206 F 
ATOM     56  C   UNL     1      -4.246   9.298  -7.397  1.00  0.00     0.006 A 
ENDBRANCH  28  49
BRANCH  40  57
ATOM     57  C   UNL     1       4.432   9.144  -5.508  1.00  0.00     0.057 A 
ATOM     58  C   UNL     1       3.770   9.159  -4.271  1.00  0.00     0.134 A 
ATOM     59  C   UNL     1       5.554   9.973  -5.635  1.00  0.00     0.134 A 
ATOM     60  F   UNL     1       2.753   8.325  -4.012  1.00  0.00    -0.206 F 
ATOM     61  C   UNL     1       4.172  10.006  -3.233  1.00  0.00     0.040 A 
ATOM     62  C   UNL     1       5.989  10.793  -4.593  1.00  0.00     0.040 A 
ATOM     63  F   UNL     1       6.272   9.970  -6.770  1.00  0.00    -0.206 F 
ATOM     64  C   UNL     1       5.288  10.823  -3.391  1.00  0.00     0.006 A 
ENDBRANCH  40  57
ENDBRANCH  14  15
ENDBRANCH   7   9
ENDBRANCH   4   5
ENDBRANCH   3   4
ENDBRANCH   2   3
ENDBRANCH   1   2
BRANCH   1  65
ATOM     65  C   UNL     1       6.274   0.280   4.285  1.00  0.00     0.021 C 
BRANCH  65  66
ATOM     66  C   UNL     1       6.994   1.494   4.867  1.00  0.00     0.116 C 
BRANCH  66  67
ATOM     67  N   UNL     1       6.711   1.725   6.282  1.00  0.00    -0.352 N 
ATOM     68  C   UNL     1       7.594   1.987   7.315  1.00  0.00     0.251 C 
ATOM     69  H   UNL     1       5.760   1.689   6.536  1.00  0.00     0.163 HD
ATOM     70  O   UNL     1       7.207   2.059   8.476  1.00  0.00    -0.269 OA
BRANCH  68  71
ATOM     71  C   UNL     1       9.034   2.150   7.003  1.00  0.00     0.041 A 
ATOM     72  C   UNL     1       9.396   3.022   5.981  1.00  0.00     0.018 A 
ATOM     73  C   UNL     1       9.991   1.316   7.619  1.00  0.00     0.036 A 
ATOM     74  C   UNL     1      10.637   2.842   5.414  1.00  0.00    -0.043 A 
ATOM     75  C   UNL     1      11.294   1.195   7.086  1.00  0.00     0.092 A 
ATOM     76  C   UNL     1      11.545   1.873   5.897  1.00  0.00    -0.024 A 
ATOM     77  C   UNL     1      11.117   3.478   4.144  1.00  0.00     0.036 C 
ATOM     78  C   UNL     1      12.573   1.672   4.830  1.00  0.00     0.037 C 
ATOM     79  C   UNL     1      12.581   3.054   4.168  1.00  0.00     0.010 C 
BRANCH  75  80
ATOM     80  S   UNL     1      12.374  -0.029   7.805  1.00  0.00     0.262 S 
ATOM     81  O   UNL     1      11.789  -0.405   9.082  1.00  0.00    -0.201 OA
ATOM     82  O   UNL     1      12.592  -1.043   6.798  1.00  0.00    -0.201 OA
BRANCH  80  83
ATOM     83  N   UNL     1      13.927   0.539   8.242  1.00  0.00    -0.277 N 
ATOM     84  H   UNL     1      14.348   0.169   9.052  1.00  0.00     0.180 HD
BRANCH  83  85
ATOM     85  C   UNL     1      14.648   1.524   7.491  1.00  0.00     0.075 A 
ATOM     86  C   UNL     1      15.536   1.097   6.487  1.00  0.00     0.042 A 
ATOM     87  C   UNL     1      14.398   2.895   7.645  1.00  0.00     0.089 A 
ATOM     88  C   UNL     1      16.103   2.022   5.585  1.00  0.00     0.058 A 
ATOM     89  C   UNL     1      14.998   3.824   6.782  1.00  0.00     0.031 A 
ATOM     90  C   UNL     1      15.850   3.390   5.763  1.00  0.00     0.015 A 
BRANCH  87  91
ATOM     91  N   UNL     1      13.497   3.368   8.625  1.00  0.00    -0.239 N 
ATOM     92  C   UNL     1      13.298   2.882   9.896  1.00  0.00     0.115 A 
ATOM     93  N   UNL     1      12.610   4.347   8.322  1.00  0.00    -0.177 NA
ATOM     94  C   UNL     1      12.131   3.439  10.356  1.00  0.00     0.042 A 
ATOM     95  C   UNL     1      11.725   4.296   9.322  1.00  0.00     0.135 A 
ENDBRANCH  87  91
BRANCH  88  96
ATOM     96  C   UNL     1      16.879   1.536   4.380  1.00  0.00     0.416 C 
ATOM     97  F   UNL     1      18.149   1.164   4.683  1.00  0.00    -0.166 F 
ATOM     98  F   UNL     1      16.294   0.451   3.796  1.00  0.00    -0.166 F 
ATOM     99  F   UNL     1      16.979   2.470   3.393  1.00  0.00    -0.166 F 
ENDBRANCH  88  96
ENDBRANCH  83  85
ENDBRANCH  80  83
ENDBRANCH  75  80
ENDBRANCH  68  71
ENDBRANCH  66  67
ENDBRANCH  65  66
ENDBRANCH   1  65
TORSDOF 18
