REMARK SMILES C[C@@H]1CCCN(C(=O)c2ccncc2/C=C/C(=O)NCCCCCCNC(=O)c2ccc(-c3c4nc(c(-c5c(F)cccc5F)c5ccc([nH]5)c(-c5c(F)cccc5F)c5nc(c(-c6c(F)cccc6F)c6ccc3[nH]6)C=C5)C=C4)cc2)[C@@H]1C
REMARK SMILES IDX 22 1 21 2 20 3 19 4 17 5 18 6 16 8 15 9 14 10 9 11 10 12
REMARK SMILES IDX 11 13 13 14 12 15 7 16 8 17 6 18 1 19 2 20 3 21 83 22 4 23
REMARK SMILES IDX 84 24 5 25 23 26 24 27 25 28 26 29 27 30 28 32 29 33 30 34
REMARK SMILES IDX 82 35 31 36 81 37 32 38 33 39 34 40 75 41 35 42 80 43 74 44
REMARK SMILES IDX 76 45 36 46 79 47 73 48 72 49 37 51 63 52 46 53 62 54 47 55
REMARK SMILES IDX 50 56 61 57 77 58 48 59 49 60 60 62 78 63 51 64 38 65 39 66
REMARK SMILES IDX 44 67 40 68 41 69 43 70 45 71 42 72 64 73 65 74 70 75 66 76
REMARK SMILES IDX 67 77 69 78 71 79 68 80 52 81 53 82 58 83 54 84 55 85 57 86
REMARK SMILES IDX 59 87 56 88
REMARK H PARENT 19 7 26 31 76 50 50 61
REMARK Flexibility Score: inf
ROOT
ATOM      1  C   UNL     1       3.333   3.676  -0.051  1.00  0.00     0.002 C 
ENDROOT
BRANCH   1   2
ATOM      2  C   UNL     1       2.259   2.888  -0.809  1.00  0.00     0.021 C 
BRANCH   2   3
ATOM      3  C   UNL     1       1.176   3.754  -1.448  1.00  0.00     0.116 C 
BRANCH   3   4
ATOM      4  N   UNL     1       1.603   4.200  -2.760  1.00  0.00    -0.353 N 
ATOM      5  C   UNL     1       1.108   3.929  -3.992  1.00  0.00     0.244 C 
ATOM      6  O   UNL     1       1.601   4.474  -4.978  1.00  0.00    -0.270 OA
ATOM      7  H   UNL     1       2.383   4.801  -2.754  1.00  0.00     0.163 HD
BRANCH   5   8
ATOM      8  C   UNL     1      -0.082   3.065  -4.177  1.00  0.00     0.072 C 
ATOM      9  C   UNL     1      -0.267   1.845  -3.646  1.00  0.00     0.016 C 
BRANCH   9  10
ATOM     10  C   UNL     1      -1.482   1.048  -3.905  1.00  0.00     0.006 A 
ATOM     11  C   UNL     1      -2.157   0.312  -2.918  1.00  0.00     0.050 A 
ATOM     12  C   UNL     1      -3.337  -0.380  -3.226  1.00  0.00     0.034 A 
ATOM     13  C   UNL     1      -3.768  -0.385  -4.538  1.00  0.00     0.112 A 
ATOM     14  C   UNL     1      -2.009   0.953  -5.193  1.00  0.00     0.119 A 
ATOM     15  N   UNL     1      -3.121   0.253  -5.531  1.00  0.00    -0.264 NA
BRANCH  11  16
ATOM     16  C   UNL     1      -1.707   0.311  -1.504  1.00  0.00     0.254 C 
ATOM     17  O   UNL     1      -1.615   1.409  -0.961  1.00  0.00    -0.269 OA
BRANCH  16  18
ATOM     18  N   UNL     1      -1.445  -0.911  -0.872  1.00  0.00    -0.336 N 
ATOM     19  C   UNL     1       1.361  -0.435   0.396  1.00  0.00     0.010 C 
ATOM     20  C   UNL     1       0.329  -1.494   0.782  1.00  0.00     0.008 C 
ATOM     21  C   UNL     1       0.575  -2.798   0.004  1.00  0.00     0.007 C 
ATOM     22  C   UNL     1      -1.133  -1.016   0.574  1.00  0.00     0.085 C 
ATOM     23  C   UNL     1       0.161  -2.688  -1.461  1.00  0.00     0.022 C 
ATOM     24  C   UNL     1      -1.488   0.177   1.467  1.00  0.00     0.031 C 
ATOM     25  C   UNL     1      -1.271  -2.177  -1.599  1.00  0.00     0.120 C 
ENDBRANCH  16  18
ENDBRANCH  11  16
ENDBRANCH   9  10
ENDBRANCH   5   8
ENDBRANCH   3   4
ENDBRANCH   2   3
ENDBRANCH   1   2
BRANCH   1  26
ATOM     26  C   UNL     1       2.826   4.442   1.178  1.00  0.00     0.002 C 
BRANCH  26  27
ATOM     27  C   UNL     1       2.020   3.617   2.187  1.00  0.00     0.021 C 
BRANCH  27  28
ATOM     28  C   UNL     1       2.765   2.427   2.785  1.00  0.00     0.116 C 
BRANCH  28  29
ATOM     29  N   UNL     1       3.905   2.844   3.582  1.00  0.00    -0.352 N 
ATOM     30  C   UNL     1       4.202   2.592   4.897  1.00  0.00     0.251 C 
ATOM     31  H   UNL     1       4.568   3.393   3.104  1.00  0.00     0.163 HD
ATOM     32  O   UNL     1       5.109   3.213   5.443  1.00  0.00    -0.269 OA
BRANCH  30  33
ATOM     33  C   UNL     1       3.446   1.579   5.668  1.00  0.00     0.039 A 
ATOM     34  C   UNL     1       3.152   1.845   7.009  1.00  0.00     0.014 A 
ATOM     35  C   UNL     1       3.097   0.345   5.111  1.00  0.00     0.014 A 
ATOM     36  C   UNL     1       2.496   0.886   7.784  1.00  0.00     0.010 A 
ATOM     37  C   UNL     1       2.382  -0.585   5.866  1.00  0.00     0.010 A 
ATOM     38  C   UNL     1       2.098  -0.335   7.217  1.00  0.00    -0.014 A 
BRANCH  38  39
ATOM     39  C   UNL     1       1.439  -1.379   8.042  1.00  0.00     0.031 A 
ATOM     40  C   UNL     1       2.140  -2.686   8.304  1.00  0.00     0.074 A 
ATOM     41  C   UNL     1       0.202  -1.170   8.531  1.00  0.00     0.049 A 
ATOM     42  N   UNL     1       1.719  -3.736   8.963  1.00  0.00    -0.248 NA
ATOM     43  C   UNL     1       3.484  -2.842   7.726  1.00  0.00     0.031 C 
ATOM     44  C   UNL     1      -0.599   0.036   8.321  1.00  0.00     0.029 A 
ATOM     45  N   UNL     1      -0.599  -1.972   9.306  1.00  0.00    -0.354 N 
ATOM     46  C   UNL     1       2.736  -4.678   8.864  1.00  0.00     0.074 A 
ATOM     47  C   UNL     1       3.770  -4.097   8.036  1.00  0.00     0.031 C 
ATOM     48  C   UNL     1      -1.768  -0.095   8.970  1.00  0.00     0.029 A 
ATOM     49  C   UNL     1      -1.810  -1.403   9.616  1.00  0.00     0.049 A 
ATOM     50  H   UNL     1      -0.331  -2.869   9.610  1.00  0.00     0.167 HD
ATOM     51  C   UNL     1       2.814  -5.906   9.431  1.00  0.00     0.037 A 
ATOM     52  C   UNL     1      -2.837  -1.883  10.343  1.00  0.00     0.037 A 
ATOM     53  C   UNL     1       1.798  -6.473  10.279  1.00  0.00     0.049 A 
ATOM     54  C   UNL     1      -2.720  -3.243  10.975  1.00  0.00     0.074 A 
ATOM     55  C   UNL     1       1.799  -7.692  10.934  1.00  0.00     0.029 A 
ATOM     56  N   UNL     1       0.599  -5.851  10.596  1.00  0.00    -0.354 N 
ATOM     57  N   UNL     1      -1.733  -4.103  10.912  1.00  0.00    -0.248 NA
ATOM     58  C   UNL     1      -3.856  -3.691  11.792  1.00  0.00     0.031 C 
ATOM     59  C   UNL     1       0.586  -7.824  11.619  1.00  0.00     0.029 A 
ATOM     60  C   UNL     1      -0.150  -6.665  11.430  1.00  0.00     0.049 A 
ATOM     61  H   UNL     1       0.321  -4.963  10.275  1.00  0.00     0.167 HD
ATOM     62  C   UNL     1      -2.111  -5.174  11.712  1.00  0.00     0.074 A 
ATOM     63  C   UNL     1      -3.413  -4.851  12.255  1.00  0.00     0.031 C 
ATOM     64  C   UNL     1      -1.438  -6.321  11.976  1.00  0.00     0.037 A 
BRANCH  51  65
ATOM     65  C   UNL     1       4.046  -6.718   9.152  1.00  0.00     0.057 A 
ATOM     66  C   UNL     1       5.297  -6.369   9.680  1.00  0.00     0.134 A 
ATOM     67  C   UNL     1       3.980  -7.875   8.365  1.00  0.00     0.134 A 
ATOM     68  F   UNL     1       5.434  -5.266  10.431  1.00  0.00    -0.206 F 
ATOM     69  C   UNL     1       6.441  -7.122   9.409  1.00  0.00     0.040 A 
ATOM     70  C   UNL     1       5.112  -8.653   8.111  1.00  0.00     0.040 A 
ATOM     71  F   UNL     1       2.814  -8.271   7.832  1.00  0.00    -0.206 F 
ATOM     72  C   UNL     1       6.348  -8.272   8.628  1.00  0.00     0.006 A 
ENDBRANCH  51  65
BRANCH  52  73
ATOM     73  C   UNL     1      -4.053  -1.056  10.548  1.00  0.00     0.057 A 
ATOM     74  C   UNL     1      -4.351  -0.509  11.802  1.00  0.00     0.134 A 
ATOM     75  C   UNL     1      -4.952  -0.806   9.505  1.00  0.00     0.134 A 
ATOM     76  F   UNL     1      -3.536  -0.730  12.845  1.00  0.00    -0.206 F 
ATOM     77  C   UNL     1      -5.510   0.236  12.019  1.00  0.00     0.040 A 
ATOM     78  C   UNL     1      -6.103  -0.040   9.701  1.00  0.00     0.040 A 
ATOM     79  F   UNL     1      -4.720  -1.296   8.278  1.00  0.00    -0.206 F 
ATOM     80  C   UNL     1      -6.389   0.476  10.964  1.00  0.00     0.006 A 
ENDBRANCH  52  73
BRANCH  64  81
ATOM     81  C   UNL     1      -2.074  -7.282  12.939  1.00  0.00     0.057 A 
ATOM     82  C   UNL     1      -3.207  -8.033  12.604  1.00  0.00     0.134 A 
ATOM     83  C   UNL     1      -1.529  -7.468  14.217  1.00  0.00     0.134 A 
ATOM     84  F   UNL     1      -3.784  -7.893  11.401  1.00  0.00    -0.206 F 
ATOM     85  C   UNL     1      -3.796  -8.910  13.517  1.00  0.00     0.040 A 
ATOM     86  C   UNL     1      -2.092  -8.362  15.128  1.00  0.00     0.040 A 
ATOM     87  F   UNL     1      -0.437  -6.787  14.598  1.00  0.00    -0.206 F 
ATOM     88  C   UNL     1      -3.235  -9.079  14.782  1.00  0.00     0.006 A 
ENDBRANCH  64  81
ENDBRANCH  38  39
ENDBRANCH  30  33
ENDBRANCH  28  29
ENDBRANCH  27  28
ENDBRANCH  26  27
ENDBRANCH   1  26
TORSDOF 16
