REMARK SMILES Cc1ccccc1NC(=S)NN1C(=O)CS[C@H]1c1ccccc1C(=O)NCCCCCCNC(=O)c1ccc(-c2c3nc(c(-c4c(F)cccc4F)c4ccc([nH]4)c(-c4c(F)cccc4F)c4nc(c(-c5c(F)cccc5F)c5ccc2[nH]5)C=C4)C=C3)cc1
REMARK SMILES IDX 28 1 27 2 26 3 24 4 25 5 23 7 18 8 19 9 20 10 22 11 21 12
REMARK SMILES IDX 17 13 12 14 13 15 14 16 15 17 16 18 11 19 9 21 10 22 8 23
REMARK SMILES IDX 7 25 1 26 2 27 3 28 4 29 6 30 5 31 29 32 30 33 31 34 32 35
REMARK SMILES IDX 33 36 34 37 35 39 36 40 37 41 89 42 38 43 88 44 39 45 40 46
REMARK SMILES IDX 41 47 82 48 42 49 87 50 81 51 83 52 43 53 86 54 80 55 79 56
REMARK SMILES IDX 44 58 70 59 53 60 69 61 54 62 57 63 68 64 84 65 55 66 56 67
REMARK SMILES IDX 67 69 85 70 58 71 45 72 46 73 51 74 47 75 48 76 50 77 52 78
REMARK SMILES IDX 49 79 71 80 72 81 77 82 73 83 74 84 76 85 78 86 75 87 59 88
REMARK SMILES IDX 60 89 65 90 61 91 62 92 64 93 66 94 63 95
REMARK H PARENT 26 6 11 20 8 24 33 38 83 57 57 68
REMARK Flexibility Score: inf
ROOT
ATOM      1  C   UNL     1      -0.374   1.750  -1.768  1.00  0.00     0.021 C 
ENDROOT
BRANCH   1   2
ATOM      2  C   UNL     1      -0.420   3.232  -1.226  1.00  0.00     0.116 C 
BRANCH   2   3
ATOM      3  N   UNL     1      -1.427   4.255  -1.703  1.00  0.00    -0.352 N 
ATOM      4  C   UNL     1      -1.738   5.426  -0.948  1.00  0.00     0.251 C 
ATOM      5  O   UNL     1      -0.870   6.303  -0.898  1.00  0.00    -0.269 OA
ATOM      6  H   UNL     1      -1.884   4.108  -2.562  1.00  0.00     0.163 HD
BRANCH   4   7
ATOM      7  C   UNL     1      -3.156   5.806  -0.401  1.00  0.00     0.046 A 
ATOM      8  C   UNL     1      -4.189   4.980   0.097  1.00  0.00    -0.001 A 
ATOM      9  C   UNL     1      -5.490   5.509   0.374  1.00  0.00     0.007 A 
ATOM     10  C   UNL     1      -5.778   6.853   0.257  1.00  0.00     0.000 A 
ATOM     11  C   UNL     1      -3.467   7.189  -0.415  1.00  0.00     0.014 A 
ATOM     12  C   UNL     1      -4.748   7.701  -0.101  1.00  0.00     0.001 A 
BRANCH   8  13
ATOM     13  C   UNL     1      -4.113   3.511   0.058  1.00  0.00     0.197 C 
ATOM     14  N   UNL     1      -2.850   2.845   0.148  1.00  0.00    -0.236 N 
ATOM     15  C   UNL     1      -3.292   1.646  -0.506  1.00  0.00     0.252 C 
ATOM     16  O   UNL     1      -3.263   1.470  -1.726  1.00  0.00    -0.272 OA
ATOM     17  C   UNL     1      -4.375   0.970   0.310  1.00  0.00     0.174 C 
ATOM     18  S   UNL     1      -5.196   2.416   1.058  1.00  0.00    -0.120 SA
BRANCH  14  19
ATOM     19  N   UNL     1      -2.184   2.887   1.620  1.00  0.00    -0.270 N 
ATOM     20  H   UNL     1      -2.763   2.647   2.379  1.00  0.00     0.191 HD
BRANCH  19  21
ATOM     21  C   UNL     1      -0.855   3.235   1.918  1.00  0.00     0.189 C 
ATOM     22  S   UNL     1      -0.569   4.723   2.652  1.00  0.00    -0.039 S 
BRANCH  21  23
ATOM     23  N   UNL     1       0.260   2.425   1.741  1.00  0.00    -0.331 N 
ATOM     24  H   UNL     1       1.085   2.779   2.144  1.00  0.00     0.169 HD
BRANCH  23  25
ATOM     25  C   UNL     1       0.418   1.185   1.087  1.00  0.00     0.043 A 
ATOM     26  C   UNL     1       3.351   0.945   0.942  1.00  0.00     0.046 C 
ATOM     27  C   UNL     1       1.987   0.385   0.669  1.00  0.00    -0.028 A 
ATOM     28  C   UNL     1       2.005  -0.980  -0.529  1.00  0.00     0.005 A 
ATOM     29  C   UNL     1       0.468  -1.581  -1.250  1.00  0.00     0.000 A 
ATOM     30  C   UNL     1      -1.073   0.508   0.417  1.00  0.00     0.026 A 
ATOM     31  C   UNL     1      -1.073  -0.792  -0.808  1.00  0.00     0.002 A 
ENDBRANCH  23  25
ENDBRANCH  21  23
ENDBRANCH  19  21
ENDBRANCH  14  19
ENDBRANCH   8  13
ENDBRANCH   4   7
ENDBRANCH   2   3
ENDBRANCH   1   2
BRANCH   1  32
ATOM     32  C   UNL     1       0.555   0.506  -0.895  1.00  0.00     0.002 C 
BRANCH  32  33
ATOM     33  C   UNL     1       0.330  -0.938   0.733  1.00  0.00     0.002 C 
BRANCH  33  34
ATOM     34  C   UNL     1      -0.774  -2.246   1.192  1.00  0.00     0.021 C 
BRANCH  34  35
ATOM     35  C   UNL     1      -1.166  -3.493   0.380  1.00  0.00     0.116 C 
BRANCH  35  36
ATOM     36  N   UNL     1      -0.105  -4.395  -0.069  1.00  0.00    -0.352 N 
ATOM     37  C   UNL     1      -0.362  -5.694  -0.527  1.00  0.00     0.251 C 
ATOM     38  H   UNL     1       0.827  -4.076  -0.049  1.00  0.00     0.163 HD
ATOM     39  O   UNL     1       0.001  -6.711   0.042  1.00  0.00    -0.269 OA
BRANCH  37  40
ATOM     40  C   UNL     1      -0.846  -5.736  -1.929  1.00  0.00     0.039 A 
ATOM     41  C   UNL     1      -0.039  -6.283  -2.934  1.00  0.00     0.014 A 
ATOM     42  C   UNL     1      -1.846  -4.824  -2.227  1.00  0.00     0.014 A 
ATOM     43  C   UNL     1      -0.090  -5.711  -4.198  1.00  0.00     0.010 A 
ATOM     44  C   UNL     1      -1.714  -4.090  -3.364  1.00  0.00     0.010 A 
ATOM     45  C   UNL     1      -0.839  -4.544  -4.347  1.00  0.00    -0.014 A 
BRANCH  45  46
ATOM     46  C   UNL     1      -1.059  -3.864  -5.600  1.00  0.00     0.031 A 
ATOM     47  C   UNL     1      -2.145  -4.485  -6.383  1.00  0.00     0.074 A 
ATOM     48  C   UNL     1      -0.400  -2.704  -5.812  1.00  0.00     0.049 A 
ATOM     49  N   UNL     1      -2.129  -4.689  -7.646  1.00  0.00    -0.248 NA
ATOM     50  C   UNL     1      -3.319  -5.112  -5.745  1.00  0.00     0.031 C 
ATOM     51  C   UNL     1      -0.565  -1.698  -6.853  1.00  0.00     0.029 A 
ATOM     52  N   UNL     1       0.774  -2.298  -5.150  1.00  0.00    -0.354 N 
ATOM     53  C   UNL     1      -3.436  -4.987  -7.989  1.00  0.00     0.074 A 
ATOM     54  C   UNL     1      -4.040  -5.500  -6.797  1.00  0.00     0.031 C 
ATOM     55  C   UNL     1       0.615  -1.066  -7.024  1.00  0.00     0.029 A 
ATOM     56  C   UNL     1       1.581  -1.712  -6.150  1.00  0.00     0.049 A 
ATOM     57  H   UNL     1       0.986  -2.401  -4.194  1.00  0.00     0.167 HD
ATOM     58  C   UNL     1      -3.936  -4.463  -9.142  1.00  0.00     0.037 A 
ATOM     59  C   UNL     1       2.712  -2.361  -6.561  1.00  0.00     0.037 A 
ATOM     60  C   UNL     1      -2.897  -3.633  -9.752  1.00  0.00     0.049 A 
ATOM     61  C   UNL     1       2.574  -2.863  -7.970  1.00  0.00     0.074 A 
ATOM     62  C   UNL     1      -2.654  -2.270  -9.708  1.00  0.00     0.029 A 
ATOM     63  N   UNL     1      -1.700  -4.231 -10.115  1.00  0.00    -0.354 N 
ATOM     64  N   UNL     1       1.434  -3.177  -8.527  1.00  0.00    -0.248 NA
ATOM     65  C   UNL     1       3.700  -2.935  -8.888  1.00  0.00     0.031 C 
ATOM     66  C   UNL     1      -1.289  -2.060 -10.053  1.00  0.00     0.029 A 
ATOM     67  C   UNL     1      -0.706  -3.294 -10.290  1.00  0.00     0.049 A 
ATOM     68  H   UNL     1      -1.577  -5.200 -10.233  1.00  0.00     0.167 HD
ATOM     69  C   UNL     1       1.639  -3.424  -9.863  1.00  0.00     0.074 A 
ATOM     70  C   UNL     1       3.070  -3.242 -10.033  1.00  0.00     0.031 C 
ATOM     71  C   UNL     1       0.617  -3.726 -10.723  1.00  0.00     0.037 A 
BRANCH  58  72
ATOM     72  C   UNL     1      -5.391  -4.406  -9.550  1.00  0.00     0.057 A 
ATOM     73  C   UNL     1      -5.814  -3.471 -10.518  1.00  0.00     0.134 A 
ATOM     74  C   UNL     1      -6.421  -5.237  -9.069  1.00  0.00     0.134 A 
ATOM     75  F   UNL     1      -4.951  -2.647 -11.126  1.00  0.00    -0.206 F 
ATOM     76  C   UNL     1      -7.145  -3.339 -10.932  1.00  0.00     0.040 A 
ATOM     77  C   UNL     1      -7.765  -5.096  -9.454  1.00  0.00     0.040 A 
ATOM     78  F   UNL     1      -6.181  -6.264  -8.246  1.00  0.00    -0.206 F 
ATOM     79  C   UNL     1      -8.132  -4.144 -10.391  1.00  0.00     0.006 A 
ENDBRANCH  58  72
BRANCH  59  80
ATOM     80  C   UNL     1       3.402  -3.035  -5.427  1.00  0.00     0.057 A 
ATOM     81  C   UNL     1       3.877  -2.192  -4.409  1.00  0.00     0.134 A 
ATOM     82  C   UNL     1       3.122  -4.357  -5.074  1.00  0.00     0.134 A 
ATOM     83  F   UNL     1       4.200  -0.917  -4.680  1.00  0.00    -0.206 F 
ATOM     84  C   UNL     1       3.850  -2.577  -3.071  1.00  0.00     0.040 A 
ATOM     85  C   UNL     1       3.093  -4.750  -3.728  1.00  0.00     0.040 A 
ATOM     86  F   UNL     1       2.730  -5.244  -5.999  1.00  0.00    -0.206 F 
ATOM     87  C   UNL     1       3.376  -3.835  -2.717  1.00  0.00     0.006 A 
ENDBRANCH  59  80
BRANCH  71  88
ATOM     88  C   UNL     1       0.737  -4.402 -12.083  1.00  0.00     0.057 A 
ATOM     89  C   UNL     1       1.913  -4.948 -12.613  1.00  0.00     0.134 A 
ATOM     90  C   UNL     1      -0.416  -4.656 -12.877  1.00  0.00     0.134 A 
ATOM     91  F   UNL     1       3.072  -4.941 -11.949  1.00  0.00    -0.206 F 
ATOM     92  C   UNL     1       1.958  -5.605 -13.849  1.00  0.00     0.040 A 
ATOM     93  C   UNL     1      -0.398  -5.397 -14.059  1.00  0.00     0.040 A 
ATOM     94  F   UNL     1      -1.640  -4.224 -12.547  1.00  0.00    -0.206 F 
ATOM     95  C   UNL     1       0.800  -5.851 -14.569  1.00  0.00     0.006 A 
ENDBRANCH  71  88
ENDBRANCH  45  46
ENDBRANCH  37  40
ENDBRANCH  35  36
ENDBRANCH  34  35
ENDBRANCH  33  34
ENDBRANCH  32  33
ENDBRANCH   1  32
TORSDOF 18
