REMARK SMILES Cc1cc(C)cc(CSCc2cc(C(=O)NCCCCCCNC(=O)c3ccc(-c4c5nc(c(-c6c(F)cccc6F)c6ccc([nH]6)c(-c6c(F)cccc6F)c6nc(c(-c7c(F)cccc7F)c7ccc4[nH]7)C=C6)C=C5)cc3)c(C)o2)c1
REMARK SMILES IDX 18 1 17 2 16 3 14 4 15 5 13 7 11 8 12 9 82 10 80 11 81 12
REMARK SMILES IDX 10 13 9 14 8 15 7 16 1 17 2 18 3 19 83 20 4 21 5 22 6 23
REMARK SMILES IDX 19 24 20 25 21 26 22 27 23 28 24 29 25 31 26 32 27 33 79 34
REMARK SMILES IDX 28 35 78 36 29 37 30 38 31 39 72 40 32 41 77 42 71 43 73 44
REMARK SMILES IDX 33 45 76 46 70 47 69 48 34 50 60 51 43 52 59 53 44 54 47 55
REMARK SMILES IDX 58 56 74 57 45 58 46 59 57 61 75 62 48 63 35 64 36 65 41 66
REMARK SMILES IDX 37 67 38 68 40 69 42 70 39 71 61 72 62 73 67 74 63 75 64 76
REMARK SMILES IDX 66 77 68 78 65 79 49 80 50 81 55 82 51 83 52 84 54 85 56 86
REMARK SMILES IDX 53 87
REMARK H PARENT 16 6 23 30 73 49 47 60
REMARK Flexibility Score: inf
ROOT
ATOM      1  C   UNL     1      -4.750   0.897   0.575  1.00  0.00     0.021 C 
ENDROOT
BRANCH   1   2
ATOM      2  C   UNL     1      -3.391   0.575   1.199  1.00  0.00     0.116 C 
BRANCH   2   3
ATOM      3  N   UNL     1      -2.761   1.635   1.959  1.00  0.00    -0.352 N 
ATOM      4  C   UNL     1      -1.695   1.595   2.841  1.00  0.00     0.254 C 
ATOM      5  O   UNL     1      -1.352   2.669   3.333  1.00  0.00    -0.269 OA
ATOM      6  H   UNL     1      -3.155   2.527   1.828  1.00  0.00     0.163 HD
BRANCH   4   7
ATOM      7  C   UNL     1      -1.001   0.345   3.158  1.00  0.00     0.081 A 
ATOM      8  C   UNL     1      -0.138  -1.755   3.115  1.00  0.00     0.114 A 
ATOM      9  C   UNL     1      -1.095  -0.939   2.561  1.00  0.00     0.060 A 
ATOM     10  O   UNL     1       0.491  -1.085   4.116  1.00  0.00    -0.465 OA
ATOM     11  C   UNL     1      -0.031   0.180   4.147  1.00  0.00     0.113 A 
ATOM     12  C   UNL     1       0.546   1.048   5.199  1.00  0.00     0.088 C 
BRANCH   8  13
ATOM     13  C   UNL     1       0.317  -3.140   2.826  1.00  0.00     0.145 C 
BRANCH  13  14
ATOM     14  S   UNL     1      -0.505  -3.848   1.348  1.00  0.00    -0.149 SA
BRANCH  14  15
ATOM     15  C   UNL     1       0.600  -3.292   0.014  1.00  0.00     0.105 C 
BRANCH  15  16
ATOM     16  C   UNL     1       0.821  -1.806  -0.126  1.00  0.00    -0.038 A 
ATOM     17  C   UNL     1       3.607   0.756   0.452  1.00  0.00     0.044 C 
ATOM     18  C   UNL     1       2.293   0.135   0.091  1.00  0.00    -0.051 A 
ATOM     19  C   UNL     1       1.285   0.953  -0.405  1.00  0.00     0.006 A 
ATOM     20  C   UNL     1       2.051  -1.237   0.246  1.00  0.00     0.008 A 
ATOM     21  C   UNL     1       0.074   0.406  -0.819  1.00  0.00    -0.051 A 
ATOM     22  C   UNL     1      -0.948   1.333  -1.382  1.00  0.00     0.044 C 
ATOM     23  C   UNL     1      -0.162  -0.969  -0.674  1.00  0.00     0.008 A 
ENDBRANCH  15  16
ENDBRANCH  14  15
ENDBRANCH  13  14
ENDBRANCH   8  13
ENDBRANCH   4   7
ENDBRANCH   2   3
ENDBRANCH   1   2
BRANCH   1  24
ATOM     24  C   UNL     1      -4.915   2.155  -0.283  1.00  0.00     0.002 C 
BRANCH  24  25
ATOM     25  C   UNL     1      -4.227   2.243  -1.647  1.00  0.00     0.002 C 
BRANCH  25  26
ATOM     26  C   UNL     1      -4.235   0.993  -2.522  1.00  0.00     0.021 C 
BRANCH  26  27
ATOM     27  C   UNL     1      -5.604   0.527  -2.985  1.00  0.00     0.116 C 
BRANCH  27  28
ATOM     28  N   UNL     1      -6.277   1.504  -3.825  1.00  0.00    -0.352 N 
ATOM     29  C   UNL     1      -6.828   1.353  -5.075  1.00  0.00     0.251 C 
ATOM     30  H   UNL     1      -6.348   2.408  -3.442  1.00  0.00     0.163 HD
ATOM     31  O   UNL     1      -7.203   2.335  -5.705  1.00  0.00    -0.269 OA
BRANCH  29  32
ATOM     32  C   UNL     1      -6.952   0.003  -5.670  1.00  0.00     0.039 A 
ATOM     33  C   UNL     1      -6.677  -0.172  -7.029  1.00  0.00     0.014 A 
ATOM     34  C   UNL     1      -7.344  -1.086  -4.889  1.00  0.00     0.014 A 
ATOM     35  C   UNL     1      -6.737  -1.451  -7.588  1.00  0.00     0.010 A 
ATOM     36  C   UNL     1      -7.302  -2.368  -5.420  1.00  0.00     0.010 A 
ATOM     37  C   UNL     1      -7.016  -2.563  -6.779  1.00  0.00    -0.014 A 
BRANCH  37  38
ATOM     38  C   UNL     1      -7.058  -3.942  -7.325  1.00  0.00     0.031 A 
ATOM     39  C   UNL     1      -8.336  -4.732  -7.246  1.00  0.00     0.074 A 
ATOM     40  C   UNL     1      -5.935  -4.508  -7.807  1.00  0.00     0.049 A 
ATOM     41  N   UNL     1      -8.555  -5.987  -7.541  1.00  0.00    -0.248 NA
ATOM     42  C   UNL     1      -9.519  -4.024  -6.728  1.00  0.00     0.031 C 
ATOM     43  C   UNL     1      -4.627  -3.857  -7.895  1.00  0.00     0.029 A 
ATOM     44  N   UNL     1      -5.711  -5.769  -8.298  1.00  0.00    -0.354 N 
ATOM     45  C   UNL     1      -9.886  -6.223  -7.221  1.00  0.00     0.074 A 
ATOM     46  C   UNL     1     -10.409  -5.001  -6.652  1.00  0.00     0.031 C 
ATOM     47  C   UNL     1      -3.743  -4.715  -8.428  1.00  0.00     0.029 A 
ATOM     48  C   UNL     1      -4.408  -5.990  -8.675  1.00  0.00     0.049 A 
ATOM     49  H   UNL     1      -6.417  -6.452  -8.373  1.00  0.00     0.167 HD
ATOM     50  C   UNL     1     -10.616  -7.347  -7.411  1.00  0.00     0.037 A 
ATOM     51  C   UNL     1      -3.817  -7.102  -9.152  1.00  0.00     0.037 A 
ATOM     52  C   UNL     1     -10.094  -8.548  -8.006  1.00  0.00     0.049 A 
ATOM     53  C   UNL     1      -4.645  -8.342  -9.345  1.00  0.00     0.074 A 
ATOM     54  C   UNL     1     -10.758  -9.726  -8.297  1.00  0.00     0.029 A 
ATOM     55  N   UNL     1      -8.775  -8.723  -8.401  1.00  0.00    -0.354 N 
ATOM     56  N   UNL     1      -5.918  -8.534  -9.095  1.00  0.00    -0.248 NA
ATOM     57  C   UNL     1      -3.957  -9.520  -9.892  1.00  0.00     0.031 C 
ATOM     58  C   UNL     1      -9.831 -10.631  -8.820  1.00  0.00     0.029 A 
ATOM     59  C   UNL     1      -8.602  -9.997  -8.914  1.00  0.00     0.049 A 
ATOM     60  H   UNL     1      -8.068  -8.042  -8.328  1.00  0.00     0.167 HD
ATOM     61  C   UNL     1      -6.192  -9.838  -9.489  1.00  0.00     0.074 A 
ATOM     62  C   UNL     1      -4.954 -10.387 -10.001  1.00  0.00     0.031 C 
ATOM     63  C   UNL     1      -7.364 -10.518  -9.435  1.00  0.00     0.037 A 
BRANCH  50  64
ATOM     64  C   UNL     1     -12.052  -7.327  -6.971  1.00  0.00     0.057 A 
ATOM     65  C   UNL     1     -13.014  -6.537  -7.615  1.00  0.00     0.134 A 
ATOM     66  C   UNL     1     -12.486  -8.127  -5.907  1.00  0.00     0.134 A 
ATOM     67  F   UNL     1     -12.666  -5.736  -8.634  1.00  0.00    -0.206 F 
ATOM     68  C   UNL     1     -14.346  -6.518  -7.197  1.00  0.00     0.040 A 
ATOM     69  C   UNL     1     -13.821  -8.143  -5.500  1.00  0.00     0.040 A 
ATOM     70  F   UNL     1     -11.621  -8.913  -5.248  1.00  0.00    -0.206 F 
ATOM     71  C   UNL     1     -14.754  -7.330  -6.140  1.00  0.00     0.006 A 
ENDBRANCH  50  64
BRANCH  51  72
ATOM     72  C   UNL     1      -2.372  -7.087  -9.501  1.00  0.00     0.057 A 
ATOM     73  C   UNL     1      -1.951  -7.183 -10.833  1.00  0.00     0.134 A 
ATOM     74  C   UNL     1      -1.380  -6.984  -8.518  1.00  0.00     0.134 A 
ATOM     75  F   UNL     1      -2.852  -7.300 -11.819  1.00  0.00    -0.206 F 
ATOM     76  C   UNL     1      -0.597  -7.200 -11.174  1.00  0.00     0.040 A 
ATOM     77  C   UNL     1      -0.023  -6.971  -8.847  1.00  0.00     0.040 A 
ATOM     78  F   UNL     1      -1.716  -6.878  -7.224  1.00  0.00    -0.206 F 
ATOM     79  C   UNL     1       0.371  -7.089 -10.178  1.00  0.00     0.006 A 
ENDBRANCH  51  72
BRANCH  63  80
ATOM     80  C   UNL     1      -7.379 -11.911  -9.995  1.00  0.00     0.057 A 
ATOM     81  C   UNL     1      -6.750 -12.981  -9.348  1.00  0.00     0.134 A 
ATOM     82  C   UNL     1      -8.083 -12.190 -11.174  1.00  0.00     0.134 A 
ATOM     83  F   UNL     1      -6.049 -12.778  -8.222  1.00  0.00    -0.206 F 
ATOM     84  C   UNL     1      -6.802 -14.276  -9.865  1.00  0.00     0.040 A 
ATOM     85  C   UNL     1      -8.169 -13.486 -11.684  1.00  0.00     0.040 A 
ATOM     86  F   UNL     1      -8.718 -11.212 -11.837  1.00  0.00    -0.206 F 
ATOM     87  C   UNL     1      -7.521 -14.532 -11.031  1.00  0.00     0.006 A 
ENDBRANCH  63  80
ENDBRANCH  37  38
ENDBRANCH  29  32
ENDBRANCH  27  28
ENDBRANCH  26  27
ENDBRANCH  25  26
ENDBRANCH  24  25
ENDBRANCH   1  24
TORSDOF 17
