REMARK SMILES C[C@]12c3ccccc3[C@](C)(c3ccccc31)[C@@H]1C(=O)N(c3ccc(C(=O)NCCCCNC(=O)c4ccc(-c5c6nc(c(-c7c(F)cccc7F)c7ccc([nH]7)c(-c7c(F)cccc7F)c7nc(c(-c8c(F)cccc8F)c8ccc5[nH]8)C=C7)C=C6)cc4)cc3)C(=O)[C@H]12
REMARK SMILES IDX 30 1 29 2 28 3 27 4 25 5 26 6 24 8 21 9 22 10 90 11 23 12
REMARK SMILES IDX 89 13 20 14 1 15 2 16 16 17 3 18 93 19 15 20 11 21 8 22 4 23
REMARK SMILES IDX 17 24 91 25 14 26 12 27 9 28 7 29 5 30 18 31 92 32 13 33
REMARK SMILES IDX 10 34 6 35 19 36 31 37 32 38 33 39 34 41 35 42 36 43 88 44
REMARK SMILES IDX 37 45 87 46 38 47 39 48 40 49 81 50 41 51 86 52 80 53 82 54
REMARK SMILES IDX 42 55 85 56 79 57 78 58 43 60 69 61 52 62 68 63 53 64 56 65
REMARK SMILES IDX 67 66 83 67 54 68 55 69 66 71 84 72 57 73 44 74 45 75 50 76
REMARK SMILES IDX 46 77 47 78 49 79 51 80 48 81 70 82 71 83 76 84 72 85 73 86
REMARK SMILES IDX 75 87 77 88 74 89 58 90 59 91 64 92 60 93 61 94 63 95 65 96
REMARK SMILES IDX 62 97
REMARK H PARENT 27 7 32 40 82 59 56 70
REMARK Flexibility Score: inf
ROOT
ATOM      1  C   UNL     1      -0.596   2.103 -11.211  1.00  0.00     0.023 C 
ENDROOT
BRANCH   1   2
ATOM      2  C   UNL     1      -0.671   1.803  -9.720  1.00  0.00     0.023 C 
BRANCH   2   3
ATOM      3  C   UNL     1      -1.109   0.393  -9.343  1.00  0.00     0.116 C 
BRANCH   3   4
ATOM      4  N   UNL     1      -0.235  -0.659  -9.839  1.00  0.00    -0.352 N 
ATOM      5  C   UNL     1       0.267  -1.769  -9.197  1.00  0.00     0.251 C 
ATOM      6  O   UNL     1       1.020  -2.527  -9.802  1.00  0.00    -0.269 OA
ATOM      7  H   UNL     1       0.040  -0.562 -10.779  1.00  0.00     0.163 HD
BRANCH   5   8
ATOM      8  C   UNL     1      -0.029  -2.019  -7.766  1.00  0.00     0.039 A 
ATOM      9  C   UNL     1      -0.394  -2.124  -4.985  1.00  0.00     0.052 A 
ATOM     10  C   UNL     1       0.850  -2.432  -5.550  1.00  0.00     0.027 A 
ATOM     11  C   UNL     1      -1.482  -1.889  -5.837  1.00  0.00     0.027 A 
ATOM     12  C   UNL     1       1.029  -2.397  -6.935  1.00  0.00     0.016 A 
ATOM     13  C   UNL     1      -1.303  -1.849  -7.221  1.00  0.00     0.016 A 
BRANCH   9  14
ATOM     14  N   UNL     1      -0.541  -1.979  -3.588  1.00  0.00    -0.250 N 
ATOM     15  C   UNL     1       1.823  -0.785   0.079  1.00  0.00     0.022 C 
ATOM     16  C   UNL     1       0.329  -1.087  -0.012  1.00  0.00     0.030 C 
ATOM     17  C   UNL     1      -0.603   0.097   0.367  1.00  0.00    -0.033 A 
ATOM     18  C   UNL     1      -0.166  -2.257   0.899  1.00  0.00    -0.033 A 
ATOM     19  C   UNL     1      -0.060  -1.711  -1.374  1.00  0.00     0.108 C 
ATOM     20  C   UNL     1      -0.196   1.354   0.808  1.00  0.00     0.005 A 
ATOM     21  C   UNL     1      -2.005  -0.217   0.329  1.00  0.00    -0.033 A 
ATOM     22  C   UNL     1      -1.551  -2.594   0.688  1.00  0.00    -0.033 A 
ATOM     23  C   UNL     1       0.619  -3.002   1.774  1.00  0.00     0.005 A 
ATOM     24  C   UNL     1      -1.554  -1.484  -1.607  1.00  0.00     0.108 C 
ATOM     25  C   UNL     1       0.457  -1.453  -2.752  1.00  0.00     0.238 C 
ATOM     26  C   UNL     1      -1.160   2.280   1.220  1.00  0.00     0.000 A 
ATOM     27  C   UNL     1      -2.953   0.710   0.756  1.00  0.00     0.005 A 
ATOM     28  C   UNL     1      -2.304  -1.629  -0.262  1.00  0.00     0.030 C 
ATOM     29  C   UNL     1      -2.102  -3.682   1.357  1.00  0.00     0.005 A 
ATOM     30  C   UNL     1       0.045  -4.088   2.433  1.00  0.00     0.000 A 
ATOM     31  C   UNL     1      -1.730  -2.224  -2.891  1.00  0.00     0.238 C 
ATOM     32  O   UNL     1       1.536  -0.970  -3.032  1.00  0.00    -0.274 OA
ATOM     33  C   UNL     1      -2.522   1.957   1.205  1.00  0.00     0.000 A 
ATOM     34  C   UNL     1      -3.787  -1.931  -0.467  1.00  0.00     0.022 C 
ATOM     35  C   UNL     1      -1.298  -4.427   2.223  1.00  0.00     0.000 A 
ATOM     36  O   UNL     1      -2.748  -2.785  -3.260  1.00  0.00    -0.274 OA
ENDBRANCH   9  14
ENDBRANCH   5   8
ENDBRANCH   3   4
ENDBRANCH   2   3
ENDBRANCH   1   2
BRANCH   1  37
ATOM     37  C   UNL     1      -1.829   1.725 -12.018  1.00  0.00     0.116 C 
BRANCH  37  38
ATOM     38  N   UNL     1      -3.045   2.420 -11.609  1.00  0.00    -0.352 N 
ATOM     39  C   UNL     1      -3.897   3.207 -12.355  1.00  0.00     0.251 C 
ATOM     40  H   UNL     1      -3.293   2.311 -10.663  1.00  0.00     0.163 HD
ATOM     41  O   UNL     1      -4.839   3.787 -11.825  1.00  0.00    -0.269 OA
BRANCH  39  42
ATOM     42  C   UNL     1      -3.625   3.392 -13.795  1.00  0.00     0.039 A 
ATOM     43  C   UNL     1      -3.323   2.291 -14.593  1.00  0.00     0.014 A 
ATOM     44  C   UNL     1      -3.555   4.685 -14.318  1.00  0.00     0.014 A 
ATOM     45  C   UNL     1      -2.705   2.493 -15.819  1.00  0.00     0.010 A 
ATOM     46  C   UNL     1      -3.047   4.878 -15.606  1.00  0.00     0.010 A 
ATOM     47  C   UNL     1      -2.544   3.790 -16.336  1.00  0.00    -0.014 A 
BRANCH  47  48
ATOM     48  C   UNL     1      -1.816   3.977 -17.620  1.00  0.00     0.031 A 
ATOM     49  C   UNL     1      -0.546   4.787 -17.682  1.00  0.00     0.074 A 
ATOM     50  C   UNL     1      -2.271   3.361 -18.728  1.00  0.00     0.049 A 
ATOM     51  N   UNL     1       0.213   5.057 -18.716  1.00  0.00    -0.248 NA
ATOM     52  C   UNL     1      -0.066   5.376 -16.423  1.00  0.00     0.031 C 
ATOM     53  C   UNL     1      -3.476   2.532 -18.798  1.00  0.00     0.029 A 
ATOM     54  N   UNL     1      -1.765   3.319 -20.002  1.00  0.00    -0.354 N 
ATOM     55  C   UNL     1       1.239   5.866 -18.239  1.00  0.00     0.074 A 
ATOM     56  C   UNL     1       0.987   6.070 -16.828  1.00  0.00     0.031 C 
ATOM     57  C   UNL     1      -3.591   2.026 -20.033  1.00  0.00     0.029 A 
ATOM     58  C   UNL     1      -2.518   2.559 -20.863  1.00  0.00     0.049 A 
ATOM     59  H   UNL     1      -0.942   3.787 -20.272  1.00  0.00     0.167 HD
ATOM     60  C   UNL     1       2.297   6.384 -18.911  1.00  0.00     0.037 A 
ATOM     61  C   UNL     1      -2.384   2.342 -22.183  1.00  0.00     0.037 A 
ATOM     62  C   UNL     1       2.550   6.169 -20.313  1.00  0.00     0.049 A 
ATOM     63  C   UNL     1      -1.242   2.983 -22.917  1.00  0.00     0.074 A 
ATOM     64  C   UNL     1       3.610   6.625 -21.080  1.00  0.00     0.029 A 
ATOM     65  N   UNL     1       1.729   5.443 -21.164  1.00  0.00    -0.354 N 
ATOM     66  N   UNL     1      -0.273   3.731 -22.449  1.00  0.00    -0.248 NA
ATOM     67  C   UNL     1      -1.183   2.755 -24.366  1.00  0.00     0.031 C 
ATOM     68  C   UNL     1       3.395   6.229 -22.405  1.00  0.00     0.029 A 
ATOM     69  C   UNL     1       2.238   5.470 -22.453  1.00  0.00     0.049 A 
ATOM     70  H   UNL     1       0.906   4.977 -20.891  1.00  0.00     0.167 HD
ATOM     71  C   UNL     1       0.522   4.049 -23.542  1.00  0.00     0.074 A 
ATOM     72  C   UNL     1      -0.066   3.390 -24.690  1.00  0.00     0.031 C 
ATOM     73  C   UNL     1       1.637   4.819 -23.591  1.00  0.00     0.037 A 
BRANCH  60  74
ATOM     74  C   UNL     1       3.240   7.270 -18.142  1.00  0.00     0.057 A 
ATOM     75  C   UNL     1       3.314   8.642 -18.422  1.00  0.00     0.134 A 
ATOM     76  C   UNL     1       4.085   6.774 -17.139  1.00  0.00     0.134 A 
ATOM     77  F   UNL     1       2.544   9.185 -19.377  1.00  0.00    -0.206 F 
ATOM     78  C   UNL     1       4.184   9.486 -17.729  1.00  0.00     0.040 A 
ATOM     79  C   UNL     1       4.937   7.614 -16.418  1.00  0.00     0.040 A 
ATOM     80  F   UNL     1       4.062   5.473 -16.813  1.00  0.00    -0.206 F 
ATOM     81  C   UNL     1       4.990   8.974 -16.715  1.00  0.00     0.006 A 
ENDBRANCH  60  74
BRANCH  61  82
ATOM     82  C   UNL     1      -3.381   1.508 -22.900  1.00  0.00     0.057 A 
ATOM     83  C   UNL     1      -4.707   1.932 -23.053  1.00  0.00     0.134 A 
ATOM     84  C   UNL     1      -3.031   0.272 -23.454  1.00  0.00     0.134 A 
ATOM     85  F   UNL     1      -5.108   3.103 -22.537  1.00  0.00    -0.206 F 
ATOM     86  C   UNL     1      -5.652   1.153 -23.721  1.00  0.00     0.040 A 
ATOM     87  C   UNL     1      -3.957  -0.502 -24.153  1.00  0.00     0.040 A 
ATOM     88  F   UNL     1      -1.772  -0.180 -23.355  1.00  0.00    -0.206 F 
ATOM     89  C   UNL     1      -5.274  -0.064 -24.282  1.00  0.00     0.006 A 
ENDBRANCH  61  82
BRANCH  73  90
ATOM     90  C   UNL     1       2.304   4.963 -24.929  1.00  0.00     0.057 A 
ATOM     91  C   UNL     1       3.548   4.365 -25.173  1.00  0.00     0.134 A 
ATOM     92  C   UNL     1       1.724   5.695 -25.973  1.00  0.00     0.134 A 
ATOM     93  F   UNL     1       4.164   3.656 -24.216  1.00  0.00    -0.206 F 
ATOM     94  C   UNL     1       4.188   4.489 -26.407  1.00  0.00     0.040 A 
ATOM     95  C   UNL     1       2.339   5.799 -27.222  1.00  0.00     0.040 A 
ATOM     96  F   UNL     1       0.526   6.278 -25.811  1.00  0.00    -0.206 F 
ATOM     97  C   UNL     1       3.578   5.199 -27.439  1.00  0.00     0.006 A 
ENDBRANCH  73  90
ENDBRANCH  47  48
ENDBRANCH  39  42
ENDBRANCH  37  38
ENDBRANCH   1  37
TORSDOF 12
