REMARK SMILES O=C(NCCCCNC(=O)[C@@H](Cc1ccccc1Br)CC(F)(F)F)c1ccc(-c2c3nc(c(-c4c(F)cccc4F)c4ccc([nH]4)c(-c4c(F)cccc4F)c4nc(c(-c5c(F)cccc5F)c5ccc2[nH]5)C=C4)C=C3)cc1
REMARK SMILES IDX 5 1 4 2 3 3 1 4 2 5 25 7 26 8 78 9 27 10 77 11 28 12 29 13
REMARK SMILES IDX 30 14 71 15 31 16 76 17 70 18 72 19 32 20 75 21 69 22 68 23
REMARK SMILES IDX 33 25 59 26 42 27 58 28 43 29 46 30 57 31 73 32 44 33 45 34
REMARK SMILES IDX 56 36 74 37 47 38 34 39 35 40 40 41 36 42 37 43 39 44 41 45
REMARK SMILES IDX 38 46 60 47 61 48 66 49 62 50 63 51 65 52 67 53 64 54 48 55
REMARK SMILES IDX 49 56 54 57 50 58 51 59 53 60 55 61 52 62 6 63 7 64 8 65
REMARK SMILES IDX 9 66 10 68 11 69 12 70 13 71 14 72 18 73 15 74 17 75 19 76
REMARK SMILES IDX 16 77 20 78 21 79 22 80 23 81 24 82
REMARK H PARENT 3 6 72 24 46 35 8 67
REMARK Flexibility Score: inf
ROOT
ATOM      1  C   UNL     1       5.546  -1.525   0.898  1.00  0.00     0.023 C 
ENDROOT
BRANCH   1   2
ATOM      2  C   UNL     1       4.859  -0.891  -0.298  1.00  0.00     0.116 C 
BRANCH   2   3
ATOM      3  N   UNL     1       3.400  -0.888  -0.199  1.00  0.00    -0.352 N 
ATOM      4  O   UNL     1       1.326  -0.018   0.047  1.00  0.00    -0.269 OA
ATOM      5  C   UNL     1       2.520   0.170  -0.166  1.00  0.00     0.251 C 
ATOM      6  H   UNL     1       2.983  -1.779  -0.149  1.00  0.00     0.163 HD
BRANCH   5   7
ATOM      7  C   UNL     1       3.039   1.539  -0.350  1.00  0.00     0.039 A 
ATOM      8  C   UNL     1       4.003   1.781  -1.324  1.00  0.00     0.014 A 
ATOM      9  C   UNL     1       2.627   2.564   0.505  1.00  0.00     0.014 A 
ATOM     10  C   UNL     1       4.736   2.951  -1.272  1.00  0.00     0.010 A 
ATOM     11  C   UNL     1       3.263   3.808   0.444  1.00  0.00     0.010 A 
ATOM     12  C   UNL     1       4.361   3.994  -0.409  1.00  0.00    -0.014 A 
BRANCH  12  13
ATOM     13  C   UNL     1       5.118   5.270  -0.478  1.00  0.00     0.031 A 
ATOM     14  C   UNL     1       5.844   5.824   0.716  1.00  0.00     0.074 A 
ATOM     15  C   UNL     1       5.208   5.886  -1.674  1.00  0.00     0.049 A 
ATOM     16  N   UNL     1       6.557   6.919   0.805  1.00  0.00    -0.248 NA
ATOM     17  C   UNL     1       5.754   5.068   1.975  1.00  0.00     0.031 C 
ATOM     18  C   UNL     1       4.543   5.439  -2.903  1.00  0.00     0.029 A 
ATOM     19  N   UNL     1       5.929   6.980  -2.073  1.00  0.00    -0.354 N 
ATOM     20  C   UNL     1       6.958   7.009   2.132  1.00  0.00     0.074 A 
ATOM     21  C   UNL     1       6.410   5.858   2.815  1.00  0.00     0.031 C 
ATOM     22  C   UNL     1       4.967   6.183  -3.931  1.00  0.00     0.029 A 
ATOM     23  C   UNL     1       5.845   7.226  -3.422  1.00  0.00     0.049 A 
ATOM     24  H   UNL     1       6.456   7.536  -1.454  1.00  0.00     0.167 HD
ATOM     25  C   UNL     1       7.712   7.969   2.720  1.00  0.00     0.037 A 
ATOM     26  C   UNL     1       6.393   8.198  -4.171  1.00  0.00     0.037 A 
ATOM     27  C   UNL     1       8.290   9.088   2.018  1.00  0.00     0.049 A 
ATOM     28  C   UNL     1       7.233   9.236  -3.496  1.00  0.00     0.074 A 
ATOM     29  C   UNL     1       9.086  10.103   2.519  1.00  0.00     0.029 A 
ATOM     30  N   UNL     1       8.141   9.330   0.660  1.00  0.00    -0.354 N 
ATOM     31  N   UNL     1       7.577   9.321  -2.234  1.00  0.00    -0.248 NA
ATOM     32  C   UNL     1       7.736  10.326  -4.338  1.00  0.00     0.031 C 
ATOM     33  C   UNL     1       9.393  10.977   1.470  1.00  0.00     0.029 A 
ATOM     34  C   UNL     1       8.819  10.486   0.309  1.00  0.00     0.049 A 
ATOM     35  H   UNL     1       7.630   8.764   0.038  1.00  0.00     0.167 HD
ATOM     36  C   UNL     1       8.331  10.479  -2.126  1.00  0.00     0.074 A 
ATOM     37  C   UNL     1       8.422  11.043  -3.459  1.00  0.00     0.031 C 
ATOM     38  C   UNL     1       8.886  11.033  -1.022  1.00  0.00     0.037 A 
BRANCH  25  39
ATOM     39  C   UNL     1       7.935   7.873   4.202  1.00  0.00     0.057 A 
ATOM     40  C   UNL     1       8.812   6.939   4.765  1.00  0.00     0.134 A 
ATOM     41  C   UNL     1       7.296   8.766   5.073  1.00  0.00     0.134 A 
ATOM     42  F   UNL     1       9.445   6.046   3.989  1.00  0.00    -0.206 F 
ATOM     43  C   UNL     1       9.035   6.886   6.144  1.00  0.00     0.040 A 
ATOM     44  C   UNL     1       7.527   8.737   6.450  1.00  0.00     0.040 A 
ATOM     45  F   UNL     1       6.447   9.690   4.598  1.00  0.00    -0.206 F 
ATOM     46  C   UNL     1       8.397   7.793   6.989  1.00  0.00     0.006 A 
ENDBRANCH  25  39
BRANCH  26  47
ATOM     47  C   UNL     1       6.128   8.238  -5.629  1.00  0.00     0.057 A 
ATOM     48  C   UNL     1       7.136   7.956  -6.557  1.00  0.00     0.134 A 
ATOM     49  C   UNL     1       4.847   8.509  -6.128  1.00  0.00     0.134 A 
ATOM     50  F   UNL     1       8.385   7.703  -6.140  1.00  0.00    -0.206 F 
ATOM     51  C   UNL     1       6.880   7.944  -7.929  1.00  0.00     0.040 A 
ATOM     52  C   UNL     1       4.571   8.472  -7.494  1.00  0.00     0.040 A 
ATOM     53  F   UNL     1       3.836   8.775  -5.288  1.00  0.00    -0.206 F 
ATOM     54  C   UNL     1       5.592   8.192  -8.400  1.00  0.00     0.006 A 
ENDBRANCH  26  47
BRANCH  38  55
ATOM     55  C   UNL     1       9.640  12.310  -1.223  1.00  0.00     0.057 A 
ATOM     56  C   UNL     1       8.976  13.525  -1.438  1.00  0.00     0.134 A 
ATOM     57  C   UNL     1      11.039  12.327  -1.196  1.00  0.00     0.134 A 
ATOM     58  F   UNL     1       7.636  13.567  -1.492  1.00  0.00    -0.206 F 
ATOM     59  C   UNL     1       9.681  14.711  -1.641  1.00  0.00     0.040 A 
ATOM     60  C   UNL     1      11.754  13.510  -1.377  1.00  0.00     0.040 A 
ATOM     61  F   UNL     1      11.729  11.195  -0.992  1.00  0.00    -0.206 F 
ATOM     62  C   UNL     1      11.075  14.706  -1.607  1.00  0.00     0.006 A 
ENDBRANCH  38  55
ENDBRANCH  12  13
ENDBRANCH   5   7
ENDBRANCH   2   3
ENDBRANCH   1   2
BRANCH   1  63
ATOM     63  C   UNL     1       5.163  -2.974   1.116  1.00  0.00     0.023 C 
BRANCH  63  64
ATOM     64  C   UNL     1       5.612  -3.927   0.018  1.00  0.00     0.116 C 
BRANCH  64  65
ATOM     65  N   UNL     1       6.913  -4.476   0.322  1.00  0.00    -0.356 N 
ATOM     66  C   UNL     1       7.298  -5.708   0.723  1.00  0.00     0.223 C 
ATOM     67  H   UNL     1       7.654  -3.836   0.218  1.00  0.00     0.163 HD
ATOM     68  O   UNL     1       8.483  -5.845   1.044  1.00  0.00    -0.275 OA
BRANCH  66  69
ATOM     69  C   UNL     1       6.363  -6.914   0.780  1.00  0.00     0.092 C 
BRANCH  69  70
ATOM     70  C   UNL     1       5.577  -7.052   2.106  1.00  0.00     0.050 C 
BRANCH  70  71
ATOM     71  C   UNL     1       4.447  -6.102   2.447  1.00  0.00    -0.033 A 
ATOM     72  C   UNL     1       3.246  -6.179   1.714  1.00  0.00     0.005 A 
ATOM     73  C   UNL     1       4.494  -5.186   3.518  1.00  0.00     0.021 A 
ATOM     74  C   UNL     1       2.168  -5.330   1.984  1.00  0.00     0.000 A 
ATOM     75  C   UNL     1       3.407  -4.341   3.792  1.00  0.00     0.016 A 
ATOM     76  Br  UNL     1       6.016  -4.979   4.641  1.00  0.00    -0.051 Br
ATOM     77  C   UNL     1       2.251  -4.403   3.017  1.00  0.00     0.001 A 
ENDBRANCH  70  71
ENDBRANCH  69  70
BRANCH  69  78
ATOM     78  C   UNL     1       5.584  -7.250  -0.499  1.00  0.00     0.129 C 
BRANCH  78  79
ATOM     79  C   UNL     1       6.447  -7.271  -1.746  1.00  0.00     0.389 C 
ATOM     80  F   UNL     1       7.502  -8.097  -1.607  1.00  0.00    -0.171 F 
ATOM     81  F   UNL     1       5.716  -7.714  -2.796  1.00  0.00    -0.171 F 
ATOM     82  F   UNL     1       6.902  -6.045  -2.071  1.00  0.00    -0.171 F 
ENDBRANCH  78  79
ENDBRANCH  69  78
ENDBRANCH  66  69
ENDBRANCH  64  65
ENDBRANCH  63  64
ENDBRANCH   1  63
TORSDOF 15
