REMARK SMILES O=C(NCCCCNC(=O)c1ccc2nc(-c3c[nH]nc3-c3ccc(F)cc3F)[nH]c2c1)c1ccc(-c2c3nc(c(-c4c(F)cccc4F)c4ccc([nH]4)c(-c4c(F)cccc4F)c4nc(c(-c5c(F)cccc5F)c5ccc2[nH]5)C=C4)C=C3)cc1
REMARK SMILES IDX 5 1 4 2 3 3 1 4 2 5 33 7 34 8 86 9 35 10 85 11 36 12 37 13
REMARK SMILES IDX 38 14 79 15 39 16 84 17 78 18 80 19 40 20 83 21 77 22 76 23
REMARK SMILES IDX 41 25 67 26 50 27 66 28 51 29 54 30 65 31 81 32 52 33 53 34
REMARK SMILES IDX 64 36 82 37 55 38 42 39 43 40 48 41 44 42 45 43 47 44 49 45
REMARK SMILES IDX 46 46 68 47 69 48 74 49 70 50 71 51 73 52 75 53 72 54 56 55
REMARK SMILES IDX 57 56 62 57 58 58 59 59 61 60 63 61 60 62 6 63 7 64 8 65
REMARK SMILES IDX 9 66 10 68 11 69 12 70 32 71 13 72 31 73 14 74 30 75 15 76
REMARK SMILES IDX 16 77 17 79 18 80 21 81 19 82 20 83 22 85 23 86 28 87 24 88
REMARK SMILES IDX 27 89 29 90 25 91 26 92
REMARK H PARENT 3 6 80 24 54 35 8 67 30 78 19 84
REMARK Flexibility Score: inf
ROOT
ATOM      1  C   UNL     1       4.830  -1.354  -2.195  1.00  0.00     0.023 C 
ENDROOT
BRANCH   1   2
ATOM      2  C   UNL     1       4.521  -0.230  -1.215  1.00  0.00     0.116 C 
BRANCH   2   3
ATOM      3  N   UNL     1       3.095   0.000  -1.048  1.00  0.00    -0.352 N 
ATOM      4  O   UNL     1       1.125   0.104   0.048  1.00  0.00    -0.269 OA
ATOM      5  C   UNL     1       2.349   0.030   0.105  1.00  0.00     0.251 C 
ATOM      6  H   UNL     1       2.592   0.157  -1.880  1.00  0.00     0.163 HD
BRANCH   5   7
ATOM      7  C   UNL     1       3.022  -0.057   1.418  1.00  0.00     0.039 A 
ATOM      8  C   UNL     1       4.159   0.708   1.689  1.00  0.00     0.014 A 
ATOM      9  C   UNL     1       2.509  -0.921   2.390  1.00  0.00     0.014 A 
ATOM     10  C   UNL     1       4.862   0.503   2.870  1.00  0.00     0.010 A 
ATOM     11  C   UNL     1       3.171  -1.064   3.612  1.00  0.00     0.010 A 
ATOM     12  C   UNL     1       4.370  -0.376   3.850  1.00  0.00    -0.014 A 
BRANCH  12  13
ATOM     13  C   UNL     1       5.100  -0.510   5.135  1.00  0.00     0.031 A 
ATOM     14  C   UNL     1       5.764  -1.800   5.524  1.00  0.00     0.074 A 
ATOM     15  C   UNL     1       5.197   0.570   5.934  1.00  0.00     0.049 A 
ATOM     16  N   UNL     1       6.458  -2.075   6.600  1.00  0.00    -0.248 NA
ATOM     17  C   UNL     1       5.635  -2.930   4.591  1.00  0.00     0.031 C 
ATOM     18  C   UNL     1       4.597   1.878   5.656  1.00  0.00     0.029 A 
ATOM     19  N   UNL     1       5.856   0.753   7.122  1.00  0.00    -0.354 N 
ATOM     20  C   UNL     1       6.840  -3.404   6.479  1.00  0.00     0.074 A 
ATOM     21  C   UNL     1       6.279  -3.893   5.238  1.00  0.00     0.031 C 
ATOM     22  C   UNL     1       4.965   2.742   6.613  1.00  0.00     0.029 A 
ATOM     23  C   UNL     1       5.771   2.037   7.603  1.00  0.00     0.049 A 
ATOM     24  H   UNL     1       6.343   0.034   7.586  1.00  0.00     0.167 HD
ATOM     25  C   UNL     1       7.599  -4.144   7.323  1.00  0.00     0.037 A 
ATOM     26  C   UNL     1       6.276   2.586   8.722  1.00  0.00     0.037 A 
ATOM     27  C   UNL     1       8.165  -3.650   8.553  1.00  0.00     0.049 A 
ATOM     28  C   UNL     1       7.076   1.731   9.659  1.00  0.00     0.074 A 
ATOM     29  C   UNL     1       8.952  -4.324   9.471  1.00  0.00     0.029 A 
ATOM     30  N   UNL     1       8.008  -2.358   9.033  1.00  0.00    -0.354 N 
ATOM     31  N   UNL     1       7.425   0.474   9.531  1.00  0.00    -0.248 NA
ATOM     32  C   UNL     1       7.541   2.364  10.900  1.00  0.00     0.031 C 
ATOM     33  C   UNL     1       9.242  -3.451  10.524  1.00  0.00     0.029 A 
ATOM     34  C   UNL     1       8.671  -2.221  10.242  1.00  0.00     0.049 A 
ATOM     35  H   UNL     1       7.502  -1.645   8.582  1.00  0.00     0.167 HD
ATOM     36  C   UNL     1       8.158   0.168  10.668  1.00  0.00     0.074 A 
ATOM     37  C   UNL     1       8.221   1.376  11.465  1.00  0.00     0.031 C 
ATOM     38  C   UNL     1       8.723  -1.011  11.022  1.00  0.00     0.037 A 
BRANCH  25  39
ATOM     39  C   UNL     1       7.865  -5.574   6.955  1.00  0.00     0.057 A 
ATOM     40  C   UNL     1       7.268  -6.621   7.669  1.00  0.00     0.134 A 
ATOM     41  C   UNL     1       8.775  -5.915   5.947  1.00  0.00     0.134 A 
ATOM     42  F   UNL     1       6.393  -6.362   8.653  1.00  0.00    -0.206 F 
ATOM     43  C   UNL     1       7.575  -7.956   7.401  1.00  0.00     0.040 A 
ATOM     44  C   UNL     1       9.075  -7.248   5.656  1.00  0.00     0.040 A 
ATOM     45  F   UNL     1       9.374  -4.960   5.220  1.00  0.00    -0.206 F 
ATOM     46  C   UNL     1       8.481  -8.272   6.391  1.00  0.00     0.006 A 
ENDBRANCH  25  39
BRANCH  26  47
ATOM     47  C   UNL     1       6.039   4.022   9.007  1.00  0.00     0.057 A 
ATOM     48  C   UNL     1       4.765   4.503   9.334  1.00  0.00     0.134 A 
ATOM     49  C   UNL     1       7.080   4.953   8.927  1.00  0.00     0.134 A 
ATOM     50  F   UNL     1       3.725   3.660   9.417  1.00  0.00    -0.206 F 
ATOM     51  C   UNL     1       4.530   5.860   9.551  1.00  0.00     0.040 A 
ATOM     52  C   UNL     1       6.865   6.311   9.167  1.00  0.00     0.040 A 
ATOM     53  F   UNL     1       8.325   4.550   8.634  1.00  0.00    -0.206 F 
ATOM     54  C   UNL     1       5.584   6.768   9.472  1.00  0.00     0.006 A 
ENDBRANCH  26  47
BRANCH  38  55
ATOM     55  C   UNL     1       9.470  -1.048  12.320  1.00  0.00     0.057 A 
ATOM     56  C   UNL     1      10.869  -1.113  12.338  1.00  0.00     0.134 A 
ATOM     57  C   UNL     1       8.802  -1.069  13.550  1.00  0.00     0.134 A 
ATOM     58  F   UNL     1      11.566  -1.103  11.192  1.00  0.00    -0.206 F 
ATOM     59  C   UNL     1      11.577  -1.204  13.537  1.00  0.00     0.040 A 
ATOM     60  C   UNL     1       9.500  -1.139  14.756  1.00  0.00     0.040 A 
ATOM     61  F   UNL     1       7.463  -0.997  13.598  1.00  0.00    -0.206 F 
ATOM     62  C   UNL     1      10.892  -1.214  14.750  1.00  0.00     0.006 A 
ENDBRANCH  38  55
ENDBRANCH  12  13
ENDBRANCH   5   7
ENDBRANCH   2   3
ENDBRANCH   1   2
BRANCH   1  63
ATOM     63  C   UNL     1       4.339  -1.125  -3.624  1.00  0.00     0.023 C 
BRANCH  63  64
ATOM     64  C   UNL     1       4.749   0.211  -4.239  1.00  0.00     0.116 C 
BRANCH  64  65
ATOM     65  N   UNL     1       6.193   0.371  -4.278  1.00  0.00    -0.352 N 
ATOM     66  C   UNL     1       7.005   0.505  -5.373  1.00  0.00     0.251 C 
ATOM     67  H   UNL     1       6.646   0.384  -3.405  1.00  0.00     0.163 HD
ATOM     68  O   UNL     1       8.225   0.468  -5.266  1.00  0.00    -0.269 OA
BRANCH  66  69
ATOM     69  C   UNL     1       6.388   0.683  -6.698  1.00  0.00     0.042 A 
ATOM     70  C   UNL     1       5.616   1.826  -6.951  1.00  0.00     0.016 A 
ATOM     71  C   UNL     1       6.605  -0.306  -7.667  1.00  0.00     0.042 A 
ATOM     72  C   UNL     1       5.031   2.015  -8.205  1.00  0.00     0.031 A 
ATOM     73  C   UNL     1       5.985  -0.097  -8.898  1.00  0.00     0.067 A 
ATOM     74  C   UNL     1       5.244   1.043  -9.193  1.00  0.00     0.089 A 
ATOM     75  N   UNL     1       5.924  -0.843 -10.049  1.00  0.00    -0.338 N 
ATOM     76  N   UNL     1       4.846   1.038 -10.499  1.00  0.00    -0.228 NA
ATOM     77  C   UNL     1       5.277  -0.100 -11.001  1.00  0.00     0.142 A 
ATOM     78  H   UNL     1       6.282  -1.753 -10.168  1.00  0.00     0.168 HD
BRANCH  77  79
ATOM     79  C   UNL     1       5.123  -0.476 -12.422  1.00  0.00     0.063 A 
ATOM     80  C   UNL     1       5.054  -1.749 -12.934  1.00  0.00     0.117 A 
ATOM     81  C   UNL     1       5.045   0.400 -13.541  1.00  0.00     0.106 A 
ATOM     82  N   UNL     1       4.850  -1.583 -14.274  1.00  0.00    -0.284 N 
ATOM     83  N   UNL     1       4.889  -0.303 -14.675  1.00  0.00    -0.175 NA
ATOM     84  H   UNL     1       4.688  -2.334 -14.889  1.00  0.00     0.189 HD
BRANCH  81  85
ATOM     85  C   UNL     1       5.268   1.841 -13.559  1.00  0.00     0.039 A 
ATOM     86  C   UNL     1       6.452   2.362 -13.003  1.00  0.00     0.016 A 
ATOM     87  C   UNL     1       4.338   2.725 -14.110  1.00  0.00     0.135 A 
ATOM     88  C   UNL     1       6.684   3.737 -12.990  1.00  0.00     0.040 A 
ATOM     89  C   UNL     1       4.568   4.100 -14.106  1.00  0.00     0.079 A 
ATOM     90  F   UNL     1       3.188   2.277 -14.637  1.00  0.00    -0.206 F 
ATOM     91  C   UNL     1       5.739   4.592 -13.543  1.00  0.00     0.126 A 
ATOM     92  F   UNL     1       5.962   5.913 -13.530  1.00  0.00    -0.207 F 
ENDBRANCH  81  85
ENDBRANCH  77  79
ENDBRANCH  66  69
ENDBRANCH  64  65
ENDBRANCH  63  64
ENDBRANCH   1  63
TORSDOF 13
