REMARK SMILES CC1(C)CN(C(=O)NC[C@H]2CC[C@@H](C(=O)NCCCCNC(=O)c3ccc(-c4c5nc(c(-c6c(F)cccc6F)c6ccc([nH]6)c(-c6c(F)cccc6F)c6nc(c(-c7c(F)cccc7F)c7ccc4[nH]7)C=C6)C=C5)cc3)CC2)CCO1
REMARK SMILES IDX 18 1 17 2 16 3 14 4 15 5 13 7 10 8 11 9 79 10 12 11 78 12
REMARK SMILES IDX 9 13 8 14 6 15 7 16 5 18 1 19 2 20 3 21 4 22 82 23 81 24
REMARK SMILES IDX 80 25 19 26 20 27 21 28 22 29 23 31 24 32 25 33 77 34 26 35
REMARK SMILES IDX 76 36 27 37 28 38 29 39 70 40 30 41 75 42 69 43 71 44 31 45
REMARK SMILES IDX 74 46 68 47 67 48 32 50 58 51 41 52 57 53 42 54 45 55 56 56
REMARK SMILES IDX 72 57 43 58 44 59 55 61 73 62 46 63 33 64 34 65 39 66 35 67
REMARK SMILES IDX 36 68 38 69 40 70 37 71 59 72 60 73 65 74 61 75 62 76 64 77
REMARK SMILES IDX 66 78 63 79 47 80 48 81 53 82 49 83 50 84 52 85 54 86 51 87
REMARK H PARENT 16 6 8 17 21 30 71 49 45 60
REMARK Flexibility Score: inf
ROOT
ATOM      1  C   UNL     1       2.765   4.514   1.247  1.00  0.00     0.023 C 
ENDROOT
BRANCH   1   2
ATOM      2  C   UNL     1       1.296   4.768   0.907  1.00  0.00     0.116 C 
BRANCH   2   3
ATOM      3  N   UNL     1       0.909   6.152   1.095  1.00  0.00    -0.356 N 
ATOM      4  C   UNL     1       0.589   7.121   0.197  1.00  0.00     0.223 C 
ATOM      5  O   UNL     1       0.224   8.208   0.658  1.00  0.00    -0.275 OA
ATOM      6  H   UNL     1       0.873   6.440   2.035  1.00  0.00     0.163 HD
BRANCH   4   7
ATOM      7  C   UNL     1       0.628   6.916  -1.320  1.00  0.00     0.078 C 
ATOM      8  C   UNL     1       0.860   5.562  -3.983  1.00  0.00     0.008 C 
ATOM      9  C   UNL     1      -0.497   5.893  -3.343  1.00  0.00     0.006 C 
ATOM     10  C   UNL     1       1.992   6.430  -3.400  1.00  0.00     0.006 C 
ATOM     11  C   UNL     1      -0.479   5.991  -1.822  1.00  0.00     0.014 C 
ATOM     12  C   UNL     1       2.002   6.533  -1.871  1.00  0.00     0.014 C 
BRANCH   8  13
ATOM     13  C   UNL     1       1.171   4.048  -4.074  1.00  0.00     0.121 C 
BRANCH  13  14
ATOM     14  N   UNL     1       1.944   3.490  -2.984  1.00  0.00    -0.338 N 
ATOM     15  C   UNL     1       1.822   2.620  -1.977  1.00  0.00     0.317 C 
ATOM     16  O   UNL     1       2.894   2.365  -1.414  1.00  0.00    -0.249 OA
ATOM     17  H   UNL     1       2.850   3.874  -2.985  1.00  0.00     0.165 HD
BRANCH  15  18
ATOM     18  N   UNL     1       0.652   2.090  -1.534  1.00  0.00    -0.320 N 
ATOM     19  C   UNL     1       0.345  -1.106  -0.864  1.00  0.00     0.044 C 
ATOM     20  C   UNL     1      -0.265   0.127  -0.190  1.00  0.00     0.080 C 
ATOM     21  C   UNL     1      -0.528  -0.200   1.286  1.00  0.00     0.044 C 
ATOM     22  C   UNL     1       0.703   1.333  -0.273  1.00  0.00     0.156 C 
ATOM     23  O   UNL     1      -1.563   0.425  -0.740  1.00  0.00    -0.372 OA
ATOM     24  C   UNL     1      -1.508   1.038  -2.031  1.00  0.00     0.182 C 
ATOM     25  C   UNL     1      -0.716   2.340  -1.971  1.00  0.00     0.150 C 
ENDBRANCH  15  18
ENDBRANCH  13  14
ENDBRANCH   8  13
ENDBRANCH   4   7
ENDBRANCH   2   3
ENDBRANCH   1   2
BRANCH   1  26
ATOM     26  C   UNL     1       3.033   4.069   2.688  1.00  0.00     0.023 C 
BRANCH  26  27
ATOM     27  C   UNL     1       2.444   2.712   3.085  1.00  0.00     0.116 C 
BRANCH  27  28
ATOM     28  N   UNL     1       2.950   1.583   2.321  1.00  0.00    -0.352 N 
ATOM     29  C   UNL     1       2.955   0.238   2.623  1.00  0.00     0.251 C 
ATOM     30  H   UNL     1       3.353   1.816   1.453  1.00  0.00     0.163 HD
ATOM     31  O   UNL     1       3.442  -0.556   1.826  1.00  0.00    -0.269 OA
BRANCH  29  32
ATOM     32  C   UNL     1       2.418  -0.276   3.913  1.00  0.00     0.039 A 
ATOM     33  C   UNL     1       3.091  -1.343   4.523  1.00  0.00     0.014 A 
ATOM     34  C   UNL     1       1.286   0.260   4.530  1.00  0.00     0.014 A 
ATOM     35  C   UNL     1       2.718  -1.770   5.801  1.00  0.00     0.010 A 
ATOM     36  C   UNL     1       0.943  -0.126   5.824  1.00  0.00     0.010 A 
ATOM     37  C   UNL     1       1.690  -1.108   6.487  1.00  0.00    -0.014 A 
BRANCH  37  38
ATOM     38  C   UNL     1       1.512  -1.284   7.947  1.00  0.00     0.031 A 
ATOM     39  C   UNL     1       0.290  -1.931   8.520  1.00  0.00     0.074 A 
ATOM     40  C   UNL     1       2.433  -0.724   8.755  1.00  0.00     0.049 A 
ATOM     41  N   UNL     1      -0.030  -2.112   9.776  1.00  0.00    -0.248 NA
ATOM     42  C   UNL     1      -0.716  -2.413   7.564  1.00  0.00     0.031 C 
ATOM     43  C   UNL     1       3.617   0.011   8.299  1.00  0.00     0.029 A 
ATOM     44  N   UNL     1       2.512  -0.661  10.122  1.00  0.00    -0.354 N 
ATOM     45  C   UNL     1      -1.272  -2.732   9.765  1.00  0.00     0.074 A 
ATOM     46  C   UNL     1      -1.668  -2.855   8.377  1.00  0.00     0.031 C 
ATOM     47  C   UNL     1       4.308   0.442   9.364  1.00  0.00     0.029 A 
ATOM     48  C   UNL     1       3.607   0.033  10.575  1.00  0.00     0.049 A 
ATOM     49  H   UNL     1       1.849  -1.073  10.720  1.00  0.00     0.167 HD
ATOM     50  C   UNL     1      -2.004  -3.167  10.820  1.00  0.00     0.037 A 
ATOM     51  C   UNL     1       4.005   0.310  11.829  1.00  0.00     0.037 A 
ATOM     52  C   UNL     1      -1.599  -3.030  12.197  1.00  0.00     0.049 A 
ATOM     53  C   UNL     1       3.194  -0.210  12.977  1.00  0.00     0.074 A 
ATOM     54  C   UNL     1      -2.236  -3.490  13.336  1.00  0.00     0.029 A 
ATOM     55  N   UNL     1      -0.454  -2.369  12.620  1.00  0.00    -0.354 N 
ATOM     56  N   UNL     1       2.070  -0.886  12.951  1.00  0.00    -0.248 NA
ATOM     57  C   UNL     1       3.711   0.052  14.326  1.00  0.00     0.031 C 
ATOM     58  C   UNL     1      -1.494  -3.078  14.450  1.00  0.00     0.029 A 
ATOM     59  C   UNL     1      -0.374  -2.396  14.004  1.00  0.00     0.049 A 
ATOM     60  H   UNL     1       0.205  -1.945  12.025  1.00  0.00     0.167 HD
ATOM     61  C   UNL     1       1.758  -1.152  14.276  1.00  0.00     0.074 A 
ATOM     62  C   UNL     1       2.819  -0.576  15.079  1.00  0.00     0.031 C 
ATOM     63  C   UNL     1       0.690  -1.815  14.782  1.00  0.00     0.037 A 
BRANCH  50  64
ATOM     64  C   UNL     1      -3.313  -3.840  10.523  1.00  0.00     0.057 A 
ATOM     65  C   UNL     1      -3.370  -5.115   9.945  1.00  0.00     0.134 A 
ATOM     66  C   UNL     1      -4.529  -3.228  10.852  1.00  0.00     0.134 A 
ATOM     67  F   UNL     1      -2.242  -5.755   9.599  1.00  0.00    -0.206 F 
ATOM     68  C   UNL     1      -4.587  -5.746   9.681  1.00  0.00     0.040 A 
ATOM     69  C   UNL     1      -5.753  -3.858  10.614  1.00  0.00     0.040 A 
ATOM     70  F   UNL     1      -4.549  -2.011  11.416  1.00  0.00    -0.206 F 
ATOM     71  C   UNL     1      -5.784  -5.119  10.021  1.00  0.00     0.006 A 
ENDBRANCH  50  64
BRANCH  51  72
ATOM     72  C   UNL     1       5.258   1.071  12.052  1.00  0.00     0.057 A 
ATOM     73  C   UNL     1       6.413   0.431  12.516  1.00  0.00     0.134 A 
ATOM     74  C   UNL     1       5.344   2.441  11.777  1.00  0.00     0.134 A 
ATOM     75  F   UNL     1       6.388  -0.878  12.806  1.00  0.00    -0.206 F 
ATOM     76  C   UNL     1       7.605   1.128  12.714  1.00  0.00     0.040 A 
ATOM     77  C   UNL     1       6.536   3.146  11.950  1.00  0.00     0.040 A 
ATOM     78  F   UNL     1       4.276   3.106  11.314  1.00  0.00    -0.206 F 
ATOM     79  C   UNL     1       7.670   2.490  12.424  1.00  0.00     0.006 A 
ENDBRANCH  51  72
BRANCH  63  80
ATOM     80  C   UNL     1       0.638  -1.969  16.272  1.00  0.00     0.057 A 
ATOM     81  C   UNL     1       0.326  -0.894  17.114  1.00  0.00     0.134 A 
ATOM     82  C   UNL     1       0.889  -3.210  16.869  1.00  0.00     0.134 A 
ATOM     83  F   UNL     1       0.093   0.325  16.603  1.00  0.00    -0.206 F 
ATOM     84  C   UNL     1       0.289  -1.043  18.501  1.00  0.00     0.040 A 
ATOM     85  C   UNL     1       0.833  -3.377  18.253  1.00  0.00     0.040 A 
ATOM     86  F   UNL     1       1.189  -4.279  16.117  1.00  0.00    -0.206 F 
ATOM     87  C   UNL     1       0.538  -2.289  19.073  1.00  0.00     0.006 A 
ENDBRANCH  63  80
ENDBRANCH  37  38
ENDBRANCH  29  32
ENDBRANCH  27  28
ENDBRANCH  26  27
ENDBRANCH   1  26
TORSDOF 14
