REMARK SMILES Cc1cc(OC(F)(F)F)cc2c1O[C@H](C(F)(F)F)C(C(=O)NCCCCNC(=O)c1ccc(-c3c4nc(c(-c5c(F)cccc5F)c5ccc([nH]5)c(-c5c(F)cccc5F)c5nc(c(-c6c(F)cccc6F)c6ccc3[nH]6)C=C5)C=C4)cc1)=C2
REMARK SMILES IDX 24 1 23 2 22 3 20 4 21 5 19 7 1 8 2 9 3 10 12 11 4 12 11 13
REMARK SMILES IDX 13 14 10 15 84 16 14 17 5 18 6 19 7 20 8 21 9 22 15 23 16 24
REMARK SMILES IDX 17 25 18 26 25 27 26 28 27 29 28 30 29 32 30 33 31 34 83 35
REMARK SMILES IDX 32 36 82 37 33 38 34 39 35 40 76 41 36 42 81 43 75 44 77 45
REMARK SMILES IDX 37 46 80 47 74 48 73 49 38 51 64 52 47 53 63 54 48 55 51 56
REMARK SMILES IDX 62 57 78 58 49 59 50 60 61 62 79 63 52 64 39 65 40 66 45 67
REMARK SMILES IDX 41 68 42 69 44 70 46 71 43 72 65 73 66 74 71 75 67 76 68 77
REMARK SMILES IDX 70 78 72 79 69 80 53 81 54 82 59 83 55 84 56 85 58 86 60 87
REMARK SMILES IDX 57 88
REMARK H PARENT 22 6 27 31 77 50 51 61
REMARK Flexibility Score: inf
ROOT
ATOM      1  C   UNL     1      -2.053  -2.305   6.316  1.00  0.00     0.023 C 
ENDROOT
BRANCH   1   2
ATOM      2  C   UNL     1      -3.055  -1.464   5.531  1.00  0.00     0.116 C 
BRANCH   2   3
ATOM      3  N   UNL     1      -2.979  -0.060   5.886  1.00  0.00    -0.352 N 
ATOM      4  C   UNL     1      -2.431   1.061   5.361  1.00  0.00     0.251 C 
ATOM      5  O   UNL     1      -2.602   2.088   6.025  1.00  0.00    -0.270 OA
ATOM      6  H   UNL     1      -3.449   0.127   6.731  1.00  0.00     0.163 HD
BRANCH   4   7
ATOM      7  C   UNL     1      -1.662   1.127   4.083  1.00  0.00     0.067 C 
ATOM      8  C   UNL     1       1.142   0.226  -0.165  1.00  0.00     0.048 C 
ATOM      9  C   UNL     1       0.747   1.429   0.647  1.00  0.00    -0.005 A 
ATOM     10  C   UNL     1       1.149   2.702   0.209  1.00  0.00     0.054 A 
ATOM     11  C   UNL     1      -0.011   1.325   1.819  1.00  0.00     0.131 A 
ATOM     12  C   UNL     1       0.811   3.848   0.932  1.00  0.00     0.130 A 
ATOM     13  C   UNL     1      -0.352   2.463   2.554  1.00  0.00     0.021 A 
ATOM     14  O   UNL     1      -0.361   0.073   2.243  1.00  0.00    -0.475 OA
ATOM     15  C   UNL     1       0.060   3.720   2.104  1.00  0.00     0.058 A 
ATOM     16  C   UNL     1      -1.099   2.317   3.799  1.00  0.00     0.025 C 
ATOM     17  C   UNL     1      -1.521  -0.010   3.113  1.00  0.00     0.314 C 
BRANCH  12  18
ATOM     18  O   UNL     1       1.147   5.134   0.614  1.00  0.00    -0.406 OA
BRANCH  18  19
ATOM     19  C   UNL     1       1.962   5.342  -0.527  1.00  0.00     0.573 C 
ATOM     20  F   UNL     1       3.147   4.706  -0.402  1.00  0.00    -0.132 F 
ATOM     21  F   UNL     1       1.342   4.924  -1.651  1.00  0.00    -0.132 F 
ATOM     22  F   UNL     1       2.207   6.665  -0.650  1.00  0.00    -0.132 F 
ENDBRANCH  18  19
ENDBRANCH  12  18
BRANCH  17  23
ATOM     23  C   UNL     1      -2.787  -0.227   2.262  1.00  0.00     0.429 C 
ATOM     24  F   UNL     1      -2.740  -1.434   1.643  1.00  0.00    -0.167 F 
ATOM     25  F   UNL     1      -3.918  -0.225   3.008  1.00  0.00    -0.167 F 
ATOM     26  F   UNL     1      -2.946   0.714   1.305  1.00  0.00    -0.167 F 
ENDBRANCH  17  23
ENDBRANCH   4   7
ENDBRANCH   2   3
ENDBRANCH   1   2
BRANCH   1  27
ATOM     27  C   UNL     1      -2.573  -2.780   7.675  1.00  0.00     0.023 C 
BRANCH  27  28
ATOM     28  C   UNL     1      -3.871  -3.582   7.630  1.00  0.00     0.116 C 
BRANCH  28  29
ATOM     29  N   UNL     1      -3.830  -4.714   6.715  1.00  0.00    -0.352 N 
ATOM     30  C   UNL     1      -4.485  -5.915   6.846  1.00  0.00     0.251 C 
ATOM     31  H   UNL     1      -3.270  -4.607   5.913  1.00  0.00     0.163 HD
ATOM     32  O   UNL     1      -4.329  -6.821   6.037  1.00  0.00    -0.269 OA
BRANCH  30  33
ATOM     33  C   UNL     1      -5.357  -6.096   8.017  1.00  0.00     0.039 A 
ATOM     34  C   UNL     1      -5.019  -7.065   8.963  1.00  0.00     0.014 A 
ATOM     35  C   UNL     1      -6.433  -5.227   8.220  1.00  0.00     0.014 A 
ATOM     36  C   UNL     1      -5.733  -7.126  10.157  1.00  0.00     0.010 A 
ATOM     37  C   UNL     1      -7.114  -5.261   9.430  1.00  0.00     0.010 A 
ATOM     38  C   UNL     1      -6.765  -6.208  10.407  1.00  0.00    -0.014 A 
BRANCH  38  39
ATOM     39  C   UNL     1      -7.516  -6.240  11.681  1.00  0.00     0.031 A 
ATOM     40  C   UNL     1      -8.939  -6.713  11.684  1.00  0.00     0.074 A 
ATOM     41  C   UNL     1      -6.939  -5.795  12.811  1.00  0.00     0.049 A 
ATOM     42  N   UNL     1      -9.786  -6.777  12.677  1.00  0.00    -0.248 NA
ATOM     43  C   UNL     1      -9.487  -7.154  10.391  1.00  0.00     0.031 C 
ATOM     44  C   UNL     1      -5.575  -5.273  12.920  1.00  0.00     0.029 A 
ATOM     45  N   UNL     1      -7.435  -5.699  14.085  1.00  0.00    -0.354 N 
ATOM     46  C   UNL     1     -10.967  -7.259  12.130  1.00  0.00     0.074 A 
ATOM     47  C   UNL     1     -10.744  -7.423  10.710  1.00  0.00     0.031 C 
ATOM     48  C   UNL     1      -5.341  -4.921  14.196  1.00  0.00     0.029 A 
ATOM     49  C   UNL     1      -6.542  -5.174  14.987  1.00  0.00     0.049 A 
ATOM     50  H   UNL     1      -8.346  -5.980  14.331  1.00  0.00     0.167 HD
ATOM     51  C   UNL     1     -12.126  -7.562  12.759  1.00  0.00     0.037 A 
ATOM     52  C   UNL     1      -6.685  -4.926  16.302  1.00  0.00     0.037 A 
ATOM     53  C   UNL     1     -12.341  -7.414  14.172  1.00  0.00     0.049 A 
ATOM     54  C   UNL     1      -7.988  -5.259  16.974  1.00  0.00     0.074 A 
ATOM     55  C   UNL     1     -13.460  -7.740  14.916  1.00  0.00     0.029 A 
ATOM     56  N   UNL     1     -11.409  -6.891  15.056  1.00  0.00    -0.354 N 
ATOM     57  N   UNL     1      -9.075  -5.779  16.459  1.00  0.00    -0.248 NA
ATOM     58  C   UNL     1      -8.080  -4.974  18.413  1.00  0.00     0.031 C 
ATOM     59  C   UNL     1     -13.215  -7.390  16.249  1.00  0.00     0.029 A 
ATOM     60  C   UNL     1     -11.933  -6.872  16.337  1.00  0.00     0.049 A 
ATOM     61  H   UNL     1     -10.508  -6.580  14.809  1.00  0.00     0.167 HD
ATOM     62  C   UNL     1      -9.970  -5.909  17.512  1.00  0.00     0.074 A 
ATOM     63  C   UNL     1      -9.295  -5.422  18.698  1.00  0.00     0.031 C 
ATOM     64  C   UNL     1     -11.237  -6.389  17.502  1.00  0.00     0.037 A 
BRANCH  51  65
ATOM     65  C   UNL     1     -13.240  -8.091  11.909  1.00  0.00     0.057 A 
ATOM     66  C   UNL     1     -14.354  -7.299  11.611  1.00  0.00     0.134 A 
ATOM     67  C   UNL     1     -13.204  -9.389  11.382  1.00  0.00     0.134 A 
ATOM     68  F   UNL     1     -14.447  -6.047  12.084  1.00  0.00    -0.206 F 
ATOM     69  C   UNL     1     -15.393  -7.778  10.810  1.00  0.00     0.040 A 
ATOM     70  C   UNL     1     -14.226  -9.871  10.563  1.00  0.00     0.040 A 
ATOM     71  F   UNL     1     -12.153 -10.189  11.617  1.00  0.00    -0.206 F 
ATOM     72  C   UNL     1     -15.327  -9.065  10.279  1.00  0.00     0.006 A 
ENDBRANCH  51  65
BRANCH  52  73
ATOM     73  C   UNL     1      -5.561  -4.356  17.083  1.00  0.00     0.057 A 
ATOM     74  C   UNL     1      -5.191  -3.013  16.959  1.00  0.00     0.134 A 
ATOM     75  C   UNL     1      -4.853  -5.141  18.000  1.00  0.00     0.134 A 
ATOM     76  F   UNL     1      -5.830  -2.211  16.094  1.00  0.00    -0.206 F 
ATOM     77  C   UNL     1      -4.157  -2.468  17.723  1.00  0.00     0.040 A 
ATOM     78  C   UNL     1      -3.830  -4.605  18.784  1.00  0.00     0.040 A 
ATOM     79  F   UNL     1      -5.177  -6.430  18.176  1.00  0.00    -0.206 F 
ATOM     80  C   UNL     1      -3.479  -3.264  18.644  1.00  0.00     0.006 A 
ENDBRANCH  52  73
BRANCH  64  81
ATOM     81  C   UNL     1     -11.956  -6.435  18.815  1.00  0.00     0.057 A 
ATOM     82  C   UNL     1     -12.155  -7.653  19.476  1.00  0.00     0.134 A 
ATOM     83  C   UNL     1     -12.474  -5.279  19.410  1.00  0.00     0.134 A 
ATOM     84  F   UNL     1     -11.686  -8.796  18.954  1.00  0.00    -0.206 F 
ATOM     85  C   UNL     1     -12.846  -7.719  20.686  1.00  0.00     0.040 A 
ATOM     86  C   UNL     1     -13.150  -5.330  20.629  1.00  0.00     0.040 A 
ATOM     87  F   UNL     1     -12.301  -4.081  18.831  1.00  0.00    -0.206 F 
ATOM     88  C   UNL     1     -13.342  -6.554  21.268  1.00  0.00     0.006 A 
ENDBRANCH  64  81
ENDBRANCH  38  39
ENDBRANCH  30  33
ENDBRANCH  28  29
ENDBRANCH  27  28
ENDBRANCH   1  27
TORSDOF 14
