REMARK SMILES C[C@@H]1CCC[C@H](C)N1C(=O)Cn1cccc1C(=O)NCCCCNC(=O)c1ccc(-c2c3nc(c(-c4c(F)cccc4F)c4ccc([nH]4)c(-c4c(F)cccc4F)c4nc(c(-c5c(F)cccc5F)c5ccc2[nH]5)C=C4)C=C3)cc1
REMARK SMILES IDX 21 1 20 2 19 3 17 4 18 5 16 7 12 8 13 9 14 10 15 11 11 12
REMARK SMILES IDX 9 13 10 14 8 15 1 16 2 17 3 18 4 19 6 20 5 21 7 22 22 23
REMARK SMILES IDX 23 24 24 25 25 26 26 28 27 29 28 30 80 31 29 32 79 33 30 34
REMARK SMILES IDX 31 35 32 36 73 37 33 38 78 39 72 40 74 41 34 42 77 43 71 44
REMARK SMILES IDX 70 45 35 47 61 48 44 49 60 50 45 51 48 52 59 53 75 54 46 55
REMARK SMILES IDX 47 56 58 58 76 59 49 60 36 61 37 62 42 63 38 64 39 65 41 66
REMARK SMILES IDX 43 67 40 68 62 69 63 70 68 71 64 72 65 73 67 74 69 75 66 76
REMARK SMILES IDX 50 77 51 78 56 79 52 80 53 81 55 82 57 83 54 84
REMARK H PARENT 19 6 24 27 74 46 48 57
REMARK Flexibility Score: inf
ROOT
ATOM      1  C   UNL     1      -1.525   3.342   1.781  1.00  0.00     0.023 C 
ENDROOT
BRANCH   1   2
ATOM      2  C   UNL     1      -1.349   2.321   2.942  1.00  0.00     0.116 C 
BRANCH   2   3
ATOM      3  N   UNL     1      -1.078   0.924   2.637  1.00  0.00    -0.351 N 
ATOM      4  C   UNL     1      -0.329  -0.073   3.219  1.00  0.00     0.267 C 
ATOM      5  O   UNL     1      -0.964  -1.136   3.290  1.00  0.00    -0.268 OA
ATOM      6  H   UNL     1      -1.538   0.621   1.821  1.00  0.00     0.163 HD
BRANCH   4   7
ATOM      7  C   UNL     1       1.058  -0.041   3.690  1.00  0.00     0.107 A 
ATOM      8  N   UNL     1       2.220   0.611   3.289  1.00  0.00    -0.334 N 
ATOM      9  C   UNL     1       3.275   0.239   4.124  1.00  0.00     0.087 A 
ATOM     10  C   UNL     1       2.890  -0.850   4.855  1.00  0.00     0.020 A 
ATOM     11  C   UNL     1       1.521  -1.021   4.588  1.00  0.00     0.033 A 
BRANCH   8  12
ATOM     12  C   UNL     1       2.567   1.379   2.091  1.00  0.00     0.222 C 
BRANCH  12  13
ATOM     13  C   UNL     1       1.552   1.431   0.979  1.00  0.00     0.242 C 
ATOM     14  O   UNL     1       0.958   2.467   0.745  1.00  0.00    -0.273 OA
BRANCH  13  15
ATOM     15  N   UNL     1       1.339   0.291   0.217  1.00  0.00    -0.336 N 
ATOM     16  C   UNL     1       2.736   0.252  -1.802  1.00  0.00     0.031 C 
ATOM     17  C   UNL     1       2.444  -0.399  -0.445  1.00  0.00     0.082 C 
ATOM     18  C   UNL     1       2.204  -1.911  -0.499  1.00  0.00     0.025 C 
ATOM     19  C   UNL     1       0.778  -2.319  -0.875  1.00  0.00     0.004 C 
ATOM     20  C   UNL     1      -0.029  -0.034  -0.205  1.00  0.00     0.082 C 
ATOM     21  C   UNL     1      -0.252  -1.539  -0.068  1.00  0.00     0.025 C 
ATOM     22  C   UNL     1      -0.478   0.514  -1.557  1.00  0.00     0.031 C 
ENDBRANCH  13  15
ENDBRANCH  12  13
ENDBRANCH   8  12
ENDBRANCH   4   7
ENDBRANCH   2   3
ENDBRANCH   1   2
BRANCH   1  23
ATOM     23  C   UNL     1      -2.167   2.926   0.437  1.00  0.00     0.023 C 
BRANCH  23  24
ATOM     24  C   UNL     1      -3.399   3.738   0.008  1.00  0.00     0.116 C 
BRANCH  24  25
ATOM     25  N   UNL     1      -3.190   5.179   0.056  1.00  0.00    -0.352 N 
ATOM     26  C   UNL     1      -4.003   6.149   0.589  1.00  0.00     0.251 C 
ATOM     27  H   UNL     1      -2.352   5.501  -0.348  1.00  0.00     0.163 HD
ATOM     28  O   UNL     1      -3.802   7.340   0.372  1.00  0.00    -0.269 OA
BRANCH  26  29
ATOM     29  C   UNL     1      -5.163   5.743   1.400  1.00  0.00     0.039 A 
ATOM     30  C   UNL     1      -6.432   6.173   1.009  1.00  0.00     0.014 A 
ATOM     31  C   UNL     1      -4.996   4.903   2.508  1.00  0.00     0.014 A 
ATOM     32  C   UNL     1      -7.545   5.675   1.671  1.00  0.00     0.010 A 
ATOM     33  C   UNL     1      -6.105   4.381   3.153  1.00  0.00     0.010 A 
ATOM     34  C   UNL     1      -7.380   4.748   2.711  1.00  0.00    -0.014 A 
BRANCH  34  35
ATOM     35  C   UNL     1      -8.588   4.098   3.259  1.00  0.00     0.031 A 
ATOM     36  C   UNL     1      -9.146   3.011   2.333  1.00  0.00     0.074 A 
ATOM     37  C   UNL     1      -9.051   4.609   4.431  1.00  0.00     0.049 A 
ATOM     38  N   UNL     1     -10.372   2.651   2.085  1.00  0.00    -0.248 NA
ATOM     39  C   UNL     1      -8.175   2.273   1.482  1.00  0.00     0.031 C 
ATOM     40  C   UNL     1      -8.359   5.646   5.220  1.00  0.00     0.029 A 
ATOM     41  N   UNL     1     -10.182   4.395   5.181  1.00  0.00    -0.354 N 
ATOM     42  C   UNL     1     -10.313   1.563   1.187  1.00  0.00     0.074 A 
ATOM     43  C   UNL     1      -8.948   1.461   0.760  1.00  0.00     0.031 C 
ATOM     44  C   UNL     1      -9.117   6.035   6.263  1.00  0.00     0.029 A 
ATOM     45  C   UNL     1     -10.366   5.303   6.251  1.00  0.00     0.049 A 
ATOM     46  H   UNL     1     -10.817   3.667   4.988  1.00  0.00     0.167 HD
ATOM     47  C   UNL     1     -11.351   0.707   0.952  1.00  0.00     0.037 A 
ATOM     48  C   UNL     1     -11.481   5.517   7.013  1.00  0.00     0.037 A 
ATOM     49  C   UNL     1     -12.511   1.058   1.706  1.00  0.00     0.049 A 
ATOM     50  C   UNL     1     -12.491   4.587   6.479  1.00  0.00     0.074 A 
ATOM     51  C   UNL     1     -13.678   1.751   1.513  1.00  0.00     0.029 A 
ATOM     52  N   UNL     1     -12.508   0.607   2.997  1.00  0.00    -0.354 N 
ATOM     53  N   UNL     1     -12.513   3.307   6.685  1.00  0.00    -0.248 NA
ATOM     54  C   UNL     1     -13.425   5.098   5.475  1.00  0.00     0.031 C 
ATOM     55  C   UNL     1     -14.284   1.859   2.796  1.00  0.00     0.029 A 
ATOM     56  C   UNL     1     -13.369   1.380   3.727  1.00  0.00     0.049 A 
ATOM     57  H   UNL     1     -11.976  -0.147   3.342  1.00  0.00     0.167 HD
ATOM     58  C   UNL     1     -13.267   2.818   5.638  1.00  0.00     0.074 A 
ATOM     59  C   UNL     1     -13.939   3.954   5.037  1.00  0.00     0.031 C 
ATOM     60  C   UNL     1     -13.019   1.597   5.104  1.00  0.00     0.037 A 
BRANCH  47  61
ATOM     61  C   UNL     1     -11.364  -0.681   0.337  1.00  0.00     0.057 A 
ATOM     62  C   UNL     1     -12.609  -1.226  -0.058  1.00  0.00     0.134 A 
ATOM     63  C   UNL     1     -10.325  -1.611   0.483  1.00  0.00     0.134 A 
ATOM     64  F   UNL     1     -13.665  -0.434  -0.300  1.00  0.00    -0.206 F 
ATOM     65  C   UNL     1     -12.842  -2.603  -0.143  1.00  0.00     0.040 A 
ATOM     66  C   UNL     1     -10.535  -2.992   0.339  1.00  0.00     0.040 A 
ATOM     67  F   UNL     1      -9.095  -1.239   0.861  1.00  0.00    -0.206 F 
ATOM     68  C   UNL     1     -11.805  -3.494   0.078  1.00  0.00     0.006 A 
ENDBRANCH  47  61
BRANCH  48  69
ATOM     69  C   UNL     1     -11.928   6.543   8.022  1.00  0.00     0.057 A 
ATOM     70  C   UNL     1     -11.098   7.432   8.714  1.00  0.00     0.134 A 
ATOM     71  C   UNL     1     -13.308   6.704   8.314  1.00  0.00     0.134 A 
ATOM     72  F   UNL     1      -9.768   7.310   8.694  1.00  0.00    -0.206 F 
ATOM     73  C   UNL     1     -11.602   8.482   9.506  1.00  0.00     0.040 A 
ATOM     74  C   UNL     1     -13.825   7.747   9.090  1.00  0.00     0.040 A 
ATOM     75  F   UNL     1     -14.230   5.849   7.851  1.00  0.00    -0.206 F 
ATOM     76  C   UNL     1     -12.970   8.664   9.669  1.00  0.00     0.006 A 
ENDBRANCH  48  69
BRANCH  60  77
ATOM     77  C   UNL     1     -11.974   0.809   5.865  1.00  0.00     0.057 A 
ATOM     78  C   UNL     1     -12.284   0.160   7.059  1.00  0.00     0.134 A 
ATOM     79  C   UNL     1     -10.616   0.801   5.494  1.00  0.00     0.134 A 
ATOM     80  F   UNL     1     -13.550   0.129   7.502  1.00  0.00    -0.206 F 
ATOM     81  C   UNL     1     -11.296  -0.465   7.834  1.00  0.00     0.040 A 
ATOM     82  C   UNL     1      -9.621   0.170   6.243  1.00  0.00     0.040 A 
ATOM     83  F   UNL     1     -10.216   1.404   4.373  1.00  0.00    -0.206 F 
ATOM     84  C   UNL     1      -9.962  -0.462   7.428  1.00  0.00     0.006 A 
ENDBRANCH  60  77
ENDBRANCH  34  35
ENDBRANCH  26  29
ENDBRANCH  24  25
ENDBRANCH  23  24
ENDBRANCH   1  23
TORSDOF 14
