REMARK SMILES CC1(C)O[C@@H]2C[C@@H]3[C@H]4CCC5=CC(=O)C=C[C@@]5(C)[C@]4(F)[C@H](O)C[C@]3(C)[C@]2(C(=O)NCCCCNC(=O)c2ccc(-c3c4nc(c(-c5c(F)cccc5F)c5ccc([nH]5)c(-c5c(F)cccc5F)c5nc(c(-c6c(F)cccc6F)c6ccc3[nH]6)C=C5)C=C4)cc2)O1
REMARK SMILES IDX 32 1 31 2 30 3 29 4 27 5 28 6 26 8 1 9 2 10 4 11 91 12 3 13
REMARK SMILES IDX 5 14 6 15 24 16 7 17 23 18 25 19 8 20 21 21 9 22 19 23 10 24
REMARK SMILES IDX 17 25 20 26 11 27 16 28 18 29 12 30 15 31 13 32 14 33 22 34
REMARK SMILES IDX 33 36 34 37 35 38 36 40 37 41 38 42 90 43 39 44 89 45 40 46
REMARK SMILES IDX 41 47 42 48 83 49 43 50 88 51 82 52 84 53 44 54 87 55 81 56
REMARK SMILES IDX 80 57 45 59 71 60 54 61 70 62 55 63 58 64 69 65 85 66 56 67
REMARK SMILES IDX 57 68 68 70 86 71 59 72 46 73 47 74 52 75 48 76 49 77 51 78
REMARK SMILES IDX 53 79 50 80 72 81 73 82 78 83 74 84 75 85 77 86 79 87 76 88
REMARK SMILES IDX 60 89 61 90 66 91 62 92 63 93 65 94 67 95 64 96
REMARK H PARENT 29 7 22 35 34 39 84 58 58 69
REMARK Flexibility Score: inf
ROOT
ATOM      1  C   UNL     1      -5.106  -0.594  -3.980  1.00  0.00     0.023 C 
ENDROOT
BRANCH   1   2
ATOM      2  C   UNL     1      -3.887   0.328  -3.937  1.00  0.00     0.023 C 
BRANCH   2   3
ATOM      3  C   UNL     1      -3.843   1.227  -2.710  1.00  0.00     0.116 C 
BRANCH   3   4
ATOM      4  N   UNL     1      -3.672   0.441  -1.518  1.00  0.00    -0.353 N 
ATOM      5  C   UNL     1      -2.835   0.537  -0.472  1.00  0.00     0.255 C 
ATOM      6  O   UNL     1      -2.963  -0.373   0.360  1.00  0.00    -0.272 OA
ATOM      7  H   UNL     1      -4.293  -0.321  -1.457  1.00  0.00     0.163 HD
BRANCH   5   8
ATOM      8  C   UNL     1      -1.845   1.686  -0.231  1.00  0.00     0.181 C 
ATOM      9  C   UNL     1       0.365  -0.606  -0.710  1.00  0.00     0.075 C 
ATOM     10  C   UNL     1       0.329   0.815  -0.169  1.00  0.00     0.164 C 
ATOM     11  O   UNL     1       0.328   1.709  -1.281  1.00  0.00    -0.344 OA
ATOM     12  O   UNL     1      -0.850   1.011   0.626  1.00  0.00    -0.331 OA
ATOM     13  C   UNL     1       1.572   1.069   0.690  1.00  0.00     0.075 C 
ATOM     14  C   UNL     1      -0.947   2.366  -1.317  1.00  0.00     0.164 C 
ATOM     15  C   UNL     1      -0.725   3.872  -0.846  1.00  0.00     0.040 C 
ATOM     16  C   UNL     1      -2.462   2.924   0.548  1.00  0.00     0.014 C 
ATOM     17  C   UNL     1      -1.148   3.755   0.624  1.00  0.00     0.008 C 
ATOM     18  C   UNL     1      -3.142   2.723   1.916  1.00  0.00     0.046 C 
ATOM     19  C   UNL     1      -3.568   3.591  -0.325  1.00  0.00     0.015 C 
ATOM     20  C   UNL     1      -0.497   4.186   1.951  1.00  0.00     0.035 C 
ATOM     21  C   UNL     1      -2.246   2.763   3.143  1.00  0.00     0.154 C 
ATOM     22  C   UNL     1       0.355   5.442   1.904  1.00  0.00     0.012 C 
ATOM     23  C   UNL     1      -1.355   4.051   3.216  1.00  0.00     0.152 C 
ATOM     24  C   UNL     1       1.399   5.319   3.019  1.00  0.00     0.032 C 
ATOM     25  C   UNL     1      -0.420   4.113   4.514  1.00  0.00     0.044 C 
ATOM     26  F   UNL     1      -2.199   5.135   3.226  1.00  0.00    -0.239 F 
ATOM     27  C   UNL     1       0.772   5.097   4.374  1.00  0.00    -0.053 C 
ATOM     28  C   UNL     1      -1.230   4.478   5.758  1.00  0.00    -0.009 C 
ATOM     29  C   UNL     1       0.222   2.733   4.843  1.00  0.00     0.024 C 
ATOM     30  C   UNL     1       1.333   5.664   5.459  1.00  0.00     0.052 C 
ATOM     31  C   UNL     1      -0.679   5.056   6.837  1.00  0.00     0.048 C 
ATOM     32  C   UNL     1       0.742   5.469   6.802  1.00  0.00     0.178 C 
ATOM     33  O   UNL     1       1.379   5.689   7.822  1.00  0.00    -0.290 OA
BRANCH  21  34
ATOM     34  O   UNL     1      -1.529   1.535   3.194  1.00  0.00    -0.390 OA
ATOM     35  H   UNL     1      -0.987   1.443   2.394  1.00  0.00     0.211 HD
ENDBRANCH  21  34
ENDBRANCH   5   8
ENDBRANCH   3   4
ENDBRANCH   2   3
ENDBRANCH   1   2
BRANCH   1  36
ATOM     36  C   UNL     1      -6.434   0.108  -3.724  1.00  0.00     0.116 C 
BRANCH  36  37
ATOM     37  N   UNL     1      -6.631   1.257  -4.597  1.00  0.00    -0.352 N 
ATOM     38  C   UNL     1      -7.662   1.521  -5.466  1.00  0.00     0.251 C 
ATOM     39  H   UNL     1      -5.925   1.943  -4.558  1.00  0.00     0.163 HD
ATOM     40  O   UNL     1      -7.598   2.452  -6.247  1.00  0.00    -0.269 OA
BRANCH  38  41
ATOM     41  C   UNL     1      -8.834   0.627  -5.450  1.00  0.00     0.039 A 
ATOM     42  C   UNL     1      -9.259   0.053  -6.647  1.00  0.00     0.014 A 
ATOM     43  C   UNL     1      -9.452   0.308  -4.238  1.00  0.00     0.014 A 
ATOM     44  C   UNL     1     -10.267  -0.909  -6.619  1.00  0.00     0.010 A 
ATOM     45  C   UNL     1     -10.394  -0.710  -4.203  1.00  0.00     0.010 A 
ATOM     46  C   UNL     1     -10.811  -1.328  -5.393  1.00  0.00    -0.014 A 
BRANCH  46  47
ATOM     47  C   UNL     1     -11.816  -2.415  -5.330  1.00  0.00     0.031 A 
ATOM     48  C   UNL     1     -13.196  -2.129  -4.811  1.00  0.00     0.074 A 
ATOM     49  C   UNL     1     -11.463  -3.669  -5.670  1.00  0.00     0.049 A 
ATOM     50  N   UNL     1     -14.190  -2.954  -4.608  1.00  0.00    -0.248 NA
ATOM     51  C   UNL     1     -13.487  -0.735  -4.438  1.00  0.00     0.031 C 
ATOM     52  C   UNL     1     -10.135  -4.082  -6.132  1.00  0.00     0.029 A 
ATOM     53  N   UNL     1     -12.189  -4.833  -5.668  1.00  0.00    -0.354 N 
ATOM     54  C   UNL     1     -15.214  -2.185  -4.071  1.00  0.00     0.074 A 
ATOM     55  C   UNL     1     -14.703  -0.841  -3.924  1.00  0.00     0.031 C 
ATOM     56  C   UNL     1     -10.151  -5.399  -6.394  1.00  0.00     0.029 A 
ATOM     57  C   UNL     1     -11.474  -5.930  -6.084  1.00  0.00     0.049 A 
ATOM     58  H   UNL     1     -13.134  -4.877  -5.394  1.00  0.00     0.167 HD
ATOM     59  C   UNL     1     -16.475  -2.561  -3.755  1.00  0.00     0.037 A 
ATOM     60  C   UNL     1     -11.845  -7.219  -6.197  1.00  0.00     0.037 A 
ATOM     61  C   UNL     1     -16.988  -3.893  -3.932  1.00  0.00     0.049 A 
ATOM     62  C   UNL     1     -13.254  -7.609  -5.844  1.00  0.00     0.074 A 
ATOM     63  C   UNL     1     -18.270  -4.360  -3.705  1.00  0.00     0.029 A 
ATOM     64  N   UNL     1     -16.241  -4.972  -4.380  1.00  0.00    -0.354 N 
ATOM     65  N   UNL     1     -14.235  -6.856  -5.408  1.00  0.00    -0.248 NA
ATOM     66  C   UNL     1     -13.608  -9.025  -6.006  1.00  0.00     0.031 C 
ATOM     67  C   UNL     1     -18.288  -5.732  -3.976  1.00  0.00     0.029 A 
ATOM     68  C   UNL     1     -17.030  -6.109  -4.417  1.00  0.00     0.049 A 
ATOM     69  H   UNL     1     -15.290  -4.935  -4.634  1.00  0.00     0.167 HD
ATOM     70  C   UNL     1     -15.329  -7.701  -5.269  1.00  0.00     0.074 A 
ATOM     71  C   UNL     1     -14.893  -9.019  -5.681  1.00  0.00     0.031 C 
ATOM     72  C   UNL     1     -16.581  -7.411  -4.838  1.00  0.00     0.037 A 
BRANCH  59  73
ATOM     73  C   UNL     1     -17.387  -1.510  -3.192  1.00  0.00     0.057 A 
ATOM     74  C   UNL     1     -17.873  -0.456  -3.979  1.00  0.00     0.134 A 
ATOM     75  C   UNL     1     -17.804  -1.565  -1.857  1.00  0.00     0.134 A 
ATOM     76  F   UNL     1     -17.499  -0.337  -5.262  1.00  0.00    -0.206 F 
ATOM     77  C   UNL     1     -18.719   0.519  -3.450  1.00  0.00     0.040 A 
ATOM     78  C   UNL     1     -18.673  -0.611  -1.325  1.00  0.00     0.040 A 
ATOM     79  F   UNL     1     -17.380  -2.549  -1.050  1.00  0.00    -0.206 F 
ATOM     80  C   UNL     1     -19.127   0.439  -2.120  1.00  0.00     0.006 A 
ENDBRANCH  59  73
BRANCH  60  81
ATOM     81  C   UNL     1     -10.879  -8.231  -6.691  1.00  0.00     0.057 A 
ATOM     82  C   UNL     1     -11.031  -8.817  -7.953  1.00  0.00     0.134 A 
ATOM     83  C   UNL     1      -9.788  -8.643  -5.917  1.00  0.00     0.134 A 
ATOM     84  F   UNL     1     -12.066  -8.475  -8.735  1.00  0.00    -0.206 F 
ATOM     85  C   UNL     1     -10.148  -9.791  -8.420  1.00  0.00     0.040 A 
ATOM     86  C   UNL     1      -8.883  -9.599  -6.380  1.00  0.00     0.040 A 
ATOM     87  F   UNL     1      -9.581  -8.113  -4.702  1.00  0.00    -0.206 F 
ATOM     88  C   UNL     1      -9.066 -10.182  -7.633  1.00  0.00     0.006 A 
ENDBRANCH  60  81
BRANCH  72  89
ATOM     89  C   UNL     1     -17.578  -8.532  -4.825  1.00  0.00     0.057 A 
ATOM     90  C   UNL     1     -17.520  -9.562  -3.878  1.00  0.00     0.134 A 
ATOM     91  C   UNL     1     -18.632  -8.557  -5.747  1.00  0.00     0.134 A 
ATOM     92  F   UNL     1     -16.527  -9.602  -2.977  1.00  0.00    -0.206 F 
ATOM     93  C   UNL     1     -18.464 -10.589  -3.862  1.00  0.00     0.040 A 
ATOM     94  C   UNL     1     -19.597  -9.564  -5.725  1.00  0.00     0.040 A 
ATOM     95  F   UNL     1     -18.749  -7.595  -6.675  1.00  0.00    -0.206 F 
ATOM     96  C   UNL     1     -19.511 -10.588  -4.783  1.00  0.00     0.006 A 
ENDBRANCH  72  89
ENDBRANCH  46  47
ENDBRANCH  38  41
ENDBRANCH  36  37
ENDBRANCH   1  36
TORSDOF 12
