REMARK SMILES CC(C)c1nc(N2C[C@H](C)OC(C)(C)C2)sc1C(=O)NCCCCNC(=O)c1ccc(-c2c3nc(c(-c4c(F)cccc4F)c4ccc([nH]4)c(-c4c(F)cccc4F)c4nc(c(-c5c(F)cccc5F)c5ccc2[nH]5)C=C4)C=C3)cc1
REMARK SMILES IDX 23 1 22 2 21 3 20 4 18 5 19 6 17 8 4 9 5 10 6 11 16 12 2 13
REMARK SMILES IDX 1 14 3 15 7 16 8 17 15 18 9 19 12 20 11 21 10 22 13 23 14 24
REMARK SMILES IDX 24 25 25 26 26 27 27 29 28 30 29 31 81 32 30 33 80 34 31 35
REMARK SMILES IDX 32 36 33 37 74 38 34 39 79 40 73 41 75 42 35 43 78 44 72 45
REMARK SMILES IDX 71 46 36 48 62 49 45 50 61 51 46 52 49 53 60 54 76 55 47 56
REMARK SMILES IDX 48 57 59 59 77 60 50 61 37 62 38 63 43 64 39 65 40 66 42 67
REMARK SMILES IDX 44 68 41 69 63 70 64 71 69 72 65 73 66 74 68 75 70 76 67 77
REMARK SMILES IDX 51 78 52 79 57 80 53 81 54 82 56 83 58 84 55 85
REMARK H PARENT 20 7 25 28 75 47 49 58
REMARK Flexibility Score: inf
ROOT
ATOM      1  C   UNL     1       2.946   4.680  -1.193  1.00  0.00     0.023 C 
ENDROOT
BRANCH   1   2
ATOM      2  C   UNL     1       1.956   3.573  -0.838  1.00  0.00     0.023 C 
BRANCH   2   3
ATOM      3  C   UNL     1       1.082   3.863   0.386  1.00  0.00     0.116 C 
BRANCH   3   4
ATOM      4  N   UNL     1      -0.200   4.360  -0.041  1.00  0.00    -0.351 N 
ATOM      5  C   UNL     1      -1.421   3.793  -0.287  1.00  0.00     0.263 C 
ATOM      6  O   UNL     1      -2.244   4.635  -0.676  1.00  0.00    -0.268 OA
ATOM      7  H   UNL     1      -0.198   5.333  -0.189  1.00  0.00     0.163 HD
BRANCH   5   8
ATOM      8  C   UNL     1      -1.783   2.391  -0.091  1.00  0.00     0.117 A 
ATOM      9  C   UNL     1      -1.191   1.125  -0.118  1.00  0.00     0.069 A 
ATOM     10  N   UNL     1      -2.079   0.065   0.104  1.00  0.00    -0.224 NA
ATOM     11  C   UNL     1      -3.321   0.464   0.136  1.00  0.00     0.186 A 
ATOM     12  S   UNL     1      -3.499   2.160   0.138  1.00  0.00    -0.091 S 
BRANCH   9  13
ATOM     13  C   UNL     1       0.211   0.683  -0.458  1.00  0.00     0.034 C 
ATOM     14  C   UNL     1       0.543  -0.734   0.037  1.00  0.00     0.014 C 
ATOM     15  C   UNL     1       0.457   0.753  -1.966  1.00  0.00     0.014 C 
ENDBRANCH   9  13
BRANCH  11  16
ATOM     16  N   UNL     1      -4.391  -0.364   0.181  1.00  0.00    -0.343 N 
ATOM     17  C   UNL     1      -5.381  -0.342  -0.896  1.00  0.00     0.150 C 
ATOM     18  C   UNL     1      -4.348  -1.597   0.964  1.00  0.00     0.153 C 
ATOM     19  C   UNL     1      -5.204  -1.592  -1.780  1.00  0.00     0.135 C 
ATOM     20  C   UNL     1      -4.358  -2.874   0.079  1.00  0.00     0.081 C 
ATOM     21  O   UNL     1      -5.325  -2.791  -0.994  1.00  0.00    -0.369 OA
ATOM     22  C   UNL     1      -6.270  -1.648  -2.866  1.00  0.00     0.040 C 
ATOM     23  C   UNL     1      -2.967  -3.200  -0.481  1.00  0.00     0.044 C 
ATOM     24  C   UNL     1      -4.819  -4.061   0.942  1.00  0.00     0.044 C 
ENDBRANCH  11  16
ENDBRANCH   5   8
ENDBRANCH   3   4
ENDBRANCH   2   3
ENDBRANCH   1   2
BRANCH   1  25
ATOM     25  C   UNL     1       4.067   4.861  -0.181  1.00  0.00     0.116 C 
BRANCH  25  26
ATOM     26  N   UNL     1       4.890   3.672   0.006  1.00  0.00    -0.352 N 
ATOM     27  C   UNL     1       6.235   3.608   0.285  1.00  0.00     0.251 C 
ATOM     28  H   UNL     1       4.425   2.809  -0.077  1.00  0.00     0.163 HD
ATOM     29  O   UNL     1       6.814   2.529   0.350  1.00  0.00    -0.269 OA
BRANCH  27  30
ATOM     30  C   UNL     1       6.982   4.869   0.447  1.00  0.00     0.039 A 
ATOM     31  C   UNL     1       8.120   5.083  -0.333  1.00  0.00     0.014 A 
ATOM     32  C   UNL     1       6.492   5.873   1.285  1.00  0.00     0.014 A 
ATOM     33  C   UNL     1       8.717   6.344  -0.339  1.00  0.00     0.010 A 
ATOM     34  C   UNL     1       7.034   7.149   1.211  1.00  0.00     0.010 A 
ATOM     35  C   UNL     1       8.147   7.399   0.393  1.00  0.00    -0.014 A 
BRANCH  35  36
ATOM     36  C   UNL     1       8.691   8.777   0.317  1.00  0.00     0.031 A 
ATOM     37  C   UNL     1       9.231   9.436   1.554  1.00  0.00     0.074 A 
ATOM     38  C   UNL     1       8.614   9.464  -0.839  1.00  0.00     0.049 A 
ATOM     39  N   UNL     1       9.648  10.664   1.722  1.00  0.00    -0.248 NA
ATOM     40  C   UNL     1       9.267   8.616   2.776  1.00  0.00     0.031 C 
ATOM     41  C   UNL     1       8.049   8.960  -2.093  1.00  0.00     0.029 A 
ATOM     42  N   UNL     1       9.003  10.744  -1.143  1.00  0.00    -0.354 N 
ATOM     43  C   UNL     1       9.966  10.772   3.069  1.00  0.00     0.074 A 
ATOM     44  C   UNL     1       9.645   9.502   3.684  1.00  0.00     0.031 C 
ATOM     45  C   UNL     1       8.156   9.909  -3.037  1.00  0.00     0.029 A 
ATOM     46  C   UNL     1       8.764  11.098  -2.449  1.00  0.00     0.049 A 
ATOM     47  H   UNL     1       9.416  11.351  -0.487  1.00  0.00     0.167 HD
ATOM     48  C   UNL     1      10.501  11.824   3.730  1.00  0.00     0.037 A 
ATOM     49  C   UNL     1       9.009  12.252  -3.097  1.00  0.00     0.037 A 
ATOM     50  C   UNL     1      10.869  13.066   3.107  1.00  0.00     0.049 A 
ATOM     51  C   UNL     1       9.647  13.390  -2.352  1.00  0.00     0.074 A 
ATOM     52  C   UNL     1      11.492  14.164   3.672  1.00  0.00     0.029 A 
ATOM     53  N   UNL     1      10.656  13.368   1.770  1.00  0.00    -0.354 N 
ATOM     54  N   UNL     1      10.003  13.456  -1.092  1.00  0.00    -0.248 NA
ATOM     55  C   UNL     1       9.922  14.613  -3.120  1.00  0.00     0.031 C 
ATOM     56  C   UNL     1      11.634  15.143   2.682  1.00  0.00     0.029 A 
ATOM     57  C   UNL     1      11.127  14.640   1.494  1.00  0.00     0.049 A 
ATOM     58  H   UNL     1      10.232  12.768   1.116  1.00  0.00     0.167 HD
ATOM     59  C   UNL     1      10.564  14.714  -0.921  1.00  0.00     0.074 A 
ATOM     60  C   UNL     1      10.512  15.375  -2.209  1.00  0.00     0.031 C 
ATOM     61  C   UNL     1      11.074  15.274   0.202  1.00  0.00     0.037 A 
BRANCH  48  62
ATOM     62  C   UNL     1      10.732  11.663   5.203  1.00  0.00     0.057 A 
ATOM     63  C   UNL     1      11.739  10.828   5.704  1.00  0.00     0.134 A 
ATOM     64  C   UNL     1       9.946  12.357   6.131  1.00  0.00     0.134 A 
ATOM     65  F   UNL     1      12.515  10.123   4.867  1.00  0.00    -0.206 F 
ATOM     66  C   UNL     1      11.936  10.664   7.075  1.00  0.00     0.040 A 
ATOM     67  C   UNL     1      10.150  12.221   7.505  1.00  0.00     0.040 A 
ATOM     68  F   UNL     1       8.966  13.175   5.718  1.00  0.00    -0.206 F 
ATOM     69  C   UNL     1      11.143  11.366   7.980  1.00  0.00     0.006 A 
ENDBRANCH  48  62
BRANCH  49  70
ATOM     70  C   UNL     1       8.686  12.378  -4.539  1.00  0.00     0.057 A 
ATOM     71  C   UNL     1       9.702  12.392  -5.502  1.00  0.00     0.134 A 
ATOM     72  C   UNL     1       7.366  12.490  -4.990  1.00  0.00     0.134 A 
ATOM     73  F   UNL     1      10.987  12.304  -5.127  1.00  0.00    -0.206 F 
ATOM     74  C   UNL     1       9.419  12.530  -6.861  1.00  0.00     0.040 A 
ATOM     75  C   UNL     1       7.067  12.610  -6.348  1.00  0.00     0.040 A 
ATOM     76  F   UNL     1       6.349  12.475  -4.117  1.00  0.00    -0.206 F 
ATOM     77  C   UNL     1       8.097  12.636  -7.288  1.00  0.00     0.006 A 
ENDBRANCH  49  70
BRANCH  61  78
ATOM     78  C   UNL     1      11.641  16.656   0.080  1.00  0.00     0.057 A 
ATOM     79  C   UNL     1      10.816  17.782  -0.025  1.00  0.00     0.134 A 
ATOM     80  C   UNL     1      13.026  16.863   0.111  1.00  0.00     0.134 A 
ATOM     81  F   UNL     1       9.483  17.646  -0.073  1.00  0.00    -0.206 F 
ATOM     82  C   UNL     1      11.351  19.068  -0.111  1.00  0.00     0.040 A 
ATOM     83  C   UNL     1      13.571  18.145   0.047  1.00  0.00     0.040 A 
ATOM     84  F   UNL     1      13.868  15.824   0.216  1.00  0.00    -0.206 F 
ATOM     85  C   UNL     1      12.732  19.252  -0.068  1.00  0.00     0.006 A 
ENDBRANCH  61  78
ENDBRANCH  35  36
ENDBRANCH  27  30
ENDBRANCH  25  26
ENDBRANCH   1  25
TORSDOF 13
