REMARK SMILES CNC(=O)[C@H](C)Oc1cc([N+](=O)[O-])c(C(=O)NCCCCNC(=O)c2ccc(-c3c4nc(c(-c5c(F)cccc5F)c5ccc([nH]5)c(-c5c(F)cccc5F)c5nc(c(-c6c(F)cccc6F)c6ccc3[nH]6)C=C5)C=C4)cc2)cc1OC
REMARK SMILES IDX 19 1 18 2 17 3 15 4 16 5 14 7 8 8 9 9 80 10 10 11 79 12 7 13
REMARK SMILES IDX 5 14 6 15 3 16 1 17 2 18 4 20 81 21 82 22 11 23 12 24 13 25
REMARK SMILES IDX 20 26 21 27 22 28 23 29 24 31 25 32 26 33 78 34 27 35 77 36
REMARK SMILES IDX 28 37 29 38 30 39 71 40 31 41 76 42 70 43 72 44 32 45 75 46
REMARK SMILES IDX 69 47 68 48 33 50 59 51 42 52 58 53 43 54 46 55 57 56 73 57
REMARK SMILES IDX 44 58 45 59 56 61 74 62 47 63 34 64 35 65 40 66 36 67 37 68
REMARK SMILES IDX 39 69 41 70 38 71 60 72 61 73 66 74 62 75 63 76 65 77 67 78
REMARK SMILES IDX 64 79 48 80 49 81 54 82 50 83 51 84 53 85 55 86 52 87
REMARK H PARENT 17 6 2 19 22 30 72 49 46 60
REMARK Flexibility Score: inf
ROOT
ATOM      1  C   UNL     1       1.331   3.343   3.379  1.00  0.00     0.023 C 
ENDROOT
BRANCH   1   2
ATOM      2  C   UNL     1       2.125   2.034   3.443  1.00  0.00     0.116 C 
BRANCH   2   3
ATOM      3  N   UNL     1       1.470   1.063   4.295  1.00  0.00    -0.352 N 
ATOM      4  C   UNL     1       0.535   0.086   4.061  1.00  0.00     0.258 C 
ATOM      5  O   UNL     1       0.285  -0.646   5.017  1.00  0.00    -0.269 OA
ATOM      6  H   UNL     1       1.753   1.115   5.237  1.00  0.00     0.163 HD
BRANCH   4   7
ATOM      7  C   UNL     1      -0.129  -0.164   2.741  1.00  0.00     0.121 A 
ATOM      8  C   UNL     1      -1.257  -0.784   0.191  1.00  0.00     0.169 A 
ATOM      9  C   UNL     1      -1.435  -1.647   1.263  1.00  0.00     0.137 A 
ATOM     10  C   UNL     1      -0.628   0.435   0.415  1.00  0.00     0.162 A 
ATOM     11  C   UNL     1      -0.874  -1.332   2.516  1.00  0.00     0.286 A 
ATOM     12  C   UNL     1      -0.085   0.739   1.671  1.00  0.00     0.071 A 
BRANCH   8  13
ATOM     13  O   UNL     1      -1.917  -1.024  -0.971  1.00  0.00    -0.477 OA
BRANCH  13  14
ATOM     14  C   UNL     1      -1.254  -1.814  -1.957  1.00  0.00     0.259 C 
ATOM     15  C   UNL     1      -1.469  -1.069  -3.286  1.00  0.00     0.064 C 
BRANCH  14  16
ATOM     16  C   UNL     1       0.241  -2.257  -1.858  1.00  0.00     0.260 C 
ATOM     17  C   UNL     1      -0.220  -4.271  -0.369  1.00  0.00     0.142 C 
ATOM     18  N   UNL     1       0.594  -3.355  -1.129  1.00  0.00    -0.356 N 
ATOM     19  H   UNL     1       1.558  -3.553  -1.120  1.00  0.00     0.163 HD
ATOM     20  O   UNL     1       1.153  -1.662  -2.439  1.00  0.00    -0.271 OA
ENDBRANCH  14  16
ENDBRANCH  13  14
ENDBRANCH   8  13
BRANCH  10  21
ATOM     21  O   UNL     1      -0.684   1.446  -0.506  1.00  0.00    -0.493 OA
ATOM     22  C   UNL     1       0.405   1.398  -1.425  1.00  0.00     0.278 C 
ENDBRANCH  10  21
BRANCH  11  23
ATOM     23  N   UNL     1      -1.224  -2.239   3.591  1.00  0.00     0.063 N 
ATOM     24  O   UNL     1      -0.656  -3.341   3.589  1.00  0.00    -0.258 OA
ATOM     25  O   UNL     1      -2.173  -1.905   4.313  1.00  0.00    -0.258 OA
ENDBRANCH  11  23
ENDBRANCH   4   7
ENDBRANCH   2   3
ENDBRANCH   1   2
BRANCH   1  26
ATOM     26  C   UNL     1       1.648   4.339   4.492  1.00  0.00     0.023 C 
BRANCH  26  27
ATOM     27  C   UNL     1       3.086   4.838   4.508  1.00  0.00     0.116 C 
BRANCH  27  28
ATOM     28  N   UNL     1       3.505   5.454   3.259  1.00  0.00    -0.352 N 
ATOM     29  C   UNL     1       4.483   6.403   3.072  1.00  0.00     0.251 C 
ATOM     30  H   UNL     1       3.032   5.155   2.449  1.00  0.00     0.163 HD
ATOM     31  O   UNL     1       4.669   6.902   1.972  1.00  0.00    -0.269 OA
BRANCH  29  32
ATOM     32  C   UNL     1       5.272   6.847   4.239  1.00  0.00     0.039 A 
ATOM     33  C   UNL     1       5.381   8.216   4.494  1.00  0.00     0.014 A 
ATOM     34  C   UNL     1       5.851   5.915   5.104  1.00  0.00     0.014 A 
ATOM     35  C   UNL     1       6.021   8.648   5.655  1.00  0.00     0.010 A 
ATOM     36  C   UNL     1       6.416   6.343   6.298  1.00  0.00     0.010 A 
ATOM     37  C   UNL     1       6.514   7.713   6.581  1.00  0.00    -0.014 A 
BRANCH  37  38
ATOM     38  C   UNL     1       7.156   8.152   7.843  1.00  0.00     0.031 A 
ATOM     39  C   UNL     1       8.610   7.860   8.084  1.00  0.00     0.074 A 
ATOM     40  C   UNL     1       6.419   8.761   8.791  1.00  0.00     0.049 A 
ATOM     41  N   UNL     1       9.343   8.120   9.136  1.00  0.00    -0.248 NA
ATOM     42  C   UNL     1       9.330   7.155   7.010  1.00  0.00     0.031 C 
ATOM     43  C   UNL     1       4.986   9.048   8.698  1.00  0.00     0.029 A 
ATOM     44  N   UNL     1       6.775   9.245  10.024  1.00  0.00    -0.354 N 
ATOM     45  C   UNL     1      10.600   7.599   8.857  1.00  0.00     0.074 A 
ATOM     46  C   UNL     1      10.517   6.957   7.564  1.00  0.00     0.031 C 
ATOM     47  C   UNL     1       4.592   9.684   9.814  1.00  0.00     0.029 A 
ATOM     48  C   UNL     1       5.735   9.823  10.710  1.00  0.00     0.049 A 
ATOM     49  H   UNL     1       7.689   9.183  10.383  1.00  0.00     0.167 HD
ATOM     50  C   UNL     1      11.730   7.675   9.598  1.00  0.00     0.037 A 
ATOM     51  C   UNL     1       5.711  10.403  11.925  1.00  0.00     0.037 A 
ATOM     52  C   UNL     1      11.818   8.341  10.870  1.00  0.00     0.049 A 
ATOM     53  C   UNL     1       6.984  10.492  12.720  1.00  0.00     0.074 A 
ATOM     54  C   UNL     1      12.927   8.519  11.677  1.00  0.00     0.029 A 
ATOM     55  N   UNL     1      10.750   8.944  11.518  1.00  0.00    -0.354 N 
ATOM     56  N   UNL     1       8.181  10.054  12.415  1.00  0.00    -0.248 NA
ATOM     57  C   UNL     1       6.904  11.166  14.023  1.00  0.00     0.031 C 
ATOM     58  C   UNL     1      12.524   9.203  12.829  1.00  0.00     0.029 A 
ATOM     59  C   UNL     1      11.172   9.487  12.720  1.00  0.00     0.049 A 
ATOM     60  H   UNL     1       9.828   8.980  11.174  1.00  0.00     0.167 HD
ATOM     61  C   UNL     1       9.003  10.427  13.471  1.00  0.00     0.074 A 
ATOM     62  C   UNL     1       8.168  11.138  14.418  1.00  0.00     0.031 C 
ATOM     63  C   UNL     1      10.329  10.203  13.642  1.00  0.00     0.037 A 
BRANCH  50  64
ATOM     64  C   UNL     1      12.964   7.030   9.039  1.00  0.00     0.057 A 
ATOM     65  C   UNL     1      13.634   7.561   7.928  1.00  0.00     0.134 A 
ATOM     66  C   UNL     1      13.501   5.878   9.627  1.00  0.00     0.134 A 
ATOM     67  F   UNL     1      13.162   8.654   7.309  1.00  0.00    -0.206 F 
ATOM     68  C   UNL     1      14.777   6.954   7.405  1.00  0.00     0.040 A 
ATOM     69  C   UNL     1      14.659   5.278   9.129  1.00  0.00     0.040 A 
ATOM     70  F   UNL     1      12.911   5.319  10.694  1.00  0.00    -0.206 F 
ATOM     71  C   UNL     1      15.296   5.812   8.011  1.00  0.00     0.006 A 
ENDBRANCH  50  64
BRANCH  51  72
ATOM     72  C   UNL     1       4.450  10.986  12.447  1.00  0.00     0.057 A 
ATOM     73  C   UNL     1       4.287  12.372  12.553  1.00  0.00     0.134 A 
ATOM     74  C   UNL     1       3.386  10.178  12.864  1.00  0.00     0.134 A 
ATOM     75  F   UNL     1       5.279  13.197  12.186  1.00  0.00    -0.206 F 
ATOM     76  C   UNL     1       3.122  12.935  13.076  1.00  0.00     0.040 A 
ATOM     77  C   UNL     1       2.205  10.727  13.366  1.00  0.00     0.040 A 
ATOM     78  F   UNL     1       3.476   8.842  12.779  1.00  0.00    -0.206 F 
ATOM     79  C   UNL     1       2.075  12.110  13.481  1.00  0.00     0.006 A 
ENDBRANCH  51  72
BRANCH  63  80
ATOM     80  C   UNL     1      10.964  10.770  14.876  1.00  0.00     0.057 A 
ATOM     81  C   UNL     1      10.736  10.223  16.144  1.00  0.00     0.134 A 
ATOM     82  C   UNL     1      11.837  11.862  14.787  1.00  0.00     0.134 A 
ATOM     83  F   UNL     1       9.900   9.185  16.297  1.00  0.00    -0.206 F 
ATOM     84  C   UNL     1      11.335  10.758  17.286  1.00  0.00     0.040 A 
ATOM     85  C   UNL     1      12.462  12.389  15.917  1.00  0.00     0.040 A 
ATOM     86  F   UNL     1      12.104  12.426  13.600  1.00  0.00    -0.206 F 
ATOM     87  C   UNL     1      12.206  11.841  17.172  1.00  0.00     0.006 A 
ENDBRANCH  63  80
ENDBRANCH  37  38
ENDBRANCH  29  32
ENDBRANCH  27  28
ENDBRANCH  26  27
ENDBRANCH   1  26
TORSDOF 16
