REMARK SMILES CCC[NH2+][C@H]1C[C@@H](C(=O)NCCCCNC(=O)c2ccc(-c3c4nc(c(-c5c(F)cccc5F)c5ccc([nH]5)c(-c5c(F)cccc5F)c5nc(c(-c6c(F)cccc6F)c6ccc3[nH]6)C=C5)C=C4)cc2)C1
REMARK SMILES IDX 12 1 11 2 10 3 8 4 9 5 7 7 5 8 72 9 6 10 4 11 3 14 2 15 1 16
REMARK SMILES IDX 13 17 14 18 15 19 16 20 17 22 18 23 19 24 71 25 20 26 70 27
REMARK SMILES IDX 21 28 22 29 23 30 64 31 24 32 69 33 63 34 65 35 25 36 68 37
REMARK SMILES IDX 62 38 61 39 26 41 52 42 35 43 51 44 36 45 39 46 50 47 66 48
REMARK SMILES IDX 37 49 38 50 49 52 67 53 40 54 27 55 28 56 33 57 29 58 30 59
REMARK SMILES IDX 32 60 34 61 31 62 53 63 54 64 59 65 55 66 56 67 58 68 60 69
REMARK SMILES IDX 57 70 41 71 42 72 47 73 43 74 44 75 46 76 48 77 45 78
REMARK H PARENT 10 6 4 12 4 13 15 21 65 40 39 51
REMARK Flexibility Score: inf
ROOT
ATOM      1  C   UNL     1      -3.280  -1.984   5.112  1.00  0.00     0.023 C 
ENDROOT
BRANCH   1   2
ATOM      2  C   UNL     1      -2.566  -0.671   5.421  1.00  0.00     0.116 C 
BRANCH   2   3
ATOM      3  N   UNL     1      -1.996  -0.666   6.754  1.00  0.00    -0.356 N 
ATOM      4  C   UNL     1      -0.690  -0.613   7.174  1.00  0.00     0.223 C 
ATOM      5  O   UNL     1      -0.522  -0.638   8.403  1.00  0.00    -0.275 OA
ATOM      6  H   UNL     1      -2.657  -0.708   7.481  1.00  0.00     0.163 HD
BRANCH   4   7
ATOM      7  C   UNL     1       0.492  -0.519   6.196  1.00  0.00     0.090 C 
ATOM      8  C   UNL     1       1.210  -0.391   4.174  1.00  0.00     0.183 C 
ATOM      9  C   UNL     1       0.565   0.618   5.151  1.00  0.00     0.078 C 
ATOM     10  C   UNL     1       0.661  -1.538   5.048  1.00  0.00     0.078 C 
BRANCH   8  11
ATOM     11  N   UNL     1       0.485  -0.329   2.902  1.00  0.00    -0.344 N 
ATOM     12  H   UNL     1      -0.509  -0.482   3.071  1.00  0.00     0.346 HD
ATOM     13  H   UNL     1       0.623   0.589   2.479  1.00  0.00     0.346 HD
BRANCH  11  14
ATOM     14  C   UNL     1       0.992  -1.365   1.995  1.00  0.00     0.260 C 
BRANCH  14  15
ATOM     15  C   UNL     1       0.407  -1.234   0.585  1.00  0.00     0.058 C 
ATOM     16  C   UNL     1       0.897  -0.001  -0.162  1.00  0.00     0.010 C 
ENDBRANCH  14  15
ENDBRANCH  11  14
ENDBRANCH   8  11
ENDBRANCH   4   7
ENDBRANCH   2   3
ENDBRANCH   1   2
BRANCH   1  17
ATOM     17  C   UNL     1      -4.510  -2.267   5.977  1.00  0.00     0.023 C 
BRANCH  17  18
ATOM     18  C   UNL     1      -5.565  -1.166   5.991  1.00  0.00     0.116 C 
BRANCH  18  19
ATOM     19  N   UNL     1      -6.087  -0.857   4.669  1.00  0.00    -0.352 N 
ATOM     20  C   UNL     1      -7.391  -0.707   4.263  1.00  0.00     0.251 C 
ATOM     21  H   UNL     1      -5.409  -0.740   3.964  1.00  0.00     0.163 HD
ATOM     22  O   UNL     1      -7.656  -0.572   3.072  1.00  0.00    -0.269 OA
BRANCH  20  23
ATOM     23  C   UNL     1      -8.480  -0.742   5.261  1.00  0.00     0.039 A 
ATOM     24  C   UNL     1      -9.608  -1.525   5.000  1.00  0.00     0.014 A 
ATOM     25  C   UNL     1      -8.385  -0.024   6.456  1.00  0.00     0.014 A 
ATOM     26  C   UNL     1     -10.606  -1.645   5.969  1.00  0.00     0.010 A 
ATOM     27  C   UNL     1      -9.342  -0.206   7.450  1.00  0.00     0.010 A 
ATOM     28  C   UNL     1     -10.462  -1.020   7.218  1.00  0.00    -0.014 A 
BRANCH  28  29
ATOM     29  C   UNL     1     -11.465  -1.214   8.296  1.00  0.00     0.031 A 
ATOM     30  C   UNL     1     -12.254  -0.045   8.817  1.00  0.00     0.074 A 
ATOM     31  C   UNL     1     -11.618  -2.431   8.853  1.00  0.00     0.049 A 
ATOM     32  N   UNL     1     -13.124  -0.004   9.795  1.00  0.00    -0.248 NA
ATOM     33  C   UNL     1     -12.015   1.256   8.173  1.00  0.00     0.031 C 
ATOM     34  C   UNL     1     -10.876  -3.635   8.474  1.00  0.00     0.029 A 
ATOM     35  N   UNL     1     -12.440  -2.855   9.867  1.00  0.00    -0.354 N 
ATOM     36  C   UNL     1     -13.521   1.323   9.893  1.00  0.00     0.074 A 
ATOM     37  C   UNL     1     -12.760   2.065   8.911  1.00  0.00     0.031 C 
ATOM     38  C   UNL     1     -11.292  -4.665   9.229  1.00  0.00     0.029 A 
ATOM     39  C   UNL     1     -12.300  -4.188  10.171  1.00  0.00     0.049 A 
ATOM     40  H   UNL     1     -13.072  -2.260  10.333  1.00  0.00     0.167 HD
ATOM     41  C   UNL     1     -14.452   1.871  10.710  1.00  0.00     0.037 A 
ATOM     42  C   UNL     1     -12.907  -4.940  11.108  1.00  0.00     0.037 A 
ATOM     43  C   UNL     1     -15.225   1.126  11.670  1.00  0.00     0.049 A 
ATOM     44  C   UNL     1     -13.935  -4.308  12.006  1.00  0.00     0.074 A 
ATOM     45  C   UNL     1     -16.238   1.579  12.497  1.00  0.00     0.029 A 
ATOM     46  N   UNL     1     -15.066  -0.226  11.934  1.00  0.00    -0.354 N 
ATOM     47  N   UNL     1     -14.354  -3.066  12.036  1.00  0.00    -0.248 NA
ATOM     48  C   UNL     1     -14.578  -5.183  12.995  1.00  0.00     0.031 C 
ATOM     49  C   UNL     1     -16.658   0.512  13.297  1.00  0.00     0.029 A 
ATOM     50  C   UNL     1     -15.946  -0.619  12.930  1.00  0.00     0.049 A 
ATOM     51  H   UNL     1     -14.424  -0.819  11.481  1.00  0.00     0.167 HD
ATOM     52  C   UNL     1     -15.329  -3.017  13.025  1.00  0.00     0.074 A 
ATOM     53  C   UNL     1     -15.448  -4.358  13.560  1.00  0.00     0.031 C 
ATOM     54  C   UNL     1     -16.059  -1.958  13.450  1.00  0.00     0.037 A 
BRANCH  41  55
ATOM     55  C   UNL     1     -14.687   3.350  10.601  1.00  0.00     0.057 A 
ATOM     56  C   UNL     1     -15.304   3.920   9.479  1.00  0.00     0.134 A 
ATOM     57  C   UNL     1     -14.326   4.210  11.646  1.00  0.00     0.134 A 
ATOM     58  F   UNL     1     -15.665   3.155   8.438  1.00  0.00    -0.206 F 
ATOM     59  C   UNL     1     -15.528   5.295   9.389  1.00  0.00     0.040 A 
ATOM     60  C   UNL     1     -14.572   5.583  11.579  1.00  0.00     0.040 A 
ATOM     61  F   UNL     1     -13.738   3.730  12.752  1.00  0.00    -0.206 F 
ATOM     62  C   UNL     1     -15.168   6.130  10.445  1.00  0.00     0.006 A 
ENDBRANCH  41  55
BRANCH  42  63
ATOM     63  C   UNL     1     -12.574  -6.381  11.234  1.00  0.00     0.057 A 
ATOM     64  C   UNL     1     -13.498  -7.370  10.877  1.00  0.00     0.134 A 
ATOM     65  C   UNL     1     -11.332  -6.806  11.719  1.00  0.00     0.134 A 
ATOM     66  F   UNL     1     -14.713  -7.027  10.424  1.00  0.00    -0.206 F 
ATOM     67  C   UNL     1     -13.207  -8.728  11.015  1.00  0.00     0.040 A 
ATOM     68  C   UNL     1     -11.017  -8.161  11.838  1.00  0.00     0.040 A 
ATOM     69  F   UNL     1     -10.399  -5.909  12.071  1.00  0.00    -0.206 F 
ATOM     70  C   UNL     1     -11.960  -9.127  11.492  1.00  0.00     0.006 A 
ENDBRANCH  42  63
BRANCH  54  71
ATOM     71  C   UNL     1     -17.079  -2.210  14.523  1.00  0.00     0.057 A 
ATOM     72  C   UNL     1     -16.712  -2.473  15.848  1.00  0.00     0.134 A 
ATOM     73  C   UNL     1     -18.448  -2.150  14.231  1.00  0.00     0.134 A 
ATOM     74  F   UNL     1     -15.417  -2.557  16.192  1.00  0.00    -0.206 F 
ATOM     75  C   UNL     1     -17.669  -2.691  16.840  1.00  0.00     0.040 A 
ATOM     76  C   UNL     1     -19.414  -2.337  15.220  1.00  0.00     0.040 A 
ATOM     77  F   UNL     1     -18.868  -1.893  12.983  1.00  0.00    -0.206 F 
ATOM     78  C   UNL     1     -19.025  -2.615  16.528  1.00  0.00     0.006 A 
ENDBRANCH  54  71
ENDBRANCH  28  29
ENDBRANCH  20  23
ENDBRANCH  18  19
ENDBRANCH  17  18
ENDBRANCH   1  17
TORSDOF 14
