REMARK SMILES CC[C@H](NC(=O)c1nn(C)cc1C(=O)NCCCCNC(=O)c1ccc(-c2c3nc(c(-c4c(F)cccc4F)c4ccc([nH]4)c(-c4c(F)cccc4F)c4nc(c(-c5c(F)cccc5F)c5ccc2[nH]5)C=C4)C=C3)cc1)c1ccccc1
REMARK SMILES IDX 17 1 16 2 15 3 13 4 14 5 12 7 7 8 8 9 9 10 11 11 10 12 5 13
REMARK SMILES IDX 4 14 6 16 3 17 2 18 1 19 77 20 78 21 82 22 79 23 81 24 80 25
REMARK SMILES IDX 18 26 19 27 20 28 21 29 22 31 23 32 24 33 76 34 25 35 75 36
REMARK SMILES IDX 26 37 27 38 28 39 69 40 29 41 74 42 68 43 70 44 30 45 73 46
REMARK SMILES IDX 67 47 66 48 31 50 57 51 40 52 56 53 41 54 44 55 55 56 71 57
REMARK SMILES IDX 42 58 43 59 54 61 72 62 45 63 32 64 33 65 38 66 34 67 35 68
REMARK SMILES IDX 37 69 39 70 36 71 58 72 59 73 64 74 60 75 61 76 63 77 65 78
REMARK SMILES IDX 62 79 46 80 47 81 52 82 48 83 49 84 51 85 53 86 50 87
REMARK H PARENT 15 6 4 15 20 30 70 49 44 60
REMARK Flexibility Score: inf
ROOT
ATOM      1  C   UNL     1       4.132  -2.220  -6.828  1.00  0.00     0.023 C 
ENDROOT
BRANCH   1   2
ATOM      2  C   UNL     1       2.761  -1.928  -6.187  1.00  0.00     0.116 C 
BRANCH   2   3
ATOM      3  N   UNL     1       2.728  -2.406  -4.815  1.00  0.00    -0.352 N 
ATOM      4  C   UNL     1       2.968  -1.730  -3.647  1.00  0.00     0.255 C 
ATOM      5  O   UNL     1       3.243  -2.383  -2.645  1.00  0.00    -0.269 OA
ATOM      6  H   UNL     1       2.499  -3.357  -4.708  1.00  0.00     0.163 HD
BRANCH   4   7
ATOM      7  C   UNL     1       2.969  -0.288  -3.656  1.00  0.00     0.090 A 
ATOM      8  C   UNL     1       2.040   0.692  -3.153  1.00  0.00     0.162 A 
ATOM      9  N   UNL     1       2.545   1.928  -3.400  1.00  0.00    -0.167 NA
ATOM     10  N   UNL     1       3.720   1.746  -3.992  1.00  0.00    -0.274 N 
ATOM     11  C   UNL     1       4.036   0.442  -4.160  1.00  0.00     0.123 A 
ATOM     12  C   UNL     1       4.497   2.898  -4.384  1.00  0.00     0.173 C 
BRANCH   8  13
ATOM     13  C   UNL     1       0.703   0.688  -2.495  1.00  0.00     0.273 C 
ATOM     14  N   UNL     1       0.062  -0.366  -1.906  1.00  0.00    -0.344 N 
ATOM     15  H   UNL     1      -0.785  -0.094  -1.483  1.00  0.00     0.164 HD
ATOM     16  O   UNL     1       0.036   1.732  -2.421  1.00  0.00    -0.267 OA
BRANCH  14  17
ATOM     17  C   UNL     1       0.317  -1.784  -1.748  1.00  0.00     0.112 C 
BRANCH  17  18
ATOM     18  C   UNL     1      -0.319  -2.305  -0.439  1.00  0.00     0.026 C 
ATOM     19  C   UNL     1       0.368  -1.742   0.800  1.00  0.00     0.006 C 
ENDBRANCH  17  18
BRANCH  17  20
ATOM     20  C   UNL     1      -0.195  -2.587  -2.939  1.00  0.00    -0.026 A 
ATOM     21  C   UNL     1      -1.123  -2.063  -3.855  1.00  0.00     0.006 A 
ATOM     22  C   UNL     1       0.243  -3.910  -3.128  1.00  0.00     0.006 A 
ATOM     23  C   UNL     1      -1.587  -2.830  -4.926  1.00  0.00     0.000 A 
ATOM     24  C   UNL     1      -0.225  -4.678  -4.199  1.00  0.00     0.000 A 
ATOM     25  C   UNL     1      -1.140  -4.137  -5.098  1.00  0.00     0.000 A 
ENDBRANCH  17  20
ENDBRANCH  14  17
ENDBRANCH   8  13
ENDBRANCH   4   7
ENDBRANCH   2   3
ENDBRANCH   1   2
BRANCH   1  26
ATOM     26  C   UNL     1       4.534  -3.710  -6.835  1.00  0.00     0.023 C 
BRANCH  26  27
ATOM     27  C   UNL     1       3.720  -4.581  -7.795  1.00  0.00     0.116 C 
BRANCH  27  28
ATOM     28  N   UNL     1       4.068  -4.322  -9.182  1.00  0.00    -0.352 N 
ATOM     29  C   UNL     1       4.148  -5.193 -10.239  1.00  0.00     0.251 C 
ATOM     30  H   UNL     1       4.278  -3.384  -9.394  1.00  0.00     0.163 HD
ATOM     31  O   UNL     1       4.662  -4.821 -11.291  1.00  0.00    -0.269 OA
BRANCH  29  32
ATOM     32  C   UNL     1       3.633  -6.578 -10.135  1.00  0.00     0.039 A 
ATOM     33  C   UNL     1       4.407  -7.614 -10.672  1.00  0.00     0.014 A 
ATOM     34  C   UNL     1       2.364  -6.854  -9.614  1.00  0.00     0.014 A 
ATOM     35  C   UNL     1       3.922  -8.924 -10.675  1.00  0.00     0.010 A 
ATOM     36  C   UNL     1       1.884  -8.168  -9.607  1.00  0.00     0.010 A 
ATOM     37  C   UNL     1       2.653  -9.207 -10.152  1.00  0.00    -0.014 A 
BRANCH  37  38
ATOM     38  C   UNL     1       2.105 -10.582 -10.210  1.00  0.00     0.031 A 
ATOM     39  C   UNL     1       1.145 -10.968 -11.298  1.00  0.00     0.074 A 
ATOM     40  C   UNL     1       2.458 -11.483  -9.276  1.00  0.00     0.049 A 
ATOM     41  N   UNL     1       0.500 -12.095 -11.466  1.00  0.00    -0.248 NA
ATOM     42  C   UNL     1       0.867  -9.952 -12.325  1.00  0.00     0.031 C 
ATOM     43  C   UNL     1       3.381 -11.238  -8.168  1.00  0.00     0.029 A 
ATOM     44  N   UNL     1       2.074 -12.789  -9.114  1.00  0.00    -0.354 N 
ATOM     45  C   UNL     1      -0.279 -11.918 -12.600  1.00  0.00     0.074 A 
ATOM     46  C   UNL     1      -0.018 -10.579 -13.089  1.00  0.00     0.031 C 
ATOM     47  C   UNL     1       3.494 -12.361  -7.440  1.00  0.00     0.029 A 
ATOM     48  C   UNL     1       2.644 -13.396  -8.024  1.00  0.00     0.049 A 
ATOM     49  H   UNL     1       1.449 -13.247  -9.721  1.00  0.00     0.167 HD
ATOM     50  C   UNL     1      -1.141 -12.788 -13.177  1.00  0.00     0.037 A 
ATOM     51  C   UNL     1       2.494 -14.646  -7.548  1.00  0.00     0.037 A 
ATOM     52  C   UNL     1      -1.393 -14.127 -12.719  1.00  0.00     0.049 A 
ATOM     53  C   UNL     1       1.579 -15.611  -8.241  1.00  0.00     0.074 A 
ATOM     54  C   UNL     1      -2.269 -15.068 -13.233  1.00  0.00     0.029 A 
ATOM     55  N   UNL     1      -0.753 -14.721 -11.644  1.00  0.00    -0.354 N 
ATOM     56  N   UNL     1       0.823 -15.417  -9.292  1.00  0.00    -0.248 NA
ATOM     57  C   UNL     1       1.498 -16.968  -7.679  1.00  0.00     0.031 C 
ATOM     58  C   UNL     1      -2.154 -16.238 -12.470  1.00  0.00     0.029 A 
ATOM     59  C   UNL     1      -1.205 -16.021 -11.485  1.00  0.00     0.049 A 
ATOM     60  H   UNL     1      -0.077 -14.285 -11.076  1.00  0.00     0.167 HD
ATOM     61  C   UNL     1       0.171 -16.622  -9.516  1.00  0.00     0.074 A 
ATOM     62  C   UNL     1       0.629 -17.546  -8.499  1.00  0.00     0.031 C 
ATOM     63  C   UNL     1      -0.734 -16.929 -10.475  1.00  0.00     0.037 A 
BRANCH  50  64
ATOM     64  C   UNL     1      -1.894 -12.299 -14.371  1.00  0.00     0.057 A 
ATOM     65  C   UNL     1      -1.368 -12.419 -15.662  1.00  0.00     0.134 A 
ATOM     66  C   UNL     1      -3.163 -11.726 -14.229  1.00  0.00     0.134 A 
ATOM     67  F   UNL     1      -0.152 -12.950 -15.856  1.00  0.00    -0.206 F 
ATOM     68  C   UNL     1      -2.081 -11.978 -16.777  1.00  0.00     0.040 A 
ATOM     69  C   UNL     1      -3.887 -11.285 -15.337  1.00  0.00     0.040 A 
ATOM     70  F   UNL     1      -3.713 -11.580 -13.015  1.00  0.00    -0.206 F 
ATOM     71  C   UNL     1      -3.345 -11.411 -16.616  1.00  0.00     0.006 A 
ENDBRANCH  50  64
BRANCH  51  72
ATOM     72  C   UNL     1       3.235 -15.057  -6.338  1.00  0.00     0.057 A 
ATOM     73  C   UNL     1       4.466 -15.713  -6.437  1.00  0.00     0.134 A 
ATOM     74  C   UNL     1       2.731 -14.797  -5.060  1.00  0.00     0.134 A 
ATOM     75  F   UNL     1       4.985 -15.999  -7.640  1.00  0.00    -0.206 F 
ATOM     76  C   UNL     1       5.174 -16.101  -5.301  1.00  0.00     0.040 A 
ATOM     77  C   UNL     1       3.431 -15.175  -3.915  1.00  0.00     0.040 A 
ATOM     78  F   UNL     1       1.553 -14.175  -4.910  1.00  0.00    -0.206 F 
ATOM     79  C   UNL     1       4.657 -15.829  -4.034  1.00  0.00     0.006 A 
ENDBRANCH  51  72
BRANCH  63  80
ATOM     80  C   UNL     1      -1.282 -18.319 -10.466  1.00  0.00     0.057 A 
ATOM     81  C   UNL     1      -2.413 -18.643  -9.709  1.00  0.00     0.134 A 
ATOM     82  C   UNL     1      -0.693 -19.331 -11.232  1.00  0.00     0.134 A 
ATOM     83  F   UNL     1      -3.014 -17.715  -8.949  1.00  0.00    -0.206 F 
ATOM     84  C   UNL     1      -2.940 -19.935  -9.711  1.00  0.00     0.040 A 
ATOM     85  C   UNL     1      -1.211 -20.626 -11.242  1.00  0.00     0.040 A 
ATOM     86  F   UNL     1       0.398 -19.078 -11.970  1.00  0.00    -0.206 F 
ATOM     87  C   UNL     1      -2.339 -20.931 -10.480  1.00  0.00     0.006 A 
ENDBRANCH  63  80
ENDBRANCH  37  38
ENDBRANCH  29  32
ENDBRANCH  27  28
ENDBRANCH  26  27
ENDBRANCH   1  26
TORSDOF 15
