REMARK SMILES Cc1nc2ccc(Cl)cc2cc1C(=O)N1CCC(C(=O)NCCCCNC(=O)c2ccc(-c3c4nc(c(-c5c(F)cccc5F)c5ccc([nH]5)c(-c5c(F)cccc5F)c5nc(c(-c6c(F)cccc6F)c6ccc3[nH]6)C=C5)C=C4)cc2)CC1
REMARK SMILES IDX 24 1 23 2 22 3 21 4 19 5 20 6 18 8 13 9 14 10 15 11 16 12
REMARK SMILES IDX 84 13 17 14 83 15 12 16 1 17 2 18 3 19 4 20 11 21 5 22 10 23
REMARK SMILES IDX 6 24 9 25 7 26 8 27 25 28 26 29 27 30 28 32 29 33 30 34
REMARK SMILES IDX 82 35 31 36 81 37 32 38 33 39 34 40 75 41 35 42 80 43 74 44
REMARK SMILES IDX 76 45 36 46 79 47 73 48 72 49 37 51 63 52 46 53 62 54 47 55
REMARK SMILES IDX 50 56 61 57 77 58 48 59 49 60 60 62 78 63 51 64 38 65 39 66
REMARK SMILES IDX 44 67 40 68 41 69 43 70 45 71 42 72 64 73 65 74 70 75 66 76
REMARK SMILES IDX 67 77 69 78 71 79 68 80 52 81 53 82 58 83 54 84 55 85 57 86
REMARK SMILES IDX 59 87 56 88
REMARK H PARENT 21 7 26 31 76 50 50 61
REMARK Flexibility Score: inf
ROOT
ATOM      1  C   UNL     1      -7.691  -8.348   0.899  1.00  0.00     0.023 C 
ENDROOT
BRANCH   1   2
ATOM      2  C   UNL     1      -6.824  -7.152   0.524  1.00  0.00     0.023 C 
BRANCH   2   3
ATOM      3  C   UNL     1      -5.718  -6.840   1.528  1.00  0.00     0.116 C 
BRANCH   3   4
ATOM      4  N   UNL     1      -4.706  -7.884   1.561  1.00  0.00    -0.356 N 
ATOM      5  C   UNL     1      -3.398  -7.860   1.185  1.00  0.00     0.223 C 
ATOM      6  O   UNL     1      -2.745  -8.900   1.285  1.00  0.00    -0.275 OA
ATOM      7  H   UNL     1      -5.018  -8.749   1.913  1.00  0.00     0.163 HD
BRANCH   5   8
ATOM      8  C   UNL     1      -2.749  -6.586   0.667  1.00  0.00     0.082 C 
ATOM      9  C   UNL     1      -3.509  -2.509  -0.250  1.00  0.00     0.255 C 
ATOM     10  O   UNL     1      -4.562  -2.326  -0.853  1.00  0.00    -0.269 OA
ATOM     11  N   UNL     1      -3.043  -3.794   0.044  1.00  0.00    -0.339 N 
ATOM     12  C   UNL     1      -3.010  -4.736  -1.060  1.00  0.00     0.120 C 
ATOM     13  C   UNL     1      -2.279  -4.152   1.237  1.00  0.00     0.120 C 
ATOM     14  C   UNL     1      -3.391  -6.141  -0.652  1.00  0.00     0.035 C 
ATOM     15  C   UNL     1      -2.681  -5.518   1.771  1.00  0.00     0.035 C 
BRANCH   9  16
ATOM     16  C   UNL     1      -2.586  -1.361  -0.019  1.00  0.00     0.061 A 
ATOM     17  C   UNL     1      -4.438   0.389   0.200  1.00  0.00     0.067 C 
ATOM     18  C   UNL     1      -3.001  -0.040   0.144  1.00  0.00     0.051 A 
ATOM     19  N   UNL     1      -2.109   0.998   0.198  1.00  0.00    -0.252 NA
ATOM     20  C   UNL     1      -0.789   0.750   0.097  1.00  0.00     0.071 A 
ATOM     21  C   UNL     1      -1.211  -1.593  -0.147  1.00  0.00     0.026 A 
ATOM     22  C   UNL     1       0.133   1.789   0.122  1.00  0.00     0.030 A 
ATOM     23  C   UNL     1      -0.292  -0.553  -0.056  1.00  0.00     0.002 A 
ATOM     24  C   UNL     1       1.512   1.553   0.035  1.00  0.00     0.023 A 
ATOM     25  C   UNL     1       1.086  -0.806  -0.135  1.00  0.00     0.030 A 
ATOM     26  C   UNL     1       1.983   0.251  -0.079  1.00  0.00     0.041 A 
ATOM     27  Cl  UNL     1       3.671  -0.059  -0.152  1.00  0.00    -0.084 Cl
ENDBRANCH   9  16
ENDBRANCH   5   8
ENDBRANCH   3   4
ENDBRANCH   2   3
ENDBRANCH   1   2
BRANCH   1  28
ATOM     28  C   UNL     1      -8.300  -8.273   2.291  1.00  0.00     0.116 C 
BRANCH  28  29
ATOM     29  N   UNL     1      -9.109  -7.080   2.494  1.00  0.00    -0.352 N 
ATOM     30  C   UNL     1     -10.345  -6.976   3.079  1.00  0.00     0.251 C 
ATOM     31  H   UNL     1      -8.716  -6.238   2.170  1.00  0.00     0.163 HD
ATOM     32  O   UNL     1     -10.961  -5.914   3.052  1.00  0.00    -0.269 OA
BRANCH  30  33
ATOM     33  C   UNL     1     -10.942  -8.164   3.719  1.00  0.00     0.039 A 
ATOM     34  C   UNL     1     -12.275  -8.479   3.452  1.00  0.00     0.014 A 
ATOM     35  C   UNL     1     -10.175  -8.978   4.557  1.00  0.00     0.014 A 
ATOM     36  C   UNL     1     -12.828  -9.639   3.996  1.00  0.00     0.010 A 
ATOM     37  C   UNL     1     -10.696 -10.181   5.014  1.00  0.00     0.010 A 
ATOM     38  C   UNL     1     -12.036 -10.510   4.762  1.00  0.00    -0.014 A 
BRANCH  38  39
ATOM     39  C   UNL     1     -12.606 -11.745   5.353  1.00  0.00     0.031 A 
ATOM     40  C   UNL     1     -12.653 -11.904   6.848  1.00  0.00     0.074 A 
ATOM     41  C   UNL     1     -13.031 -12.740   4.553  1.00  0.00     0.049 A 
ATOM     42  N   UNL     1     -13.075 -12.918   7.561  1.00  0.00    -0.248 NA
ATOM     43  C   UNL     1     -12.120 -10.790   7.648  1.00  0.00     0.031 C 
ATOM     44  C   UNL     1     -12.983 -12.731   3.090  1.00  0.00     0.029 A 
ATOM     45  N   UNL     1     -13.582 -13.957   4.861  1.00  0.00    -0.354 N 
ATOM     46  C   UNL     1     -12.843 -12.567   8.885  1.00  0.00     0.074 A 
ATOM     47  C   UNL     1     -12.175 -11.286   8.873  1.00  0.00     0.031 C 
ATOM     48  C   UNL     1     -13.510 -13.876   2.628  1.00  0.00     0.029 A 
ATOM     49  C   UNL     1     -13.901 -14.711   3.759  1.00  0.00     0.049 A 
ATOM     50  H   UNL     1     -13.735 -14.262   5.785  1.00  0.00     0.167 HD
ATOM     51  C   UNL     1     -13.185 -13.236  10.012  1.00  0.00     0.037 A 
ATOM     52  C   UNL     1     -14.449 -15.937   3.672  1.00  0.00     0.037 A 
ATOM     53  C   UNL     1     -13.865 -14.504  10.018  1.00  0.00     0.049 A 
ATOM     54  C   UNL     1     -14.832 -16.660   4.933  1.00  0.00     0.074 A 
ATOM     55  C   UNL     1     -14.304 -15.243  11.101  1.00  0.00     0.029 A 
ATOM     56  N   UNL     1     -14.200 -15.223   8.880  1.00  0.00    -0.354 N 
ATOM     57  N   UNL     1     -14.675 -16.288   6.181  1.00  0.00    -0.248 NA
ATOM     58  C   UNL     1     -15.485 -17.966   4.773  1.00  0.00     0.031 C 
ATOM     59  C   UNL     1     -14.859 -16.434  10.620  1.00  0.00     0.029 A 
ATOM     60  C   UNL     1     -14.824 -16.408   9.235  1.00  0.00     0.049 A 
ATOM     61  H   UNL     1     -14.021 -14.934   7.956  1.00  0.00     0.167 HD
ATOM     62  C   UNL     1     -15.239 -17.296   6.954  1.00  0.00     0.074 A 
ATOM     63  C   UNL     1     -15.750 -18.289   6.031  1.00  0.00     0.031 C 
ATOM     64  C   UNL     1     -15.331 -17.386   8.304  1.00  0.00     0.037 A 
BRANCH  51  65
ATOM     65  C   UNL     1     -12.815 -12.599  11.323  1.00  0.00     0.057 A 
ATOM     66  C   UNL     1     -13.399 -11.400  11.758  1.00  0.00     0.134 A 
ATOM     67  C   UNL     1     -11.851 -13.181  12.155  1.00  0.00     0.134 A 
ATOM     68  F   UNL     1     -14.320 -10.779  11.004  1.00  0.00    -0.206 F 
ATOM     69  C   UNL     1     -13.003 -10.780  12.945  1.00  0.00     0.040 A 
ATOM     70  C   UNL     1     -11.473 -12.590  13.362  1.00  0.00     0.040 A 
ATOM     71  F   UNL     1     -11.255 -14.332  11.807  1.00  0.00    -0.206 F 
ATOM     72  C   UNL     1     -12.040 -11.379  13.753  1.00  0.00     0.006 A 
ENDBRANCH  51  65
BRANCH  52  73
ATOM     73  C   UNL     1     -14.706 -16.534   2.337  1.00  0.00     0.057 A 
ATOM     74  C   UNL     1     -16.008 -16.669   1.843  1.00  0.00     0.134 A 
ATOM     75  C   UNL     1     -13.656 -16.962   1.515  1.00  0.00     0.134 A 
ATOM     76  F   UNL     1     -17.056 -16.291   2.589  1.00  0.00    -0.206 F 
ATOM     77  C   UNL     1     -16.260 -17.220   0.585  1.00  0.00     0.040 A 
ATOM     78  C   UNL     1     -13.892 -17.491   0.246  1.00  0.00     0.040 A 
ATOM     79  F   UNL     1     -12.385 -16.849   1.927  1.00  0.00    -0.206 F 
ATOM     80  C   UNL     1     -15.198 -17.627  -0.220  1.00  0.00     0.006 A 
ENDBRANCH  52  73
BRANCH  64  81
ATOM     81  C   UNL     1     -16.055 -18.578   8.865  1.00  0.00     0.057 A 
ATOM     82  C   UNL     1     -15.524 -19.872   8.804  1.00  0.00     0.134 A 
ATOM     83  C   UNL     1     -17.294 -18.418   9.500  1.00  0.00     0.134 A 
ATOM     84  F   UNL     1     -14.347 -20.097   8.201  1.00  0.00    -0.206 F 
ATOM     85  C   UNL     1     -16.213 -20.969   9.325  1.00  0.00     0.040 A 
ATOM     86  C   UNL     1     -17.977 -19.501  10.053  1.00  0.00     0.040 A 
ATOM     87  F   UNL     1     -17.855 -17.203   9.604  1.00  0.00    -0.206 F 
ATOM     88  C   UNL     1     -17.441 -20.783   9.958  1.00  0.00     0.006 A 
ENDBRANCH  64  81
ENDBRANCH  38  39
ENDBRANCH  30  33
ENDBRANCH  28  29
ENDBRANCH   1  28
TORSDOF 12
