REMARK SMILES CCc1c([N+](=O)[O-])cc(C(=O)NCCCCNC(=O)c2ccc(-c3c4nc(c(-c5c(F)cccc5F)c5ccc([nH]5)c(-c5c(F)cccc5F)c5nc(c(-c6c(F)cccc6F)c6ccc3[nH]6)C=C5)C=C4)cc2)n1C
REMARK SMILES IDX 15 1 14 2 13 3 12 4 10 5 11 6 9 8 3 9 4 10 74 11 8 12 75 13
REMARK SMILES IDX 2 14 1 15 5 16 6 17 7 18 16 19 17 20 18 21 19 23 20 24 21 25
REMARK SMILES IDX 73 26 22 27 72 28 23 29 24 30 25 31 66 32 26 33 71 34 65 35
REMARK SMILES IDX 67 36 27 37 70 38 64 39 63 40 28 42 54 43 37 44 53 45 38 46
REMARK SMILES IDX 41 47 52 48 68 49 39 50 40 51 51 53 69 54 42 55 29 56 30 57
REMARK SMILES IDX 35 58 31 59 32 60 34 61 36 62 33 63 55 64 56 65 61 66 57 67
REMARK SMILES IDX 58 68 60 69 62 70 59 71 43 72 44 73 49 74 45 75 46 76 48 77
REMARK SMILES IDX 50 78 47 79
REMARK H PARENT 12 7 17 22 67 41 41 52
REMARK Flexibility Score: inf
ROOT
ATOM      1  C   UNL     1       3.909   6.519  -4.542  1.00  0.00     0.023 C 
ENDROOT
BRANCH   1   2
ATOM      2  C   UNL     1       3.907   5.427  -3.470  1.00  0.00     0.023 C 
BRANCH   2   3
ATOM      3  C   UNL     1       2.724   4.460  -3.490  1.00  0.00     0.116 C 
BRANCH   3   4
ATOM      4  N   UNL     1       2.508   3.816  -4.768  1.00  0.00    -0.351 N 
ATOM      5  C   UNL     1       1.986   2.587  -5.078  1.00  0.00     0.268 C 
ATOM      6  O   UNL     1       1.964   2.287  -6.271  1.00  0.00    -0.268 OA
ATOM      7  H   UNL     1       2.782   4.352  -5.547  1.00  0.00     0.163 HD
BRANCH   5   8
ATOM      8  C   UNL     1       1.547   1.664  -4.047  1.00  0.00     0.114 A 
ATOM      9  C   UNL     1       0.751   0.751  -2.119  1.00  0.00     0.096 A 
ATOM     10  C   UNL     1       1.126  -0.296  -2.954  1.00  0.00     0.290 A 
ATOM     11  N   UNL     1       0.809   1.899  -2.901  1.00  0.00    -0.338 N 
ATOM     12  C   UNL     1       1.669   0.282  -4.129  1.00  0.00     0.119 A 
ATOM     13  C   UNL     1       0.024   3.089  -2.627  1.00  0.00     0.150 C 
BRANCH   9  14
ATOM     14  C   UNL     1       0.275   0.768  -0.693  1.00  0.00     0.058 C 
ATOM     15  C   UNL     1       1.193   0.003   0.255  1.00  0.00     0.011 C 
ENDBRANCH   9  14
BRANCH  10  16
ATOM     16  N   UNL     1       1.008  -1.710  -2.691  1.00  0.00     0.064 N 
ATOM     17  O   UNL     1       0.075  -2.075  -1.964  1.00  0.00    -0.258 OA
ATOM     18  O   UNL     1       1.830  -2.451  -3.246  1.00  0.00    -0.258 OA
ENDBRANCH  10  16
ENDBRANCH   5   8
ENDBRANCH   3   4
ENDBRANCH   2   3
ENDBRANCH   1   2
BRANCH   1  19
ATOM     19  C   UNL     1       2.593   7.263  -4.752  1.00  0.00     0.116 C 
BRANCH  19  20
ATOM     20  N   UNL     1       2.168   8.035  -3.594  1.00  0.00    -0.352 N 
ATOM     21  C   UNL     1       2.059   9.398  -3.428  1.00  0.00     0.251 C 
ATOM     22  H   UNL     1       1.920   7.500  -2.806  1.00  0.00     0.163 HD
ATOM     23  O   UNL     1       1.768   9.863  -2.332  1.00  0.00    -0.269 OA
BRANCH  21  24
ATOM     24  C   UNL     1       2.341  10.305  -4.562  1.00  0.00     0.039 A 
ATOM     25  C   UNL     1       3.236  11.362  -4.375  1.00  0.00     0.014 A 
ATOM     26  C   UNL     1       1.758  10.091  -5.812  1.00  0.00     0.014 A 
ATOM     27  C   UNL     1       3.639  12.131  -5.470  1.00  0.00     0.010 A 
ATOM     28  C   UNL     1       2.218  10.806  -6.914  1.00  0.00     0.010 A 
ATOM     29  C   UNL     1       3.180  11.817  -6.759  1.00  0.00    -0.014 A 
BRANCH  29  30
ATOM     30  C   UNL     1       3.706  12.495  -7.972  1.00  0.00     0.031 A 
ATOM     31  C   UNL     1       2.772  13.259  -8.868  1.00  0.00     0.074 A 
ATOM     32  C   UNL     1       4.992  12.320  -8.335  1.00  0.00     0.049 A 
ATOM     33  N   UNL     1       2.981  13.736 -10.068  1.00  0.00    -0.248 NA
ATOM     34  C   UNL     1       1.411  13.483  -8.357  1.00  0.00     0.031 C 
ATOM     35  C   UNL     1       5.997  11.573  -7.575  1.00  0.00     0.029 A 
ATOM     36  N   UNL     1       5.669  12.736  -9.456  1.00  0.00    -0.354 N 
ATOM     37  C   UNL     1       1.769  14.282 -10.472  1.00  0.00     0.074 A 
ATOM     38  C   UNL     1       0.823  14.050  -9.401  1.00  0.00     0.031 C 
ATOM     39  C   UNL     1       7.160  11.591  -8.246  1.00  0.00     0.029 A 
ATOM     40  C   UNL     1       6.973  12.305  -9.505  1.00  0.00     0.049 A 
ATOM     41  H   UNL     1       5.258  13.290 -10.159  1.00  0.00     0.167 HD
ATOM     42  C   UNL     1       1.475  14.928 -11.624  1.00  0.00     0.037 A 
ATOM     43  C   UNL     1       7.907  12.447 -10.465  1.00  0.00     0.037 A 
ATOM     44  C   UNL     1       2.427  15.199 -12.668  1.00  0.00     0.049 A 
ATOM     45  C   UNL     1       7.559  13.176 -11.732  1.00  0.00     0.074 A 
ATOM     46  C   UNL     1       2.240  15.903 -13.845  1.00  0.00     0.029 A 
ATOM     47  N   UNL     1       3.750  14.783 -12.656  1.00  0.00    -0.354 N 
ATOM     48  N   UNL     1       6.419  13.719 -12.085  1.00  0.00    -0.248 NA
ATOM     49  C   UNL     1       8.624  13.309 -12.737  1.00  0.00     0.031 C 
ATOM     50  C   UNL     1       3.443  15.891 -14.558  1.00  0.00     0.029 A 
ATOM     51  C   UNL     1       4.387  15.208 -13.809  1.00  0.00     0.049 A 
ATOM     52  H   UNL     1       4.173  14.264 -11.934  1.00  0.00     0.167 HD
ATOM     53  C   UNL     1       6.637  14.281 -13.335  1.00  0.00     0.074 A 
ATOM     54  C   UNL     1       8.018  14.017 -13.680  1.00  0.00     0.031 C 
ATOM     55  C   UNL     1       5.769  14.956 -14.126  1.00  0.00     0.037 A 
BRANCH  42  56
ATOM     56  C   UNL     1       0.061  15.390 -11.815  1.00  0.00     0.057 A 
ATOM     57  C   UNL     1      -0.466  16.469 -11.095  1.00  0.00     0.134 A 
ATOM     58  C   UNL     1      -0.774  14.765 -12.750  1.00  0.00     0.134 A 
ATOM     59  F   UNL     1       0.279  17.100 -10.175  1.00  0.00    -0.206 F 
ATOM     60  C   UNL     1      -1.782  16.895 -11.279  1.00  0.00     0.040 A 
ATOM     61  C   UNL     1      -2.084  15.198 -12.961  1.00  0.00     0.040 A 
ATOM     62  F   UNL     1      -0.328  13.730 -13.477  1.00  0.00    -0.206 F 
ATOM     63  C   UNL     1      -2.593  16.262 -12.219  1.00  0.00     0.006 A 
ENDBRANCH  42  56
BRANCH  43  64
ATOM     64  C   UNL     1       9.269  11.894 -10.264  1.00  0.00     0.057 A 
ATOM     65  C   UNL     1      10.359  12.740 -10.030  1.00  0.00     0.134 A 
ATOM     66  C   UNL     1       9.517  10.517 -10.307  1.00  0.00     0.134 A 
ATOM     67  F   UNL     1      10.185  14.070  -9.998  1.00  0.00    -0.206 F 
ATOM     68  C   UNL     1      11.650  12.240  -9.861  1.00  0.00     0.040 A 
ATOM     69  C   UNL     1      10.800  10.001 -10.119  1.00  0.00     0.040 A 
ATOM     70  F   UNL     1       8.513   9.654 -10.521  1.00  0.00    -0.206 F 
ATOM     71  C   UNL     1      11.873  10.864  -9.901  1.00  0.00     0.006 A 
ENDBRANCH  43  64
BRANCH  55  72
ATOM     72  C   UNL     1       6.294  15.501 -15.419  1.00  0.00     0.057 A 
ATOM     73  C   UNL     1       6.511  14.680 -16.531  1.00  0.00     0.134 A 
ATOM     74  C   UNL     1       6.521  16.875 -15.570  1.00  0.00     0.134 A 
ATOM     75  F   UNL     1       6.324  13.354 -16.445  1.00  0.00    -0.206 F 
ATOM     76  C   UNL     1       6.944  15.206 -17.749  1.00  0.00     0.040 A 
ATOM     77  C   UNL     1       6.935  17.415 -16.788  1.00  0.00     0.040 A 
ATOM     78  F   UNL     1       6.325  17.714 -14.542  1.00  0.00    -0.206 F 
ATOM     79  C   UNL     1       7.149  16.579 -17.882  1.00  0.00     0.006 A 
ENDBRANCH  55  72
ENDBRANCH  29  30
ENDBRANCH  21  24
ENDBRANCH  19  20
ENDBRANCH   1  19
TORSDOF 13
