REMARK SMILES COc1cccc(CSc2nc3ccccc3c(=O)n2CCC(=O)NCCCCNC(=O)c2ccc(-c3c4nc(c(-c5c(F)cccc5F)c5ccc([nH]5)c(-c5c(F)cccc5F)c5nc(c(-c6c(F)cccc6F)c6ccc3[nH]6)C=C5)C=C4)cc2)c1
REMARK SMILES IDX 23 1 24 2 25 3 22 5 21 6 20 7 10 8 11 9 12 10 18 11 13 12
REMARK SMILES IDX 17 13 19 14 14 15 16 16 15 17 9 18 8 19 7 20 3 21 4 22 87 23
REMARK SMILES IDX 5 24 6 25 2 26 1 27 26 28 27 29 28 30 29 31 30 32 31 33
REMARK SMILES IDX 32 35 33 36 34 37 86 38 35 39 85 40 36 41 37 42 38 43 79 44
REMARK SMILES IDX 39 45 84 46 78 47 80 48 40 49 83 50 77 51 76 52 41 54 67 55
REMARK SMILES IDX 50 56 66 57 51 58 54 59 65 60 81 61 52 62 53 63 64 65 82 66
REMARK SMILES IDX 55 67 42 68 43 69 48 70 44 71 45 72 47 73 49 74 46 75 68 76
REMARK SMILES IDX 69 77 74 78 70 79 71 80 73 81 75 82 72 83 56 84 57 85 62 86
REMARK SMILES IDX 58 87 59 88 61 89 63 90 60 91
REMARK H PARENT 25 4 30 34 80 53 54 64
REMARK Flexibility Score: inf
ROOT
ATOM      1  C   UNL     1       5.885  -1.436  -2.486  1.00  0.00     0.221 C 
ATOM      2  O   UNL     1       5.515  -0.269  -2.627  1.00  0.00    -0.275 OA
ATOM      3  N   UNL     1       6.901  -1.902  -3.271  1.00  0.00    -0.356 N 
ATOM      4  H   UNL     1       7.360  -1.229  -3.824  1.00  0.00     0.163 HD
ENDROOT
BRANCH   1   5
ATOM      5  C   UNL     1       5.229  -2.346  -1.460  1.00  0.00     0.122 C 
BRANCH   5   6
ATOM      6  C   UNL     1       3.695  -2.293  -1.578  1.00  0.00     0.138 C 
BRANCH   6   7
ATOM      7  N   UNL     1       3.120  -3.587  -1.953  1.00  0.00    -0.287 N 
ATOM      8  C   UNL     1       3.078  -4.133  -3.224  1.00  0.00     0.171 A 
ATOM      9  N   UNL     1       3.224  -5.411  -3.415  1.00  0.00    -0.224 NA
ATOM     10  C   UNL     1       3.395  -6.253  -2.311  1.00  0.00     0.079 A 
ATOM     11  C   UNL     1       2.797  -4.401  -0.860  1.00  0.00     0.262 A 
ATOM     12  C   UNL     1       3.936  -7.531  -2.471  1.00  0.00     0.029 A 
ATOM     13  C   UNL     1       3.044  -5.839  -1.034  1.00  0.00     0.066 A 
ATOM     14  O   UNL     1       2.436  -3.981   0.237  1.00  0.00    -0.269 OA
ATOM     15  C   UNL     1       4.082  -8.384  -1.371  1.00  0.00     0.002 A 
ATOM     16  C   UNL     1       3.119  -6.704   0.064  1.00  0.00     0.016 A 
ATOM     17  C   UNL     1       3.640  -7.984  -0.110  1.00  0.00     0.001 A 
BRANCH   8  18
ATOM     18  S   UNL     1       2.945  -3.260  -4.739  1.00  0.00    -0.083 SA
BRANCH  18  19
ATOM     19  C   UNL     1       2.461  -1.547  -4.572  1.00  0.00     0.113 C 
BRANCH  19  20
ATOM     20  C   UNL     1       1.093  -1.331  -3.992  1.00  0.00    -0.034 A 
ATOM     21  C   UNL     1      -0.329  -0.547  -2.183  1.00  0.00     0.119 A 
ATOM     22  C   UNL     1      -1.441  -1.060  -2.850  1.00  0.00     0.046 A 
ATOM     23  C   UNL     1       0.925  -0.639  -2.783  1.00  0.00     0.051 A 
ATOM     24  C   UNL     1      -1.302  -1.675  -4.094  1.00  0.00     0.004 A 
ATOM     25  C   UNL     1      -0.039  -1.818  -4.659  1.00  0.00     0.005 A 
BRANCH  21  26
ATOM     26  O   UNL     1      -0.585   0.015  -0.962  1.00  0.00    -0.497 OA
ATOM     27  C   UNL     1       0.544   0.299  -0.141  1.00  0.00     0.278 C 
ENDBRANCH  21  26
ENDBRANCH  19  20
ENDBRANCH  18  19
ENDBRANCH   8  18
ENDBRANCH   6   7
ENDBRANCH   5   6
ENDBRANCH   1   5
BRANCH   3  28
ATOM     28  C   UNL     1       7.394  -3.267  -3.393  1.00  0.00     0.116 C 
BRANCH  28  29
ATOM     29  C   UNL     1       6.314  -4.153  -3.993  1.00  0.00     0.023 C 
BRANCH  29  30
ATOM     30  C   UNL     1       6.493  -4.592  -5.439  1.00  0.00     0.023 C 
BRANCH  30  31
ATOM     31  C   UNL     1       7.415  -5.783  -5.595  1.00  0.00     0.116 C 
BRANCH  31  32
ATOM     32  N   UNL     1       7.036  -6.940  -4.792  1.00  0.00    -0.352 N 
ATOM     33  C   UNL     1       7.431  -8.255  -4.905  1.00  0.00     0.251 C 
ATOM     34  H   UNL     1       6.404  -6.754  -4.061  1.00  0.00     0.163 HD
ATOM     35  O   UNL     1       7.011  -9.097  -4.127  1.00  0.00    -0.269 OA
BRANCH  33  36
ATOM     36  C   UNL     1       8.265  -8.648  -6.062  1.00  0.00     0.039 A 
ATOM     37  C   UNL     1       7.870  -9.762  -6.805  1.00  0.00     0.014 A 
ATOM     38  C   UNL     1       9.301  -7.833  -6.510  1.00  0.00     0.014 A 
ATOM     39  C   UNL     1       8.413  -9.966  -8.072  1.00  0.00     0.010 A 
ATOM     40  C   UNL     1       9.735  -7.954  -7.820  1.00  0.00     0.010 A 
ATOM     41  C   UNL     1       9.280  -9.010  -8.622  1.00  0.00    -0.014 A 
BRANCH  41  42
ATOM     42  C   UNL     1       9.709  -9.069 -10.040  1.00  0.00     0.031 A 
ATOM     43  C   UNL     1      11.174  -9.094 -10.370  1.00  0.00     0.074 A 
ATOM     44  C   UNL     1       8.788  -8.976 -11.020  1.00  0.00     0.049 A 
ATOM     45  N   UNL     1      11.762  -8.978 -11.532  1.00  0.00    -0.248 NA
ATOM     46  C   UNL     1      12.105  -9.199  -9.234  1.00  0.00     0.031 C 
ATOM     47  C   UNL     1       7.340  -8.851 -10.823  1.00  0.00     0.029 A 
ATOM     48  N   UNL     1       8.934  -8.962 -12.383  1.00  0.00    -0.354 N 
ATOM     49  C   UNL     1      13.123  -8.942 -11.258  1.00  0.00     0.074 A 
ATOM     50  C   UNL     1      13.271  -8.986  -9.821  1.00  0.00     0.031 C 
ATOM     51  C   UNL     1       6.731  -8.823 -12.020  1.00  0.00     0.029 A 
ATOM     52  C   UNL     1       7.744  -8.887 -13.066  1.00  0.00     0.049 A 
ATOM     53  H   UNL     1       9.810  -9.003 -12.831  1.00  0.00     0.167 HD
ATOM     54  C   UNL     1      14.158  -8.910 -12.129  1.00  0.00     0.037 A 
ATOM     55  C   UNL     1       7.502  -8.878 -14.390  1.00  0.00     0.037 A 
ATOM     56  C   UNL     1      14.001  -8.956 -13.556  1.00  0.00     0.049 A 
ATOM     57  C   UNL     1       8.665  -8.949 -15.338  1.00  0.00     0.074 A 
ATOM     58  C   UNL     1      14.978  -9.021 -14.532  1.00  0.00     0.029 A 
ATOM     59  N   UNL     1      12.777  -8.969 -14.208  1.00  0.00    -0.354 N 
ATOM     60  N   UNL     1       9.948  -8.974 -15.067  1.00  0.00    -0.248 NA
ATOM     61  C   UNL     1       8.351  -8.998 -16.772  1.00  0.00     0.031 C 
ATOM     62  C   UNL     1      14.344  -9.063 -15.779  1.00  0.00     0.029 A 
ATOM     63  C   UNL     1      12.973  -9.048 -15.575  1.00  0.00     0.049 A 
ATOM     64  H   UNL     1      11.899  -8.928 -13.764  1.00  0.00     0.167 HD
ATOM     65  C   UNL     1      10.593  -9.064 -16.293  1.00  0.00     0.074 A 
ATOM     66  C   UNL     1       9.559  -9.103 -17.307  1.00  0.00     0.031 C 
ATOM     67  C   UNL     1      11.921  -9.106 -16.557  1.00  0.00     0.037 A 
BRANCH  54  68
ATOM     68  C   UNL     1      15.539  -8.851 -11.547  1.00  0.00     0.057 A 
ATOM     69  C   UNL     1      16.100  -9.941 -10.867  1.00  0.00     0.134 A 
ATOM     70  C   UNL     1      16.309  -7.687 -11.649  1.00  0.00     0.134 A 
ATOM     71  F   UNL     1      15.404 -11.079 -10.716  1.00  0.00    -0.206 F 
ATOM     72  C   UNL     1      17.360  -9.862 -10.274  1.00  0.00     0.040 A 
ATOM     73  C   UNL     1      17.584  -7.605 -11.084  1.00  0.00     0.040 A 
ATOM     74  F   UNL     1      15.834  -6.607 -12.287  1.00  0.00    -0.206 F 
ATOM     75  C   UNL     1      18.108  -8.691 -10.385  1.00  0.00     0.006 A 
ENDBRANCH  54  68
BRANCH  55  76
ATOM     76  C   UNL     1       6.107  -8.857 -14.896  1.00  0.00     0.057 A 
ATOM     77  C   UNL     1       5.535 -10.003 -15.461  1.00  0.00     0.134 A 
ATOM     78  C   UNL     1       5.315  -7.706 -14.830  1.00  0.00     0.134 A 
ATOM     79  F   UNL     1       6.251 -11.133 -15.564  1.00  0.00    -0.206 F 
ATOM     80  C   UNL     1       4.233 -10.001 -15.963  1.00  0.00     0.040 A 
ATOM     81  C   UNL     1       4.003  -7.695 -15.310  1.00  0.00     0.040 A 
ATOM     82  F   UNL     1       5.800  -6.579 -14.290  1.00  0.00    -0.206 F 
ATOM     83  C   UNL     1       3.462  -8.844 -15.885  1.00  0.00     0.006 A 
ENDBRANCH  55  76
BRANCH  67  84
ATOM     84  C   UNL     1      12.325  -9.235 -17.992  1.00  0.00     0.057 A 
ATOM     85  C   UNL     1      12.273  -8.145 -18.869  1.00  0.00     0.134 A 
ATOM     86  C   UNL     1      12.820 -10.448 -18.485  1.00  0.00     0.134 A 
ATOM     87  F   UNL     1      11.795  -6.962 -18.456  1.00  0.00    -0.206 F 
ATOM     88  C   UNL     1      12.689  -8.262 -20.195  1.00  0.00     0.040 A 
ATOM     89  C   UNL     1      13.258 -10.571 -19.803  1.00  0.00     0.040 A 
ATOM     90  F   UNL     1      12.899 -11.525 -17.689  1.00  0.00    -0.206 F 
ATOM     91  C   UNL     1      13.191  -9.476 -20.663  1.00  0.00     0.006 A 
ENDBRANCH  67  84
ENDBRANCH  41  42
ENDBRANCH  33  36
ENDBRANCH  31  32
ENDBRANCH  30  31
ENDBRANCH  29  30
ENDBRANCH  28  29
ENDBRANCH   3  28
TORSDOF 17
