REMARK SMILES COc1ccc([C@@H](C(=O)NCCCCNC(=O)c2ccc(-c3c4nc(c(-c5c(F)cccc5F)c5ccc([nH]5)c(-c5c(F)cccc5F)c5nc(c(-c6c(F)cccc6F)c6ccc3[nH]6)C=C5)C=C4)cc2)[NH+]2CCC(C(N)=O)CC2)c(C)c1
REMARK SMILES IDX 12 1 11 2 10 3 8 4 9 5 7 7 6 8 3 9 4 10 83 11 5 12 81 13
REMARK SMILES IDX 82 14 2 15 1 16 72 17 73 18 80 19 74 21 79 22 75 23 76 24
REMARK SMILES IDX 77 25 78 26 13 29 14 30 15 31 16 32 17 34 18 35 19 36 71 37
REMARK SMILES IDX 20 38 70 39 21 40 22 41 23 42 64 43 24 44 69 45 63 46 65 47
REMARK SMILES IDX 25 48 68 49 62 50 61 51 26 53 52 54 35 55 51 56 36 57 39 58
REMARK SMILES IDX 50 59 66 60 37 61 38 62 49 64 67 65 40 66 27 67 28 68 33 69
REMARK SMILES IDX 29 70 30 71 32 72 34 73 31 74 53 75 54 76 59 77 55 78 56 79
REMARK SMILES IDX 58 80 60 81 57 82 41 83 42 84 47 85 43 86 44 87 46 88 48 89
REMARK SMILES IDX 45 90
REMARK H PARENT 10 6 72 20 77 27 77 28 15 33 65 52 39 63
REMARK Flexibility Score: inf
ROOT
ATOM      1  C   UNL     1       2.795  -1.575   5.367  1.00  0.00     0.023 C 
ENDROOT
BRANCH   1   2
ATOM      2  C   UNL     1       3.308  -3.006   5.584  1.00  0.00     0.116 C 
BRANCH   2   3
ATOM      3  N   UNL     1       2.325  -3.922   6.141  1.00  0.00    -0.351 N 
ATOM      4  C   UNL     1       1.515  -4.856   5.538  1.00  0.00     0.283 C 
ATOM      5  O   UNL     1       0.851  -5.561   6.305  1.00  0.00    -0.268 OA
ATOM      6  H   UNL     1       2.221  -3.863   7.119  1.00  0.00     0.163 HD
BRANCH   4   7
ATOM      7  C   UNL     1       1.504  -5.007   3.985  1.00  0.00     0.305 C 
BRANCH   7   8
ATOM      8  C   UNL     1       1.156  -3.718   3.223  1.00  0.00     0.022 A 
ATOM      9  C   UNL     1       0.783  -1.365   1.680  1.00  0.00     0.119 A 
ATOM     10  C   UNL     1       1.893  -2.167   1.457  1.00  0.00     0.047 A 
ATOM     11  C   UNL     1      -0.128  -1.726   2.673  1.00  0.00     0.050 A 
ATOM     12  C   UNL     1       2.066  -3.331   2.208  1.00  0.00     0.014 A 
ATOM     13  C   UNL     1       0.042  -2.882   3.465  1.00  0.00    -0.038 A 
ATOM     14  C   UNL     1      -1.012  -3.106   4.516  1.00  0.00     0.045 C 
BRANCH   9  15
ATOM     15  O   UNL     1       0.496  -0.199   1.028  1.00  0.00    -0.497 OA
ATOM     16  C   UNL     1       1.159   0.001  -0.215  1.00  0.00     0.278 C 
ENDBRANCH   9  15
ENDBRANCH   7   8
BRANCH   7  17
ATOM     17  N   UNL     1       0.796  -6.244   3.500  1.00  0.00    -0.321 N 
ATOM     18  C   UNL     1      -0.660  -6.219   3.679  1.00  0.00     0.263 C 
ATOM     19  C   UNL     1       1.183  -6.585   2.120  1.00  0.00     0.263 C 
ATOM     20  H   UNL     1       1.118  -6.996   4.109  1.00  0.00     0.349 HD
ATOM     21  C   UNL     1      -1.343  -7.501   3.200  1.00  0.00     0.075 C 
ATOM     22  C   UNL     1       0.516  -7.863   1.606  1.00  0.00     0.075 C 
ATOM     23  C   UNL     1      -0.999  -7.749   1.735  1.00  0.00     0.089 C 
BRANCH  23  24
ATOM     24  C   UNL     1      -1.700  -8.990   1.226  1.00  0.00     0.220 C 
ATOM     25  N   UNL     1      -2.767  -8.747   0.408  1.00  0.00    -0.369 N 
ATOM     26  O   UNL     1      -1.381 -10.136   1.516  1.00  0.00    -0.275 OA
ATOM     27  H   UNL     1      -3.013  -7.821   0.182  1.00  0.00     0.159 HD
ATOM     28  H   UNL     1      -3.290  -9.498   0.044  1.00  0.00     0.159 HD
ENDBRANCH  23  24
ENDBRANCH   7  17
ENDBRANCH   4   7
ENDBRANCH   2   3
ENDBRANCH   1   2
BRANCH   1  29
ATOM     29  C   UNL     1       2.150  -0.904   6.579  1.00  0.00     0.023 C 
BRANCH  29  30
ATOM     30  C   UNL     1       3.149  -0.512   7.651  1.00  0.00     0.116 C 
BRANCH  30  31
ATOM     31  N   UNL     1       3.822   0.757   7.417  1.00  0.00    -0.352 N 
ATOM     32  C   UNL     1       4.877   1.351   8.093  1.00  0.00     0.251 C 
ATOM     33  H   UNL     1       3.472   1.278   6.658  1.00  0.00     0.163 HD
ATOM     34  O   UNL     1       5.226   2.479   7.784  1.00  0.00    -0.269 OA
BRANCH  32  35
ATOM     35  C   UNL     1       5.681   0.572   9.076  1.00  0.00     0.039 A 
ATOM     36  C   UNL     1       7.062   0.814   9.126  1.00  0.00     0.014 A 
ATOM     37  C   UNL     1       5.154  -0.511   9.768  1.00  0.00     0.014 A 
ATOM     38  C   UNL     1       7.917  -0.169   9.620  1.00  0.00     0.010 A 
ATOM     39  C   UNL     1       5.992  -1.539  10.136  1.00  0.00     0.010 A 
ATOM     40  C   UNL     1       7.373  -1.391   9.999  1.00  0.00    -0.014 A 
BRANCH  40  41
ATOM     41  C   UNL     1       8.147  -2.609  10.175  1.00  0.00     0.031 A 
ATOM     42  C   UNL     1       8.373  -3.160  11.523  1.00  0.00     0.074 A 
ATOM     43  C   UNL     1       8.506  -3.312   9.077  1.00  0.00     0.049 A 
ATOM     44  N   UNL     1       9.305  -4.002  11.812  1.00  0.00    -0.248 NA
ATOM     45  C   UNL     1       7.567  -2.774  12.675  1.00  0.00     0.031 C 
ATOM     46  C   UNL     1       8.963  -4.697   9.017  1.00  0.00     0.029 A 
ATOM     47  N   UNL     1       8.711  -2.821   7.781  1.00  0.00    -0.354 N 
ATOM     48  C   UNL     1       9.057  -4.479  13.078  1.00  0.00     0.074 A 
ATOM     49  C   UNL     1       7.999  -3.642  13.595  1.00  0.00     0.031 C 
ATOM     50  C   UNL     1       9.647  -4.877   7.875  1.00  0.00     0.029 A 
ATOM     51  C   UNL     1       9.783  -3.572   7.252  1.00  0.00     0.049 A 
ATOM     52  H   UNL     1       8.211  -2.101   7.332  1.00  0.00     0.167 HD
ATOM     53  C   UNL     1       9.680  -5.617  13.496  1.00  0.00     0.037 A 
ATOM     54  C   UNL     1      10.973  -2.983   6.939  1.00  0.00     0.037 A 
ATOM     55  C   UNL     1      10.593  -6.121  12.475  1.00  0.00     0.049 A 
ATOM     56  C   UNL     1      12.152  -3.554   7.691  1.00  0.00     0.074 A 
ATOM     57  C   UNL     1      10.457  -7.094  11.497  1.00  0.00     0.029 A 
ATOM     58  N   UNL     1      11.726  -5.387  12.143  1.00  0.00    -0.354 N 
ATOM     59  N   UNL     1      12.053  -4.202   8.818  1.00  0.00    -0.248 NA
ATOM     60  C   UNL     1      13.533  -3.437   7.235  1.00  0.00     0.031 C 
ATOM     61  C   UNL     1      11.496  -6.918  10.552  1.00  0.00     0.029 A 
ATOM     62  C   UNL     1      12.274  -5.850  10.963  1.00  0.00     0.049 A 
ATOM     63  H   UNL     1      12.087  -4.641  12.675  1.00  0.00     0.167 HD
ATOM     64  C   UNL     1      13.303  -4.579   9.245  1.00  0.00     0.074 A 
ATOM     65  C   UNL     1      14.192  -4.091   8.208  1.00  0.00     0.031 C 
ATOM     66  C   UNL     1      13.486  -5.258  10.417  1.00  0.00     0.037 A 
BRANCH  53  67
ATOM     67  C   UNL     1       9.223  -6.421  14.690  1.00  0.00     0.057 A 
ATOM     68  C   UNL     1       9.321  -7.827  14.702  1.00  0.00     0.134 A 
ATOM     69  C   UNL     1       8.631  -5.872  15.840  1.00  0.00     0.134 A 
ATOM     70  F   UNL     1       9.959  -8.499  13.736  1.00  0.00    -0.206 F 
ATOM     71  C   UNL     1       8.761  -8.622  15.710  1.00  0.00     0.040 A 
ATOM     72  C   UNL     1       8.018  -6.656  16.830  1.00  0.00     0.040 A 
ATOM     73  F   UNL     1       8.663  -4.555  16.079  1.00  0.00    -0.206 F 
ATOM     74  C   UNL     1       8.068  -8.040  16.758  1.00  0.00     0.006 A 
ENDBRANCH  53  67
BRANCH  54  75
ATOM     75  C   UNL     1      10.828  -1.564   6.519  1.00  0.00     0.057 A 
ATOM     76  C   UNL     1      10.120  -1.284   5.335  1.00  0.00     0.134 A 
ATOM     77  C   UNL     1      10.997  -0.511   7.422  1.00  0.00     0.134 A 
ATOM     78  F   UNL     1       9.921  -2.252   4.426  1.00  0.00    -0.206 F 
ATOM     79  C   UNL     1       9.502  -0.051   5.117  1.00  0.00     0.040 A 
ATOM     80  C   UNL     1      10.393   0.735   7.206  1.00  0.00     0.040 A 
ATOM     81  F   UNL     1      11.640  -0.703   8.582  1.00  0.00    -0.206 F 
ATOM     82  C   UNL     1       9.608   0.953   6.074  1.00  0.00     0.006 A 
ENDBRANCH  54  75
BRANCH  66  83
ATOM     83  C   UNL     1      14.797  -5.523  11.130  1.00  0.00     0.057 A 
ATOM     84  C   UNL     1      15.967  -4.771  10.960  1.00  0.00     0.134 A 
ATOM     85  C   UNL     1      14.868  -6.497  12.158  1.00  0.00     0.134 A 
ATOM     86  F   UNL     1      16.027  -3.740  10.110  1.00  0.00    -0.206 F 
ATOM     87  C   UNL     1      17.131  -5.003  11.711  1.00  0.00     0.040 A 
ATOM     88  C   UNL     1      16.002  -6.696  12.952  1.00  0.00     0.040 A 
ATOM     89  F   UNL     1      13.828  -7.287  12.463  1.00  0.00    -0.206 F 
ATOM     90  C   UNL     1      17.147  -5.956  12.720  1.00  0.00     0.006 A 
ENDBRANCH  66  83
ENDBRANCH  40  41
ENDBRANCH  32  35
ENDBRANCH  30  31
ENDBRANCH  29  30
ENDBRANCH   1  29
TORSDOF 15
