REMARK SMILES O=C(NCCCCNC(=O)c1ccc(-c2c3nc(c(-c4c(F)cccc4F)c4ccc([nH]4)c(-c4c(F)cccc4F)c4nc(c(-c5c(F)cccc5F)c5ccc2[nH]5)C=C4)C=C3)cc1)c1ccc(C(=O)Nc2ccc(-c3nc4ccccc4[nH]3)cc2)cc1
REMARK SMILES IDX 5 1 4 2 3 3 1 4 2 5 65 7 66 8 88 9 67 10 87 11 68 12 69 13
REMARK SMILES IDX 70 14 71 15 72 17 73 18 86 19 74 20 85 21 75 22 76 23 77 24
REMARK SMILES IDX 84 25 78 26 83 27 79 29 82 30 80 31 81 32 6 33 7 34 8 35
REMARK SMILES IDX 9 36 10 38 11 39 12 40 64 41 13 42 63 43 14 44 15 45 16 46
REMARK SMILES IDX 57 47 17 48 62 49 56 50 58 51 18 52 61 53 55 54 54 55 19 57
REMARK SMILES IDX 45 58 28 59 44 60 29 61 32 62 43 63 59 64 30 65 31 66 42 68
REMARK SMILES IDX 60 69 33 70 20 71 21 72 26 73 22 74 23 75 25 76 27 77 24 78
REMARK SMILES IDX 46 79 47 80 52 81 48 82 49 83 51 84 53 85 50 86 34 87 35 88
REMARK SMILES IDX 40 89 36 90 37 91 39 92 41 93 38 94
REMARK H PARENT 3 6 71 16 84 28 8 37 58 56 32 67
REMARK Flexibility Score: inf
ROOT
ATOM      1  C   UNL     1       4.936  -1.161   2.060  1.00  0.00     0.023 C 
ENDROOT
BRANCH   1   2
ATOM      2  C   UNL     1       4.659  -0.948   0.576  1.00  0.00     0.116 C 
BRANCH   2   3
ATOM      3  N   UNL     1       3.247  -1.021   0.239  1.00  0.00    -0.352 N 
ATOM      4  O   UNL     1       1.225  -0.332  -0.453  1.00  0.00    -0.269 OA
ATOM      5  C   UNL     1       2.428  -0.098  -0.360  1.00  0.00     0.251 C 
ATOM      6  H   UNL     1       2.809  -1.869   0.480  1.00  0.00     0.163 HD
BRANCH   5   7
ATOM      7  C   UNL     1       2.961   1.195  -0.846  1.00  0.00     0.039 A 
ATOM      8  C   UNL     1       4.168   1.304  -1.541  1.00  0.00     0.014 A 
ATOM      9  C   UNL     1       2.199   2.340  -0.620  1.00  0.00     0.014 A 
ATOM     10  C   UNL     1       4.696   2.566  -1.836  1.00  0.00     0.014 A 
ATOM     11  C   UNL     1       2.691   3.591  -1.002  1.00  0.00     0.014 A 
ATOM     12  C   UNL     1       3.985   3.733  -1.520  1.00  0.00     0.040 A 
BRANCH  12  13
ATOM     13  C   UNL     1       4.622   5.053  -1.851  1.00  0.00     0.255 C 
ATOM     14  O   UNL     1       5.551   5.075  -2.659  1.00  0.00    -0.269 OA
ATOM     15  N   UNL     1       4.138   6.255  -1.368  1.00  0.00    -0.322 N 
ATOM     16  H   UNL     1       4.407   7.053  -1.877  1.00  0.00     0.170 HD
BRANCH  15  17
ATOM     17  C   UNL     1       3.320   6.499  -0.260  1.00  0.00     0.041 A 
ATOM     18  C   UNL     1       2.251   7.386  -0.409  1.00  0.00     0.027 A 
ATOM     19  C   UNL     1       3.495   5.816   0.941  1.00  0.00     0.027 A 
ATOM     20  C   UNL     1       1.256   7.453   0.578  1.00  0.00     0.014 A 
ATOM     21  C   UNL     1       2.523   5.914   1.935  1.00  0.00     0.014 A 
ATOM     22  C   UNL     1       1.365   6.685   1.744  1.00  0.00     0.017 A 
BRANCH  22  23
ATOM     23  C   UNL     1       0.317   6.599   2.763  1.00  0.00     0.138 A 
ATOM     24  N   UNL     1       0.516   6.195   4.004  1.00  0.00    -0.229 NA
ATOM     25  N   UNL     1      -1.029   6.801   2.542  1.00  0.00    -0.338 N 
ATOM     26  C   UNL     1      -0.721   6.091   4.578  1.00  0.00     0.089 A 
ATOM     27  C   UNL     1      -1.716   6.459   3.683  1.00  0.00     0.066 A 
ATOM     28  H   UNL     1      -1.431   7.134   1.708  1.00  0.00     0.168 HD
ATOM     29  C   UNL     1      -1.066   5.663   5.866  1.00  0.00     0.030 A 
ATOM     30  C   UNL     1      -3.075   6.422   4.002  1.00  0.00     0.028 A 
ATOM     31  C   UNL     1      -2.420   5.615   6.213  1.00  0.00     0.002 A 
ATOM     32  C   UNL     1      -3.405   5.989   5.294  1.00  0.00     0.002 A 
ENDBRANCH  22  23
ENDBRANCH  15  17
ENDBRANCH  12  13
ENDBRANCH   5   7
ENDBRANCH   2   3
ENDBRANCH   1   2
BRANCH   1  33
ATOM     33  C   UNL     1       4.464  -2.492   2.634  1.00  0.00     0.023 C 
BRANCH  33  34
ATOM     34  C   UNL     1       4.878  -3.728   1.847  1.00  0.00     0.116 C 
BRANCH  34  35
ATOM     35  N   UNL     1       6.319  -3.873   1.720  1.00  0.00    -0.352 N 
ATOM     36  C   UNL     1       7.106  -4.975   1.959  1.00  0.00     0.251 C 
ATOM     37  H   UNL     1       6.799  -3.068   1.419  1.00  0.00     0.163 HD
ATOM     38  O   UNL     1       8.325  -4.884   1.914  1.00  0.00    -0.269 OA
BRANCH  36  39
ATOM     39  C   UNL     1       6.472  -6.267   2.306  1.00  0.00     0.039 A 
ATOM     40  C   UNL     1       6.988  -7.005   3.374  1.00  0.00     0.014 A 
ATOM     41  C   UNL     1       5.368  -6.741   1.594  1.00  0.00     0.014 A 
ATOM     42  C   UNL     1       6.357  -8.188   3.767  1.00  0.00     0.010 A 
ATOM     43  C   UNL     1       4.691  -7.872   2.039  1.00  0.00     0.010 A 
ATOM     44  C   UNL     1       5.183  -8.614   3.124  1.00  0.00    -0.014 A 
BRANCH  44  45
ATOM     45  C   UNL     1       4.472  -9.847   3.550  1.00  0.00     0.031 A 
ATOM     46  C   UNL     1       4.336 -11.001   2.592  1.00  0.00     0.074 A 
ATOM     47  C   UNL     1       3.904  -9.913   4.771  1.00  0.00     0.049 A 
ATOM     48  N   UNL     1       3.682 -12.125   2.737  1.00  0.00    -0.248 NA
ATOM     49  C   UNL     1       5.002 -10.861   1.286  1.00  0.00     0.031 C 
ATOM     50  C   UNL     1       3.928  -8.850   5.777  1.00  0.00     0.029 A 
ATOM     51  N   UNL     1       3.183 -10.917   5.368  1.00  0.00    -0.354 N 
ATOM     52  C   UNL     1       3.851 -12.817   1.544  1.00  0.00     0.074 A 
ATOM     53  C   UNL     1       4.613 -11.962   0.662  1.00  0.00     0.031 C 
ATOM     54  C   UNL     1       3.270  -9.265   6.872  1.00  0.00     0.029 A 
ATOM     55  C   UNL     1       2.743 -10.605   6.633  1.00  0.00     0.049 A 
ATOM     56  H   UNL     1       2.998 -11.780   4.932  1.00  0.00     0.167 HD
ATOM     57  C   UNL     1       3.436 -14.065   1.222  1.00  0.00     0.037 A 
ATOM     58  C   UNL     1       1.989 -11.314   7.495  1.00  0.00     0.037 A 
ATOM     59  C   UNL     1       2.697 -14.926   2.108  1.00  0.00     0.049 A 
ATOM     60  C   UNL     1       1.524 -12.691   7.101  1.00  0.00     0.074 A 
ATOM     61  C   UNL     1       2.258 -16.219   1.884  1.00  0.00     0.029 A 
ATOM     62  N   UNL     1       2.295 -14.581   3.389  1.00  0.00    -0.354 N 
ATOM     63  N   UNL     1       1.737 -13.352   5.989  1.00  0.00    -0.248 NA
ATOM     64  C   UNL     1       0.720 -13.426   8.089  1.00  0.00     0.031 C 
ATOM     65  C   UNL     1       1.555 -16.643   3.015  1.00  0.00     0.029 A 
ATOM     66  C   UNL     1       1.604 -15.634   3.964  1.00  0.00     0.049 A 
ATOM     67  H   UNL     1       2.473 -13.716   3.824  1.00  0.00     0.167 HD
ATOM     68  C   UNL     1       1.132 -14.591   6.160  1.00  0.00     0.074 A 
ATOM     69  C   UNL     1       0.554 -14.595   7.487  1.00  0.00     0.031 C 
ATOM     70  C   UNL     1       1.060 -15.633   5.297  1.00  0.00     0.037 A 
BRANCH  57  71
ATOM     71  C   UNL     1       3.788 -14.585  -0.141  1.00  0.00     0.057 A 
ATOM     72  C   UNL     1       5.106 -14.919  -0.482  1.00  0.00     0.134 A 
ATOM     73  C   UNL     1       2.796 -14.808  -1.105  1.00  0.00     0.134 A 
ATOM     74  F   UNL     1       6.105 -14.719   0.390  1.00  0.00    -0.206 F 
ATOM     75  C   UNL     1       5.427 -15.439  -1.737  1.00  0.00     0.040 A 
ATOM     76  C   UNL     1       3.101 -15.353  -2.353  1.00  0.00     0.040 A 
ATOM     77  F   UNL     1       1.513 -14.515  -0.843  1.00  0.00    -0.206 F 
ATOM     78  C   UNL     1       4.420 -15.666  -2.673  1.00  0.00     0.006 A 
ENDBRANCH  57  71
BRANCH  58  79
ATOM     79  C   UNL     1       1.625 -10.750   8.821  1.00  0.00     0.057 A 
ATOM     80  C   UNL     1       2.116 -11.311  10.007  1.00  0.00     0.134 A 
ATOM     81  C   UNL     1       0.738  -9.673   8.939  1.00  0.00     0.134 A 
ATOM     82  F   UNL     1       2.954 -12.357   9.962  1.00  0.00    -0.206 F 
ATOM     83  C   UNL     1       1.710 -10.848  11.260  1.00  0.00     0.040 A 
ATOM     84  C   UNL     1       0.348  -9.180  10.186  1.00  0.00     0.040 A 
ATOM     85  F   UNL     1       0.237  -9.084   7.844  1.00  0.00    -0.206 F 
ATOM     86  C   UNL     1       0.824  -9.777  11.351  1.00  0.00     0.006 A 
ENDBRANCH  58  79
BRANCH  70  87
ATOM     87  C   UNL     1       0.391 -16.887   5.781  1.00  0.00     0.057 A 
ATOM     88  C   UNL     1      -0.993 -16.965   5.977  1.00  0.00     0.134 A 
ATOM     89  C   UNL     1       1.144 -18.045   6.016  1.00  0.00     0.134 A 
ATOM     90  F   UNL     1      -1.770 -15.890   5.780  1.00  0.00    -0.206 F 
ATOM     91  C   UNL     1      -1.601 -18.142   6.417  1.00  0.00     0.040 A 
ATOM     92  C   UNL     1       0.545 -19.235   6.426  1.00  0.00     0.040 A 
ATOM     93  F   UNL     1       2.474 -18.041   5.837  1.00  0.00    -0.206 F 
ATOM     94  C   UNL     1      -0.832 -19.284   6.636  1.00  0.00     0.006 A 
ENDBRANCH  70  87
ENDBRANCH  44  45
ENDBRANCH  36  39
ENDBRANCH  34  35
ENDBRANCH  33  34
ENDBRANCH   1  33
TORSDOF 14
