REMARK SMILES NS(=O)(=O)c1ccc(-n2ccnc2-c2ccc(O)c(C(=O)NCCCCNC(=O)c3ccc(-c4c5nc(c(-c6c(F)cccc6F)c6ccc([nH]6)c(-c6c(F)cccc6F)c6nc(c(-c7c(F)cccc7F)c7ccc4[nH]7)C=C6)C=C5)cc3)c2)cc1
REMARK SMILES IDX 23 1 22 2 20 3 21 4 19 6 14 7 15 8 84 9 16 10 17 11 13 12
REMARK SMILES IDX 9 13 10 14 11 15 12 16 8 17 5 18 6 19 86 20 7 21 85 22 2 23
REMARK SMILES IDX 3 24 4 25 1 26 18 29 24 31 25 32 26 33 27 34 28 35 29 37
REMARK SMILES IDX 30 38 31 39 83 40 32 41 82 42 33 43 34 44 35 45 76 46 36 47
REMARK SMILES IDX 81 48 75 49 77 50 37 51 80 52 74 53 73 54 38 56 64 57 47 58
REMARK SMILES IDX 63 59 48 60 51 61 62 62 78 63 49 64 50 65 61 67 79 68 52 69
REMARK SMILES IDX 39 70 40 71 45 72 41 73 42 74 44 75 46 76 43 77 65 78 66 79
REMARK SMILES IDX 71 80 67 81 68 82 70 83 72 84 69 85 53 86 54 87 59 88 55 89
REMARK SMILES IDX 56 90 58 91 60 92 57 93
REMARK H PARENT 22 5 1 27 1 28 18 30 27 36 77 55 51 66
REMARK Flexibility Score: inf
ROOT
ATOM      1  C   UNL     1      -2.336   3.319  -5.421  1.00  0.00     0.116 C 
ENDROOT
BRANCH   1   2
ATOM      2  N   UNL     1      -2.712   2.104  -6.145  1.00  0.00    -0.352 N 
ATOM      3  C   UNL     1      -2.059   1.313  -7.077  1.00  0.00     0.255 C 
ATOM      4  O   UNL     1      -2.653   0.335  -7.539  1.00  0.00    -0.269 OA
ATOM      5  H   UNL     1      -3.616   1.783  -5.925  1.00  0.00     0.163 HD
BRANCH   3   6
ATOM      6  C   UNL     1      -0.698   1.604  -7.610  1.00  0.00     0.082 A 
ATOM      7  C   UNL     1       1.382   2.888  -7.429  1.00  0.00     0.019 A 
ATOM      8  C   UNL     1       1.717   2.517  -8.731  1.00  0.00     0.016 A 
ATOM      9  C   UNL     1       0.222   2.333  -6.869  1.00  0.00     0.029 A 
ATOM     10  C   UNL     1       0.906   1.615  -9.433  1.00  0.00     0.048 A 
ATOM     11  C   UNL     1      -0.303   1.177  -8.882  1.00  0.00     0.128 A 
BRANCH   7  12
ATOM     12  C   UNL     1       2.098   3.967  -6.712  1.00  0.00     0.144 A 
ATOM     13  N   UNL     1       2.197   4.097  -5.323  1.00  0.00    -0.300 N 
ATOM     14  C   UNL     1       2.445   5.423  -5.061  1.00  0.00     0.113 A 
ATOM     15  C   UNL     1       2.676   5.998  -6.284  1.00  0.00     0.132 A 
ATOM     16  N   UNL     1       2.494   5.089  -7.293  1.00  0.00    -0.236 NA
BRANCH  13  17
ATOM     17  C   UNL     1       1.955   3.096  -4.356  1.00  0.00     0.047 A 
ATOM     18  C   UNL     1       1.123   1.028  -2.742  1.00  0.00     0.082 A 
ATOM     19  C   UNL     1       1.997   0.750  -3.789  1.00  0.00     0.024 A 
ATOM     20  C   UNL     1       0.685   2.330  -2.467  1.00  0.00     0.024 A 
ATOM     21  C   UNL     1       2.417   1.793  -4.601  1.00  0.00     0.028 A 
ATOM     22  C   UNL     1       1.122   3.381  -3.266  1.00  0.00     0.028 A 
BRANCH  18  23
ATOM     23  S   UNL     1       0.467  -0.301  -1.799  1.00  0.00     0.238 S 
ATOM     24  O   UNL     1       1.074  -1.541  -2.201  1.00  0.00    -0.207 OA
ATOM     25  O   UNL     1      -0.965  -0.093  -1.774  1.00  0.00    -0.207 OA
BRANCH  23  26
ATOM     26  N   UNL     1       1.081   0.043  -0.277  1.00  0.00    -0.225 NA
ATOM     27  H   UNL     1       0.768  -0.668   0.385  1.00  0.00     0.137 HD
ATOM     28  H   UNL     1       0.746   0.959   0.026  1.00  0.00     0.137 HD
ENDBRANCH  23  26
ENDBRANCH  18  23
ENDBRANCH  13  17
ENDBRANCH   7  12
BRANCH  11  29
ATOM     29  O   UNL     1      -1.056   0.329  -9.649  1.00  0.00    -0.507 OA
ATOM     30  H   UNL     1      -0.752   0.069 -10.496  1.00  0.00     0.293 HD
ENDBRANCH  11  29
ENDBRANCH   3   6
ENDBRANCH   1   2
BRANCH   1  31
ATOM     31  C   UNL     1      -3.264   4.520  -5.600  1.00  0.00     0.023 C 
BRANCH  31  32
ATOM     32  C   UNL     1      -4.632   4.472  -4.926  1.00  0.00     0.023 C 
BRANCH  32  33
ATOM     33  C   UNL     1      -4.605   4.230  -3.425  1.00  0.00     0.116 C 
BRANCH  33  34
ATOM     34  N   UNL     1      -3.904   5.263  -2.653  1.00  0.00    -0.352 N 
ATOM     35  C   UNL     1      -3.777   5.330  -1.272  1.00  0.00     0.251 C 
ATOM     36  H   UNL     1      -3.478   5.985  -3.170  1.00  0.00     0.163 HD
ATOM     37  O   UNL     1      -3.491   6.373  -0.699  1.00  0.00    -0.269 OA
BRANCH  35  38
ATOM     38  C   UNL     1      -3.956   4.085  -0.507  1.00  0.00     0.039 A 
ATOM     39  C   UNL     1      -4.697   4.012   0.677  1.00  0.00     0.014 A 
ATOM     40  C   UNL     1      -3.391   2.946  -1.070  1.00  0.00     0.014 A 
ATOM     41  C   UNL     1      -4.918   2.758   1.246  1.00  0.00     0.010 A 
ATOM     42  C   UNL     1      -3.793   1.717  -0.641  1.00  0.00     0.010 A 
ATOM     43  C   UNL     1      -4.469   1.616   0.567  1.00  0.00    -0.014 A 
BRANCH  43  44
ATOM     44  C   UNL     1      -4.781   0.265   1.004  1.00  0.00     0.031 A 
ATOM     45  C   UNL     1      -6.229  -0.027   1.076  1.00  0.00     0.074 A 
ATOM     46  C   UNL     1      -3.832  -0.695   1.066  1.00  0.00     0.049 A 
ATOM     47  N   UNL     1      -6.910  -0.258   2.146  1.00  0.00    -0.248 NA
ATOM     48  C   UNL     1      -7.055   0.122  -0.134  1.00  0.00     0.031 C 
ATOM     49  C   UNL     1      -2.406  -0.576   0.760  1.00  0.00     0.029 A 
ATOM     50  N   UNL     1      -3.970  -2.031   1.291  1.00  0.00    -0.354 N 
ATOM     51  C   UNL     1      -8.199  -0.546   1.716  1.00  0.00     0.074 A 
ATOM     52  C   UNL     1      -8.280  -0.072   0.360  1.00  0.00     0.031 C 
ATOM     53  C   UNL     1      -1.874  -1.802   0.566  1.00  0.00     0.029 A 
ATOM     54  C   UNL     1      -2.869  -2.793   0.890  1.00  0.00     0.049 A 
ATOM     55  H   UNL     1      -4.774  -2.425   1.701  1.00  0.00     0.167 HD
ATOM     56  C   UNL     1      -8.979  -1.414   2.419  1.00  0.00     0.037 A 
ATOM     57  C   UNL     1      -2.808  -4.147   0.805  1.00  0.00     0.037 A 
ATOM     58  C   UNL     1      -8.431  -1.639   3.739  1.00  0.00     0.049 A 
ATOM     59  C   UNL     1      -3.874  -4.665   1.703  1.00  0.00     0.074 A 
ATOM     60  C   UNL     1      -8.086  -0.811   4.792  1.00  0.00     0.029 A 
ATOM     61  N   UNL     1      -7.759  -2.818   3.960  1.00  0.00    -0.354 N 
ATOM     62  N   UNL     1      -3.840  -4.508   3.001  1.00  0.00    -0.248 NA
ATOM     63  C   UNL     1      -5.199  -4.833   1.124  1.00  0.00     0.031 C 
ATOM     64  C   UNL     1      -6.847  -1.331   5.271  1.00  0.00     0.029 A 
ATOM     65  C   UNL     1      -6.569  -2.505   4.570  1.00  0.00     0.049 A 
ATOM     66  H   UNL     1      -8.072  -3.721   3.724  1.00  0.00     0.167 HD
ATOM     67  C   UNL     1      -5.124  -4.100   3.335  1.00  0.00     0.074 A 
ATOM     68  C   UNL     1      -5.932  -4.370   2.142  1.00  0.00     0.031 C 
ATOM     69  C   UNL     1      -5.361  -3.281   4.404  1.00  0.00     0.037 A 
BRANCH  56  70
ATOM     70  C   UNL     1      -9.975  -2.362   1.798  1.00  0.00     0.057 A 
ATOM     71  C   UNL     1     -10.800  -3.123   2.646  1.00  0.00     0.134 A 
ATOM     72  C   UNL     1      -9.958  -2.776   0.451  1.00  0.00     0.134 A 
ATOM     73  F   UNL     1     -10.898  -2.834   3.952  1.00  0.00    -0.206 F 
ATOM     74  C   UNL     1     -11.481  -4.264   2.204  1.00  0.00     0.040 A 
ATOM     75  C   UNL     1     -10.676  -3.882  -0.011  1.00  0.00     0.040 A 
ATOM     76  F   UNL     1      -9.176  -2.208  -0.473  1.00  0.00    -0.206 F 
ATOM     77  C   UNL     1     -11.412  -4.653   0.874  1.00  0.00     0.006 A 
ENDBRANCH  56  70
BRANCH  57  78
ATOM     78  C   UNL     1      -2.133  -4.972  -0.230  1.00  0.00     0.057 A 
ATOM     79  C   UNL     1      -1.949  -6.354  -0.068  1.00  0.00     0.134 A 
ATOM     80  C   UNL     1      -1.883  -4.474  -1.524  1.00  0.00     0.134 A 
ATOM     81  F   UNL     1      -2.200  -6.938   1.112  1.00  0.00    -0.206 F 
ATOM     82  C   UNL     1      -1.559  -7.189  -1.129  1.00  0.00     0.040 A 
ATOM     83  C   UNL     1      -1.489  -5.295  -2.588  1.00  0.00     0.040 A 
ATOM     84  F   UNL     1      -2.100  -3.186  -1.822  1.00  0.00    -0.206 F 
ATOM     85  C   UNL     1      -1.338  -6.662  -2.397  1.00  0.00     0.006 A 
ENDBRANCH  57  78
BRANCH  69  86
ATOM     86  C   UNL     1      -4.231  -2.973   5.356  1.00  0.00     0.057 A 
ATOM     87  C   UNL     1      -3.050  -2.298   5.005  1.00  0.00     0.134 A 
ATOM     88  C   UNL     1      -4.436  -3.195   6.722  1.00  0.00     0.134 A 
ATOM     89  F   UNL     1      -2.800  -1.942   3.740  1.00  0.00    -0.206 F 
ATOM     90  C   UNL     1      -2.108  -1.897   5.960  1.00  0.00     0.040 A 
ATOM     91  C   UNL     1      -3.520  -2.772   7.689  1.00  0.00     0.040 A 
ATOM     92  F   UNL     1      -5.567  -3.779   7.147  1.00  0.00    -0.206 F 
ATOM     93  C   UNL     1      -2.347  -2.127   7.310  1.00  0.00     0.006 A 
ENDBRANCH  69  86
ENDBRANCH  43  44
ENDBRANCH  35  38
ENDBRANCH  33  34
ENDBRANCH  32  33
ENDBRANCH  31  32
ENDBRANCH   1  31
TORSDOF 16
