REMARK SMILES CCCCCC(=O)N1CCC[C@H](C(=O)NCCCCNC(=O)c2ccc(-c3c4nc(c(-c5c(F)cccc5F)c5ccc([nH]5)c(-c5c(F)cccc5F)c5nc(c(-c6c(F)cccc6F)c6ccc3[nH]6)C=C5)C=C4)cc2)C1
REMARK SMILES IDX 16 1 15 2 13 3 14 4 12 6 8 7 9 8 77 9 10 10 11 11 6 12 7 13
REMARK SMILES IDX 5 14 4 15 3 16 2 17 1 18 17 19 18 20 19 21 20 22 21 23 22 25
REMARK SMILES IDX 23 26 24 27 76 28 25 29 75 30 26 31 27 32 28 33 69 34 29 35
REMARK SMILES IDX 74 36 68 37 70 38 30 39 73 40 67 41 66 42 31 44 57 45 40 46
REMARK SMILES IDX 56 47 41 48 44 49 55 50 71 51 42 52 43 53 54 55 72 56 45 57
REMARK SMILES IDX 32 58 33 59 38 60 34 61 35 62 37 63 39 64 36 65 58 66 59 67
REMARK SMILES IDX 64 68 60 69 61 70 63 71 65 72 62 73 46 74 47 75 52 76 48 77
REMARK SMILES IDX 49 78 51 79 53 80 50 81
REMARK H PARENT 15 5 20 24 70 43 44 54
REMARK Flexibility Score: inf
ROOT
ATOM      1  C   UNL     1      -1.543   2.183   6.417  1.00  0.00     0.116 C 
ENDROOT
BRANCH   1   2
ATOM      2  N   UNL     1      -0.226   1.954   6.960  1.00  0.00    -0.356 N 
ATOM      3  C   UNL     1       0.663   0.957   6.731  1.00  0.00     0.224 C 
ATOM      4  O   UNL     1       1.767   1.067   7.276  1.00  0.00    -0.275 OA
ATOM      5  H   UNL     1       0.077   2.634   7.603  1.00  0.00     0.163 HD
BRANCH   3   6
ATOM      6  C   UNL     1       0.374  -0.266   5.854  1.00  0.00     0.098 C 
ATOM      7  N   UNL     1      -1.164   0.047   3.871  1.00  0.00    -0.342 N 
ATOM      8  C   UNL     1      -2.017  -1.047   4.336  1.00  0.00     0.119 C 
ATOM      9  C   UNL     1       0.203   0.049   4.365  1.00  0.00     0.132 C 
ATOM     10  C   UNL     1      -2.027  -1.202   5.851  1.00  0.00     0.022 C 
ATOM     11  C   UNL     1      -0.627  -1.260   6.444  1.00  0.00     0.017 C 
BRANCH   7  12
ATOM     12  C   UNL     1      -1.728   1.039   3.095  1.00  0.00     0.222 C 
ATOM     13  O   UNL     1      -2.924   1.325   3.247  1.00  0.00    -0.275 OA
BRANCH  12  14
ATOM     14  C   UNL     1      -0.997   1.693   1.915  1.00  0.00     0.100 C 
BRANCH  14  15
ATOM     15  C   UNL     1       0.500   1.961   1.790  1.00  0.00     0.010 C 
BRANCH  15  16
ATOM     16  C   UNL     1       1.465   0.800   1.504  1.00  0.00     0.000 C 
BRANCH  16  17
ATOM     17  C   UNL     1       0.915  -0.399   0.733  1.00  0.00    -0.003 C 
ATOM     18  C   UNL     1       0.910  -0.170  -0.768  1.00  0.00     0.004 C 
ENDBRANCH  16  17
ENDBRANCH  15  16
ENDBRANCH  14  15
ENDBRANCH  12  14
ENDBRANCH   7  12
ENDBRANCH   3   6
ENDBRANCH   1   2
BRANCH   1  19
ATOM     19  C   UNL     1      -2.638   2.102   7.475  1.00  0.00     0.023 C 
BRANCH  19  20
ATOM     20  C   UNL     1      -3.071   3.455   8.021  1.00  0.00     0.023 C 
BRANCH  20  21
ATOM     21  C   UNL     1      -3.603   4.431   6.976  1.00  0.00     0.116 C 
BRANCH  21  22
ATOM     22  N   UNL     1      -4.725   3.927   6.196  1.00  0.00    -0.352 N 
ATOM     23  C   UNL     1      -5.862   4.606   5.813  1.00  0.00     0.251 C 
ATOM     24  H   UNL     1      -4.664   2.987   5.908  1.00  0.00     0.163 HD
ATOM     25  O   UNL     1      -6.781   4.042   5.237  1.00  0.00    -0.269 OA
BRANCH  23  26
ATOM     26  C   UNL     1      -5.967   6.038   6.157  1.00  0.00     0.039 A 
ATOM     27  C   UNL     1      -7.076   6.482   6.878  1.00  0.00     0.014 A 
ATOM     28  C   UNL     1      -4.917   6.908   5.854  1.00  0.00     0.014 A 
ATOM     29  C   UNL     1      -7.088   7.785   7.376  1.00  0.00     0.010 A 
ATOM     30  C   UNL     1      -4.891   8.173   6.426  1.00  0.00     0.010 A 
ATOM     31  C   UNL     1      -5.975   8.623   7.196  1.00  0.00    -0.014 A 
BRANCH  31  32
ATOM     32  C   UNL     1      -5.921   9.974   7.809  1.00  0.00     0.031 A 
ATOM     33  C   UNL     1      -5.829  11.191   6.932  1.00  0.00     0.074 A 
ATOM     34  C   UNL     1      -5.880  10.100   9.150  1.00  0.00     0.049 A 
ATOM     35  N   UNL     1      -5.714  12.449   7.274  1.00  0.00    -0.248 NA
ATOM     36  C   UNL     1      -5.831  10.963   5.478  1.00  0.00     0.031 C 
ATOM     37  C   UNL     1      -5.891   8.993  10.109  1.00  0.00     0.029 A 
ATOM     38  N   UNL     1      -5.814  11.221   9.940  1.00  0.00    -0.354 N 
ATOM     39  C   UNL     1      -5.604  13.154   6.083  1.00  0.00     0.074 A 
ATOM     40  C   UNL     1      -5.611  12.183   5.012  1.00  0.00     0.031 C 
ATOM     41  C   UNL     1      -5.870   9.491  11.357  1.00  0.00     0.029 A 
ATOM     42  C   UNL     1      -5.813  10.948  11.287  1.00  0.00     0.049 A 
ATOM     43  H   UNL     1      -5.771  12.134   9.575  1.00  0.00     0.167 HD
ATOM     44  C   UNL     1      -5.535  14.493   5.896  1.00  0.00     0.037 A 
ATOM     45  C   UNL     1      -5.777  11.781  12.344  1.00  0.00     0.037 A 
ATOM     46  C   UNL     1      -5.582  15.460   6.958  1.00  0.00     0.049 A 
ATOM     47  C   UNL     1      -5.737  13.265  12.107  1.00  0.00     0.074 A 
ATOM     48  C   UNL     1      -5.605  16.840   6.867  1.00  0.00     0.029 A 
ATOM     49  N   UNL     1      -5.619  15.145   8.308  1.00  0.00    -0.354 N 
ATOM     50  N   UNL     1      -5.719  13.921  10.973  1.00  0.00    -0.248 NA
ATOM     51  C   UNL     1      -5.718  14.125  13.300  1.00  0.00     0.031 C 
ATOM     52  C   UNL     1      -5.625  17.362   8.165  1.00  0.00     0.029 A 
ATOM     53  C   UNL     1      -5.651  16.305   9.061  1.00  0.00     0.049 A 
ATOM     54  H   UNL     1      -5.623  14.231   8.675  1.00  0.00     0.167 HD
ATOM     55  C   UNL     1      -5.719  15.267  11.312  1.00  0.00     0.074 A 
ATOM     56  C   UNL     1      -5.749  15.335  12.759  1.00  0.00     0.031 C 
ATOM     57  C   UNL     1      -5.697  16.351  10.499  1.00  0.00     0.037 A 
BRANCH  44  58
ATOM     58  C   UNL     1      -5.419  14.986   4.484  1.00  0.00     0.057 A 
ATOM     59  C   UNL     1      -6.494  14.914   3.588  1.00  0.00     0.134 A 
ATOM     60  C   UNL     1      -4.230  15.564   4.024  1.00  0.00     0.134 A 
ATOM     61  F   UNL     1      -7.656  14.358   3.964  1.00  0.00    -0.206 F 
ATOM     62  C   UNL     1      -6.381  15.374   2.275  1.00  0.00     0.040 A 
ATOM     63  C   UNL     1      -4.113  16.051   2.721  1.00  0.00     0.040 A 
ATOM     64  F   UNL     1      -3.164  15.667   4.832  1.00  0.00    -0.206 F 
ATOM     65  C   UNL     1      -5.189  15.951   1.841  1.00  0.00     0.006 A 
ENDBRANCH  44  58
BRANCH  45  66
ATOM     66  C   UNL     1      -5.824  11.239  13.725  1.00  0.00     0.057 A 
ATOM     67  C   UNL     1      -6.968  11.395  14.518  1.00  0.00     0.134 A 
ATOM     68  C   UNL     1      -4.732  10.574  14.292  1.00  0.00     0.134 A 
ATOM     69  F   UNL     1      -8.040  12.041  14.035  1.00  0.00    -0.206 F 
ATOM     70  C   UNL     1      -7.016  10.930  15.832  1.00  0.00     0.040 A 
ATOM     71  C   UNL     1      -4.774  10.084  15.598  1.00  0.00     0.040 A 
ATOM     72  F   UNL     1      -3.610  10.387  13.582  1.00  0.00    -0.206 F 
ATOM     73  C   UNL     1      -5.916  10.269  16.375  1.00  0.00     0.006 A 
ENDBRANCH  45  66
BRANCH  57  74
ATOM     74  C   UNL     1      -5.742  17.699  11.153  1.00  0.00     0.057 A 
ATOM     75  C   UNL     1      -4.629  18.238  11.810  1.00  0.00     0.134 A 
ATOM     76  C   UNL     1      -6.900  18.484  11.084  1.00  0.00     0.134 A 
ATOM     77  F   UNL     1      -3.496  17.528  11.921  1.00  0.00    -0.206 F 
ATOM     78  C   UNL     1      -4.672  19.505  12.392  1.00  0.00     0.040 A 
ATOM     79  C   UNL     1      -6.947  19.762  11.642  1.00  0.00     0.040 A 
ATOM     80  F   UNL     1      -7.997  18.028  10.461  1.00  0.00    -0.206 F 
ATOM     81  C   UNL     1      -5.832  20.273  12.302  1.00  0.00     0.006 A 
ENDBRANCH  57  74
ENDBRANCH  31  32
ENDBRANCH  23  26
ENDBRANCH  21  22
ENDBRANCH  20  21
ENDBRANCH  19  20
ENDBRANCH   1  19
TORSDOF 16
