REMARK SMILES [NH3+][C@@H]1CCCCC[C@H]1C(=O)N1[C@@H](C2CC2)SC[C@H]1C(=O)NCCCCNC(=O)c1ccc(-c2c3nc(c(-c4c(F)cccc4F)c4ccc([nH]4)c(-c4c(F)cccc4F)c4nc(c(-c5c(F)cccc5F)c5ccc2[nH]5)C=C4)C=C3)cc1
REMARK SMILES IDX 22 1 21 2 19 3 20 4 18 6 11 7 12 8 16 9 17 10 9 11 10 12
REMARK SMILES IDX 8 13 2 14 1 15 3 19 4 20 7 22 6 23 5 24 13 26 14 27 15 28
REMARK SMILES IDX 23 29 24 30 25 31 26 32 27 33 28 35 29 36 30 37 82 38 31 39
REMARK SMILES IDX 81 40 32 41 33 42 34 43 75 44 35 45 80 46 74 47 76 48 36 49
REMARK SMILES IDX 79 50 73 51 72 52 37 54 63 55 46 56 62 57 47 58 50 59 61 60
REMARK SMILES IDX 77 61 48 62 49 63 60 65 78 66 51 67 38 68 39 69 44 70 40 71
REMARK SMILES IDX 41 72 43 73 45 74 42 75 64 76 65 77 70 78 66 79 67 80 69 81
REMARK SMILES IDX 71 82 68 83 52 84 53 85 58 86 54 87 55 88 57 89 59 90 56 91
REMARK H PARENT 21 5 1 16 1 17 1 18 26 34 76 53 50 64
REMARK Flexibility Score: 90.00
ROOT
ATOM      1  C   UNL     1      -1.748   4.509  -1.999  1.00  0.00     0.116 C 
ENDROOT
BRANCH   1   2
ATOM      2  N   UNL     1      -0.880   4.522  -3.151  1.00  0.00    -0.354 N 
ATOM      3  C   UNL     1      -0.658   3.542  -4.071  1.00  0.00     0.243 C 
ATOM      4  O   UNL     1      -0.137   3.888  -5.139  1.00  0.00    -0.273 OA
ATOM      5  H   UNL     1      -0.378   5.357  -3.293  1.00  0.00     0.163 HD
BRANCH   3   6
ATOM      6  C   UNL     1      -1.206   2.106  -3.918  1.00  0.00     0.185 C 
ATOM      7  N   UNL     1      -1.017   1.391  -2.642  1.00  0.00    -0.317 N 
ATOM      8  C   UNL     1      -2.177   0.639  -2.177  1.00  0.00     0.147 C 
ATOM      9  S   UNL     1      -3.346   0.595  -3.546  1.00  0.00    -0.134 SA
ATOM     10  C   UNL     1      -2.678   2.081  -4.319  1.00  0.00     0.107 C 
BRANCH   7  11
ATOM     11  C   UNL     1       0.305   1.154  -2.292  1.00  0.00     0.233 C 
ATOM     12  O   UNL     1       1.135   2.066  -2.394  1.00  0.00    -0.274 OA
BRANCH  11  13
ATOM     13  C   UNL     1       0.823  -0.279  -2.055  1.00  0.00     0.136 C 
BRANCH  13  14
ATOM     14  C   UNL     1       0.452  -0.943  -0.714  1.00  0.00     0.193 C 
BRANCH  14  15
ATOM     15  N   UNL     1       0.961  -0.128   0.400  1.00  0.00    -0.354 N 
ATOM     16  H   UNL     1       0.714  -0.570   1.285  1.00  0.00     0.344 HD
ATOM     17  H   UNL     1       0.547   0.803   0.357  1.00  0.00     0.344 HD
ATOM     18  H   UNL     1       1.976  -0.052   0.330  1.00  0.00     0.344 HD
ENDBRANCH  14  15
BRANCH  14  19
ATOM     19  C   UNL     1       0.990  -2.381  -0.550  1.00  0.00     0.066 C 
BRANCH  19  20
ATOM     20  C   UNL     1       0.307  -3.390  -1.474  1.00  0.00     0.006 CG0
ATOM     21  G   UNL     1       0.973  -3.568  -2.834  1.00  0.00     0.000 G0
ENDBRANCH  19  20
ENDBRANCH  14  19
ENDBRANCH  13  14
BRANCH  13  22
ATOM     22  C   UNL     1       0.551  -1.099  -3.336  1.00  0.00     0.020 C 
BRANCH  22  23
ATOM     23  C   UNL     1       1.480  -2.297  -3.501  1.00  0.00     0.001 C 
BRANCH  23  24
ATOM     24  C   UNL     1       0.973  -3.568  -2.834  1.00  0.00     0.000 CG0
ATOM     25  G   UNL     1       0.307  -3.390  -1.474  1.00  0.00     0.000 G0
ENDBRANCH  23  24
ENDBRANCH  22  23
ENDBRANCH  13  22
ENDBRANCH  11  13
ENDBRANCH   7  11
BRANCH   8  26
ATOM     26  C   UNL     1      -2.689   1.250  -0.894  1.00  0.00     0.022 C 
ATOM     27  C   UNL     1      -3.962   2.072  -0.755  1.00  0.00     0.007 C 
ATOM     28  C   UNL     1      -3.893   0.696  -0.162  1.00  0.00     0.007 C 
ENDBRANCH   8  26
ENDBRANCH   3   6
ENDBRANCH   1   2
BRANCH   1  29
ATOM     29  C   UNL     1      -0.999   4.486  -0.670  1.00  0.00     0.023 C 
BRANCH  29  30
ATOM     30  C   UNL     1      -0.946   5.834   0.050  1.00  0.00     0.023 C 
BRANCH  30  31
ATOM     31  C   UNL     1      -2.297   6.467   0.379  1.00  0.00     0.116 C 
BRANCH  31  32
ATOM     32  N   UNL     1      -3.150   5.679   1.258  1.00  0.00    -0.352 N 
ATOM     33  C   UNL     1      -4.085   6.139   2.161  1.00  0.00     0.251 C 
ATOM     34  H   UNL     1      -3.047   4.702   1.200  1.00  0.00     0.163 HD
ATOM     35  O   UNL     1      -4.725   5.358   2.858  1.00  0.00    -0.269 OA
BRANCH  33  36
ATOM     36  C   UNL     1      -4.250   7.599   2.336  1.00  0.00     0.039 A 
ATOM     37  C   UNL     1      -4.088   8.142   3.613  1.00  0.00     0.014 A 
ATOM     38  C   UNL     1      -4.435   8.434   1.232  1.00  0.00     0.014 A 
ATOM     39  C   UNL     1      -3.988   9.526   3.765  1.00  0.00     0.010 A 
ATOM     40  C   UNL     1      -4.258   9.807   1.374  1.00  0.00     0.010 A 
ATOM     41  C   UNL     1      -4.004  10.365   2.638  1.00  0.00    -0.014 A 
BRANCH  41  42
ATOM     42  C   UNL     1      -3.700  11.815   2.750  1.00  0.00     0.031 A 
ATOM     43  C   UNL     1      -4.727  12.840   2.365  1.00  0.00     0.074 A 
ATOM     44  C   UNL     1      -2.462  12.209   3.113  1.00  0.00     0.049 A 
ATOM     45  N   UNL     1      -4.615  14.143   2.311  1.00  0.00    -0.248 NA
ATOM     46  C   UNL     1      -6.046  12.333   1.957  1.00  0.00     0.031 C 
ATOM     47  C   UNL     1      -1.350  11.315   3.448  1.00  0.00     0.029 A 
ATOM     48  N   UNL     1      -1.925  13.466   3.248  1.00  0.00    -0.354 N 
ATOM     49  C   UNL     1      -5.836  14.608   1.844  1.00  0.00     0.074 A 
ATOM     50  C   UNL     1      -6.660  13.447   1.586  1.00  0.00     0.031 C 
ATOM     51  C   UNL     1      -0.276  12.051   3.775  1.00  0.00     0.029 A 
ATOM     52  C   UNL     1      -0.608  13.465   3.639  1.00  0.00     0.049 A 
ATOM     53  H   UNL     1      -2.437  14.290   3.079  1.00  0.00     0.167 HD
ATOM     54  C   UNL     1      -6.245  15.887   1.669  1.00  0.00     0.037 A 
ATOM     55  C   UNL     1       0.238  14.489   3.861  1.00  0.00     0.037 A 
ATOM     56  C   UNL     1      -5.441  17.044   1.960  1.00  0.00     0.049 A 
ATOM     57  C   UNL     1      -0.246  15.899   3.680  1.00  0.00     0.074 A 
ATOM     58  C   UNL     1      -5.794  18.381   1.883  1.00  0.00     0.029 A 
ATOM     59  N   UNL     1      -4.123  17.002   2.388  1.00  0.00    -0.354 N 
ATOM     60  N   UNL     1      -1.428  16.325   3.305  1.00  0.00    -0.248 NA
ATOM     61  C   UNL     1       0.720  16.973   3.955  1.00  0.00     0.031 C 
ATOM     62  C   UNL     1      -4.679  19.149   2.236  1.00  0.00     0.029 A 
ATOM     63  C   UNL     1      -3.643  18.289   2.566  1.00  0.00     0.049 A 
ATOM     64  H   UNL     1      -3.606  16.179   2.543  1.00  0.00     0.167 HD
ATOM     65  C   UNL     1      -1.355  17.711   3.323  1.00  0.00     0.074 A 
ATOM     66  C   UNL     1      -0.017  18.056   3.756  1.00  0.00     0.031 C 
ATOM     67  C   UNL     1      -2.312  18.616   3.006  1.00  0.00     0.037 A 
BRANCH  54  68
ATOM     68  C   UNL     1      -7.634  16.098   1.146  1.00  0.00     0.057 A 
ATOM     69  C   UNL     1      -8.763  15.852   1.938  1.00  0.00     0.134 A 
ATOM     70  C   UNL     1      -7.846  16.574  -0.154  1.00  0.00     0.134 A 
ATOM     71  F   UNL     1      -8.627  15.383   3.188  1.00  0.00    -0.206 F 
ATOM     72  C   UNL     1     -10.055  16.046   1.448  1.00  0.00     0.040 A 
ATOM     73  C   UNL     1      -9.133  16.794  -0.648  1.00  0.00     0.040 A 
ATOM     74  F   UNL     1      -6.808  16.834  -0.963  1.00  0.00    -0.206 F 
ATOM     75  C   UNL     1     -10.242  16.524   0.152  1.00  0.00     0.006 A 
ENDBRANCH  54  68
BRANCH  55  76
ATOM     76  C   UNL     1       1.628  14.222   4.308  1.00  0.00     0.057 A 
ATOM     77  C   UNL     1       2.024  14.498   5.622  1.00  0.00     0.134 A 
ATOM     78  C   UNL     1       2.592  13.699   3.439  1.00  0.00     0.134 A 
ATOM     79  F   UNL     1       1.149  15.019   6.495  1.00  0.00    -0.206 F 
ATOM     80  C   UNL     1       3.334  14.280   6.052  1.00  0.00     0.040 A 
ATOM     81  C   UNL     1       3.900  13.456   3.861  1.00  0.00     0.040 A 
ATOM     82  F   UNL     1       2.272  13.409   2.169  1.00  0.00    -0.206 F 
ATOM     83  C   UNL     1       4.276  13.754   5.170  1.00  0.00     0.006 A 
ENDBRANCH  55  76
BRANCH  67  84
ATOM     84  C   UNL     1      -1.957  20.066   3.145  1.00  0.00     0.057 A 
ATOM     85  C   UNL     1      -1.129  20.712   2.220  1.00  0.00     0.134 A 
ATOM     86  C   UNL     1      -2.482  20.831   4.193  1.00  0.00     0.134 A 
ATOM     87  F   UNL     1      -0.583  20.029   1.202  1.00  0.00    -0.206 F 
ATOM     88  C   UNL     1      -0.823  22.069   2.341  1.00  0.00     0.040 A 
ATOM     89  C   UNL     1      -2.201  22.193   4.313  1.00  0.00     0.040 A 
ATOM     90  F   UNL     1      -3.287  20.271   5.109  1.00  0.00    -0.206 F 
ATOM     91  C   UNL     1      -1.366  22.814   3.386  1.00  0.00     0.006 A 
ENDBRANCH  67  84
ENDBRANCH  41  42
ENDBRANCH  33  36
ENDBRANCH  31  32
ENDBRANCH  30  31
ENDBRANCH  29  30
ENDBRANCH   1  29
TORSDOF 15
