REMARK SMILES CC(C)CN(C)c1cc2c(cc1Cl)C=C(C(=O)NCCCCNC(=O)c1ccc(-c3c4nc(c(-c5c(F)cccc5F)c5ccc([nH]5)c(-c5c(F)cccc5F)c5nc(c(-c6c(F)cccc6F)c6ccc3[nH]6)C=C5)C=C4)cc1)[C@@H](C(F)(F)F)O2
REMARK SMILES IDX 20 1 19 2 18 3 16 4 17 5 15 7 7 8 8 9 12 10 9 11 11 12 13 13
REMARK SMILES IDX 10 14 85 15 14 16 80 17 5 18 6 19 4 20 2 21 1 22 3 23 81 24
REMARK SMILES IDX 82 25 83 26 84 27 21 28 22 29 23 30 24 31 25 33 26 34 27 35
REMARK SMILES IDX 79 36 28 37 78 38 29 39 30 40 31 41 72 42 32 43 77 44 71 45
REMARK SMILES IDX 73 46 33 47 76 48 70 49 69 50 34 52 60 53 43 54 59 55 44 56
REMARK SMILES IDX 47 57 58 58 74 59 45 60 46 61 57 63 75 64 48 65 35 66 36 67
REMARK SMILES IDX 41 68 37 69 38 70 40 71 42 72 39 73 61 74 62 75 67 76 63 77
REMARK SMILES IDX 64 78 66 79 68 80 65 81 49 82 50 83 55 84 51 85 52 86 54 87
REMARK SMILES IDX 56 88 53 89
REMARK H PARENT 18 6 23 32 73 51 47 62
REMARK Flexibility Score: inf
ROOT
ATOM      1  C   UNL     1      -4.326   6.179  -6.220  1.00  0.00     0.023 C 
ENDROOT
BRANCH   1   2
ATOM      2  C   UNL     1      -3.334   5.218  -6.867  1.00  0.00     0.116 C 
BRANCH   2   3
ATOM      3  N   UNL     1      -1.968   5.499  -6.466  1.00  0.00    -0.352 N 
ATOM      4  C   UNL     1      -1.034   4.906  -5.684  1.00  0.00     0.251 C 
ATOM      5  O   UNL     1       0.059   5.480  -5.644  1.00  0.00    -0.270 OA
ATOM      6  H   UNL     1      -1.634   6.335  -6.865  1.00  0.00     0.163 HD
BRANCH   4   7
ATOM      7  C   UNL     1      -1.242   3.662  -4.893  1.00  0.00     0.067 C 
ATOM      8  C   UNL     1      -0.732  -0.305  -1.822  1.00  0.00     0.059 A 
ATOM      9  C   UNL     1      -1.792   0.555  -2.148  1.00  0.00     0.074 A 
ATOM     10  C   UNL     1       0.534  -0.029  -2.390  1.00  0.00     0.065 A 
ATOM     11  C   UNL     1      -1.591   1.635  -3.003  1.00  0.00     0.130 A 
ATOM     12  C   UNL     1       0.749   1.112  -3.174  1.00  0.00     0.034 A 
ATOM     13  Cl  UNL     1       1.879  -1.103  -2.197  1.00  0.00    -0.082 Cl
ATOM     14  C   UNL     1      -0.317   1.949  -3.482  1.00  0.00     0.019 A 
ATOM     15  O   UNL     1      -2.692   2.364  -3.375  1.00  0.00    -0.475 OA
ATOM     16  C   UNL     1      -0.149   3.149  -4.296  1.00  0.00     0.025 C 
ATOM     17  C   UNL     1      -2.561   2.966  -4.700  1.00  0.00     0.314 C 
BRANCH   8  18
ATOM     18  N   UNL     1      -0.951  -1.403  -0.976  1.00  0.00    -0.373 N 
ATOM     19  C   UNL     1      -1.936  -2.369  -1.459  1.00  0.00     0.143 C 
BRANCH  18  20
ATOM     20  C   UNL     1      -0.952  -1.133   0.475  1.00  0.00     0.119 C 
BRANCH  20  21
ATOM     21  C   UNL     1       0.472  -1.079   1.062  1.00  0.00     0.002 C 
ATOM     22  C   UNL     1       0.992   0.358   1.164  1.00  0.00     0.009 C 
ATOM     23  C   UNL     1       0.517  -1.725   2.449  1.00  0.00     0.009 C 
ENDBRANCH  20  21
ENDBRANCH  18  20
ENDBRANCH   8  18
BRANCH  17  24
ATOM     24  C   UNL     1      -2.843   1.920  -5.806  1.00  0.00     0.429 C 
ATOM     25  F   UNL     1      -4.163   1.610  -5.838  1.00  0.00    -0.167 F 
ATOM     26  F   UNL     1      -2.526   2.383  -7.041  1.00  0.00    -0.167 F 
ATOM     27  F   UNL     1      -2.161   0.765  -5.643  1.00  0.00    -0.167 F 
ENDBRANCH  17  24
ENDBRANCH   4   7
ENDBRANCH   2   3
ENDBRANCH   1   2
BRANCH   1  28
ATOM     28  C   UNL     1      -4.439   7.533  -6.921  1.00  0.00     0.023 C 
BRANCH  28  29
ATOM     29  C   UNL     1      -4.799   7.473  -8.403  1.00  0.00     0.116 C 
BRANCH  29  30
ATOM     30  N   UNL     1      -6.000   6.703  -8.703  1.00  0.00    -0.352 N 
ATOM     31  C   UNL     1      -6.851   6.865  -9.775  1.00  0.00     0.251 C 
ATOM     32  H   UNL     1      -6.229   5.986  -8.067  1.00  0.00     0.163 HD
ATOM     33  O   UNL     1      -7.858   6.181  -9.904  1.00  0.00    -0.269 OA
BRANCH  31  34
ATOM     34  C   UNL     1      -6.541   7.942 -10.733  1.00  0.00     0.039 A 
ATOM     35  C   UNL     1      -5.301   7.957 -11.375  1.00  0.00     0.014 A 
ATOM     36  C   UNL     1      -7.415   9.027 -10.823  1.00  0.00     0.014 A 
ATOM     37  C   UNL     1      -4.854   9.139 -11.950  1.00  0.00     0.010 A 
ATOM     38  C   UNL     1      -6.988  10.191 -11.459  1.00  0.00     0.010 A 
ATOM     39  C   UNL     1      -5.677  10.279 -11.957  1.00  0.00    -0.014 A 
BRANCH  39  40
ATOM     40  C   UNL     1      -5.116  11.583 -12.386  1.00  0.00     0.031 A 
ATOM     41  C   UNL     1      -4.907  12.683 -11.377  1.00  0.00     0.074 A 
ATOM     42  C   UNL     1      -4.731  11.758 -13.662  1.00  0.00     0.049 A 
ATOM     43  N   UNL     1      -4.457  13.899 -11.559  1.00  0.00    -0.248 NA
ATOM     44  C   UNL     1      -5.252  12.377  -9.978  1.00  0.00     0.031 C 
ATOM     45  C   UNL     1      -4.838  10.755 -14.721  1.00  0.00     0.029 A 
ATOM     46  N   UNL     1      -4.151  12.836 -14.277  1.00  0.00    -0.354 N 
ATOM     47  C   UNL     1      -4.499  14.512 -10.312  1.00  0.00     0.074 A 
ATOM     48  C   UNL     1      -5.028  13.539  -9.381  1.00  0.00     0.031 C 
ATOM     49  C   UNL     1      -4.297  11.248 -15.845  1.00  0.00     0.029 A 
ATOM     50  C   UNL     1      -3.860  12.619 -15.600  1.00  0.00     0.049 A 
ATOM     51  H   UNL     1      -3.960  13.684 -13.814  1.00  0.00     0.167 HD
ATOM     52  C   UNL     1      -4.126  15.769  -9.973  1.00  0.00     0.037 A 
ATOM     53  C   UNL     1      -3.314  13.439 -16.515  1.00  0.00     0.037 A 
ATOM     54  C   UNL     1      -3.559  16.723 -10.888  1.00  0.00     0.049 A 
ATOM     55  C   UNL     1      -2.946  14.840 -16.123  1.00  0.00     0.074 A 
ATOM     56  C   UNL     1      -3.123  18.012 -10.634  1.00  0.00     0.029 A 
ATOM     57  N   UNL     1      -3.341  16.485 -12.236  1.00  0.00    -0.354 N 
ATOM     58  N   UNL     1      -3.016  15.414 -14.947  1.00  0.00    -0.248 NA
ATOM     59  C   UNL     1      -2.441  15.711 -17.192  1.00  0.00     0.031 C 
ATOM     60  C   UNL     1      -2.666  18.564 -11.836  1.00  0.00     0.029 A 
ATOM     61  C   UNL     1      -2.791  17.608 -12.831  1.00  0.00     0.049 A 
ATOM     62  H   UNL     1      -3.546  15.643 -12.702  1.00  0.00     0.167 HD
ATOM     63  C   UNL     1      -2.555  16.710 -15.130  1.00  0.00     0.074 A 
ATOM     64  C   UNL     1      -2.194  16.832 -16.529  1.00  0.00     0.031 C 
ATOM     65  C   UNL     1      -2.442  17.710 -14.224  1.00  0.00     0.037 A 
BRANCH  52  66
ATOM     66  C   UNL     1      -4.343  16.192  -8.551  1.00  0.00     0.057 A 
ATOM     67  C   UNL     1      -5.384  17.071  -8.223  1.00  0.00     0.134 A 
ATOM     68  C   UNL     1      -3.515  15.753  -7.511  1.00  0.00     0.134 A 
ATOM     69  F   UNL     1      -6.212  17.529  -9.174  1.00  0.00    -0.206 F 
ATOM     70  C   UNL     1      -5.593  17.498  -6.911  1.00  0.00     0.040 A 
ATOM     71  C   UNL     1      -3.725  16.159  -6.191  1.00  0.00     0.040 A 
ATOM     72  F   UNL     1      -2.512  14.897  -7.756  1.00  0.00    -0.206 F 
ATOM     73  C   UNL     1      -4.764  17.038  -5.890  1.00  0.00     0.006 A 
ENDBRANCH  52  66
BRANCH  53  74
ATOM     74  C   UNL     1      -3.090  12.953 -17.896  1.00  0.00     0.057 A 
ATOM     75  C   UNL     1      -4.157  12.733 -18.774  1.00  0.00     0.134 A 
ATOM     76  C   UNL     1      -1.799  12.686 -18.362  1.00  0.00     0.134 A 
ATOM     77  F   UNL     1      -5.417  12.970 -18.381  1.00  0.00    -0.206 F 
ATOM     78  C   UNL     1      -3.949  12.249 -20.066  1.00  0.00     0.040 A 
ATOM     79  C   UNL     1      -1.575  12.220 -19.657  1.00  0.00     0.040 A 
ATOM     80  F   UNL     1      -0.738  12.896 -17.569  1.00  0.00    -0.206 F 
ATOM     81  C   UNL     1      -2.654  11.994 -20.511  1.00  0.00     0.006 A 
ENDBRANCH  53  74
BRANCH  65  82
ATOM     82  C   UNL     1      -1.890  19.011 -14.719  1.00  0.00     0.057 A 
ATOM     83  C   UNL     1      -0.572  19.384 -14.431  1.00  0.00     0.134 A 
ATOM     84  C   UNL     1      -2.671  19.899 -15.468  1.00  0.00     0.134 A 
ATOM     85  F   UNL     1       0.223  18.576 -13.714  1.00  0.00    -0.206 F 
ATOM     86  C   UNL     1      -0.048  20.599 -14.874  1.00  0.00     0.040 A 
ATOM     87  C   UNL     1      -2.152  21.108 -15.931  1.00  0.00     0.040 A 
ATOM     88  F   UNL     1      -3.936  19.588 -15.788  1.00  0.00    -0.206 F 
ATOM     89  C   UNL     1      -0.838  21.462 -15.631  1.00  0.00     0.006 A 
ENDBRANCH  65  82
ENDBRANCH  39  40
ENDBRANCH  31  34
ENDBRANCH  29  30
ENDBRANCH  28  29
ENDBRANCH   1  28
TORSDOF 15
