REMARK SMILES Cc1nc(-c2ccccc2)sc1C(=O)N[C@@H](CC1=c2ccccc2=NC1)C(=O)NCCCCNC(=O)c1ccc(-c2c3nc(c(-c4c(F)cccc4F)c4ccc([nH]4)c(-c4c(F)cccc4F)c4nc(c(-c5c(F)cccc5F)c5ccc2[nH]5)C=C4)C=C3)cc1
REMARK SMILES IDX 31 1 30 2 29 3 27 4 28 5 16 7 15 8 13 9 14 10 12 12 1 13
REMARK SMILES IDX 2 14 3 15 4 16 11 17 5 18 6 19 10 20 7 21 9 22 8 23 17 24
REMARK SMILES IDX 18 25 19 26 26 27 20 28 24 29 25 30 21 31 23 32 22 33 32 34
REMARK SMILES IDX 33 35 34 36 35 37 36 39 37 40 38 41 90 42 39 43 89 44 40 45
REMARK SMILES IDX 41 46 42 47 83 48 43 49 88 50 82 51 84 52 44 53 87 54 81 55
REMARK SMILES IDX 80 56 45 58 71 59 54 60 70 61 55 62 58 63 69 64 85 65 56 66
REMARK SMILES IDX 57 67 68 69 86 70 59 71 46 72 47 73 52 74 48 75 49 76 51 77
REMARK SMILES IDX 53 78 50 79 72 80 73 81 78 82 74 83 75 84 77 85 79 86 76 87
REMARK SMILES IDX 60 88 61 89 66 90 62 91 63 92 65 93 67 94 64 95
REMARK H PARENT 29 6 15 11 34 38 84 57 58 68
REMARK Flexibility Score: inf
ROOT
ATOM      1  C   UNL     1      -2.999  -6.404   2.241  1.00  0.00     0.023 C 
ENDROOT
BRANCH   1   2
ATOM      2  C   UNL     1      -3.448  -5.286   1.316  1.00  0.00     0.116 C 
BRANCH   2   3
ATOM      3  N   UNL     1      -3.868  -4.075   1.980  1.00  0.00    -0.354 N 
ATOM      4  C   UNL     1      -3.946  -2.810   1.482  1.00  0.00     0.242 C 
ATOM      5  O   UNL     1      -4.778  -2.062   2.011  1.00  0.00    -0.273 OA
ATOM      6  H   UNL     1      -4.135  -4.179   2.922  1.00  0.00     0.163 HD
BRANCH   4   7
ATOM      7  C   UNL     1      -3.135  -2.307   0.265  1.00  0.00     0.175 C 
BRANCH   7   8
ATOM      8  N   UNL     1      -1.725  -2.654   0.265  1.00  0.00    -0.339 N 
ATOM      9  C   UNL     1      -0.562  -1.956   0.088  1.00  0.00     0.263 C 
ATOM     10  O   UNL     1       0.419  -2.714   0.069  1.00  0.00    -0.268 OA
ATOM     11  H   UNL     1      -1.570  -3.612   0.431  1.00  0.00     0.164 HD
BRANCH   9  12
ATOM     12  C   UNL     1      -0.429  -0.507  -0.039  1.00  0.00     0.115 A 
ATOM     13  C   UNL     1      -2.670   0.790  -0.587  1.00  0.00     0.068 C 
ATOM     14  C   UNL     1      -1.230   0.613  -0.275  1.00  0.00     0.062 A 
ATOM     15  N   UNL     1      -0.566   1.830  -0.229  1.00  0.00    -0.241 NA
ATOM     16  C   UNL     1       0.721   1.674  -0.067  1.00  0.00     0.124 A 
ATOM     17  S   UNL     1       1.231   0.067   0.111  1.00  0.00    -0.108 S 
BRANCH  16  18
ATOM     18  C   UNL     1       1.647   2.798  -0.021  1.00  0.00     0.010 A 
ATOM     19  C   UNL     1       1.477   3.775   0.970  1.00  0.00     0.011 A 
ATOM     20  C   UNL     1       2.605   2.998  -1.023  1.00  0.00     0.011 A 
ATOM     21  C   UNL     1       2.242   4.940   0.955  1.00  0.00     0.001 A 
ATOM     22  C   UNL     1       3.364   4.170  -1.043  1.00  0.00     0.001 A 
ATOM     23  C   UNL     1       3.177   5.141  -0.059  1.00  0.00     0.000 A 
ENDBRANCH  16  18
ENDBRANCH   9  12
ENDBRANCH   7   8
BRANCH   7  24
ATOM     24  C   UNL     1      -3.802  -2.531  -1.118  1.00  0.00     0.068 C 
BRANCH  24  25
ATOM     25  C   UNL     1      -4.013  -3.941  -1.581  1.00  0.00    -0.037 C 
ATOM     26  C   UNL     1      -3.117  -4.859  -1.944  1.00  0.00     0.001 A 
ATOM     27  C   UNL     1      -5.399  -4.516  -1.634  1.00  0.00     0.174 C 
ATOM     28  C   UNL     1      -1.697  -4.899  -2.081  1.00  0.00     0.010 A 
ATOM     29  C   UNL     1      -3.931  -6.088  -2.009  1.00  0.00     0.065 A 
ATOM     30  N   UNL     1      -5.213  -5.969  -1.848  1.00  0.00    -0.280 NA
ATOM     31  C   UNL     1      -1.090  -6.093  -2.180  1.00  0.00     0.001 A 
ATOM     32  C   UNL     1      -3.193  -7.363  -2.131  1.00  0.00     0.028 A 
ATOM     33  C   UNL     1      -1.850  -7.332  -2.175  1.00  0.00     0.002 A 
ENDBRANCH  24  25
ENDBRANCH   7  24
ENDBRANCH   4   7
ENDBRANCH   2   3
ENDBRANCH   1   2
BRANCH   1  34
ATOM     34  C   UNL     1      -4.072  -6.933   3.186  1.00  0.00     0.023 C 
BRANCH  34  35
ATOM     35  C   UNL     1      -5.438  -7.197   2.560  1.00  0.00     0.116 C 
BRANCH  35  36
ATOM     36  N   UNL     1      -5.403  -8.126   1.442  1.00  0.00    -0.352 N 
ATOM     37  C   UNL     1      -6.087  -9.315   1.277  1.00  0.00     0.251 C 
ATOM     38  H   UNL     1      -4.809  -7.872   0.699  1.00  0.00     0.163 HD
ATOM     39  O   UNL     1      -5.857 -10.048   0.332  1.00  0.00    -0.269 OA
BRANCH  37  40
ATOM     40  C   UNL     1      -7.080  -9.700   2.302  1.00  0.00     0.039 A 
ATOM     41  C   UNL     1      -6.974 -10.951   2.911  1.00  0.00     0.014 A 
ATOM     42  C   UNL     1      -8.054  -8.787   2.712  1.00  0.00     0.014 A 
ATOM     43  C   UNL     1      -7.786 -11.248   4.008  1.00  0.00     0.010 A 
ATOM     44  C   UNL     1      -8.797  -9.050   3.857  1.00  0.00     0.010 A 
ATOM     45  C   UNL     1      -8.665 -10.278   4.522  1.00  0.00    -0.014 A 
BRANCH  45  46
ATOM     46  C   UNL     1      -9.445 -10.521   5.761  1.00  0.00     0.031 A 
ATOM     47  C   UNL     1     -10.947 -10.520   5.716  1.00  0.00     0.074 A 
ATOM     48  C   UNL     1      -8.805 -10.656   6.940  1.00  0.00     0.049 A 
ATOM     49  N   UNL     1     -11.804 -10.626   6.699  1.00  0.00    -0.248 NA
ATOM     50  C   UNL     1     -11.568 -10.341   4.393  1.00  0.00     0.031 C 
ATOM     51  C   UNL     1      -7.353 -10.608   7.130  1.00  0.00     0.029 A 
ATOM     52  N   UNL     1      -9.297 -10.849   8.207  1.00  0.00    -0.354 N 
ATOM     53  C   UNL     1     -13.059 -10.503   6.117  1.00  0.00     0.074 A 
ATOM     54  C   UNL     1     -12.852 -10.260   4.707  1.00  0.00     0.031 C 
ATOM     55  C   UNL     1      -7.073 -10.795   8.430  1.00  0.00     0.029 A 
ATOM     56  C   UNL     1      -8.322 -10.942   9.170  1.00  0.00     0.049 A 
ATOM     57  H   UNL     1     -10.259 -10.915   8.406  1.00  0.00     0.167 HD
ATOM     58  C   UNL     1     -14.277 -10.609   6.701  1.00  0.00     0.037 A 
ATOM     59  C   UNL     1      -8.424 -11.126  10.500  1.00  0.00     0.037 A 
ATOM     60  C   UNL     1     -14.483 -10.891   8.096  1.00  0.00     0.049 A 
ATOM     61  C   UNL     1      -9.786 -11.271  11.119  1.00  0.00     0.074 A 
ATOM     62  C   UNL     1     -15.676 -11.088   8.769  1.00  0.00     0.029 A 
ATOM     63  N   UNL     1     -13.468 -11.021   9.031  1.00  0.00    -0.354 N 
ATOM     64  N   UNL     1     -10.963 -11.224  10.545  1.00  0.00    -0.248 NA
ATOM     65  C   UNL     1      -9.833 -11.503  12.569  1.00  0.00     0.031 C 
ATOM     66  C   UNL     1     -15.384 -11.308  10.119  1.00  0.00     0.029 A 
ATOM     67  C   UNL     1     -14.008 -11.285  10.279  1.00  0.00     0.049 A 
ATOM     68  H   UNL     1     -12.506 -10.938   8.837  1.00  0.00     0.167 HD
ATOM     69  C   UNL     1     -11.888 -11.447  11.556  1.00  0.00     0.074 A 
ATOM     70  C   UNL     1     -11.135 -11.642  12.778  1.00  0.00     0.031 C 
ATOM     71  C   UNL     1     -13.241 -11.487  11.481  1.00  0.00     0.037 A 
BRANCH  58  72
ATOM     72  C   UNL     1     -15.478 -10.434   5.820  1.00  0.00     0.057 A 
ATOM     73  C   UNL     1     -15.838 -11.394   4.865  1.00  0.00     0.134 A 
ATOM     74  C   UNL     1     -16.295  -9.303   5.940  1.00  0.00     0.134 A 
ATOM     75  F   UNL     1     -15.088 -12.492   4.690  1.00  0.00    -0.206 F 
ATOM     76  C   UNL     1     -16.950 -11.222   4.040  1.00  0.00     0.040 A 
ATOM     77  C   UNL     1     -17.426  -9.133   5.139  1.00  0.00     0.040 A 
ATOM     78  F   UNL     1     -16.011  -8.348   6.837  1.00  0.00    -0.206 F 
ATOM     79  C   UNL     1     -17.752 -10.091   4.181  1.00  0.00     0.006 A 
ENDBRANCH  58  72
BRANCH  59  80
ATOM     80  C   UNL     1      -7.201 -11.221  11.335  1.00  0.00     0.057 A 
ATOM     81  C   UNL     1      -6.801 -12.444  11.886  1.00  0.00     0.134 A 
ATOM     82  C   UNL     1      -6.410 -10.100  11.610  1.00  0.00     0.134 A 
ATOM     83  F   UNL     1      -7.529 -13.550  11.673  1.00  0.00    -0.206 F 
ATOM     84  C   UNL     1      -5.670 -12.546  12.698  1.00  0.00     0.040 A 
ATOM     85  C   UNL     1      -5.264 -10.191  12.402  1.00  0.00     0.040 A 
ATOM     86  F   UNL     1      -6.736  -8.901  11.104  1.00  0.00    -0.206 F 
ATOM     87  C   UNL     1      -4.896 -11.416  12.954  1.00  0.00     0.006 A 
ENDBRANCH  59  80
BRANCH  71  88
ATOM     88  C   UNL     1     -13.989 -11.787  12.745  1.00  0.00     0.057 A 
ATOM     89  C   UNL     1     -14.122 -10.839  13.766  1.00  0.00     0.134 A 
ATOM     90  C   UNL     1     -14.616 -13.027  12.923  1.00  0.00     0.134 A 
ATOM     91  F   UNL     1     -13.533  -9.638  13.661  1.00  0.00    -0.206 F 
ATOM     92  C   UNL     1     -14.837 -11.121  14.932  1.00  0.00     0.040 A 
ATOM     93  C   UNL     1     -15.352 -13.312  14.073  1.00  0.00     0.040 A 
ATOM     94  F   UNL     1     -14.532 -13.975  11.978  1.00  0.00    -0.206 F 
ATOM     95  C   UNL     1     -15.460 -12.358  15.084  1.00  0.00     0.006 A 
ENDBRANCH  71  88
ENDBRANCH  45  46
ENDBRANCH  37  40
ENDBRANCH  35  36
ENDBRANCH  34  35
ENDBRANCH   1  34
TORSDOF 16
