REMARK SMILES CC1(C)OC(=O)C(/C=N/[C@@H](CCC(N)=O)C(=O)NCCCCNC(=O)c2ccc(-c3c4nc(c(-c5c(F)cccc5F)c5ccc([nH]5)c(-c5c(F)cccc5F)c5nc(c(-c6c(F)cccc6F)c6ccc3[nH]6)C=C5)C=C4)cc2)C(=O)O1
REMARK SMILES IDX 20 1 19 2 18 3 16 4 17 5 10 7 9 8 8 9 7 10 1 11 2 12 3 13
REMARK SMILES IDX 4 14 82 15 5 16 80 17 6 18 81 19 11 20 12 21 13 22 14 23
REMARK SMILES IDX 15 24 21 27 22 28 23 29 24 30 25 32 26 33 27 34 79 35 28 36
REMARK SMILES IDX 78 37 29 38 30 39 31 40 72 41 32 42 77 43 71 44 73 45 33 46
REMARK SMILES IDX 76 47 70 48 69 49 34 51 60 52 43 53 59 54 44 55 47 56 58 57
REMARK SMILES IDX 74 58 45 59 46 60 57 62 75 63 48 64 35 65 36 66 41 67 37 68
REMARK SMILES IDX 38 69 40 70 42 71 39 72 61 73 62 74 67 75 63 76 64 77 66 78
REMARK SMILES IDX 68 79 65 80 49 81 50 82 55 83 51 84 52 85 54 86 56 87 53 88
REMARK H PARENT 18 6 14 25 14 26 23 31 73 50 47 61
REMARK Flexibility Score: inf
ROOT
ATOM      1  C   UNL     1       2.036   0.750   2.653  1.00  0.00     0.023 C 
ENDROOT
BRANCH   1   2
ATOM      2  C   UNL     1       1.297   1.706   3.573  1.00  0.00     0.116 C 
BRANCH   2   3
ATOM      3  N   UNL     1       1.860   3.029   3.606  1.00  0.00    -0.354 N 
ATOM      4  C   UNL     1       1.323   4.199   3.147  1.00  0.00     0.244 C 
ATOM      5  O   UNL     1       1.937   5.245   3.377  1.00  0.00    -0.273 OA
ATOM      6  H   UNL     1       2.753   3.102   4.014  1.00  0.00     0.163 HD
BRANCH   4   7
ATOM      7  C   UNL     1       0.002   4.212   2.350  1.00  0.00     0.194 C 
BRANCH   7   8
ATOM      8  N   UNL     1       0.106   3.271   1.213  1.00  0.00    -0.283 NA
ATOM      9  C   UNL     1      -0.791   2.442   0.849  1.00  0.00     0.105 C 
BRANCH   9  10
ATOM     10  C   UNL     1      -0.625   1.622  -0.413  1.00  0.00     0.250 C 
ATOM     11  C   UNL     1      -0.346  -2.024   0.881  1.00  0.00     0.106 C 
ATOM     12  C   UNL     1      -0.253  -1.187  -0.393  1.00  0.00     0.252 C 
ATOM     13  C   UNL     1       0.072  -2.082  -1.587  1.00  0.00     0.106 C 
ATOM     14  O   UNL     1       0.835  -0.285  -0.226  1.00  0.00    -0.422 OA
ATOM     15  O   UNL     1      -1.539  -0.620  -0.635  1.00  0.00    -0.422 OA
ATOM     16  C   UNL     1       0.714   1.003  -0.581  1.00  0.00     0.329 C 
ATOM     17  C   UNL     1      -1.768   0.695  -0.578  1.00  0.00     0.329 C 
ATOM     18  O   UNL     1       1.704   1.632  -0.939  1.00  0.00    -0.251 OA
ATOM     19  O   UNL     1      -2.921   1.119  -0.630  1.00  0.00    -0.251 OA
ENDBRANCH   9  10
ENDBRANCH   7   8
BRANCH   7  20
ATOM     20  C   UNL     1      -1.309   4.288   3.155  1.00  0.00     0.047 C 
BRANCH  20  21
ATOM     21  C   UNL     1      -1.727   3.170   4.113  1.00  0.00     0.102 C 
BRANCH  21  22
ATOM     22  C   UNL     1      -0.971   3.130   5.424  1.00  0.00     0.217 C 
ATOM     23  N   UNL     1      -1.169   1.992   6.153  1.00  0.00    -0.370 N 
ATOM     24  O   UNL     1      -0.250   4.022   5.845  1.00  0.00    -0.275 OA
ATOM     25  H   UNL     1      -1.752   1.280   5.804  1.00  0.00     0.159 HD
ATOM     26  H   UNL     1      -0.728   1.884   7.026  1.00  0.00     0.159 HD
ENDBRANCH  21  22
ENDBRANCH  20  21
ENDBRANCH   7  20
ENDBRANCH   4   7
ENDBRANCH   2   3
ENDBRANCH   1   2
BRANCH   1  27
ATOM     27  C   UNL     1       3.104  -0.097   3.330  1.00  0.00     0.023 C 
BRANCH  27  28
ATOM     28  C   UNL     1       2.634  -0.892   4.544  1.00  0.00     0.116 C 
BRANCH  28  29
ATOM     29  N   UNL     1       1.462  -1.728   4.303  1.00  0.00    -0.352 N 
ATOM     30  C   UNL     1       1.186  -2.968   4.841  1.00  0.00     0.251 C 
ATOM     31  H   UNL     1       0.788  -1.364   3.684  1.00  0.00     0.163 HD
ATOM     32  O   UNL     1       0.193  -3.595   4.508  1.00  0.00    -0.269 OA
BRANCH  30  33
ATOM     33  C   UNL     1       2.160  -3.529   5.799  1.00  0.00     0.039 A 
ATOM     34  C   UNL     1       2.795  -4.734   5.495  1.00  0.00     0.014 A 
ATOM     35  C   UNL     1       2.550  -2.768   6.903  1.00  0.00     0.014 A 
ATOM     36  C   UNL     1       3.902  -5.127   6.248  1.00  0.00     0.010 A 
ATOM     37  C   UNL     1       3.700  -3.120   7.596  1.00  0.00     0.010 A 
ATOM     38  C   UNL     1       4.397  -4.294   7.265  1.00  0.00    -0.014 A 
BRANCH  38  39
ATOM     39  C   UNL     1       5.654  -4.608   7.989  1.00  0.00     0.031 A 
ATOM     40  C   UNL     1       5.623  -4.829   9.474  1.00  0.00     0.074 A 
ATOM     41  C   UNL     1       6.831  -4.588   7.332  1.00  0.00     0.049 A 
ATOM     42  N   UNL     1       6.618  -4.984  10.309  1.00  0.00    -0.248 NA
ATOM     43  C   UNL     1       4.296  -4.836  10.111  1.00  0.00     0.031 C 
ATOM     44  C   UNL     1       7.005  -4.319   5.903  1.00  0.00     0.029 A 
ATOM     45  N   UNL     1       8.111  -4.782   7.789  1.00  0.00    -0.354 N 
ATOM     46  C   UNL     1       6.040  -5.074  11.568  1.00  0.00     0.074 A 
ATOM     47  C   UNL     1       4.613  -4.908  11.394  1.00  0.00     0.031 C 
ATOM     48  C   UNL     1       8.311  -4.388   5.597  1.00  0.00     0.029 A 
ATOM     49  C   UNL     1       9.070  -4.671   6.811  1.00  0.00     0.049 A 
ATOM     50  H   UNL     1       8.322  -4.982   8.730  1.00  0.00     0.167 HD
ATOM     51  C   UNL     1       6.640  -5.299  12.760  1.00  0.00     0.037 A 
ATOM     52  C   UNL     1      10.410  -4.780   6.888  1.00  0.00     0.037 A 
ATOM     53  C   UNL     1       8.052  -5.514  12.925  1.00  0.00     0.049 A 
ATOM     54  C   UNL     1      11.049  -5.070   8.217  1.00  0.00     0.074 A 
ATOM     55  C   UNL     1       8.747  -5.826  14.080  1.00  0.00     0.029 A 
ATOM     56  N   UNL     1       8.984  -5.446  11.901  1.00  0.00    -0.354 N 
ATOM     57  N   UNL     1      10.484  -5.220   9.390  1.00  0.00    -0.248 NA
ATOM     58  C   UNL     1      12.512  -5.212   8.232  1.00  0.00     0.031 C 
ATOM     59  C   UNL     1      10.105  -5.925  13.759  1.00  0.00     0.029 A 
ATOM     60  C   UNL     1      10.250  -5.704  12.399  1.00  0.00     0.049 A 
ATOM     61  H   UNL     1       8.776  -5.245  10.960  1.00  0.00     0.167 HD
ATOM     62  C   UNL     1      11.516  -5.498  10.276  1.00  0.00     0.074 A 
ATOM     63  C   UNL     1      12.741  -5.507   9.504  1.00  0.00     0.031 C 
ATOM     64  C   UNL     1      11.454  -5.725  11.611  1.00  0.00     0.037 A 
BRANCH  51  65
ATOM     65  C   UNL     1       5.761  -5.340  13.973  1.00  0.00     0.057 A 
ATOM     66  C   UNL     1       4.883  -6.405  14.211  1.00  0.00     0.134 A 
ATOM     67  C   UNL     1       5.803  -4.311  14.923  1.00  0.00     0.134 A 
ATOM     68  F   UNL     1       4.784  -7.413  13.330  1.00  0.00    -0.206 F 
ATOM     69  C   UNL     1       4.058  -6.434  15.335  1.00  0.00     0.040 A 
ATOM     70  C   UNL     1       5.001  -4.341  16.064  1.00  0.00     0.040 A 
ATOM     71  F   UNL     1       6.624  -3.263  14.757  1.00  0.00    -0.206 F 
ATOM     72  C   UNL     1       4.120  -5.401  16.269  1.00  0.00     0.006 A 
ENDBRANCH  51  65
BRANCH  52  73
ATOM     73  C   UNL     1      11.239  -4.649   5.665  1.00  0.00     0.057 A 
ATOM     74  C   UNL     1      11.850  -5.769   5.090  1.00  0.00     0.134 A 
ATOM     75  C   UNL     1      11.450  -3.410   5.048  1.00  0.00     0.134 A 
ATOM     76  F   UNL     1      11.699  -6.980   5.647  1.00  0.00    -0.206 F 
ATOM     77  C   UNL     1      12.657  -5.662   3.956  1.00  0.00     0.040 A 
ATOM     78  C   UNL     1      12.238  -3.291   3.902  1.00  0.00     0.040 A 
ATOM     79  F   UNL     1      10.886  -2.301   5.547  1.00  0.00    -0.206 F 
ATOM     80  C   UNL     1      12.849  -4.419   3.357  1.00  0.00     0.006 A 
ENDBRANCH  52  73
BRANCH  64  81
ATOM     81  C   UNL     1      12.740  -6.039  12.312  1.00  0.00     0.057 A 
ATOM     82  C   UNL     1      13.684  -5.047  12.600  1.00  0.00     0.134 A 
ATOM     83  C   UNL     1      13.012  -7.342  12.747  1.00  0.00     0.134 A 
ATOM     84  F   UNL     1      13.485  -3.783  12.198  1.00  0.00    -0.206 F 
ATOM     85  C   UNL     1      14.864  -5.343  13.284  1.00  0.00     0.040 A 
ATOM     86  C   UNL     1      14.178  -7.646  13.450  1.00  0.00     0.040 A 
ATOM     87  F   UNL     1      12.143  -8.336  12.508  1.00  0.00    -0.206 F 
ATOM     88  C   UNL     1      15.109  -6.644  13.718  1.00  0.00     0.006 A 
ENDBRANCH  64  81
ENDBRANCH  38  39
ENDBRANCH  30  33
ENDBRANCH  28  29
ENDBRANCH  27  28
ENDBRANCH   1  27
TORSDOF 16
