REMARK SMILES Cc1[nH]c2c(C(=O)N3CC[C@H](O)C[C@@H]3C(=O)NCCCCNC(=O)c3ccc(-c4c5nc(c(-c6c(F)cccc6F)c6ccc([nH]6)c(-c6c(F)cccc6F)c6nc(c(-c7c(F)cccc7F)c7ccc4[nH]7)C=C6)C=C5)cc3)cccc2c1C
REMARK SMILES IDX 19 1 18 2 17 3 15 4 16 5 14 7 8 8 9 9 10 10 13 11 11 12 6 13
REMARK SMILES IDX 7 14 5 15 1 16 2 17 3 18 83 19 4 20 82 22 84 23 81 24 79 25
REMARK SMILES IDX 80 26 12 27 20 29 21 30 22 31 23 32 24 34 25 35 26 36 78 37
REMARK SMILES IDX 27 38 77 39 28 40 29 41 30 42 71 43 31 44 76 45 70 46 72 47
REMARK SMILES IDX 32 48 75 49 69 50 68 51 33 53 59 54 42 55 58 56 43 57 46 58
REMARK SMILES IDX 57 59 73 60 44 61 45 62 56 64 74 65 47 66 34 67 35 68 40 69
REMARK SMILES IDX 36 70 37 71 39 72 41 73 38 74 60 75 61 76 66 77 62 78 63 79
REMARK SMILES IDX 65 80 67 81 64 82 48 83 49 84 54 85 50 86 51 87 53 88 55 89
REMARK SMILES IDX 52 90
REMARK H PARENT 17 6 3 21 12 28 22 33 72 52 46 63
REMARK Flexibility Score: inf
ROOT
ATOM      1  C   UNL     1      -3.317  -4.943  -1.407  1.00  0.00     0.023 C 
ENDROOT
BRANCH   1   2
ATOM      2  C   UNL     1      -2.289  -4.047  -0.719  1.00  0.00     0.116 C 
BRANCH   2   3
ATOM      3  N   UNL     1      -2.169  -4.292   0.700  1.00  0.00    -0.354 N 
ATOM      4  C   UNL     1      -1.109  -4.682   1.460  1.00  0.00     0.242 C 
ATOM      5  O   UNL     1      -1.408  -5.131   2.576  1.00  0.00    -0.273 OA
ATOM      6  H   UNL     1      -3.002  -4.152   1.207  1.00  0.00     0.163 HD
BRANCH   4   7
ATOM      7  C   UNL     1       0.387  -4.707   1.007  1.00  0.00     0.177 C 
ATOM      8  N   UNL     1       0.912  -3.677   0.099  1.00  0.00    -0.326 N 
ATOM      9  C   UNL     1       1.010  -3.930  -1.337  1.00  0.00     0.123 C 
ATOM     10  C   UNL     1       0.931  -5.396  -1.806  1.00  0.00     0.053 C 
ATOM     11  C   UNL     1       0.886  -6.096   0.637  1.00  0.00     0.067 C 
ATOM     12  C   UNL     1       0.525  -6.460  -0.786  1.00  0.00     0.118 C 
BRANCH   8  13
ATOM     13  C   UNL     1       1.810  -2.750   0.643  1.00  0.00     0.256 C 
ATOM     14  O   UNL     1       2.648  -3.049   1.488  1.00  0.00    -0.269 OA
BRANCH  13  15
ATOM     15  C   UNL     1       1.694  -1.339   0.215  1.00  0.00     0.064 A 
ATOM     16  C   UNL     1      -3.158  -0.323   0.741  1.00  0.00     0.064 C 
ATOM     17  C   UNL     1      -1.720  -0.099   0.450  1.00  0.00     0.016 A 
ATOM     18  N   UNL     1      -0.806  -1.118   0.524  1.00  0.00    -0.358 N 
ATOM     19  C   UNL     1      -1.034   1.055   0.109  1.00  0.00    -0.023 A 
ATOM     20  C   UNL     1       0.458  -0.670   0.223  1.00  0.00     0.059 A 
ATOM     21  H   UNL     1      -1.025  -2.048   0.761  1.00  0.00     0.166 HD
ATOM     22  C   UNL     1       0.348   0.700  -0.021  1.00  0.00     0.003 A 
ATOM     23  C   UNL     1      -1.606   2.420  -0.045  1.00  0.00     0.047 C 
ATOM     24  C   UNL     1       1.524   1.433  -0.290  1.00  0.00     0.010 A 
ATOM     25  C   UNL     1       2.849  -0.583  -0.026  1.00  0.00     0.016 A 
ATOM     26  C   UNL     1       2.765   0.784  -0.286  1.00  0.00     0.002 A 
ENDBRANCH  13  15
ENDBRANCH   8  13
BRANCH  12  27
ATOM     27  O   UNL     1      -0.870  -6.719  -0.884  1.00  0.00    -0.393 OA
ATOM     28  H   UNL     1      -1.365  -5.914  -0.666  1.00  0.00     0.210 HD
ENDBRANCH  12  27
ENDBRANCH   4   7
ENDBRANCH   2   3
ENDBRANCH   1   2
BRANCH   1  29
ATOM     29  C   UNL     1      -4.770  -4.512  -1.271  1.00  0.00     0.023 C 
BRANCH  29  30
ATOM     30  C   UNL     1      -5.070  -3.068  -1.644  1.00  0.00     0.116 C 
BRANCH  30  31
ATOM     31  N   UNL     1      -4.570  -2.656  -2.949  1.00  0.00    -0.352 N 
ATOM     32  C   UNL     1      -5.159  -1.791  -3.845  1.00  0.00     0.251 C 
ATOM     33  H   UNL     1      -3.708  -3.043  -3.224  1.00  0.00     0.163 HD
ATOM     34  O   UNL     1      -4.643  -1.550  -4.930  1.00  0.00    -0.269 OA
BRANCH  32  35
ATOM     35  C   UNL     1      -6.468  -1.209  -3.492  1.00  0.00     0.039 A 
ATOM     36  C   UNL     1      -7.557  -1.453  -4.329  1.00  0.00     0.014 A 
ATOM     37  C   UNL     1      -6.636  -0.557  -2.268  1.00  0.00     0.014 A 
ATOM     38  C   UNL     1      -8.841  -1.135  -3.888  1.00  0.00     0.010 A 
ATOM     39  C   UNL     1      -7.921  -0.317  -1.797  1.00  0.00     0.010 A 
ATOM     40  C   UNL     1      -9.036  -0.619  -2.596  1.00  0.00    -0.014 A 
BRANCH  40  41
ATOM     41  C   UNL     1     -10.400  -0.412  -2.050  1.00  0.00     0.031 A 
ATOM     42  C   UNL     1     -10.861   0.970  -1.686  1.00  0.00     0.074 A 
ATOM     43  C   UNL     1     -11.191  -1.475  -1.808  1.00  0.00     0.049 A 
ATOM     44  N   UNL     1     -11.983   1.346  -1.129  1.00  0.00    -0.248 NA
ATOM     45  C   UNL     1      -9.922   2.071  -1.952  1.00  0.00     0.031 C 
ATOM     46  C   UNL     1     -10.833  -2.875  -2.051  1.00  0.00     0.029 A 
ATOM     47  N   UNL     1     -12.461  -1.545  -1.292  1.00  0.00    -0.354 N 
ATOM     48  C   UNL     1     -11.876   2.720  -0.961  1.00  0.00     0.074 A 
ATOM     49  C   UNL     1     -10.561   3.104  -1.423  1.00  0.00     0.031 C 
ATOM     50  C   UNL     1     -11.869  -3.660  -1.712  1.00  0.00     0.029 A 
ATOM     51  C   UNL     1     -12.951  -2.825  -1.201  1.00  0.00     0.049 A 
ATOM     52  H   UNL     1     -12.974  -0.751  -1.014  1.00  0.00     0.167 HD
ATOM     53  C   UNL     1     -12.801   3.588  -0.489  1.00  0.00     0.037 A 
ATOM     54  C   UNL     1     -14.140  -3.274  -0.757  1.00  0.00     0.037 A 
ATOM     55  C   UNL     1     -14.123   3.212  -0.067  1.00  0.00     0.049 A 
ATOM     56  C   UNL     1     -15.165  -2.286  -0.276  1.00  0.00     0.074 A 
ATOM     57  C   UNL     1     -15.154   4.026   0.366  1.00  0.00     0.029 A 
ATOM     58  N   UNL     1     -14.598   1.910  -0.034  1.00  0.00    -0.354 N 
ATOM     59  N   UNL     1     -15.074  -0.982  -0.184  1.00  0.00    -0.248 NA
ATOM     60  C   UNL     1     -16.460  -2.831   0.157  1.00  0.00     0.031 C 
ATOM     61  C   UNL     1     -16.247   3.213   0.686  1.00  0.00     0.029 A 
ATOM     62  C   UNL     1     -15.906   1.897   0.419  1.00  0.00     0.049 A 
ATOM     63  H   UNL     1     -14.082   1.113  -0.295  1.00  0.00     0.167 HD
ATOM     64  C   UNL     1     -16.304  -0.548   0.292  1.00  0.00     0.074 A 
ATOM     65  C   UNL     1     -17.129  -1.726   0.458  1.00  0.00     0.031 C 
ATOM     66  C   UNL     1     -16.713   0.714   0.568  1.00  0.00     0.037 A 
BRANCH  53  67
ATOM     67  C   UNL     1     -12.412   5.035  -0.426  1.00  0.00     0.057 A 
ATOM     68  C   UNL     1     -12.274   5.809  -1.586  1.00  0.00     0.134 A 
ATOM     69  C   UNL     1     -12.188   5.664   0.804  1.00  0.00     0.134 A 
ATOM     70  F   UNL     1     -12.458   5.259  -2.796  1.00  0.00    -0.206 F 
ATOM     71  C   UNL     1     -11.901   7.152  -1.526  1.00  0.00     0.040 A 
ATOM     72  C   UNL     1     -11.838   7.013   0.878  1.00  0.00     0.040 A 
ATOM     73  F   UNL     1     -12.306   4.980   1.952  1.00  0.00    -0.206 F 
ATOM     74  C   UNL     1     -11.687   7.759  -0.290  1.00  0.00     0.006 A 
ENDBRANCH  53  67
BRANCH  54  75
ATOM     75  C   UNL     1     -14.444  -4.726  -0.784  1.00  0.00     0.057 A 
ATOM     76  C   UNL     1     -15.345  -5.255  -1.716  1.00  0.00     0.134 A 
ATOM     77  C   UNL     1     -13.852  -5.616   0.120  1.00  0.00     0.134 A 
ATOM     78  F   UNL     1     -15.957  -4.448  -2.595  1.00  0.00    -0.206 F 
ATOM     79  C   UNL     1     -15.660  -6.614  -1.738  1.00  0.00     0.040 A 
ATOM     80  C   UNL     1     -14.143  -6.981   0.096  1.00  0.00     0.040 A 
ATOM     81  F   UNL     1     -12.975  -5.171   1.031  1.00  0.00    -0.206 F 
ATOM     82  C   UNL     1     -15.054  -7.482  -0.831  1.00  0.00     0.006 A 
ENDBRANCH  54  75
BRANCH  66  83
ATOM     83  C   UNL     1     -18.122   0.887   1.049  1.00  0.00     0.057 A 
ATOM     84  C   UNL     1     -18.500   0.551   2.354  1.00  0.00     0.134 A 
ATOM     85  C   UNL     1     -19.098   1.440   0.211  1.00  0.00     0.134 A 
ATOM     86  F   UNL     1     -17.612   0.006   3.200  1.00  0.00    -0.206 F 
ATOM     87  C   UNL     1     -19.806   0.743   2.805  1.00  0.00     0.040 A 
ATOM     88  C   UNL     1     -20.402   1.656   0.656  1.00  0.00     0.040 A 
ATOM     89  F   UNL     1     -18.796   1.789  -1.049  1.00  0.00    -0.206 F 
ATOM     90  C   UNL     1     -20.760   1.304   1.956  1.00  0.00     0.006 A 
ENDBRANCH  66  83
ENDBRANCH  40  41
ENDBRANCH  32  35
ENDBRANCH  30  31
ENDBRANCH  29  30
ENDBRANCH   1  29
TORSDOF 14
