REMARK SMILES O=C(NCCCCNC(=O)[C@@]1(CCc2ccccc2)CCC[N@@H+](Cc2cccnc2)C1)c1ccc(-c2c3nc(c(-c4c(F)cccc4F)c4ccc([nH]4)c(-c4c(F)cccc4F)c4nc(c(-c5c(F)cccc5F)c5ccc2[nH]5)C=C4)C=C3)cc1
REMARK SMILES IDX 6 1 5 2 4 3 3 4 1 5 2 6 32 8 33 9 85 10 34 11 84 12 35 13
REMARK SMILES IDX 36 14 37 15 78 16 38 17 83 18 77 19 79 20 39 21 82 22 76 23
REMARK SMILES IDX 75 24 40 26 66 27 49 28 65 29 50 30 53 31 64 32 80 33 51 34
REMARK SMILES IDX 52 35 63 37 81 38 54 39 41 40 42 41 47 42 43 43 44 44 46 45
REMARK SMILES IDX 48 46 45 47 67 48 68 49 73 50 69 51 70 52 72 53 74 54 71 55
REMARK SMILES IDX 55 56 56 57 61 58 57 59 58 60 60 61 62 62 59 63 7 64 8 65
REMARK SMILES IDX 9 66 10 68 11 69 20 70 31 71 21 72 23 73 22 74 12 76 13 77
REMARK SMILES IDX 14 78 15 79 19 80 16 81 18 82 17 83 24 84 25 85 26 86 30 87
REMARK SMILES IDX 27 88 29 89 28 90
REMARK H PARENT 3 7 79 25 53 36 8 67 23 75
REMARK Flexibility Score: inf
ROOT
ATOM      1  C   UNL     1       7.892  -8.473   5.626  1.00  0.00     0.023 C 
ENDROOT
BRANCH   1   2
ATOM      2  C   UNL     1       8.307  -8.518   7.094  1.00  0.00     0.023 C 
BRANCH   2   3
ATOM      3  C   UNL     1       7.528  -9.505   7.951  1.00  0.00     0.116 C 
BRANCH   3   4
ATOM      4  N   UNL     1       7.519 -10.859   7.419  1.00  0.00    -0.352 N 
ATOM      5  O   UNL     1       7.551 -13.118   7.535  1.00  0.00    -0.269 OA
ATOM      6  C   UNL     1       7.473 -12.042   8.115  1.00  0.00     0.251 C 
ATOM      7  H   UNL     1       7.550 -10.938   6.438  1.00  0.00     0.163 HD
BRANCH   6   8
ATOM      8  C   UNL     1       7.377 -11.989   9.585  1.00  0.00     0.039 A 
ATOM      9  C   UNL     1       6.395 -11.207  10.199  1.00  0.00     0.014 A 
ATOM     10  C   UNL     1       8.322 -12.680  10.345  1.00  0.00     0.014 A 
ATOM     11  C   UNL     1       6.441 -11.007  11.572  1.00  0.00     0.010 A 
ATOM     12  C   UNL     1       8.323 -12.533  11.730  1.00  0.00     0.010 A 
ATOM     13  C   UNL     1       7.404 -11.669  12.348  1.00  0.00    -0.014 A 
BRANCH  13  14
ATOM     14  C   UNL     1       7.423 -11.482  13.817  1.00  0.00     0.031 A 
ATOM     15  C   UNL     1       8.580 -10.802  14.488  1.00  0.00     0.074 A 
ATOM     16  C   UNL     1       6.388 -11.945  14.540  1.00  0.00     0.049 A 
ATOM     17  N   UNL     1       8.804 -10.626  15.765  1.00  0.00    -0.248 NA
ATOM     18  C   UNL     1       9.627 -10.254  13.611  1.00  0.00     0.031 C 
ATOM     19  C   UNL     1       5.210 -12.617  13.989  1.00  0.00     0.029 A 
ATOM     20  N   UNL     1       6.163 -11.925  15.891  1.00  0.00    -0.354 N 
ATOM     21  C   UNL     1      10.027  -9.974  15.849  1.00  0.00     0.074 A 
ATOM     22  C   UNL     1      10.505  -9.797  14.494  1.00  0.00     0.031 C 
ATOM     23  C   UNL     1       4.377 -12.931  14.992  1.00  0.00     0.029 A 
ATOM     24  C   UNL     1       4.991 -12.540  16.255  1.00  0.00     0.049 A 
ATOM     25  H   UNL     1       6.780 -11.512  16.537  1.00  0.00     0.167 HD
ATOM     26  C   UNL     1      10.688  -9.564  16.958  1.00  0.00     0.037 A 
ATOM     27  C   UNL     1       4.482 -12.790  17.474  1.00  0.00     0.037 A 
ATOM     28  C   UNL     1      10.194  -9.732  18.301  1.00  0.00     0.049 A 
ATOM     29  C   UNL     1       5.242 -12.348  18.687  1.00  0.00     0.074 A 
ATOM     30  C   UNL     1      10.770  -9.323  19.491  1.00  0.00     0.029 A 
ATOM     31  N   UNL     1       9.004 -10.365  18.630  1.00  0.00    -0.354 N 
ATOM     32  N   UNL     1       6.392 -11.722  18.755  1.00  0.00    -0.248 NA
ATOM     33  C   UNL     1       4.640 -12.649  19.992  1.00  0.00     0.031 C 
ATOM     34  C   UNL     1       9.947  -9.741  20.542  1.00  0.00     0.029 A 
ATOM     35  C   UNL     1       8.837 -10.374  20.006  1.00  0.00     0.049 A 
ATOM     36  H   UNL     1       8.371 -10.750  17.982  1.00  0.00     0.167 HD
ATOM     37  C   UNL     1       6.645 -11.538  20.106  1.00  0.00     0.074 A 
ATOM     38  C   UNL     1       5.523 -12.110  20.823  1.00  0.00     0.031 C 
ATOM     39  C   UNL     1       7.710 -10.946  20.699  1.00  0.00     0.037 A 
BRANCH  26  40
ATOM     40  C   UNL     1      12.029  -8.918  16.767  1.00  0.00     0.057 A 
ATOM     41  C   UNL     1      12.164  -7.625  16.247  1.00  0.00     0.134 A 
ATOM     42  C   UNL     1      13.201  -9.592  17.134  1.00  0.00     0.134 A 
ATOM     43  F   UNL     1      11.083  -6.930  15.863  1.00  0.00    -0.206 F 
ATOM     44  C   UNL     1      13.418  -7.034  16.077  1.00  0.00     0.040 A 
ATOM     45  C   UNL     1      14.459  -9.004  16.990  1.00  0.00     0.040 A 
ATOM     46  F   UNL     1      13.143 -10.832  17.643  1.00  0.00    -0.206 F 
ATOM     47  C   UNL     1      14.570  -7.722  16.454  1.00  0.00     0.006 A 
ENDBRANCH  26  40
BRANCH  27  48
ATOM     48  C   UNL     1       3.189 -13.505  17.585  1.00  0.00     0.057 A 
ATOM     49  C   UNL     1       2.022 -12.833  17.962  1.00  0.00     0.134 A 
ATOM     50  C   UNL     1       3.080 -14.863  17.261  1.00  0.00     0.134 A 
ATOM     51  F   UNL     1       2.069 -11.534  18.294  1.00  0.00    -0.206 F 
ATOM     52  C   UNL     1       0.790 -13.486  18.013  1.00  0.00     0.040 A 
ATOM     53  C   UNL     1       1.852 -15.523  17.285  1.00  0.00     0.040 A 
ATOM     54  F   UNL     1       4.163 -15.557  16.880  1.00  0.00    -0.206 F 
ATOM     55  C   UNL     1       0.702 -14.833  17.665  1.00  0.00     0.006 A 
ENDBRANCH  27  48
BRANCH  39  56
ATOM     56  C   UNL     1       7.694 -10.859  22.194  1.00  0.00     0.057 A 
ATOM     57  C   UNL     1       7.957 -11.973  23.000  1.00  0.00     0.134 A 
ATOM     58  C   UNL     1       7.451  -9.636  22.832  1.00  0.00     0.134 A 
ATOM     59  F   UNL     1       8.182 -13.174  22.448  1.00  0.00    -0.206 F 
ATOM     60  C   UNL     1       7.964 -11.876  24.392  1.00  0.00     0.040 A 
ATOM     61  C   UNL     1       7.477  -9.523  24.222  1.00  0.00     0.040 A 
ATOM     62  F   UNL     1       7.198  -8.532  22.114  1.00  0.00    -0.206 F 
ATOM     63  C   UNL     1       7.730 -10.646  25.006  1.00  0.00     0.006 A 
ENDBRANCH  39  56
ENDBRANCH  13  14
ENDBRANCH   6   8
ENDBRANCH   3   4
ENDBRANCH   2   3
ENDBRANCH   1   2
BRANCH   1  64
ATOM     64  C   UNL     1       6.444  -8.036   5.373  1.00  0.00     0.116 C 
BRANCH  64  65
ATOM     65  N   UNL     1       6.345  -6.596   5.320  1.00  0.00    -0.355 N 
ATOM     66  C   UNL     1       6.573  -5.680   4.347  1.00  0.00     0.231 C 
ATOM     67  H   UNL     1       6.051  -6.195   6.169  1.00  0.00     0.163 HD
ATOM     68  O   UNL     1       6.436  -4.514   4.748  1.00  0.00    -0.274 OA
BRANCH  66  69
ATOM     69  C   UNL     1       6.842  -5.982   2.828  1.00  0.00     0.098 C 
ATOM     70  C   UNL     1       7.743  -7.213   2.542  1.00  0.00     0.028 C 
ATOM     71  C   UNL     1       5.434  -6.192   2.218  1.00  0.00     0.279 C 
ATOM     72  C   UNL     1       7.573  -7.877   1.174  1.00  0.00     0.063 C 
ATOM     73  N   UNL     1       5.469  -6.718   0.853  1.00  0.00    -0.330 N 
ATOM     74  C   UNL     1       6.109  -8.020   0.771  1.00  0.00     0.262 C 
ATOM     75  H   UNL     1       6.082  -6.088   0.335  1.00  0.00     0.348 HD
BRANCH  69  76
ATOM     76  C   UNL     1       7.570  -4.681   2.304  1.00  0.00     0.027 C 
BRANCH  76  77
ATOM     77  C   UNL     1       7.805  -4.419   0.810  1.00  0.00     0.037 C 
BRANCH  77  78
ATOM     78  C   UNL     1       6.649  -3.856   0.018  1.00  0.00    -0.048 A 
ATOM     79  C   UNL     1       6.375  -4.360  -1.262  1.00  0.00     0.004 A 
ATOM     80  C   UNL     1       5.867  -2.796   0.499  1.00  0.00     0.004 A 
ATOM     81  C   UNL     1       5.310  -3.861  -2.014  1.00  0.00     0.000 A 
ATOM     82  C   UNL     1       4.802  -2.297  -0.252  1.00  0.00     0.000 A 
ATOM     83  C   UNL     1       4.518  -2.835  -1.505  1.00  0.00     0.000 A 
ENDBRANCH  77  78
ENDBRANCH  76  77
ENDBRANCH  69  76
BRANCH  73  84
ATOM     84  C   UNL     1       4.205  -6.604   0.121  1.00  0.00     0.300 C 
BRANCH  84  85
ATOM     85  C   UNL     1       3.049  -7.450   0.579  1.00  0.00     0.025 A 
ATOM     86  C   UNL     1       2.200  -7.037   1.611  1.00  0.00     0.013 A 
ATOM     87  C   UNL     1       2.736  -8.645  -0.062  1.00  0.00     0.120 A 
ATOM     88  C   UNL     1       1.094  -7.811   1.948  1.00  0.00     0.021 A 
ATOM     89  N   UNL     1       1.670  -9.419   0.245  1.00  0.00    -0.264 NA
ATOM     90  C   UNL     1       0.870  -8.979   1.240  1.00  0.00     0.111 A 
ENDBRANCH  84  85
ENDBRANCH  73  84
ENDBRANCH  66  69
ENDBRANCH  64  65
ENDBRANCH   1  64
TORSDOF 16
