REMARK SMILES O=C(NCCCCNC(=O)c1c(F)cccc1N[C@H]1CCCc2ccccc21)c1ccc(-c2c3nc(c(-c4c(F)cccc4F)c4ccc([nH]4)c(-c4c(F)cccc4F)c4nc(c(-c5c(F)cccc5F)c5ccc2[nH]5)C=C4)C=C3)cc1
REMARK SMILES IDX 5 1 4 2 3 3 1 4 2 5 29 7 30 8 82 9 31 10 81 11 32 12 33 13
REMARK SMILES IDX 34 14 75 15 35 16 80 17 74 18 76 19 36 20 79 21 73 22 72 23
REMARK SMILES IDX 37 25 63 26 46 27 62 28 47 29 50 30 61 31 77 32 48 33 49 34
REMARK SMILES IDX 60 36 78 37 51 38 38 39 39 40 44 41 40 42 41 43 43 44 45 45
REMARK SMILES IDX 42 46 64 47 65 48 70 49 66 50 67 51 69 52 71 53 68 54 52 55
REMARK SMILES IDX 53 56 58 57 54 58 55 59 57 60 59 61 56 62 6 63 7 64 8 65
REMARK SMILES IDX 9 66 10 68 11 69 12 70 17 71 13 72 14 73 16 74 15 75 18 76
REMARK SMILES IDX 19 78 20 79 28 80 21 81 23 82 27 83 22 84 24 85 26 86 25 87
REMARK H PARENT 3 6 76 24 50 35 8 67 18 77
REMARK Flexibility Score: inf
ROOT
ATOM      1  C   UNL     1      13.542  -0.452   9.574  1.00  0.00     0.023 C 
ENDROOT
BRANCH   1   2
ATOM      2  C   UNL     1      14.994  -0.600  10.014  1.00  0.00     0.116 C 
BRANCH   2   3
ATOM      3  N   UNL     1      15.931   0.008   9.082  1.00  0.00    -0.352 N 
ATOM      4  O   UNL     1      17.412   1.524   8.312  1.00  0.00    -0.269 OA
ATOM      5  C   UNL     1      16.809   1.046   9.270  1.00  0.00     0.251 C 
ATOM      6  H   UNL     1      15.936  -0.385   8.179  1.00  0.00     0.163 HD
BRANCH   5   7
ATOM      7  C   UNL     1      17.011   1.613  10.620  1.00  0.00     0.039 A 
ATOM      8  C   UNL     1      17.197   0.782  11.729  1.00  0.00     0.014 A 
ATOM      9  C   UNL     1      17.027   3.001  10.772  1.00  0.00     0.014 A 
ATOM     10  C   UNL     1      17.258   1.334  13.005  1.00  0.00     0.010 A 
ATOM     11  C   UNL     1      17.168   3.556  12.044  1.00  0.00     0.010 A 
ATOM     12  C   UNL     1      17.253   2.727  13.174  1.00  0.00    -0.014 A 
BRANCH  12  13
ATOM     13  C   UNL     1      17.382   3.319  14.528  1.00  0.00     0.031 A 
ATOM     14  C   UNL     1      16.269   4.135  15.118  1.00  0.00     0.074 A 
ATOM     15  C   UNL     1      18.527   3.142  15.213  1.00  0.00     0.049 A 
ATOM     16  N   UNL     1      16.245   4.808  16.240  1.00  0.00    -0.248 NA
ATOM     17  C   UNL     1      15.020   4.211  14.345  1.00  0.00     0.031 C 
ATOM     18  C   UNL     1      19.673   2.359  14.748  1.00  0.00     0.029 A 
ATOM     19  N   UNL     1      18.920   3.615  16.439  1.00  0.00    -0.354 N 
ATOM     20  C   UNL     1      14.994   5.408  16.296  1.00  0.00     0.074 A 
ATOM     21  C   UNL     1      14.294   5.037  15.085  1.00  0.00     0.031 C 
ATOM     22  C   UNL     1      20.633   2.391  15.683  1.00  0.00     0.029 A 
ATOM     23  C   UNL     1      20.200   3.251  16.780  1.00  0.00     0.049 A 
ATOM     24  H   UNL     1      18.342   4.162  17.019  1.00  0.00     0.167 HD
ATOM     25  C   UNL     1      14.480   6.192  17.274  1.00  0.00     0.037 A 
ATOM     26  C   UNL     1      20.958   3.596  17.837  1.00  0.00     0.037 A 
ATOM     27  C   UNL     1      15.183   6.543  18.481  1.00  0.00     0.049 A 
ATOM     28  C   UNL     1      20.391   4.512  18.881  1.00  0.00     0.074 A 
ATOM     29  C   UNL     1      14.731   7.297  19.550  1.00  0.00     0.029 A 
ATOM     30  N   UNL     1      16.488   6.175  18.774  1.00  0.00    -0.354 N 
ATOM     31  N   UNL     1      19.199   5.056  18.935  1.00  0.00    -0.248 NA
ATOM     32  C   UNL     1      21.267   4.869  20.004  1.00  0.00     0.031 C 
ATOM     33  C   UNL     1      15.781   7.437  20.460  1.00  0.00     0.029 A 
ATOM     34  C   UNL     1      16.868   6.714  19.992  1.00  0.00     0.049 A 
ATOM     35  H   UNL     1      17.060   5.613  18.202  1.00  0.00     0.167 HD
ATOM     36  C   UNL     1      19.172   5.799  20.106  1.00  0.00     0.074 A 
ATOM     37  C   UNL     1      20.468   5.638  20.734  1.00  0.00     0.031 C 
ATOM     38  C   UNL     1      18.158   6.541  20.614  1.00  0.00     0.037 A 
BRANCH  25  39
ATOM     39  C   UNL     1      13.099   6.750  17.073  1.00  0.00     0.057 A 
ATOM     40  C   UNL     1      12.909   8.126  16.886  1.00  0.00     0.134 A 
ATOM     41  C   UNL     1      11.956   5.943  17.121  1.00  0.00     0.134 A 
ATOM     42  F   UNL     1      13.959   8.960  16.841  1.00  0.00    -0.206 F 
ATOM     43  C   UNL     1      11.633   8.678  16.760  1.00  0.00     0.040 A 
ATOM     44  C   UNL     1      10.676   6.479  16.967  1.00  0.00     0.040 A 
ATOM     45  F   UNL     1      12.066   4.616  17.290  1.00  0.00    -0.206 F 
ATOM     46  C   UNL     1      10.512   7.853  16.794  1.00  0.00     0.006 A 
ENDBRANCH  25  39
BRANCH  26  47
ATOM     47  C   UNL     1      22.334   3.052  17.938  1.00  0.00     0.057 A 
ATOM     48  C   UNL     1      23.344   3.457  17.055  1.00  0.00     0.134 A 
ATOM     49  C   UNL     1      22.644   2.047  18.858  1.00  0.00     0.134 A 
ATOM     50  F   UNL     1      23.102   4.408  16.140  1.00  0.00    -0.206 F 
ATOM     51  C   UNL     1      24.602   2.855  17.059  1.00  0.00     0.040 A 
ATOM     52  C   UNL     1      23.907   1.453  18.890  1.00  0.00     0.040 A 
ATOM     53  F   UNL     1      21.721   1.628  19.736  1.00  0.00    -0.206 F 
ATOM     54  C   UNL     1      24.886   1.847  17.979  1.00  0.00     0.006 A 
ENDBRANCH  26  47
BRANCH  38  55
ATOM     55  C   UNL     1      18.373   7.220  21.934  1.00  0.00     0.057 A 
ATOM     56  C   UNL     1      17.690   6.779  23.075  1.00  0.00     0.134 A 
ATOM     57  C   UNL     1      19.148   8.379  22.049  1.00  0.00     0.134 A 
ATOM     58  F   UNL     1      16.923   5.679  23.027  1.00  0.00    -0.206 F 
ATOM     59  C   UNL     1      17.743   7.487  24.276  1.00  0.00     0.040 A 
ATOM     60  C   UNL     1      19.229   9.083  23.252  1.00  0.00     0.040 A 
ATOM     61  F   UNL     1      19.835   8.846  20.996  1.00  0.00    -0.206 F 
ATOM     62  C   UNL     1      18.512   8.645  24.366  1.00  0.00     0.006 A 
ENDBRANCH  38  55
ENDBRANCH  12  13
ENDBRANCH   5   7
ENDBRANCH   2   3
ENDBRANCH   1   2
BRANCH   1  63
ATOM     63  C   UNL     1      13.199  -1.101   8.236  1.00  0.00     0.023 C 
BRANCH  63  64
ATOM     64  C   UNL     1      13.585  -2.571   8.106  1.00  0.00     0.116 C 
BRANCH  64  65
ATOM     65  N   UNL     1      12.902  -3.423   9.067  1.00  0.00    -0.352 N 
ATOM     66  C   UNL     1      12.221  -4.598   8.839  1.00  0.00     0.256 C 
ATOM     67  H   UNL     1      12.931  -3.120  10.003  1.00  0.00     0.163 HD
ATOM     68  O   UNL     1      11.624  -5.149   9.761  1.00  0.00    -0.269 OA
BRANCH  66  69
ATOM     69  C   UNL     1      12.153  -5.157   7.474  1.00  0.00     0.098 A 
ATOM     70  C   UNL     1      13.350  -5.422   6.798  1.00  0.00     0.138 A 
ATOM     71  C   UNL     1      10.907  -5.416   6.864  1.00  0.00     0.050 A 
ATOM     72  F   UNL     1      14.535  -5.266   7.408  1.00  0.00    -0.206 F 
ATOM     73  C   UNL     1      13.345  -5.818   5.468  1.00  0.00     0.040 A 
ATOM     74  C   UNL     1      10.931  -5.749   5.499  1.00  0.00     0.027 A 
ATOM     75  C   UNL     1      12.132  -5.951   4.807  1.00  0.00     0.005 A 
BRANCH  71  76
ATOM     76  N   UNL     1       9.714  -5.301   7.574  1.00  0.00    -0.377 N 
ATOM     77  H   UNL     1       9.729  -4.781   8.410  1.00  0.00     0.161 HD
BRANCH  76  78
ATOM     78  C   UNL     1       8.437  -5.896   7.170  1.00  0.00     0.110 C 
ATOM     79  C   UNL     1       8.580  -7.430   7.110  1.00  0.00     0.030 C 
ATOM     80  C   UNL     1       7.326  -5.467   8.129  1.00  0.00    -0.023 A 
ATOM     81  C   UNL     1       7.223  -8.100   6.960  1.00  0.00     0.007 C 
ATOM     82  C   UNL     1       6.349  -6.381   8.582  1.00  0.00    -0.043 A 
ATOM     83  C   UNL     1       7.213  -4.119   8.519  1.00  0.00     0.006 A 
ATOM     84  C   UNL     1       6.386  -7.841   8.204  1.00  0.00     0.036 C 
ATOM     85  C   UNL     1       5.335  -5.947   9.451  1.00  0.00     0.004 A 
ATOM     86  C   UNL     1       6.191  -3.698   9.372  1.00  0.00     0.000 A 
ATOM     87  C   UNL     1       5.256  -4.613   9.843  1.00  0.00     0.000 A 
ENDBRANCH  76  78
ENDBRANCH  71  76
ENDBRANCH  66  69
ENDBRANCH  64  65
ENDBRANCH  63  64
ENDBRANCH   1  63
TORSDOF 13
