REMARK SMILES O=C(NCCCCNC(=O)c1c(C(F)(F)F)nn(-c2ccccc2)c1C(F)(F)Cl)c1ccc(-c2c3nc(c(-c4c(F)cccc4F)c4ccc([nH]4)c(-c4c(F)cccc4F)c4nc(c(-c5c(F)cccc5F)c5ccc2[nH]5)C=C4)C=C3)cc1
REMARK SMILES IDX 5 1 4 2 3 3 1 4 2 5 30 7 31 8 83 9 32 10 82 11 33 12 34 13
REMARK SMILES IDX 35 14 76 15 36 16 81 17 75 18 77 19 37 20 80 21 74 22 73 23
REMARK SMILES IDX 38 25 64 26 47 27 63 28 48 29 51 30 62 31 78 32 49 33 50 34
REMARK SMILES IDX 61 36 79 37 52 38 39 39 40 40 45 41 41 42 42 43 44 44 46 45
REMARK SMILES IDX 43 46 65 47 66 48 71 49 67 50 68 51 70 52 72 53 69 54 53 55
REMARK SMILES IDX 54 56 59 57 55 58 56 59 58 60 60 61 57 62 6 63 7 64 8 65
REMARK SMILES IDX 9 66 10 68 11 69 12 70 25 71 17 72 18 73 13 74 14 75 15 76
REMARK SMILES IDX 16 77 26 78 27 79 28 80 29 81 19 82 20 83 24 84 21 85 23 86
REMARK SMILES IDX 22 87
REMARK H PARENT 3 6 77 24 51 35 8 67
REMARK Flexibility Score: inf
ROOT
ATOM      1  C   UNL     1       4.996   1.380  -1.879  1.00  0.00     0.023 C 
ENDROOT
BRANCH   1   2
ATOM      2  C   UNL     1       4.658   1.083  -0.416  1.00  0.00     0.116 C 
BRANCH   2   3
ATOM      3  N   UNL     1       3.248   1.149  -0.090  1.00  0.00    -0.352 N 
ATOM      4  O   UNL     1       1.183   0.629   0.477  1.00  0.00    -0.269 OA
ATOM      5  C   UNL     1       2.211   0.257  -0.097  1.00  0.00     0.251 C 
ATOM      6  H   UNL     1       2.972   2.046   0.207  1.00  0.00     0.163 HD
BRANCH   5   7
ATOM      7  C   UNL     1       2.199  -1.065  -0.785  1.00  0.00     0.039 A 
ATOM      8  C   UNL     1       3.291  -1.693  -1.382  1.00  0.00     0.014 A 
ATOM      9  C   UNL     1       0.940  -1.695  -0.867  1.00  0.00     0.014 A 
ATOM     10  C   UNL     1       3.114  -2.868  -2.116  1.00  0.00     0.010 A 
ATOM     11  C   UNL     1       0.760  -2.872  -1.588  1.00  0.00     0.010 A 
ATOM     12  C   UNL     1       1.843  -3.438  -2.249  1.00  0.00    -0.014 A 
BRANCH  12  13
ATOM     13  C   UNL     1       1.712  -4.699  -2.982  1.00  0.00     0.031 A 
ATOM     14  C   UNL     1       2.434  -5.859  -2.376  1.00  0.00     0.074 A 
ATOM     15  C   UNL     1       0.889  -4.877  -4.037  1.00  0.00     0.049 A 
ATOM     16  N   UNL     1       3.365  -6.591  -2.898  1.00  0.00    -0.248 NA
ATOM     17  C   UNL     1       2.132  -6.191  -0.974  1.00  0.00     0.031 C 
ATOM     18  C   UNL     1      -0.114  -3.953  -4.572  1.00  0.00     0.029 A 
ATOM     19  N   UNL     1       0.719  -5.990  -4.810  1.00  0.00    -0.354 N 
ATOM     20  C   UNL     1       3.659  -7.580  -1.957  1.00  0.00     0.074 A 
ATOM     21  C   UNL     1       2.956  -7.217  -0.754  1.00  0.00     0.031 C 
ATOM     22  C   UNL     1      -0.926  -4.619  -5.428  1.00  0.00     0.029 A 
ATOM     23  C   UNL     1      -0.418  -5.968  -5.609  1.00  0.00     0.049 A 
ATOM     24  H   UNL     1       1.350  -6.745  -4.802  1.00  0.00     0.167 HD
ATOM     25  C   UNL     1       4.317  -8.724  -2.292  1.00  0.00     0.037 A 
ATOM     26  C   UNL     1      -0.931  -7.001  -6.325  1.00  0.00     0.037 A 
ATOM     27  C   UNL     1       5.016  -8.584  -3.540  1.00  0.00     0.049 A 
ATOM     28  C   UNL     1       0.143  -8.006  -6.502  1.00  0.00     0.074 A 
ATOM     29  C   UNL     1       6.043  -7.784  -4.000  1.00  0.00     0.029 A 
ATOM     30  N   UNL     1       4.453  -9.141  -4.660  1.00  0.00    -0.354 N 
ATOM     31  N   UNL     1       1.202  -7.824  -7.239  1.00  0.00    -0.248 NA
ATOM     32  C   UNL     1       0.244  -9.064  -5.509  1.00  0.00     0.031 C 
ATOM     33  C   UNL     1       5.713  -7.511  -5.359  1.00  0.00     0.029 A 
ATOM     34  C   UNL     1       4.538  -8.204  -5.653  1.00  0.00     0.049 A 
ATOM     35  H   UNL     1       4.062 -10.042  -4.734  1.00  0.00     0.167 HD
ATOM     36  C   UNL     1       2.228  -8.430  -6.533  1.00  0.00     0.074 A 
ATOM     37  C   UNL     1       1.565  -9.251  -5.523  1.00  0.00     0.031 C 
ATOM     38  C   UNL     1       3.517  -7.997  -6.651  1.00  0.00     0.037 A 
BRANCH  25  39
ATOM     39  C   UNL     1       4.059 -10.079  -1.678  1.00  0.00     0.057 A 
ATOM     40  C   UNL     1       4.888 -11.164  -2.024  1.00  0.00     0.134 A 
ATOM     41  C   UNL     1       2.863 -10.428  -1.021  1.00  0.00     0.134 A 
ATOM     42  F   UNL     1       6.054 -10.967  -2.658  1.00  0.00    -0.206 F 
ATOM     43  C   UNL     1       4.511 -12.497  -1.814  1.00  0.00     0.040 A 
ATOM     44  C   UNL     1       2.500 -11.753  -0.763  1.00  0.00     0.040 A 
ATOM     45  F   UNL     1       1.939  -9.519  -0.687  1.00  0.00    -0.206 F 
ATOM     46  C   UNL     1       3.307 -12.795  -1.192  1.00  0.00     0.006 A 
ENDBRANCH  25  39
BRANCH  26  47
ATOM     47  C   UNL     1      -2.351  -7.328  -6.597  1.00  0.00     0.057 A 
ATOM     48  C   UNL     1      -2.715  -8.226  -7.611  1.00  0.00     0.134 A 
ATOM     49  C   UNL     1      -3.362  -6.993  -5.679  1.00  0.00     0.134 A 
ATOM     50  F   UNL     1      -1.810  -8.645  -8.507  1.00  0.00    -0.206 F 
ATOM     51  C   UNL     1      -4.003  -8.776  -7.694  1.00  0.00     0.040 A 
ATOM     52  C   UNL     1      -4.651  -7.530  -5.754  1.00  0.00     0.040 A 
ATOM     53  F   UNL     1      -3.103  -6.206  -4.625  1.00  0.00    -0.206 F 
ATOM     54  C   UNL     1      -4.973  -8.436  -6.756  1.00  0.00     0.006 A 
ENDBRANCH  26  47
BRANCH  38  55
ATOM     55  C   UNL     1       3.841  -7.022  -7.745  1.00  0.00     0.057 A 
ATOM     56  C   UNL     1       3.337  -5.714  -7.804  1.00  0.00     0.134 A 
ATOM     57  C   UNL     1       4.840  -7.359  -8.665  1.00  0.00     0.134 A 
ATOM     58  F   UNL     1       2.447  -5.272  -6.906  1.00  0.00    -0.206 F 
ATOM     59  C   UNL     1       3.790  -4.794  -8.754  1.00  0.00     0.040 A 
ATOM     60  C   UNL     1       5.324  -6.439  -9.597  1.00  0.00     0.040 A 
ATOM     61  F   UNL     1       5.407  -8.576  -8.631  1.00  0.00    -0.206 F 
ATOM     62  C   UNL     1       4.795  -5.152  -9.647  1.00  0.00     0.006 A 
ENDBRANCH  38  55
ENDBRANCH  12  13
ENDBRANCH   5   7
ENDBRANCH   2   3
ENDBRANCH   1   2
BRANCH   1  63
ATOM     63  C   UNL     1       4.511   2.729  -2.426  1.00  0.00     0.023 C 
BRANCH  63  64
ATOM     64  C   UNL     1       4.937   3.966  -1.641  1.00  0.00     0.116 C 
BRANCH  64  65
ATOM     65  N   UNL     1       6.374   4.191  -1.630  1.00  0.00    -0.352 N 
ATOM     66  C   UNL     1       7.074   5.374  -1.624  1.00  0.00     0.255 C 
ATOM     67  H   UNL     1       6.927   3.376  -1.626  1.00  0.00     0.163 HD
ATOM     68  O   UNL     1       8.297   5.366  -1.593  1.00  0.00    -0.269 OA
BRANCH  66  69
ATOM     69  C   UNL     1       6.331   6.618  -1.676  1.00  0.00     0.101 A 
ATOM     70  C   UNL     1       6.395   7.585  -2.714  1.00  0.00     0.180 A 
ATOM     71  C   UNL     1       5.452   7.143  -0.723  1.00  0.00     0.143 A 
ATOM     72  N   UNL     1       5.440   8.512  -2.537  1.00  0.00    -0.162 NA
ATOM     73  N   UNL     1       4.904   8.268  -1.318  1.00  0.00    -0.229 N 
BRANCH  70  74
ATOM     74  C   UNL     1       7.313   7.606  -3.916  1.00  0.00     0.436 C 
ATOM     75  F   UNL     1       6.624   7.749  -5.081  1.00  0.00    -0.164 F 
ATOM     76  F   UNL     1       8.199   8.636  -3.856  1.00  0.00    -0.164 F 
ATOM     77  F   UNL     1       8.044   6.470  -4.055  1.00  0.00    -0.164 F 
ENDBRANCH  70  74
BRANCH  71  78
ATOM     78  C   UNL     1       4.970   6.591   0.573  1.00  0.00     0.365 C 
ATOM     79  F   UNL     1       4.637   7.539   1.478  1.00  0.00    -0.181 F 
ATOM     80  F   UNL     1       3.840   5.864   0.365  1.00  0.00    -0.181 F 
ATOM     81  Cl  UNL     1       6.166   5.557   1.391  1.00  0.00    -0.040 Cl
ENDBRANCH  71  78
BRANCH  73  82
ATOM     82  C   UNL     1       3.828   9.087  -0.895  1.00  0.00     0.065 A 
ATOM     83  C   UNL     1       2.762   9.308  -1.779  1.00  0.00     0.028 A 
ATOM     84  C   UNL     1       3.822   9.685   0.366  1.00  0.00     0.028 A 
ATOM     85  C   UNL     1       1.645  10.028  -1.349  1.00  0.00     0.002 A 
ATOM     86  C   UNL     1       2.704  10.405   0.789  1.00  0.00     0.002 A 
ATOM     87  C   UNL     1       1.609  10.558  -0.060  1.00  0.00     0.000 A 
ENDBRANCH  73  82
ENDBRANCH  66  69
ENDBRANCH  64  65
ENDBRANCH  63  64
ENDBRANCH   1  63
TORSDOF 14
