REMARK SMILES Cc1cc(C)c2c(c1)C=C(C(=O)NCCCCNC(=O)c1ccc(-c3c4nc(c(-c5c(F)cccc5F)c5ccc([nH]5)c(-c5c(F)cccc5F)c5nc(c(-c6c(F)cccc6F)c6ccc3[nH]6)C=C5)C=C4)cc1)[C@@H](C(F)(F)F)O2
REMARK SMILES IDX 16 1 15 2 14 3 13 4 11 5 12 6 10 8 1 9 2 10 3 11 8 12 4 13
REMARK SMILES IDX 7 14 5 15 6 16 9 17 80 18 75 19 76 20 77 21 78 22 79 23
REMARK SMILES IDX 17 24 18 25 19 26 20 28 21 29 22 30 74 31 23 32 73 33 24 34
REMARK SMILES IDX 25 35 26 36 67 37 27 38 72 39 66 40 68 41 28 42 71 43 65 44
REMARK SMILES IDX 64 45 29 47 55 48 38 49 54 50 39 51 42 52 53 53 69 54 40 55
REMARK SMILES IDX 41 56 52 58 70 59 43 60 30 61 31 62 36 63 32 64 33 65 35 66
REMARK SMILES IDX 37 67 34 68 56 69 57 70 62 71 58 72 59 73 61 74 63 75 60 76
REMARK SMILES IDX 44 77 45 78 50 79 46 80 47 81 49 82 51 83 48 84
REMARK H PARENT 13 7 18 27 68 46 42 57
REMARK Flexibility Score: inf
ROOT
ATOM      1  C   UNL     1      -1.010   1.914  10.835  1.00  0.00     0.023 C 
ENDROOT
BRANCH   1   2
ATOM      2  C   UNL     1      -0.983   1.003   9.604  1.00  0.00     0.023 C 
BRANCH   2   3
ATOM      3  C   UNL     1      -2.131   1.236   8.626  1.00  0.00     0.116 C 
BRANCH   3   4
ATOM      4  N   UNL     1      -1.838   2.303   7.688  1.00  0.00    -0.352 N 
ATOM      5  C   UNL     1      -1.387   2.398   6.414  1.00  0.00     0.251 C 
ATOM      6  O   UNL     1      -1.261   3.552   5.991  1.00  0.00    -0.270 OA
ATOM      7  H   UNL     1      -2.013   3.190   8.079  1.00  0.00     0.163 HD
BRANCH   5   8
ATOM      8  C   UNL     1      -1.049   1.245   5.529  1.00  0.00     0.067 C 
ATOM      9  C   UNL     1       0.996   0.056  -0.188  1.00  0.00     0.044 C 
ATOM     10  C   UNL     1       0.554  -0.252   1.212  1.00  0.00    -0.050 A 
ATOM     11  C   UNL     1       0.523  -1.578   1.664  1.00  0.00     0.010 A 
ATOM     12  C   UNL     1       0.228   0.782   2.099  1.00  0.00     0.015 A 
ATOM     13  C   UNL     1       0.148  -1.882   2.980  1.00  0.00    -0.008 A 
ATOM     14  C   UNL     1      -0.156   0.495   3.412  1.00  0.00     0.018 A 
ATOM     15  C   UNL     1       0.112  -3.308   3.449  1.00  0.00     0.048 C 
ATOM     16  C   UNL     1      -0.201  -0.834   3.841  1.00  0.00     0.130 A 
ATOM     17  C   UNL     1      -0.477   1.563   4.352  1.00  0.00     0.025 C 
ATOM     18  O   UNL     1      -0.535  -1.161   5.128  1.00  0.00    -0.475 OA
ATOM     19  C   UNL     1      -1.349  -0.193   5.844  1.00  0.00     0.314 C 
BRANCH  19  20
ATOM     20  C   UNL     1      -2.837  -0.546   5.666  1.00  0.00     0.429 C 
ATOM     21  F   UNL     1      -3.113  -1.740   6.250  1.00  0.00    -0.167 F 
ATOM     22  F   UNL     1      -3.656   0.361   6.250  1.00  0.00    -0.167 F 
ATOM     23  F   UNL     1      -3.208  -0.632   4.370  1.00  0.00    -0.167 F 
ENDBRANCH  19  20
ENDBRANCH   5   8
ENDBRANCH   3   4
ENDBRANCH   2   3
ENDBRANCH   1   2
BRANCH   1  24
ATOM     24  C   UNL     1      -2.303   1.881  11.649  1.00  0.00     0.116 C 
BRANCH  24  25
ATOM     25  N   UNL     1      -2.739   0.543  12.023  1.00  0.00    -0.352 N 
ATOM     26  C   UNL     1      -3.531   0.188  13.090  1.00  0.00     0.251 C 
ATOM     27  H   UNL     1      -2.432  -0.193  11.445  1.00  0.00     0.163 HD
ATOM     28  O   UNL     1      -3.787  -0.986  13.330  1.00  0.00    -0.269 OA
BRANCH  26  29
ATOM     29  C   UNL     1      -4.018   1.257  13.980  1.00  0.00     0.039 A 
ATOM     30  C   UNL     1      -3.627   1.239  15.320  1.00  0.00     0.014 A 
ATOM     31  C   UNL     1      -4.751   2.326  13.458  1.00  0.00     0.014 A 
ATOM     32  C   UNL     1      -3.896   2.346  16.122  1.00  0.00     0.010 A 
ATOM     33  C   UNL     1      -4.970   3.452  14.245  1.00  0.00     0.010 A 
ATOM     34  C   UNL     1      -4.526   3.477  15.576  1.00  0.00    -0.014 A 
BRANCH  34  35
ATOM     35  C   UNL     1      -4.682   4.712  16.378  1.00  0.00     0.031 A 
ATOM     36  C   UNL     1      -6.043   5.173  16.802  1.00  0.00     0.074 A 
ATOM     37  C   UNL     1      -3.591   5.442  16.681  1.00  0.00     0.049 A 
ATOM     38  N   UNL     1      -6.372   6.225  17.507  1.00  0.00    -0.248 NA
ATOM     39  C   UNL     1      -7.187   4.361  16.358  1.00  0.00     0.031 C 
ATOM     40  C   UNL     1      -2.220   5.125  16.273  1.00  0.00     0.029 A 
ATOM     41  N   UNL     1      -3.462   6.599  17.407  1.00  0.00    -0.354 N 
ATOM     42  C   UNL     1      -7.757   6.204  17.587  1.00  0.00     0.074 A 
ATOM     43  C   UNL     1      -8.211   5.065  16.819  1.00  0.00     0.031 C 
ATOM     44  C   UNL     1      -1.385   6.043  16.787  1.00  0.00     0.029 A 
ATOM     45  C   UNL     1      -2.162   7.021  17.543  1.00  0.00     0.049 A 
ATOM     46  H   UNL     1      -4.229   7.080  17.793  1.00  0.00     0.167 HD
ATOM     47  C   UNL     1      -8.574   7.043  18.264  1.00  0.00     0.037 A 
ATOM     48  C   UNL     1      -1.654   8.070  18.215  1.00  0.00     0.037 A 
ATOM     49  C   UNL     1      -8.120   8.155  19.053  1.00  0.00     0.049 A 
ATOM     50  C   UNL     1      -2.581   8.979  18.970  1.00  0.00     0.074 A 
ATOM     51  C   UNL     1      -8.867   9.023  19.830  1.00  0.00     0.029 A 
ATOM     52  N   UNL     1      -6.796   8.549  19.169  1.00  0.00    -0.354 N 
ATOM     53  N   UNL     1      -3.883   8.908  19.094  1.00  0.00    -0.248 NA
ATOM     54  C   UNL     1      -1.968  10.112  19.679  1.00  0.00     0.031 C 
ATOM     55  C   UNL     1      -7.995   9.957  20.399  1.00  0.00     0.029 A 
ATOM     56  C   UNL     1      -6.705   9.655  19.994  1.00  0.00     0.049 A 
ATOM     57  H   UNL     1      -6.034   8.107  18.729  1.00  0.00     0.167 HD
ATOM     58  C   UNL     1      -4.246   9.971  19.909  1.00  0.00     0.074 A 
ATOM     59  C   UNL     1      -3.025  10.670  20.256  1.00  0.00     0.031 C 
ATOM     60  C   UNL     1      -5.480  10.332  20.332  1.00  0.00     0.037 A 
BRANCH  47  61
ATOM     61  C   UNL     1     -10.044   6.770  18.196  1.00  0.00     0.057 A 
ATOM     62  C   UNL     1     -10.622   5.709  18.905  1.00  0.00     0.134 A 
ATOM     63  C   UNL     1     -10.894   7.588  17.443  1.00  0.00     0.134 A 
ATOM     64  F   UNL     1      -9.856   4.882  19.633  1.00  0.00    -0.206 F 
ATOM     65  C   UNL     1     -11.993   5.459  18.852  1.00  0.00     0.040 A 
ATOM     66  C   UNL     1     -12.270   7.360  17.397  1.00  0.00     0.040 A 
ATOM     67  F   UNL     1     -10.402   8.622  16.744  1.00  0.00    -0.206 F 
ATOM     68  C   UNL     1     -12.822   6.290  18.100  1.00  0.00     0.006 A 
ENDBRANCH  47  61
BRANCH  48  69
ATOM     69  C   UNL     1      -0.188   8.280  18.253  1.00  0.00     0.057 A 
ATOM     70  C   UNL     1       0.549   7.958  19.398  1.00  0.00     0.134 A 
ATOM     71  C   UNL     1       0.512   8.783  17.151  1.00  0.00     0.134 A 
ATOM     72  F   UNL     1      -0.072   7.484  20.488  1.00  0.00    -0.206 F 
ATOM     73  C   UNL     1       1.931   8.136  19.450  1.00  0.00     0.040 A 
ATOM     74  C   UNL     1       1.897   8.952  17.184  1.00  0.00     0.040 A 
ATOM     75  F   UNL     1      -0.140   9.102  16.024  1.00  0.00    -0.206 F 
ATOM     76  C   UNL     1       2.610   8.631  18.338  1.00  0.00     0.006 A 
ENDBRANCH  48  69
BRANCH  60  77
ATOM     77  C   UNL     1      -5.579  11.527  21.228  1.00  0.00     0.057 A 
ATOM     78  C   UNL     1      -5.527  12.828  20.716  1.00  0.00     0.134 A 
ATOM     79  C   UNL     1      -5.809  11.373  22.600  1.00  0.00     0.134 A 
ATOM     80  F   UNL     1      -5.299  13.036  19.411  1.00  0.00    -0.206 F 
ATOM     81  C   UNL     1      -5.703  13.939  21.541  1.00  0.00     0.040 A 
ATOM     82  C   UNL     1      -6.000  12.476  23.433  1.00  0.00     0.040 A 
ATOM     83  F   UNL     1      -5.874  10.149  23.147  1.00  0.00    -0.206 F 
ATOM     84  C   UNL     1      -5.949  13.764  22.902  1.00  0.00     0.006 A 
ENDBRANCH  60  77
ENDBRANCH  34  35
ENDBRANCH  26  29
ENDBRANCH  24  25
ENDBRANCH   1  24
TORSDOF 12
