REMARK SMILES [NH3+][C@@](Cc1ccc(F)cc1)(C(=O)NCCCCNC(=O)c1ccc(-c2c3nc(c(-c4c(F)cccc4F)c4ccc([nH]4)c(-c4c(F)cccc4F)c4nc(c(-c5c(F)cccc5F)c5ccc2[nH]5)C=C4)C=C3)cc1)c1ccccc1
REMARK SMILES IDX 15 1 14 2 13 3 11 4 12 5 2 7 1 8 3 12 4 13 5 14 10 15 6 16
REMARK SMILES IDX 9 17 7 18 8 19 75 20 76 21 80 22 77 23 79 24 78 25 16 26
REMARK SMILES IDX 17 27 18 28 19 29 20 31 21 32 22 33 74 34 23 35 73 36 24 37
REMARK SMILES IDX 25 38 26 39 67 40 27 41 72 42 66 43 68 44 28 45 71 46 65 47
REMARK SMILES IDX 64 48 29 50 55 51 38 52 54 53 39 54 42 55 53 56 69 57 40 58
REMARK SMILES IDX 41 59 52 61 70 62 43 63 30 64 31 65 36 66 32 67 33 68 35 69
REMARK SMILES IDX 37 70 34 71 56 72 57 73 62 74 58 75 59 76 61 77 63 78 60 79
REMARK SMILES IDX 44 80 45 81 50 82 46 83 47 84 49 85 51 86 48 87
REMARK H PARENT 13 6 1 9 1 10 1 11 18 30 68 49 42 60
REMARK Flexibility Score: inf
ROOT
ATOM      1  C   UNL     1      -1.657   2.807   0.045  1.00  0.00     0.023 C 
ENDROOT
BRANCH   1   2
ATOM      2  C   UNL     1      -1.046   1.760   0.966  1.00  0.00     0.116 C 
BRANCH   2   3
ATOM      3  N   UNL     1      -1.512   0.412   0.713  1.00  0.00    -0.350 N 
ATOM      4  C   UNL     1      -0.915  -0.812   0.889  1.00  0.00     0.286 C 
ATOM      5  O   UNL     1      -1.720  -1.750   0.915  1.00  0.00    -0.267 OA
ATOM      6  H   UNL     1      -2.425   0.364   0.349  1.00  0.00     0.163 HD
BRANCH   4   7
ATOM      7  C   UNL     1       0.671  -0.999   1.027  1.00  0.00     0.203 C 
BRANCH   7   8
ATOM      8  N   UNL     1       1.320  -0.096   0.032  1.00  0.00    -0.341 N 
ATOM      9  H   UNL     1       1.042   0.868   0.215  1.00  0.00     0.345 HD
ATOM     10  H   UNL     1       1.028  -0.361  -0.909  1.00  0.00     0.345 HD
ATOM     11  H   UNL     1       2.334  -0.178   0.109  1.00  0.00     0.345 HD
ENDBRANCH   7   8
BRANCH   7  12
ATOM     12  C   UNL     1       1.158  -0.765   2.503  1.00  0.00     0.120 C 
BRANCH  12  13
ATOM     13  C   UNL     1       0.955   0.581   3.170  1.00  0.00    -0.041 A 
ATOM     14  C   UNL     1      -0.081   0.755   4.104  1.00  0.00     0.007 A 
ATOM     15  C   UNL     1       1.798   1.670   2.885  1.00  0.00     0.007 A 
ATOM     16  C   UNL     1      -0.311   2.005   4.684  1.00  0.00     0.039 A 
ATOM     17  C   UNL     1       1.547   2.926   3.444  1.00  0.00     0.039 A 
ATOM     18  C   UNL     1       0.491   3.083   4.332  1.00  0.00     0.123 A 
ATOM     19  F   UNL     1       0.239   4.291   4.849  1.00  0.00    -0.207 F 
ENDBRANCH  12  13
ENDBRANCH   7  12
BRANCH   7  20
ATOM     20  C   UNL     1       1.139  -2.458   0.688  1.00  0.00     0.022 A 
ATOM     21  C   UNL     1       0.439  -3.599   1.121  1.00  0.00     0.011 A 
ATOM     22  C   UNL     1       2.370  -2.683   0.031  1.00  0.00     0.011 A 
ATOM     23  C   UNL     1       0.907  -4.892   0.852  1.00  0.00     0.001 A 
ATOM     24  C   UNL     1       2.846  -3.972  -0.225  1.00  0.00     0.001 A 
ATOM     25  C   UNL     1       2.108  -5.078   0.177  1.00  0.00     0.000 A 
ENDBRANCH   7  20
ENDBRANCH   4   7
ENDBRANCH   2   3
ENDBRANCH   1   2
BRANCH   1  26
ATOM     26  C   UNL     1      -3.139   3.097   0.278  1.00  0.00     0.023 C 
BRANCH  26  27
ATOM     27  C   UNL     1      -3.544   3.430   1.713  1.00  0.00     0.116 C 
BRANCH  27  28
ATOM     28  N   UNL     1      -2.812   4.549   2.290  1.00  0.00    -0.352 N 
ATOM     29  C   UNL     1      -3.296   5.666   2.932  1.00  0.00     0.251 C 
ATOM     30  H   UNL     1      -1.833   4.499   2.210  1.00  0.00     0.163 HD
ATOM     31  O   UNL     1      -2.538   6.570   3.268  1.00  0.00    -0.269 OA
BRANCH  29  32
ATOM     32  C   UNL     1      -4.748   5.796   3.172  1.00  0.00     0.039 A 
ATOM     33  C   UNL     1      -5.394   6.969   2.776  1.00  0.00     0.014 A 
ATOM     34  C   UNL     1      -5.475   4.744   3.736  1.00  0.00     0.014 A 
ATOM     35  C   UNL     1      -6.786   7.047   2.850  1.00  0.00     0.010 A 
ATOM     36  C   UNL     1      -6.865   4.795   3.741  1.00  0.00     0.010 A 
ATOM     37  C   UNL     1      -7.535   5.940   3.283  1.00  0.00    -0.014 A 
BRANCH  37  38
ATOM     38  C   UNL     1      -9.018   5.946   3.227  1.00  0.00     0.031 A 
ATOM     39  C   UNL     1      -9.825   5.847   4.489  1.00  0.00     0.074 A 
ATOM     40  C   UNL     1      -9.637   5.967   2.030  1.00  0.00     0.049 A 
ATOM     41  N   UNL     1     -11.122   5.758   4.634  1.00  0.00    -0.248 NA
ATOM     42  C   UNL     1      -9.075   5.816   5.755  1.00  0.00     0.031 C 
ATOM     43  C   UNL     1      -8.965   6.013   0.730  1.00  0.00     0.029 A 
ATOM     44  N   UNL     1     -10.973   5.945   1.712  1.00  0.00    -0.354 N 
ATOM     45  C   UNL     1     -11.342   5.647   6.000  1.00  0.00     0.074 A 
ATOM     46  C   UNL     1     -10.044   5.630   6.639  1.00  0.00     0.031 C 
ATOM     47  C   UNL     1      -9.890   6.047  -0.242  1.00  0.00     0.029 A 
ATOM     48  C   UNL     1     -11.218   5.988   0.361  1.00  0.00     0.049 A 
ATOM     49  H   UNL     1     -11.687   5.902   2.388  1.00  0.00     0.167 HD
ATOM     50  C   UNL     1     -12.521   5.589   6.664  1.00  0.00     0.037 A 
ATOM     51  C   UNL     1     -12.382   5.980  -0.317  1.00  0.00     0.037 A 
ATOM     52  C   UNL     1     -13.811   5.638   6.030  1.00  0.00     0.049 A 
ATOM     53  C   UNL     1     -13.677   5.919   0.442  1.00  0.00     0.074 A 
ATOM     54  C   UNL     1     -15.061   5.644   6.623  1.00  0.00     0.029 A 
ATOM     55  N   UNL     1     -14.017   5.694   4.660  1.00  0.00    -0.354 N 
ATOM     56  N   UNL     1     -13.870   5.864   1.737  1.00  0.00    -0.248 NA
ATOM     57  C   UNL     1     -14.914   5.918  -0.352  1.00  0.00     0.031 C 
ATOM     58  C   UNL     1     -16.025   5.670   5.611  1.00  0.00     0.029 A 
ATOM     59  C   UNL     1     -15.374   5.719   4.389  1.00  0.00     0.049 A 
ATOM     60  H   UNL     1     -13.304   5.712   3.981  1.00  0.00     0.167 HD
ATOM     61  C   UNL     1     -15.247   5.844   1.915  1.00  0.00     0.074 A 
ATOM     62  C   UNL     1     -15.842   5.902   0.596  1.00  0.00     0.031 C 
ATOM     63  C   UNL     1     -15.952   5.782   3.071  1.00  0.00     0.037 A 
BRANCH  50  64
ATOM     64  C   UNL     1     -12.470   5.483   8.158  1.00  0.00     0.057 A 
ATOM     65  C   UNL     1     -12.854   4.303   8.808  1.00  0.00     0.134 A 
ATOM     66  C   UNL     1     -12.089   6.568   8.958  1.00  0.00     0.134 A 
ATOM     67  F   UNL     1     -13.236   3.229   8.101  1.00  0.00    -0.206 F 
ATOM     68  C   UNL     1     -12.867   4.210  10.200  1.00  0.00     0.040 A 
ATOM     69  C   UNL     1     -12.074   6.479  10.350  1.00  0.00     0.040 A 
ATOM     70  F   UNL     1     -11.698   7.722   8.396  1.00  0.00    -0.206 F 
ATOM     71  C   UNL     1     -12.472   5.298  10.975  1.00  0.00     0.006 A 
ENDBRANCH  50  64
BRANCH  51  72
ATOM     72  C   UNL     1     -12.370   6.072  -1.798  1.00  0.00     0.057 A 
ATOM     73  C   UNL     1     -11.952   5.002  -2.598  1.00  0.00     0.134 A 
ATOM     74  C   UNL     1     -12.752   7.252  -2.445  1.00  0.00     0.134 A 
ATOM     75  F   UNL     1     -11.565   3.847  -2.036  1.00  0.00    -0.206 F 
ATOM     76  C   UNL     1     -11.901   5.107  -3.989  1.00  0.00     0.040 A 
ATOM     77  C   UNL     1     -12.726   7.364  -3.836  1.00  0.00     0.040 A 
ATOM     78  F   UNL     1     -13.178   8.304  -1.732  1.00  0.00    -0.206 F 
ATOM     79  C   UNL     1     -12.291   6.291  -4.612  1.00  0.00     0.006 A 
ENDBRANCH  51  72
BRANCH  63  80
ATOM     80  C   UNL     1     -17.448   5.793   2.972  1.00  0.00     0.057 A 
ATOM     81  C   UNL     1     -18.180   6.921   3.364  1.00  0.00     0.134 A 
ATOM     82  C   UNL     1     -18.165   4.661   2.567  1.00  0.00     0.134 A 
ATOM     83  F   UNL     1     -17.551   8.034   3.771  1.00  0.00    -0.206 F 
ATOM     84  C   UNL     1     -19.575   6.917   3.372  1.00  0.00     0.040 A 
ATOM     85  C   UNL     1     -19.560   4.652   2.550  1.00  0.00     0.040 A 
ATOM     86  F   UNL     1     -17.520   3.554   2.170  1.00  0.00    -0.206 F 
ATOM     87  C   UNL     1     -20.269   5.780   2.963  1.00  0.00     0.006 A 
ENDBRANCH  63  80
ENDBRANCH  37  38
ENDBRANCH  29  32
ENDBRANCH  27  28
ENDBRANCH  26  27
ENDBRANCH   1  26
TORSDOF 15
