REMARK SMILES COc1ccc(Nc2c(C(=O)NCCCCNC(=O)c3ccc(-c4c5nc(c(-c6c(F)cccc6F)c6ccc([nH]6)c(-c6c(F)cccc6F)c6nc(c(-c7c(F)cccc7F)c7ccc4[nH]7)C=C6)C=C5)cc3)[nH]c(=O)[nH]c2=O)cc1
REMARK SMILES IDX 14 1 13 2 12 3 10 4 11 5 9 7 8 8 78 9 74 10 77 11 79 12
REMARK SMILES IDX 75 13 76 16 7 17 6 19 3 20 4 21 81 22 5 23 80 24 2 25 1 26
REMARK SMILES IDX 15 27 16 28 17 29 18 30 19 32 20 33 21 34 73 35 22 36 72 37
REMARK SMILES IDX 23 38 24 39 25 40 66 41 26 42 71 43 65 44 67 45 27 46 70 47
REMARK SMILES IDX 64 48 63 49 28 51 54 52 37 53 53 54 38 55 41 56 52 57 68 58
REMARK SMILES IDX 39 59 40 60 51 62 69 63 42 64 29 65 30 66 35 67 31 68 32 69
REMARK SMILES IDX 34 70 36 71 33 72 55 73 56 74 61 75 57 76 58 77 60 78 62 79
REMARK SMILES IDX 59 80 43 81 44 82 49 83 45 84 46 85 48 86 50 87 47 88
REMARK H PARENT 12 6 74 14 77 15 7 18 17 31 67 50 41 61
REMARK Flexibility Score: inf
ROOT
ATOM      1  C   UNL     1       3.419   2.800   4.697  1.00  0.00     0.023 C 
ENDROOT
BRANCH   1   2
ATOM      2  C   UNL     1       2.828   1.852   5.729  1.00  0.00     0.116 C 
BRANCH   2   3
ATOM      3  N   UNL     1       3.120   2.126   7.107  1.00  0.00    -0.351 N 
ATOM      4  C   UNL     1       2.452   1.705   8.213  1.00  0.00     0.270 C 
ATOM      5  O   UNL     1       2.892   2.084   9.307  1.00  0.00    -0.268 OA
ATOM      6  H   UNL     1       3.908   2.692   7.273  1.00  0.00     0.163 HD
BRANCH   4   7
ATOM      7  C   UNL     1       1.141   0.935   8.220  1.00  0.00     0.137 A 
ATOM      8  C   UNL     1       0.743  -0.098   7.440  1.00  0.00     0.134 A 
ATOM      9  C   UNL     1      -0.553  -0.774   7.851  1.00  0.00     0.278 A 
ATOM     10  N   UNL     1       0.345   1.345   9.278  1.00  0.00    -0.301 N 
ATOM     11  N   UNL     1      -1.294  -0.192   8.830  1.00  0.00    -0.272 N 
ATOM     12  O   UNL     1      -0.913  -1.830   7.331  1.00  0.00    -0.267 OA
ATOM     13  C   UNL     1      -0.869   0.837   9.603  1.00  0.00     0.326 A 
ATOM     14  H   UNL     1       0.693   2.071   9.844  1.00  0.00     0.172 HD
ATOM     15  H   UNL     1      -2.201  -0.540   8.988  1.00  0.00     0.175 HD
ATOM     16  O   UNL     1      -1.526   1.259  10.545  1.00  0.00    -0.248 OA
BRANCH   8  17
ATOM     17  N   UNL     1       1.378  -0.705   6.363  1.00  0.00    -0.349 N 
ATOM     18  H   UNL     1       2.145  -1.292   6.554  1.00  0.00     0.167 HD
BRANCH  17  19
ATOM     19  C   UNL     1       0.995  -0.534   5.002  1.00  0.00     0.039 A 
ATOM     20  C   UNL     1       0.583   0.092   2.276  1.00  0.00     0.119 A 
ATOM     21  C   UNL     1      -0.264   0.604   3.258  1.00  0.00     0.048 A 
ATOM     22  C   UNL     1       1.629  -0.750   2.652  1.00  0.00     0.048 A 
ATOM     23  C   UNL     1      -0.061   0.299   4.606  1.00  0.00     0.030 A 
ATOM     24  C   UNL     1       1.822  -1.070   4.003  1.00  0.00     0.030 A 
BRANCH  20  25
ATOM     25  O   UNL     1       0.299   0.510   1.006  1.00  0.00    -0.497 OA
ATOM     26  C   UNL     1       1.003  -0.129  -0.051  1.00  0.00     0.278 C 
ENDBRANCH  20  25
ENDBRANCH  17  19
ENDBRANCH   8  17
ENDBRANCH   4   7
ENDBRANCH   2   3
ENDBRANCH   1   2
BRANCH   1  27
ATOM     27  C   UNL     1       4.940   2.889   4.638  1.00  0.00     0.023 C 
BRANCH  27  28
ATOM     28  C   UNL     1       5.711   1.577   4.734  1.00  0.00     0.116 C 
BRANCH  28  29
ATOM     29  N   UNL     1       5.422   0.625   3.669  1.00  0.00    -0.352 N 
ATOM     30  C   UNL     1       6.206   0.138   2.647  1.00  0.00     0.251 C 
ATOM     31  H   UNL     1       4.505   0.267   3.683  1.00  0.00     0.163 HD
ATOM     32  O   UNL     1       5.724  -0.648   1.835  1.00  0.00    -0.269 OA
BRANCH  30  33
ATOM     33  C   UNL     1       7.602   0.606   2.476  1.00  0.00     0.039 A 
ATOM     34  C   UNL     1       8.030   0.984   1.200  1.00  0.00     0.014 A 
ATOM     35  C   UNL     1       8.472   0.723   3.558  1.00  0.00     0.014 A 
ATOM     36  C   UNL     1       9.273   1.604   1.037  1.00  0.00     0.010 A 
ATOM     37  C   UNL     1       9.661   1.434   3.415  1.00  0.00     0.010 A 
ATOM     38  C   UNL     1      10.066   1.903   2.156  1.00  0.00    -0.014 A 
BRANCH  38  39
ATOM     39  C   UNL     1      11.295   2.735   2.044  1.00  0.00     0.031 A 
ATOM     40  C   UNL     1      12.627   2.191   2.481  1.00  0.00     0.074 A 
ATOM     41  C   UNL     1      11.199   4.018   1.639  1.00  0.00     0.049 A 
ATOM     42  N   UNL     1      13.783   2.800   2.570  1.00  0.00    -0.248 NA
ATOM     43  C   UNL     1      12.657   0.784   2.909  1.00  0.00     0.031 C 
ATOM     44  C   UNL     1       9.963   4.694   1.240  1.00  0.00     0.029 A 
ATOM     45  N   UNL     1      12.162   4.989   1.504  1.00  0.00    -0.354 N 
ATOM     46  C   UNL     1      14.666   1.862   3.088  1.00  0.00     0.074 A 
ATOM     47  C   UNL     1      13.902   0.660   3.344  1.00  0.00     0.031 C 
ATOM     48  C   UNL     1      10.247   5.954   0.871  1.00  0.00     0.029 A 
ATOM     49  C   UNL     1      11.675   6.190   1.048  1.00  0.00     0.049 A 
ATOM     50  H   UNL     1      13.111   4.838   1.715  1.00  0.00     0.167 HD
ATOM     51  C   UNL     1      15.998   1.978   3.306  1.00  0.00     0.037 A 
ATOM     52  C   UNL     1      12.306   7.354   0.802  1.00  0.00     0.037 A 
ATOM     53  C   UNL     1      16.769   3.158   3.017  1.00  0.00     0.049 A 
ATOM     54  C   UNL     1      13.786   7.457   1.044  1.00  0.00     0.074 A 
ATOM     55  C   UNL     1      18.133   3.352   3.146  1.00  0.00     0.029 A 
ATOM     56  N   UNL     1      16.241   4.345   2.533  1.00  0.00    -0.354 N 
ATOM     57  N   UNL     1      14.616   6.543   1.483  1.00  0.00    -0.248 NA
ATOM     58  C   UNL     1      14.415   8.754   0.756  1.00  0.00     0.031 C 
ATOM     59  C   UNL     1      18.427   4.666   2.768  1.00  0.00     0.029 A 
ATOM     60  C   UNL     1      17.250   5.279   2.368  1.00  0.00     0.049 A 
ATOM     61  H   UNL     1      15.289   4.501   2.335  1.00  0.00     0.167 HD
ATOM     62  C   UNL     1      15.868   7.143   1.497  1.00  0.00     0.074 A 
ATOM     63  C   UNL     1      15.690   8.497   1.014  1.00  0.00     0.031 C 
ATOM     64  C   UNL     1      17.059   6.619   1.876  1.00  0.00     0.037 A 
BRANCH  51  65
ATOM     65  C   UNL     1      16.704   0.783   3.878  1.00  0.00     0.057 A 
ATOM     66  C   UNL     1      16.904  -0.383   3.127  1.00  0.00     0.134 A 
ATOM     67  C   UNL     1      17.194   0.798   5.190  1.00  0.00     0.134 A 
ATOM     68  F   UNL     1      16.447  -0.467   1.868  1.00  0.00    -0.206 F 
ATOM     69  C   UNL     1      17.534  -1.504   3.670  1.00  0.00     0.040 A 
ATOM     70  C   UNL     1      17.850  -0.307   5.736  1.00  0.00     0.040 A 
ATOM     71  F   UNL     1      17.042   1.884   5.962  1.00  0.00    -0.206 F 
ATOM     72  C   UNL     1      18.013  -1.465   4.978  1.00  0.00     0.006 A 
ENDBRANCH  51  65
BRANCH  52  73
ATOM     73  C   UNL     1      11.551   8.510   0.257  1.00  0.00     0.057 A 
ATOM     74  C   UNL     1      11.725   8.912  -1.073  1.00  0.00     0.134 A 
ATOM     75  C   UNL     1      10.650   9.239   1.040  1.00  0.00     0.134 A 
ATOM     76  F   UNL     1      12.590   8.263  -1.866  1.00  0.00    -0.206 F 
ATOM     77  C   UNL     1      11.042  10.009  -1.601  1.00  0.00     0.040 A 
ATOM     78  C   UNL     1       9.944  10.325   0.519  1.00  0.00     0.040 A 
ATOM     79  F   UNL     1      10.435   8.899   2.319  1.00  0.00    -0.206 F 
ATOM     80  C   UNL     1      10.144  10.716  -0.804  1.00  0.00     0.006 A 
ENDBRANCH  52  73
BRANCH  64  81
ATOM     81  C   UNL     1      18.266   7.498   1.746  1.00  0.00     0.057 A 
ATOM     82  C   UNL     1      18.511   8.553   2.634  1.00  0.00     0.134 A 
ATOM     83  C   UNL     1      19.213   7.263   0.741  1.00  0.00     0.134 A 
ATOM     84  F   UNL     1      17.634   8.839   3.608  1.00  0.00    -0.206 F 
ATOM     85  C   UNL     1      19.647   9.355   2.515  1.00  0.00     0.040 A 
ATOM     86  C   UNL     1      20.364   8.043   0.626  1.00  0.00     0.040 A 
ATOM     87  F   UNL     1      19.040   6.264  -0.138  1.00  0.00    -0.206 F 
ATOM     88  C   UNL     1      20.580   9.096   1.513  1.00  0.00     0.006 A 
ENDBRANCH  64  81
ENDBRANCH  38  39
ENDBRANCH  30  33
ENDBRANCH  28  29
ENDBRANCH  27  28
ENDBRANCH   1  27
TORSDOF 14
