REMARK SMILES [NH3+][C@@]1(C(=O)NCCCCNC(=O)c2ccc(-c3c4nc(c(-c5c(F)cccc5F)c5ccc([nH]5)c(-c5c(F)cccc5F)c5nc(c(-c6c(F)cccc6F)c6ccc3[nH]6)C=C5)C=C4)cc2)CC[N@H+](Cc2ccc(OCC(=O)N3CCCCC3)cc2)C1
REMARK SMILES IDX 6 1 5 2 3 3 4 4 2 6 67 7 87 8 68 9 69 10 1 12 70 16 71 17
REMARK SMILES IDX 72 18 86 19 73 20 85 21 74 22 75 23 76 24 77 25 78 26 79 27
REMARK SMILES IDX 80 28 84 29 81 30 83 31 82 32 7 33 8 34 9 35 10 36 11 37
REMARK SMILES IDX 12 39 13 40 14 41 66 42 15 43 65 44 16 45 17 46 18 47 59 48
REMARK SMILES IDX 19 49 64 50 58 51 60 52 20 53 63 54 57 55 56 56 21 58 47 59
REMARK SMILES IDX 30 60 46 61 31 62 34 63 45 64 61 65 32 66 33 67 44 69 62 70
REMARK SMILES IDX 35 71 22 72 23 73 28 74 24 75 25 76 27 77 29 78 26 79 48 80
REMARK SMILES IDX 49 81 54 82 50 83 51 84 53 85 55 86 52 87 36 88 37 89 42 90
REMARK SMILES IDX 38 91 39 92 41 93 43 94 40 95
REMARK H PARENT 5 5 69 11 1 13 1 14 1 15 10 38 60 57 34 68
REMARK Flexibility Score: inf
ROOT
ATOM      1  C   UNL     1       1.019  -4.356  -1.968  1.00  0.00     0.116 C 
ENDROOT
BRANCH   1   2
ATOM      2  N   UNL     1       1.135  -2.924  -2.242  1.00  0.00    -0.350 N 
ATOM      3  C   UNL     1       1.141  -1.745  -1.548  1.00  0.00     0.287 C 
ATOM      4  O   UNL     1       1.383  -0.765  -2.276  1.00  0.00    -0.268 OA
ATOM      5  H   UNL     1       1.240  -2.761  -3.207  1.00  0.00     0.163 HD
BRANCH   3   6
ATOM      6  C   UNL     1       0.807  -1.500   0.002  1.00  0.00     0.228 C 
ATOM      7  C   UNL     1       0.899  -2.691   0.946  1.00  0.00     0.146 C 
ATOM      8  C   UNL     1      -0.650  -0.997   0.284  1.00  0.00     0.342 C 
ATOM      9  C   UNL     1      -0.528  -3.249   1.062  1.00  0.00     0.270 C 
ATOM     10  N   UNL     1      -1.427  -2.179   0.663  1.00  0.00    -0.325 N 
ATOM     11  H   UNL     1      -1.981  -1.903   1.474  1.00  0.00     0.348 HD
BRANCH   6  12
ATOM     12  N   UNL     1       1.752  -0.430   0.432  1.00  0.00    -0.340 N 
ATOM     13  H   UNL     1       2.710  -0.733   0.259  1.00  0.00     0.345 HD
ATOM     14  H   UNL     1       1.628  -0.246   1.427  1.00  0.00     0.345 HD
ATOM     15  H   UNL     1       1.565   0.422  -0.097  1.00  0.00     0.345 HD
ENDBRANCH   6  12
BRANCH  10  16
ATOM     16  C   UNL     1      -2.782  -2.457   0.133  1.00  0.00     0.299 C 
BRANCH  16  17
ATOM     17  C   UNL     1      -3.031  -2.228  -1.357  1.00  0.00     0.006 A 
ATOM     18  C   UNL     1      -4.259  -2.152  -2.015  1.00  0.00     0.013 A 
ATOM     19  C   UNL     1      -1.935  -2.103  -2.176  1.00  0.00     0.013 A 
ATOM     20  C   UNL     1      -4.312  -1.934  -3.424  1.00  0.00     0.047 A 
ATOM     21  C   UNL     1      -1.949  -1.819  -3.519  1.00  0.00     0.047 A 
ATOM     22  C   UNL     1      -3.143  -1.782  -4.183  1.00  0.00     0.120 A 
BRANCH  22  23
ATOM     23  O   UNL     1      -3.194  -1.544  -5.527  1.00  0.00    -0.484 OA
BRANCH  23  24
ATOM     24  C   UNL     1      -2.147  -2.136  -6.291  1.00  0.00     0.329 C 
BRANCH  24  25
ATOM     25  C   UNL     1      -0.607  -1.812  -6.313  1.00  0.00     0.260 C 
ATOM     26  O   UNL     1       0.189  -2.751  -6.455  1.00  0.00    -0.271 OA
ATOM     27  N   UNL     1      -0.161  -0.494  -6.265  1.00  0.00    -0.340 N 
ATOM     28  C   UNL     1       1.128  -0.180  -6.897  1.00  0.00     0.119 C 
ATOM     29  C   UNL     1      -0.987   0.636  -5.851  1.00  0.00     0.119 C 
ATOM     30  C   UNL     1       1.883   1.008  -6.298  1.00  0.00     0.022 C 
ATOM     31  C   UNL     1      -0.182   1.705  -5.118  1.00  0.00     0.022 C 
ATOM     32  C   UNL     1       0.966   2.183  -5.992  1.00  0.00     0.004 C 
ENDBRANCH  24  25
ENDBRANCH  23  24
ENDBRANCH  22  23
ENDBRANCH  16  17
ENDBRANCH  10  16
ENDBRANCH   3   6
ENDBRANCH   1   2
BRANCH   1  33
ATOM     33  C   UNL     1      -0.386  -4.983  -2.023  1.00  0.00     0.023 C 
BRANCH  33  34
ATOM     34  C   UNL     1      -1.079  -5.018  -3.380  1.00  0.00     0.023 C 
BRANCH  34  35
ATOM     35  C   UNL     1      -0.666  -6.154  -4.284  1.00  0.00     0.116 C 
BRANCH  35  36
ATOM     36  N   UNL     1      -1.129  -7.454  -3.820  1.00  0.00    -0.352 N 
ATOM     37  C   UNL     1      -1.720  -8.464  -4.545  1.00  0.00     0.251 C 
ATOM     38  H   UNL     1      -1.004  -7.633  -2.860  1.00  0.00     0.163 HD
ATOM     39  O   UNL     1      -2.176  -9.448  -3.976  1.00  0.00    -0.269 OA
BRANCH  37  40
ATOM     40  C   UNL     1      -1.827  -8.339  -6.017  1.00  0.00     0.039 A 
ATOM     41  C   UNL     1      -2.998  -8.753  -6.657  1.00  0.00     0.014 A 
ATOM     42  C   UNL     1      -0.781  -7.792  -6.762  1.00  0.00     0.014 A 
ATOM     43  C   UNL     1      -3.130  -8.576  -8.036  1.00  0.00     0.010 A 
ATOM     44  C   UNL     1      -0.965  -7.496  -8.104  1.00  0.00     0.010 A 
ATOM     45  C   UNL     1      -2.122  -7.925  -8.766  1.00  0.00    -0.014 A 
BRANCH  45  46
ATOM     46  C   UNL     1      -2.208  -7.752 -10.237  1.00  0.00     0.031 A 
ATOM     47  C   UNL     1      -1.154  -8.379 -11.114  1.00  0.00     0.074 A 
ATOM     48  C   UNL     1      -3.180  -6.992 -10.775  1.00  0.00     0.049 A 
ATOM     49  N   UNL     1      -0.988  -8.285 -12.408  1.00  0.00    -0.248 NA
ATOM     50  C   UNL     1      -0.121  -9.185 -10.439  1.00  0.00     0.031 C 
ATOM     51  C   UNL     1      -4.220  -6.285 -10.024  1.00  0.00     0.029 A 
ATOM     52  N   UNL     1      -3.449  -6.684 -12.084  1.00  0.00    -0.354 N 
ATOM     53  C   UNL     1       0.178  -8.989 -12.689  1.00  0.00     0.074 A 
ATOM     54  C   UNL     1       0.718  -9.440 -11.428  1.00  0.00     0.031 C 
ATOM     55  C   UNL     1      -5.035  -5.658 -10.887  1.00  0.00     0.029 A 
ATOM     56  C   UNL     1      -4.555  -5.885 -12.246  1.00  0.00     0.049 A 
ATOM     57  H   UNL     1      -2.902  -7.005 -12.836  1.00  0.00     0.167 HD
ATOM     58  C   UNL     1       0.729  -9.269 -13.892  1.00  0.00     0.037 A 
ATOM     59  C   UNL     1      -5.114  -5.394 -13.368  1.00  0.00     0.037 A 
ATOM     60  C   UNL     1       0.155  -8.861 -15.145  1.00  0.00     0.049 A 
ATOM     61  C   UNL     1      -4.497  -5.737 -14.697  1.00  0.00     0.074 A 
ATOM     62  C   UNL     1       0.586  -9.150 -16.427  1.00  0.00     0.029 A 
ATOM     63  N   UNL     1      -0.984  -8.080 -15.268  1.00  0.00    -0.354 N 
ATOM     64  N   UNL     1      -3.436  -6.464 -14.954  1.00  0.00    -0.248 NA
ATOM     65  C   UNL     1      -5.158  -5.198 -15.893  1.00  0.00     0.031 C 
ATOM     66  C   UNL     1      -0.269  -8.507 -17.326  1.00  0.00     0.029 A 
ATOM     67  C   UNL     1      -1.261  -7.860 -16.606  1.00  0.00     0.049 A 
ATOM     68  H   UNL     1      -1.516  -7.733 -14.516  1.00  0.00     0.167 HD
ATOM     69  C   UNL     1      -3.318  -6.492 -16.337  1.00  0.00     0.074 A 
ATOM     70  C   UNL     1      -4.426  -5.723 -16.865  1.00  0.00     0.031 C 
ATOM     71  C   UNL     1      -2.378  -7.098 -17.104  1.00  0.00     0.037 A 
BRANCH  58  72
ATOM     72  C   UNL     1       2.005 -10.062 -13.904  1.00  0.00     0.057 A 
ATOM     73  C   UNL     1       2.044 -11.409 -13.516  1.00  0.00     0.134 A 
ATOM     74  C   UNL     1       3.207  -9.478 -14.320  1.00  0.00     0.134 A 
ATOM     75  F   UNL     1       0.932 -12.028 -13.091  1.00  0.00    -0.206 F 
ATOM     76  C   UNL     1       3.237 -12.134 -13.508  1.00  0.00     0.040 A 
ATOM     77  C   UNL     1       4.401 -10.202 -14.348  1.00  0.00     0.040 A 
ATOM     78  F   UNL     1       3.243  -8.195 -14.710  1.00  0.00    -0.206 F 
ATOM     79  C   UNL     1       4.419 -11.532 -13.932  1.00  0.00     0.006 A 
ENDBRANCH  58  72
BRANCH  59  80
ATOM     80  C   UNL     1      -6.339  -4.558 -13.287  1.00  0.00     0.057 A 
ATOM     81  C   UNL     1      -7.571  -5.036 -13.751  1.00  0.00     0.134 A 
ATOM     82  C   UNL     1      -6.313  -3.266 -12.749  1.00  0.00     0.134 A 
ATOM     83  F   UNL     1      -7.659  -6.260 -14.291  1.00  0.00    -0.206 F 
ATOM     84  C   UNL     1      -8.726  -4.254 -13.703  1.00  0.00     0.040 A 
ATOM     85  C   UNL     1      -7.465  -2.482 -12.671  1.00  0.00     0.040 A 
ATOM     86  F   UNL     1      -5.167  -2.751 -12.279  1.00  0.00    -0.206 F 
ATOM     87  C   UNL     1      -8.676  -2.973 -13.156  1.00  0.00     0.006 A 
ENDBRANCH  59  80
BRANCH  71  88
ATOM     88  C   UNL     1      -2.527  -6.981 -18.592  1.00  0.00     0.057 A 
ATOM     89  C   UNL     1      -2.273  -5.782 -19.268  1.00  0.00     0.134 A 
ATOM     90  C   UNL     1      -2.877  -8.099 -19.360  1.00  0.00     0.134 A 
ATOM     91  F   UNL     1      -1.945  -4.673 -18.587  1.00  0.00    -0.206 F 
ATOM     92  C   UNL     1      -2.384  -5.693 -20.656  1.00  0.00     0.040 A 
ATOM     93  C   UNL     1      -2.962  -8.029 -20.751  1.00  0.00     0.040 A 
ATOM     94  F   UNL     1      -3.121  -9.281 -18.774  1.00  0.00    -0.206 F 
ATOM     95  C   UNL     1      -2.720  -6.821 -21.402  1.00  0.00     0.006 A 
ENDBRANCH  71  88
ENDBRANCH  45  46
ENDBRANCH  37  40
ENDBRANCH  35  36
ENDBRANCH  34  35
ENDBRANCH  33  34
ENDBRANCH   1  33
TORSDOF 17
