REMARK SMILES O=C(NCCCCNC(=O)c1ccc(-c2c3nc(c(-c4c(F)cccc4F)c4ccc([nH]4)c(-c4c(F)cccc4F)c4nc(c(-c5c(F)cccc5F)c5ccc2[nH]5)C=C4)C=C3)cc1)C1=Cc2c(ccc(Cl)c2Oc2ccccc2)O[C@H]1C(F)(F)F
REMARK SMILES IDX 5 1 4 2 3 3 1 4 2 5 65 7 66 8 82 9 67 10 81 11 68 12 73 13
REMARK SMILES IDX 69 14 71 15 70 16 72 17 83 18 84 19 85 20 86 21 74 22 75 23
REMARK SMILES IDX 76 24 80 25 77 26 79 27 78 28 6 29 7 30 8 31 9 32 10 34
REMARK SMILES IDX 11 35 12 36 64 37 13 38 63 39 14 40 15 41 16 42 57 43 17 44
REMARK SMILES IDX 62 45 56 46 58 47 18 48 61 49 55 50 54 51 19 53 45 54 28 55
REMARK SMILES IDX 44 56 29 57 32 58 43 59 59 60 30 61 31 62 42 64 60 65 33 66
REMARK SMILES IDX 20 67 21 68 26 69 22 70 23 71 25 72 27 73 24 74 46 75 47 76
REMARK SMILES IDX 52 77 48 78 49 79 51 80 53 81 50 82 34 83 35 84 40 85 36 86
REMARK SMILES IDX 37 87 39 88 41 89 38 90
REMARK H PARENT 3 6 8 33 58 52 32 63
REMARK Flexibility Score: inf
ROOT
ATOM      1  C   UNL     1       4.342   3.383  -0.640  1.00  0.00     0.023 C 
ENDROOT
BRANCH   1   2
ATOM      2  C   UNL     1       3.764   2.032  -0.224  1.00  0.00     0.116 C 
BRANCH   2   3
ATOM      3  N   UNL     1       2.734   1.550  -1.131  1.00  0.00    -0.352 N 
ATOM      4  O   UNL     1       1.665   0.122  -2.503  1.00  0.00    -0.270 OA
ATOM      5  C   UNL     1       2.564   0.317  -1.694  1.00  0.00     0.251 C 
ATOM      6  H   UNL     1       2.053   2.217  -1.378  1.00  0.00     0.163 HD
BRANCH   5   7
ATOM      7  C   UNL     1       3.494  -0.781  -1.363  1.00  0.00     0.067 C 
ATOM      8  C   UNL     1       3.518  -1.262  -0.116  1.00  0.00     0.029 C 
ATOM      9  C   UNL     1       4.624  -1.040  -2.304  1.00  0.00     0.314 C 
ATOM     10  C   UNL     1       4.818  -1.036   0.558  1.00  0.00     0.061 A 
ATOM     11  O   UNL     1       5.923  -0.990  -1.644  1.00  0.00    -0.475 OA
ATOM     12  C   UNL     1       5.951  -0.877  -0.272  1.00  0.00     0.131 A 
ATOM     13  C   UNL     1       4.914  -0.779   1.947  1.00  0.00     0.156 A 
ATOM     14  C   UNL     1       7.169  -0.469   0.267  1.00  0.00     0.049 A 
ATOM     15  C   UNL     1       6.145  -0.325   2.457  1.00  0.00     0.084 A 
ATOM     16  C   UNL     1       7.260  -0.174   1.626  1.00  0.00     0.028 A 
ATOM     17  Cl  UNL     1       6.316   0.137   4.116  1.00  0.00    -0.080 Cl
BRANCH   9  18
ATOM     18  C   UNL     1       4.449  -2.383  -3.030  1.00  0.00     0.429 C 
ATOM     19  F   UNL     1       3.168  -2.609  -3.403  1.00  0.00    -0.167 F 
ATOM     20  F   UNL     1       5.200  -2.427  -4.157  1.00  0.00    -0.167 F 
ATOM     21  F   UNL     1       4.825  -3.428  -2.253  1.00  0.00    -0.167 F 
ENDBRANCH   9  18
BRANCH  13  22
ATOM     22  O   UNL     1       3.866  -0.789   2.861  1.00  0.00    -0.455 OA
BRANCH  22  23
ATOM     23  C   UNL     1       2.755  -1.550   2.602  1.00  0.00     0.127 A 
ATOM     24  C   UNL     1       1.570  -0.889   2.269  1.00  0.00     0.047 A 
ATOM     25  C   UNL     1       2.805  -2.944   2.647  1.00  0.00     0.047 A 
ATOM     26  C   UNL     1       0.459  -1.629   1.867  1.00  0.00     0.004 A 
ATOM     27  C   UNL     1       1.686  -3.680   2.254  1.00  0.00     0.004 A 
ATOM     28  C   UNL     1       0.522  -3.023   1.846  1.00  0.00     0.000 A 
ENDBRANCH  22  23
ENDBRANCH  13  22
ENDBRANCH   5   7
ENDBRANCH   2   3
ENDBRANCH   1   2
BRANCH   1  29
ATOM     29  C   UNL     1       4.065   4.524   0.337  1.00  0.00     0.023 C 
BRANCH  29  30
ATOM     30  C   UNL     1       4.538   4.324   1.779  1.00  0.00     0.116 C 
BRANCH  30  31
ATOM     31  N   UNL     1       5.964   4.070   1.916  1.00  0.00    -0.352 N 
ATOM     32  C   UNL     1       6.878   4.626   2.784  1.00  0.00     0.251 C 
ATOM     33  H   UNL     1       6.330   3.399   1.296  1.00  0.00     0.163 HD
ATOM     34  O   UNL     1       8.060   4.301   2.711  1.00  0.00    -0.269 OA
BRANCH  32  35
ATOM     35  C   UNL     1       6.459   5.662   3.758  1.00  0.00     0.039 A 
ATOM     36  C   UNL     1       7.219   6.833   3.852  1.00  0.00     0.014 A 
ATOM     37  C   UNL     1       5.313   5.514   4.543  1.00  0.00     0.014 A 
ATOM     38  C   UNL     1       6.766   7.896   4.637  1.00  0.00     0.010 A 
ATOM     39  C   UNL     1       4.826   6.599   5.275  1.00  0.00     0.010 A 
ATOM     40  C   UNL     1       5.533   7.811   5.304  1.00  0.00    -0.014 A 
BRANCH  40  41
ATOM     41  C   UNL     1       4.937   9.012   5.947  1.00  0.00     0.031 A 
ATOM     42  C   UNL     1       4.729   9.085   7.432  1.00  0.00     0.074 A 
ATOM     43  C   UNL     1       4.515  10.027   5.167  1.00  0.00     0.049 A 
ATOM     44  N   UNL     1       4.230  10.063   8.146  1.00  0.00    -0.248 NA
ATOM     45  C   UNL     1       5.103   7.898   8.214  1.00  0.00     0.031 C 
ATOM     46  C   UNL     1       4.583  10.054   3.703  1.00  0.00     0.029 A 
ATOM     47  N   UNL     1       3.944  11.232   5.493  1.00  0.00    -0.354 N 
ATOM     48  C   UNL     1       4.217   9.608   9.457  1.00  0.00     0.074 A 
ATOM     49  C   UNL     1       4.723   8.251   9.435  1.00  0.00     0.031 C 
ATOM     50  C   UNL     1       4.110  11.231   3.263  1.00  0.00     0.029 A 
ATOM     51  C   UNL     1       3.686  12.031   4.407  1.00  0.00     0.049 A 
ATOM     52  H   UNL     1       3.738  11.497   6.419  1.00  0.00     0.167 HD
ATOM     53  C   UNL     1       3.836  10.265  10.579  1.00  0.00     0.037 A 
ATOM     54  C   UNL     1       3.180  13.276   4.337  1.00  0.00     0.037 A 
ATOM     55  C   UNL     1       3.362  11.624  10.613  1.00  0.00     0.049 A 
ATOM     56  C   UNL     1       2.808  13.999   5.597  1.00  0.00     0.074 A 
ATOM     57  C   UNL     1       3.039  12.399  11.714  1.00  0.00     0.029 A 
ATOM     58  N   UNL     1       3.139  12.410   9.494  1.00  0.00    -0.354 N 
ATOM     59  N   UNL     1       2.890  13.588   6.838  1.00  0.00    -0.248 NA
ATOM     60  C   UNL     1       2.283  15.364   5.446  1.00  0.00     0.031 C 
ATOM     61  C   UNL     1       2.595  13.646  11.259  1.00  0.00     0.029 A 
ATOM     62  C   UNL     1       2.667  13.656   9.876  1.00  0.00     0.049 A 
ATOM     63  H   UNL     1       3.294  12.126   8.564  1.00  0.00     0.167 HD
ATOM     64  C   UNL     1       2.445  14.647   7.617  1.00  0.00     0.074 A 
ATOM     65  C   UNL     1       2.106  15.724   6.710  1.00  0.00     0.031 C 
ATOM     66  C   UNL     1       2.330  14.718   8.965  1.00  0.00     0.037 A 
BRANCH  53  67
ATOM     67  C   UNL     1       3.927   9.515  11.874  1.00  0.00     0.057 A 
ATOM     68  C   UNL     1       5.159   9.265  12.492  1.00  0.00     0.134 A 
ATOM     69  C   UNL     1       2.772   9.061  12.522  1.00  0.00     0.134 A 
ATOM     70  F   UNL     1       6.302   9.665  11.915  1.00  0.00    -0.206 F 
ATOM     71  C   UNL     1       5.241   8.568  13.698  1.00  0.00     0.040 A 
ATOM     72  C   UNL     1       2.840   8.380  13.738  1.00  0.00     0.040 A 
ATOM     73  F   UNL     1       1.561   9.274  11.985  1.00  0.00    -0.206 F 
ATOM     74  C   UNL     1       4.077   8.127  14.327  1.00  0.00     0.006 A 
ENDBRANCH  53  67
BRANCH  54  75
ATOM     75  C   UNL     1       3.048  13.943   3.020  1.00  0.00     0.057 A 
ATOM     76  C   UNL     1       3.952  14.939   2.632  1.00  0.00     0.134 A 
ATOM     77  C   UNL     1       2.030  13.604   2.124  1.00  0.00     0.134 A 
ATOM     78  F   UNL     1       4.937  15.315   3.461  1.00  0.00    -0.206 F 
ATOM     79  C   UNL     1       3.842  15.583   1.401  1.00  0.00     0.040 A 
ATOM     80  C   UNL     1       1.918  14.229   0.881  1.00  0.00     0.040 A 
ATOM     81  F   UNL     1       1.139  12.653   2.439  1.00  0.00    -0.206 F 
ATOM     82  C   UNL     1       2.824  15.225   0.519  1.00  0.00     0.006 A 
ENDBRANCH  54  75
BRANCH  66  83
ATOM     83  C   UNL     1       1.832  16.011   9.534  1.00  0.00     0.057 A 
ATOM     84  C   UNL     1       0.479  16.367   9.472  1.00  0.00     0.134 A 
ATOM     85  C   UNL     1       2.711  16.904  10.159  1.00  0.00     0.134 A 
ATOM     86  F   UNL     1      -0.409  15.561   8.871  1.00  0.00    -0.206 F 
ATOM     87  C   UNL     1       0.021  17.578   9.994  1.00  0.00     0.040 A 
ATOM     88  C   UNL     1       2.262  18.109  10.700  1.00  0.00     0.040 A 
ATOM     89  F   UNL     1       4.019  16.619  10.251  1.00  0.00    -0.206 F 
ATOM     90  C   UNL     1       0.913  18.451  10.614  1.00  0.00     0.006 A 
ENDBRANCH  66  83
ENDBRANCH  40  41
ENDBRANCH  32  35
ENDBRANCH  30  31
ENDBRANCH  29  30
ENDBRANCH   1  29
TORSDOF 14
