REMARK SMILES CC1=C(CCC(=O)NCCCCNC(=O)c2ccc(-c3c4nc(c(-c5c(F)cccc5F)c5ccc([nH]5)c(-c5c(F)cccc5F)c5nc(c(-c6c(F)cccc6F)c6ccc3[nH]6)C=C5)C=C4)cc2)N=N[C@H]1C
REMARK SMILES IDX 10 1 9 2 8 3 6 4 7 5 5 7 4 8 3 9 1 10 2 11 72 12 70 13 71 14
REMARK SMILES IDX 73 15 11 16 12 17 13 18 14 19 15 21 16 22 17 23 69 24 18 25
REMARK SMILES IDX 68 26 19 27 20 28 21 29 62 30 22 31 67 32 61 33 63 34 23 35
REMARK SMILES IDX 66 36 60 37 59 38 24 40 50 41 33 42 49 43 34 44 37 45 48 46
REMARK SMILES IDX 64 47 35 48 36 49 47 51 65 52 38 53 25 54 26 55 31 56 27 57
REMARK SMILES IDX 28 58 30 59 32 60 29 61 51 62 52 63 57 64 53 65 54 66 56 67
REMARK SMILES IDX 58 68 55 69 39 70 40 71 45 72 41 73 42 74 44 75 46 76 43 77
REMARK H PARENT 8 6 13 20 63 39 37 50
REMARK Flexibility Score: inf
ROOT
ATOM      1  C   UNL     1      -0.377  -1.448   4.324  1.00  0.00     0.023 C 
ENDROOT
BRANCH   1   2
ATOM      2  C   UNL     1       1.116  -1.787   4.219  1.00  0.00     0.116 C 
BRANCH   2   3
ATOM      3  N   UNL     1       1.317  -3.207   4.005  1.00  0.00    -0.356 N 
ATOM      4  C   UNL     1       1.608  -3.886   2.858  1.00  0.00     0.220 C 
ATOM      5  O   UNL     1       1.554  -5.118   2.889  1.00  0.00    -0.275 OA
ATOM      6  H   UNL     1       1.231  -3.767   4.810  1.00  0.00     0.163 HD
BRANCH   4   7
ATOM      7  C   UNL     1       2.057  -3.166   1.594  1.00  0.00     0.106 C 
BRANCH   7   8
ATOM      8  C   UNL     1       0.948  -2.865   0.575  1.00  0.00     0.068 C 
BRANCH   8   9
ATOM      9  C   UNL     1       0.360  -1.494   0.722  1.00  0.00     0.064 C 
ATOM     10  C   UNL     1       1.859   0.007  -0.728  1.00  0.00     0.044 C 
ATOM     11  C   UNL     1       0.794  -0.324   0.241  1.00  0.00    -0.024 C 
ATOM     12  C   UNL     1      -0.071   0.712   0.875  1.00  0.00     0.153 C 
ATOM     13  N   UNL     1      -0.807  -1.344   1.423  1.00  0.00    -0.160 NA
ATOM     14  N   UNL     1      -1.111  -0.123   1.526  1.00  0.00    -0.181 NA
ATOM     15  C   UNL     1       0.673   1.510   1.946  1.00  0.00     0.040 C 
ENDBRANCH   8   9
ENDBRANCH   7   8
ENDBRANCH   4   7
ENDBRANCH   2   3
ENDBRANCH   1   2
BRANCH   1  16
ATOM     16  C   UNL     1      -1.032  -1.462   5.703  1.00  0.00     0.023 C 
BRANCH  16  17
ATOM     17  C   UNL     1      -0.603  -0.305   6.590  1.00  0.00     0.116 C 
BRANCH  17  18
ATOM     18  N   UNL     1      -0.927   1.029   6.056  1.00  0.00    -0.352 N 
ATOM     19  C   UNL     1      -0.540   2.270   6.567  1.00  0.00     0.251 C 
ATOM     20  H   UNL     1      -1.482   1.048   5.243  1.00  0.00     0.163 HD
ATOM     21  O   UNL     1      -1.071   3.309   6.255  1.00  0.00    -0.269 OA
BRANCH  19  22
ATOM     22  C   UNL     1       0.614   2.256   7.482  1.00  0.00     0.039 A 
ATOM     23  C   UNL     1       0.582   2.793   8.774  1.00  0.00     0.014 A 
ATOM     24  C   UNL     1       1.668   1.475   7.039  1.00  0.00     0.014 A 
ATOM     25  C   UNL     1       1.592   2.429   9.664  1.00  0.00     0.010 A 
ATOM     26  C   UNL     1       2.463   0.907   7.983  1.00  0.00     0.010 A 
ATOM     27  C   UNL     1       2.513   1.456   9.259  1.00  0.00    -0.014 A 
BRANCH  27  28
ATOM     28  C   UNL     1       3.519   0.877  10.133  1.00  0.00     0.031 A 
ATOM     29  C   UNL     1       2.992   0.152  11.319  1.00  0.00     0.074 A 
ATOM     30  C   UNL     1       4.781   0.707   9.676  1.00  0.00     0.049 A 
ATOM     31  N   UNL     1       3.099   0.488  12.561  1.00  0.00    -0.248 NA
ATOM     32  C   UNL     1       2.106  -1.004  11.097  1.00  0.00     0.031 C 
ATOM     33  C   UNL     1       5.333   1.042   8.352  1.00  0.00     0.029 A 
ATOM     34  N   UNL     1       5.805   0.032  10.256  1.00  0.00    -0.354 N 
ATOM     35  C   UNL     1       2.512  -0.547  13.288  1.00  0.00     0.074 A 
ATOM     36  C   UNL     1       1.715  -1.281  12.343  1.00  0.00     0.031 C 
ATOM     37  C   UNL     1       6.471   0.348   8.144  1.00  0.00     0.029 A 
ATOM     38  C   UNL     1       6.828  -0.318   9.377  1.00  0.00     0.049 A 
ATOM     39  H   UNL     1       5.823  -0.192  11.214  1.00  0.00     0.167 HD
ATOM     40  C   UNL     1       2.968  -0.876  14.533  1.00  0.00     0.037 A 
ATOM     41  C   UNL     1       7.860  -1.147   9.665  1.00  0.00     0.037 A 
ATOM     42  C   UNL     1       3.848   0.159  15.035  1.00  0.00     0.049 A 
ATOM     43  C   UNL     1       7.959  -1.202  11.152  1.00  0.00     0.074 A 
ATOM     44  C   UNL     1       3.728   1.522  15.238  1.00  0.00     0.029 A 
ATOM     45  N   UNL     1       5.202  -0.088  15.011  1.00  0.00    -0.354 N 
ATOM     46  N   UNL     1       8.272  -0.166  11.888  1.00  0.00    -0.248 NA
ATOM     47  C   UNL     1       7.194  -2.238  11.832  1.00  0.00     0.031 C 
ATOM     48  C   UNL     1       4.968   2.065  14.782  1.00  0.00     0.029 A 
ATOM     49  C   UNL     1       5.802   1.001  14.433  1.00  0.00     0.049 A 
ATOM     50  H   UNL     1       5.655  -0.895  15.345  1.00  0.00     0.167 HD
ATOM     51  C   UNL     1       7.400  -0.215  12.969  1.00  0.00     0.074 A 
ATOM     52  C   UNL     1       6.800  -1.550  12.909  1.00  0.00     0.031 C 
ATOM     53  C   UNL     1       6.997   0.918  13.621  1.00  0.00     0.037 A 
BRANCH  40  54
ATOM     54  C   UNL     1       2.986  -2.274  15.126  1.00  0.00     0.057 A 
ATOM     55  C   UNL     1       3.500  -2.441  16.429  1.00  0.00     0.134 A 
ATOM     56  C   UNL     1       2.820  -3.473  14.405  1.00  0.00     0.134 A 
ATOM     57  F   UNL     1       3.675  -1.388  17.242  1.00  0.00    -0.206 F 
ATOM     58  C   UNL     1       3.944  -3.676  16.916  1.00  0.00     0.040 A 
ATOM     59  C   UNL     1       3.216  -4.720  14.902  1.00  0.00     0.040 A 
ATOM     60  F   UNL     1       2.354  -3.515  13.154  1.00  0.00    -0.206 F 
ATOM     61  C   UNL     1       3.822  -4.820  16.142  1.00  0.00     0.006 A 
ENDBRANCH  40  54
BRANCH  41  62
ATOM     62  C   UNL     1       8.504  -2.123   8.754  1.00  0.00     0.057 A 
ATOM     63  C   UNL     1       9.735  -2.713   9.066  1.00  0.00     0.134 A 
ATOM     64  C   UNL     1       7.813  -2.688   7.663  1.00  0.00     0.134 A 
ATOM     65  F   UNL     1      10.449  -2.279  10.115  1.00  0.00    -0.206 F 
ATOM     66  C   UNL     1      10.245  -3.803   8.344  1.00  0.00     0.040 A 
ATOM     67  C   UNL     1       8.313  -3.769   6.930  1.00  0.00     0.040 A 
ATOM     68  F   UNL     1       6.588  -2.262   7.321  1.00  0.00    -0.206 F 
ATOM     69  C   UNL     1       9.530  -4.339   7.277  1.00  0.00     0.006 A 
ENDBRANCH  41  62
BRANCH  53  70
ATOM     70  C   UNL     1       7.667   2.229  13.297  1.00  0.00     0.057 A 
ATOM     71  C   UNL     1       7.627   2.847  12.037  1.00  0.00     0.134 A 
ATOM     72  C   UNL     1       8.189   2.992  14.347  1.00  0.00     0.134 A 
ATOM     73  F   UNL     1       7.058   2.248  10.988  1.00  0.00    -0.206 F 
ATOM     74  C   UNL     1       8.107   4.145  11.827  1.00  0.00     0.040 A 
ATOM     75  C   UNL     1       8.642   4.300  14.160  1.00  0.00     0.040 A 
ATOM     76  F   UNL     1       8.207   2.497  15.595  1.00  0.00    -0.206 F 
ATOM     77  C   UNL     1       8.608   4.880  12.895  1.00  0.00     0.006 A 
ENDBRANCH  53  70
ENDBRANCH  27  28
ENDBRANCH  19  22
ENDBRANCH  17  18
ENDBRANCH  16  17
ENDBRANCH   1  16
TORSDOF 13
