REMARK SMILES C#Cc1cccc(NS(=O)(=O)c2cc(C)c(C(=O)NCCCCNC(=O)c3ccc(-c4c5nc(c(-c6c(F)cccc6F)c6ccc([nH]6)c(-c6c(F)cccc6F)c6nc(c(-c7c(F)cccc7F)c7ccc4[nH]7)C=C6)C=C5)cc3)s2)c1
REMARK SMILES IDX 20 1 19 2 17 3 18 4 16 6 12 7 13 8 81 9 14 10 15 11 9 12
REMARK SMILES IDX 10 13 11 14 8 15 7 17 3 18 4 19 82 20 5 21 6 22 2 23 1 24
REMARK SMILES IDX 21 25 22 26 23 27 24 28 25 29 26 31 27 32 28 33 80 34 29 35
REMARK SMILES IDX 79 36 30 37 31 38 32 39 73 40 33 41 78 42 72 43 74 44 34 45
REMARK SMILES IDX 77 46 71 47 70 48 35 50 61 51 44 52 60 53 45 54 48 55 59 56
REMARK SMILES IDX 75 57 46 58 47 59 58 61 76 62 49 63 36 64 37 65 42 66 38 67
REMARK SMILES IDX 39 68 41 69 43 70 40 71 62 72 63 73 68 74 64 75 65 76 67 77
REMARK SMILES IDX 69 78 66 79 50 80 51 81 56 82 52 83 53 84 55 85 57 86 54 87
REMARK H PARENT 19 5 8 16 24 30 74 49 48 60
REMARK Flexibility Score: inf
ROOT
ATOM      1  C   UNL     1       6.101   4.556  -0.013  1.00  0.00     0.116 C 
ENDROOT
BRANCH   1   2
ATOM      2  N   UNL     1       7.010   3.558   0.471  1.00  0.00    -0.351 N 
ATOM      3  C   UNL     1       6.945   2.194   0.569  1.00  0.00     0.261 C 
ATOM      4  O   UNL     1       7.971   1.715   1.068  1.00  0.00    -0.268 OA
ATOM      5  H   UNL     1       7.857   3.932   0.803  1.00  0.00     0.163 HD
BRANCH   3   6
ATOM      6  C   UNL     1       5.823   1.364   0.100  1.00  0.00     0.096 A 
ATOM      7  C   UNL     1       4.562  -0.772  -0.281  1.00  0.00     0.141 A 
ATOM      8  C   UNL     1       4.037   0.298  -0.964  1.00  0.00     0.038 A 
ATOM      9  S   UNL     1       6.099  -0.360   0.311  1.00  0.00    -0.116 S 
ATOM     10  C   UNL     1       4.523   1.529  -0.391  1.00  0.00    -0.026 A 
ATOM     11  C   UNL     1       3.572   2.675  -0.324  1.00  0.00     0.046 C 
BRANCH   7  12
ATOM     12  S   UNL     1       3.948  -2.402   0.052  1.00  0.00     0.271 S 
ATOM     13  O   UNL     1       4.541  -2.815   1.306  1.00  0.00    -0.200 OA
ATOM     14  O   UNL     1       4.192  -3.135  -1.173  1.00  0.00    -0.200 OA
BRANCH  12  15
ATOM     15  N   UNL     1       2.268  -2.457   0.278  1.00  0.00    -0.279 N 
ATOM     16  H   UNL     1       1.856  -3.347   0.366  1.00  0.00     0.180 HD
BRANCH  15  17
ATOM     17  C   UNL     1       1.398  -1.325   0.351  1.00  0.00     0.050 A 
ATOM     18  C   UNL     1      -0.816  -0.396  -0.050  1.00  0.00     0.026 A 
ATOM     19  C   UNL     1      -0.386   0.845   0.412  1.00  0.00     0.017 A 
ATOM     20  C   UNL     1       0.079  -1.473  -0.105  1.00  0.00     0.044 A 
ATOM     21  C   UNL     1       0.876   0.961   0.978  1.00  0.00     0.003 A 
ATOM     22  C   UNL     1       1.737  -0.141   1.006  1.00  0.00     0.027 A 
BRANCH  18  23
ATOM     23  C   UNL     1      -2.212  -0.545  -0.333  1.00  0.00    -0.070 C 
ATOM     24  C   UNL     1      -3.408  -0.563  -0.413  1.00  0.00     0.010 C 
ENDBRANCH  18  23
ENDBRANCH  15  17
ENDBRANCH  12  15
ENDBRANCH   7  12
ENDBRANCH   3   6
ENDBRANCH   1   2
BRANCH   1  25
ATOM     25  C   UNL     1       5.179   5.042   1.111  1.00  0.00     0.023 C 
BRANCH  25  26
ATOM     26  C   UNL     1       5.537   6.439   1.603  1.00  0.00     0.023 C 
BRANCH  26  27
ATOM     27  C   UNL     1       5.304   7.512   0.550  1.00  0.00     0.116 C 
BRANCH  27  28
ATOM     28  N   UNL     1       3.898   7.747   0.253  1.00  0.00    -0.352 N 
ATOM     29  C   UNL     1       3.305   8.948  -0.065  1.00  0.00     0.251 C 
ATOM     30  H   UNL     1       3.307   6.960   0.282  1.00  0.00     0.163 HD
ATOM     31  O   UNL     1       2.092   9.037  -0.208  1.00  0.00    -0.269 OA
BRANCH  29  32
ATOM     32  C   UNL     1       4.167  10.144  -0.171  1.00  0.00     0.039 A 
ATOM     33  C   UNL     1       3.862  11.264   0.601  1.00  0.00     0.014 A 
ATOM     34  C   UNL     1       5.336  10.103  -0.937  1.00  0.00     0.014 A 
ATOM     35  C   UNL     1       4.773  12.319   0.662  1.00  0.00     0.010 A 
ATOM     36  C   UNL     1       6.285  11.108  -0.792  1.00  0.00     0.010 A 
ATOM     37  C   UNL     1       6.013  12.229   0.005  1.00  0.00    -0.014 A 
BRANCH  37  38
ATOM     38  C   UNL     1       7.032  13.302   0.140  1.00  0.00     0.031 A 
ATOM     39  C   UNL     1       7.497  14.055  -1.076  1.00  0.00     0.074 A 
ATOM     40  C   UNL     1       7.570  13.569   1.347  1.00  0.00     0.049 A 
ATOM     41  N   UNL     1       8.402  14.995  -1.169  1.00  0.00    -0.248 NA
ATOM     42  C   UNL     1       6.882  13.688  -2.362  1.00  0.00     0.031 C 
ATOM     43  C   UNL     1       7.240  12.878   2.595  1.00  0.00     0.029 A 
ATOM     44  N   UNL     1       8.514  14.493   1.722  1.00  0.00    -0.354 N 
ATOM     45  C   UNL     1       8.465  15.326  -2.517  1.00  0.00     0.074 A 
ATOM     46  C   UNL     1       7.561  14.440  -3.214  1.00  0.00     0.031 C 
ATOM     47  C   UNL     1       7.943  13.424   3.600  1.00  0.00     0.029 A 
ATOM     48  C   UNL     1       8.811  14.467   3.064  1.00  0.00     0.049 A 
ATOM     49  H   UNL     1       8.939  15.116   1.089  1.00  0.00     0.167 HD
ATOM     50  C   UNL     1       9.188  16.302  -3.116  1.00  0.00     0.037 A 
ATOM     51  C   UNL     1       9.691  15.194   3.779  1.00  0.00     0.037 A 
ATOM     52  C   UNL     1      10.081  17.189  -2.419  1.00  0.00     0.049 A 
ATOM     53  C   UNL     1      10.514  16.243   3.080  1.00  0.00     0.074 A 
ATOM     54  C   UNL     1      10.825  18.236  -2.931  1.00  0.00     0.029 A 
ATOM     55  N   UNL     1      10.357  17.127  -1.061  1.00  0.00    -0.354 N 
ATOM     56  N   UNL     1      10.509  16.593   1.816  1.00  0.00    -0.248 NA
ATOM     57  C   UNL     1      11.461  17.003   3.907  1.00  0.00     0.031 C 
ATOM     58  C   UNL     1      11.603  18.765  -1.898  1.00  0.00     0.029 A 
ATOM     59  C   UNL     1      11.286  18.098  -0.725  1.00  0.00     0.049 A 
ATOM     60  H   UNL     1       9.953  16.488  -0.430  1.00  0.00     0.167 HD
ATOM     61  C   UNL     1      11.422  17.634   1.705  1.00  0.00     0.074 A 
ATOM     62  C   UNL     1      11.947  17.871   3.033  1.00  0.00     0.031 C 
ATOM     63  C   UNL     1      11.793  18.331   0.603  1.00  0.00     0.037 A 
BRANCH  50  64
ATOM     64  C   UNL     1       9.041  16.462  -4.603  1.00  0.00     0.057 A 
ATOM     65  C   UNL     1       7.852  16.923  -5.185  1.00  0.00     0.134 A 
ATOM     66  C   UNL     1      10.118  16.199  -5.460  1.00  0.00     0.134 A 
ATOM     67  F   UNL     1       6.778  17.183  -4.424  1.00  0.00    -0.206 F 
ATOM     68  C   UNL     1       7.731  17.092  -6.565  1.00  0.00     0.040 A 
ATOM     69  C   UNL     1      10.020  16.396  -6.838  1.00  0.00     0.040 A 
ATOM     70  F   UNL     1      11.287  15.761  -4.970  1.00  0.00    -0.206 F 
ATOM     71  C   UNL     1       8.821  16.837  -7.395  1.00  0.00     0.006 A 
ENDBRANCH  50  64
BRANCH  51  72
ATOM     72  C   UNL     1       9.849  14.960   5.240  1.00  0.00     0.057 A 
ATOM     73  C   UNL     1       9.505  15.943   6.176  1.00  0.00     0.134 A 
ATOM     74  C   UNL     1      10.385  13.764   5.734  1.00  0.00     0.134 A 
ATOM     75  F   UNL     1       9.003  17.118   5.768  1.00  0.00    -0.206 F 
ATOM     76  C   UNL     1       9.719  15.761   7.544  1.00  0.00     0.040 A 
ATOM     77  C   UNL     1      10.573  13.555   7.101  1.00  0.00     0.040 A 
ATOM     78  F   UNL     1      10.728  12.777   4.894  1.00  0.00    -0.206 F 
ATOM     79  C   UNL     1      10.252  14.561   8.010  1.00  0.00     0.006 A 
ENDBRANCH  51  72
BRANCH  63  80
ATOM     80  C   UNL     1      12.779  19.450   0.790  1.00  0.00     0.057 A 
ATOM     81  C   UNL     1      14.120  19.217   1.124  1.00  0.00     0.134 A 
ATOM     82  C   UNL     1      12.386  20.782   0.594  1.00  0.00     0.134 A 
ATOM     83  F   UNL     1      14.561  17.968   1.336  1.00  0.00    -0.206 F 
ATOM     84  C   UNL     1      15.025  20.268   1.286  1.00  0.00     0.040 A 
ATOM     85  C   UNL     1      13.290  21.837   0.717  1.00  0.00     0.040 A 
ATOM     86  F   UNL     1      11.121  21.077   0.260  1.00  0.00    -0.206 F 
ATOM     87  C   UNL     1      14.612  21.582   1.073  1.00  0.00     0.006 A 
ENDBRANCH  63  80
ENDBRANCH  37  38
ENDBRANCH  29  32
ENDBRANCH  27  28
ENDBRANCH  26  27
ENDBRANCH  25  26
ENDBRANCH   1  25
TORSDOF 15
