REMARK SMILES CCCCCNC(=O)Oc1cccc(-c2ccc([C@@H](C)C(=O)NCCCCNC(=O)c3ccc(-c4c5nc(c(-c6c(F)cccc6F)c6ccc([nH]6)c(-c6c(F)cccc6F)c6nc(c(-c7c(F)cccc7F)c7ccc4[nH]7)C=C6)C=C5)cc3)cc2F)c1
REMARK SMILES IDX 19 1 20 2 18 3 15 4 16 5 86 6 17 7 85 8 87 9 14 10 10 11
REMARK SMILES IDX 11 12 88 13 12 14 13 15 9 16 7 17 6 18 8 20 5 21 4 22 3 23
REMARK SMILES IDX 2 24 1 25 21 26 22 27 23 28 24 30 25 31 26 32 27 33 28 34
REMARK SMILES IDX 29 35 30 37 31 38 32 39 84 40 33 41 83 42 34 43 35 44 36 45
REMARK SMILES IDX 77 46 37 47 82 48 76 49 78 50 38 51 81 52 75 53 74 54 39 56
REMARK SMILES IDX 65 57 48 58 64 59 49 60 52 61 63 62 79 63 50 64 51 65 62 67
REMARK SMILES IDX 80 68 53 69 40 70 41 71 46 72 42 73 43 74 45 75 47 76 44 77
REMARK SMILES IDX 66 78 67 79 72 80 68 81 69 82 71 83 73 84 70 85 54 86 55 87
REMARK SMILES IDX 60 88 56 89 57 90 59 91 61 92 58 93
REMARK H PARENT 6 19 23 29 28 36 78 55 52 66
REMARK Flexibility Score: inf
ROOT
ATOM      1  C   UNL     1      -2.184 -11.226   8.126  1.00  0.00     0.105 C 
ATOM      2  C   UNL     1      -2.668 -11.756   9.476  1.00  0.00     0.023 C 
ENDROOT
BRANCH   1   3
ATOM      3  C   UNL     1      -2.528  -9.778   7.818  1.00  0.00    -0.033 A 
ATOM      4  C   UNL     1      -3.165  -7.103   6.996  1.00  0.00     0.018 A 
ATOM      5  C   UNL     1      -4.099  -7.924   7.653  1.00  0.00     0.012 A 
ATOM      6  C   UNL     1      -1.885  -7.651   6.817  1.00  0.00     0.131 A 
ATOM      7  C   UNL     1      -3.775  -9.214   8.092  1.00  0.00     0.005 A 
ATOM      8  C   UNL     1      -1.576  -8.962   7.192  1.00  0.00     0.044 A 
ATOM      9  F   UNL     1      -0.897  -6.923   6.272  1.00  0.00    -0.206 F 
BRANCH   4  10
ATOM     10  C   UNL     1      -3.545  -5.750   6.516  1.00  0.00    -0.012 A 
ATOM     11  C   UNL     1      -3.339  -3.908   4.934  1.00  0.00     0.133 A 
ATOM     12  C   UNL     1      -4.312  -3.173   5.601  1.00  0.00     0.047 A 
ATOM     13  C   UNL     1      -2.957  -5.178   5.375  1.00  0.00     0.056 A 
ATOM     14  C   UNL     1      -4.917  -3.720   6.724  1.00  0.00     0.004 A 
ATOM     15  C   UNL     1      -4.528  -4.985   7.181  1.00  0.00     0.009 A 
BRANCH  11  16
ATOM     16  O   UNL     1      -2.655  -3.250   3.898  1.00  0.00    -0.410 OA
BRANCH  16  17
ATOM     17  C   UNL     1      -2.440  -3.901   2.693  1.00  0.00     0.412 C 
ATOM     18  N   UNL     1      -1.616  -3.200   1.856  1.00  0.00    -0.321 N 
ATOM     19  H   UNL     1      -1.441  -3.595   0.971  1.00  0.00     0.167 HD
ATOM     20  O   UNL     1      -2.919  -4.977   2.358  1.00  0.00    -0.224 OA
BRANCH  18  21
ATOM     21  C   UNL     1      -0.974  -1.932   2.143  1.00  0.00     0.119 C 
BRANCH  21  22
ATOM     22  C   UNL     1       0.550  -2.035   2.093  1.00  0.00     0.021 C 
BRANCH  22  23
ATOM     23  C   UNL     1       1.130  -2.370   0.714  1.00  0.00     0.002 C 
BRANCH  23  24
ATOM     24  C   UNL     1       0.728  -1.425  -0.421  1.00  0.00    -0.003 C 
ATOM     25  C   UNL     1       1.129   0.022  -0.178  1.00  0.00     0.004 C 
ENDBRANCH  23  24
ENDBRANCH  22  23
ENDBRANCH  21  22
ENDBRANCH  18  21
ENDBRANCH  16  17
ENDBRANCH  11  16
ENDBRANCH   4  10
ENDBRANCH   1   3
BRANCH   1  26
ATOM     26  C   UNL     1      -2.447 -12.183   6.952  1.00  0.00     0.227 C 
ATOM     27  O   UNL     1      -1.496 -12.661   6.322  1.00  0.00    -0.274 OA
ATOM     28  N   UNL     1      -3.690 -12.566   6.548  1.00  0.00    -0.356 N 
ATOM     29  H   UNL     1      -3.692 -13.234   5.824  1.00  0.00     0.163 HD
BRANCH  28  30
ATOM     30  C   UNL     1      -5.009 -12.168   6.993  1.00  0.00     0.116 C 
BRANCH  30  31
ATOM     31  C   UNL     1      -5.598 -11.055   6.126  1.00  0.00     0.023 C 
BRANCH  31  32
ATOM     32  C   UNL     1      -6.347 -11.533   4.885  1.00  0.00     0.023 C 
BRANCH  32  33
ATOM     33  C   UNL     1      -7.577 -12.385   5.164  1.00  0.00     0.116 C 
BRANCH  33  34
ATOM     34  N   UNL     1      -8.597 -11.725   5.971  1.00  0.00    -0.352 N 
ATOM     35  C   UNL     1      -9.959 -11.928   5.923  1.00  0.00     0.251 C 
ATOM     36  H   UNL     1      -8.276 -11.059   6.622  1.00  0.00     0.163 HD
ATOM     37  O   UNL     1     -10.729 -11.270   6.612  1.00  0.00    -0.269 OA
BRANCH  35  38
ATOM     38  C   UNL     1     -10.472 -12.934   4.973  1.00  0.00     0.039 A 
ATOM     39  C   UNL     1     -11.352 -12.530   3.967  1.00  0.00     0.014 A 
ATOM     40  C   UNL     1      -9.955 -14.230   4.997  1.00  0.00     0.014 A 
ATOM     41  C   UNL     1     -11.641 -13.408   2.920  1.00  0.00     0.010 A 
ATOM     42  C   UNL     1     -10.178 -15.069   3.914  1.00  0.00     0.010 A 
ATOM     43  C   UNL     1     -11.012 -14.661   2.859  1.00  0.00    -0.014 A 
BRANCH  43  44
ATOM     44  C   UNL     1     -11.183 -15.571   1.699  1.00  0.00     0.031 A 
ATOM     45  C   UNL     1     -11.772 -16.936   1.910  1.00  0.00     0.074 A 
ATOM     46  C   UNL     1     -10.689 -15.226   0.494  1.00  0.00     0.049 A 
ATOM     47  N   UNL     1     -11.846 -17.944   1.080  1.00  0.00    -0.248 NA
ATOM     48  C   UNL     1     -12.307 -17.217   3.251  1.00  0.00     0.031 C 
ATOM     49  C   UNL     1     -10.036 -13.955   0.176  1.00  0.00     0.029 A 
ATOM     50  N   UNL     1     -10.632 -15.932  -0.682  1.00  0.00    -0.354 N 
ATOM     51  C   UNL     1     -12.397 -18.989   1.810  1.00  0.00     0.074 A 
ATOM     52  C   UNL     1     -12.595 -18.506   3.159  1.00  0.00     0.031 C 
ATOM     53  C   UNL     1      -9.647 -13.970  -1.109  1.00  0.00     0.029 A 
ATOM     54  C   UNL     1      -9.987 -15.264  -1.694  1.00  0.00     0.049 A 
ATOM     55  H   UNL     1     -11.017 -16.832  -0.789  1.00  0.00     0.167 HD
ATOM     56  C   UNL     1     -12.723 -20.234   1.389  1.00  0.00     0.037 A 
ATOM     57  C   UNL     1      -9.684 -15.657  -2.946  1.00  0.00     0.037 A 
ATOM     58  C   UNL     1     -12.564 -20.693   0.035  1.00  0.00     0.049 A 
ATOM     59  C   UNL     1     -10.092 -17.028  -3.406  1.00  0.00     0.074 A 
ATOM     60  C   UNL     1     -12.951 -21.902  -0.516  1.00  0.00     0.029 A 
ATOM     61  N   UNL     1     -11.966 -19.962  -0.981  1.00  0.00    -0.354 N 
ATOM     62  N   UNL     1     -10.684 -17.982  -2.730  1.00  0.00    -0.248 NA
ATOM     63  C   UNL     1      -9.797 -17.375  -4.803  1.00  0.00     0.031 C 
ATOM     64  C   UNL     1     -12.551 -21.917  -1.856  1.00  0.00     0.029 A 
ATOM     65  C   UNL     1     -11.956 -20.701  -2.151  1.00  0.00     0.049 A 
ATOM     66  H   UNL     1     -11.604 -19.052  -0.883  1.00  0.00     0.167 HD
ATOM     67  C   UNL     1     -10.855 -19.032  -3.622  1.00  0.00     0.074 A 
ATOM     68  C   UNL     1     -10.310 -18.595  -4.891  1.00  0.00     0.031 C 
ATOM     69  C   UNL     1     -11.416 -20.248  -3.409  1.00  0.00     0.037 A 
BRANCH  56  70
ATOM     70  C   UNL     1     -13.277 -21.180   2.413  1.00  0.00     0.057 A 
ATOM     71  C   UNL     1     -14.543 -20.998   2.987  1.00  0.00     0.134 A 
ATOM     72  C   UNL     1     -12.531 -22.288   2.836  1.00  0.00     0.134 A 
ATOM     73  F   UNL     1     -15.303 -19.950   2.637  1.00  0.00    -0.206 F 
ATOM     74  C   UNL     1     -15.028 -21.859   3.973  1.00  0.00     0.040 A 
ATOM     75  C   UNL     1     -13.019 -23.173   3.798  1.00  0.00     0.040 A 
ATOM     76  F   UNL     1     -11.313 -22.525   2.324  1.00  0.00    -0.206 F 
ATOM     77  C   UNL     1     -14.267 -22.952   4.378  1.00  0.00     0.006 A 
ENDBRANCH  56  70
BRANCH  57  78
ATOM     78  C   UNL     1      -8.972 -14.724  -3.855  1.00  0.00     0.057 A 
ATOM     79  C   UNL     1      -9.641 -14.096  -4.911  1.00  0.00     0.134 A 
ATOM     80  C   UNL     1      -7.619 -14.415  -3.671  1.00  0.00     0.134 A 
ATOM     81  F   UNL     1     -10.933 -14.366  -5.147  1.00  0.00    -0.206 F 
ATOM     82  C   UNL     1      -8.988 -13.200  -5.759  1.00  0.00     0.040 A 
ATOM     83  C   UNL     1      -6.959 -13.505  -4.498  1.00  0.00     0.040 A 
ATOM     84  F   UNL     1      -6.926 -14.978  -2.671  1.00  0.00    -0.206 F 
ATOM     85  C   UNL     1      -7.644 -12.896  -5.549  1.00  0.00     0.006 A 
ENDBRANCH  57  78
BRANCH  69  86
ATOM     86  C   UNL     1     -11.504 -21.182  -4.579  1.00  0.00     0.057 A 
ATOM     87  C   UNL     1     -10.381 -21.854  -5.075  1.00  0.00     0.134 A 
ATOM     88  C   UNL     1     -12.742 -21.459  -5.174  1.00  0.00     0.134 A 
ATOM     89  F   UNL     1      -9.165 -21.623  -4.556  1.00  0.00    -0.206 F 
ATOM     90  C   UNL     1     -10.483 -22.760  -6.133  1.00  0.00     0.040 A 
ATOM     91  C   UNL     1     -12.860 -22.380  -6.215  1.00  0.00     0.040 A 
ATOM     92  F   UNL     1     -13.857 -20.854  -4.739  1.00  0.00    -0.206 F 
ATOM     93  C   UNL     1     -11.728 -23.031  -6.699  1.00  0.00     0.006 A 
ENDBRANCH  69  86
ENDBRANCH  43  44
ENDBRANCH  35  38
ENDBRANCH  33  34
ENDBRANCH  32  33
ENDBRANCH  31  32
ENDBRANCH  30  31
ENDBRANCH  28  30
ENDBRANCH   1  26
TORSDOF 19
