REMARK SMILES O=C(NCCCCNC(=O)c1ccc(-c2c3nc(c(-c4c(F)cccc4F)c4ccc([nH]4)c(-c4c(F)cccc4F)c4nc(c(-c5c(F)cccc5F)c5ccc2[nH]5)C=C4)C=C3)cc1)C1=Cc2cc(S(F)(F)(F)(F)F)cc(Br)c2O[C@@H]1C(F)(F)F
REMARK SMILES IDX 6 1 5 2 4 3 3 4 1 5 2 6 65 8 66 9 81 10 67 11 80 12 68 13
REMARK SMILES IDX 79 14 69 15 77 16 76 17 78 18 82 19 83 20 84 21 85 22 70 23
REMARK SMILES IDX 71 24 72 25 73 26 74 27 75 28 7 29 8 30 9 31 10 33 11 34
REMARK SMILES IDX 12 35 64 36 13 37 63 38 14 39 15 40 16 41 57 42 17 43 62 44
REMARK SMILES IDX 56 45 58 46 18 47 61 48 55 49 54 50 19 52 45 53 28 54 44 55
REMARK SMILES IDX 29 56 32 57 43 58 59 59 30 60 31 61 42 63 60 64 33 65 20 66
REMARK SMILES IDX 21 67 26 68 22 69 23 70 25 71 27 72 24 73 46 74 47 75 52 76
REMARK SMILES IDX 48 77 49 78 51 79 53 80 50 81 34 82 35 83 40 84 36 85 37 86
REMARK SMILES IDX 39 87 41 88 38 89
REMARK H PARENT 3 7 8 32 58 51 32 62
REMARK Flexibility Score: inf
ROOT
ATOM      1  C   UNL     1       4.506  -3.180  -1.611  1.00  0.00     0.023 C 
ENDROOT
BRANCH   1   2
ATOM      2  C   UNL     1       5.013  -2.183  -0.582  1.00  0.00     0.023 C 
BRANCH   2   3
ATOM      3  C   UNL     1       4.506  -0.793  -0.932  1.00  0.00     0.116 C 
BRANCH   3   4
ATOM      4  N   UNL     1       3.037  -0.793  -0.932  1.00  0.00    -0.352 N 
ATOM      5  O   UNL     1       1.031   0.093  -0.018  1.00  0.00    -0.270 OA
ATOM      6  C   UNL     1       2.301   0.093  -0.018  1.00  0.00     0.251 C 
ATOM      7  H   UNL     1       2.544  -1.387  -1.544  1.00  0.00     0.163 HD
BRANCH   6   8
ATOM      8  C   UNL     1       3.062   1.010   0.927  1.00  0.00     0.067 C 
ATOM      9  C   UNL     1       4.422   1.010   0.927  1.00  0.00     0.025 C 
ATOM     10  C   UNL     1       2.301   1.927   1.872  1.00  0.00     0.314 C 
ATOM     11  C   UNL     1       5.182   0.093  -0.018  1.00  0.00     0.020 A 
ATOM     12  O   UNL     1       3.745   0.632  -1.833  1.00  0.00    -0.474 OA
ATOM     13  C   UNL     1       6.170  -0.676   0.573  1.00  0.00     0.036 A 
ATOM     14  C   UNL     1       4.867  -0.056  -1.299  1.00  0.00     0.142 A 
ATOM     15  C   UNL     1       6.975  -1.384  -0.350  1.00  0.00     0.109 A 
ATOM     16  C   UNL     1       5.616  -0.870  -2.114  1.00  0.00     0.062 A 
ATOM     17  C   UNL     1       6.645  -1.615  -1.608  1.00  0.00     0.044 A 
ATOM     18  Br  UNL     1       5.204  -0.965  -4.027  1.00  0.00    -0.047 Br
BRANCH  10  19
ATOM     19  C   UNL     1       2.669   3.372   1.579  1.00  0.00     0.429 C 
ATOM     20  F   UNL     1       2.347   3.666   0.323  1.00  0.00    -0.167 F 
ATOM     21  F   UNL     1       2.004   4.174   2.406  1.00  0.00    -0.167 F 
ATOM     22  F   UNL     1       3.976   3.542   1.754  1.00  0.00    -0.167 F 
ENDBRANCH  10  19
BRANCH  15  23
ATOM     23  S   UNL     1       8.568  -2.017   0.233  1.00  0.00     0.310 S 
ATOM     24  F   UNL     1       8.084  -1.975   1.743  1.00  0.00    -0.094 F 
ATOM     25  F   UNL     1       9.071  -0.536   0.426  1.00  0.00    -0.094 F 
ATOM     26  F   UNL     1       9.925  -2.575   0.747  1.00  0.00    -0.094 F 
ATOM     27  F   UNL     1       7.997  -3.488   0.166  1.00  0.00    -0.094 F 
ATOM     28  F   UNL     1       7.147  -1.462  -0.183  1.00  0.00    -0.094 F 
ENDBRANCH  15  23
ENDBRANCH   6   8
ENDBRANCH   3   4
ENDBRANCH   2   3
ENDBRANCH   1   2
BRANCH   1  29
ATOM     29  C   UNL     1       5.013  -2.789  -2.989  1.00  0.00     0.116 C 
BRANCH  29  30
ATOM     30  N   UNL     1       6.483  -2.789  -2.989  1.00  0.00    -0.352 N 
ATOM     31  C   UNL     1       7.218  -3.675  -3.903  1.00  0.00     0.251 C 
ATOM     32  H   UNL     1       6.975  -2.195  -2.377  1.00  0.00     0.163 HD
ATOM     33  O   UNL     1       8.489  -3.675  -3.903  1.00  0.00    -0.269 OA
BRANCH  31  34
ATOM     34  C   UNL     1       6.458  -4.592  -4.848  1.00  0.00     0.039 A 
ATOM     35  C   UNL     1       6.720  -5.947  -4.957  1.00  0.00     0.014 A 
ATOM     36  C   UNL     1       5.438  -4.033  -5.489  1.00  0.00     0.014 A 
ATOM     37  C   UNL     1       6.014  -6.584  -6.005  1.00  0.00     0.010 A 
ATOM     38  C   UNL     1       4.706  -4.754  -6.401  1.00  0.00     0.010 A 
ATOM     39  C   UNL     1       4.948  -6.084  -6.603  1.00  0.00    -0.014 A 
BRANCH  39  40
ATOM     40  C   UNL     1       4.040  -6.941  -7.470  1.00  0.00     0.031 A 
ATOM     41  C   UNL     1       3.929  -6.524  -8.798  1.00  0.00     0.074 A 
ATOM     42  C   UNL     1       3.322  -7.991  -6.926  1.00  0.00     0.049 A 
ATOM     43  N   UNL     1       3.172  -7.058  -9.757  1.00  0.00    -0.248 NA
ATOM     44  C   UNL     1       4.666  -5.387  -9.369  1.00  0.00     0.031 C 
ATOM     45  C   UNL     1       3.434  -8.423  -5.590  1.00  0.00     0.029 A 
ATOM     46  N   UNL     1       2.392  -8.793  -7.551  1.00  0.00    -0.354 N 
ATOM     47  C   UNL     1       3.347  -6.398 -10.904  1.00  0.00     0.074 A 
ATOM     48  C   UNL     1       4.306  -5.310 -10.669  1.00  0.00     0.031 C 
ATOM     49  C   UNL     1       2.576  -9.461  -5.408  1.00  0.00     0.029 A 
ATOM     50  C   UNL     1       1.914  -9.697  -6.628  1.00  0.00     0.049 A 
ATOM     51  H   UNL     1       2.117  -8.730  -8.494  1.00  0.00     0.167 HD
ATOM     52  C   UNL     1       2.747  -6.662 -12.136  1.00  0.00     0.037 A 
ATOM     53  C   UNL     1       0.954 -10.678  -6.820  1.00  0.00     0.037 A 
ATOM     54  C   UNL     1       1.819  -7.671 -12.338  1.00  0.00     0.049 A 
ATOM     55  C   UNL     1       0.310 -10.905  -8.038  1.00  0.00     0.074 A 
ATOM     56  C   UNL     1       1.210  -7.956 -13.576  1.00  0.00     0.029 A 
ATOM     57  N   UNL     1       1.323  -8.559 -11.410  1.00  0.00    -0.354 N 
ATOM     58  N   UNL     1       0.515 -10.271  -9.194  1.00  0.00    -0.248 NA
ATOM     59  C   UNL     1      -0.732 -11.919  -8.245  1.00  0.00     0.031 C 
ATOM     60  C   UNL     1       0.352  -8.995 -13.394  1.00  0.00     0.029 A 
ATOM     61  C   UNL     1       0.410  -9.376 -12.040  1.00  0.00     0.049 A 
ATOM     62  H   UNL     1       1.577  -8.603 -10.460  1.00  0.00     0.167 HD
ATOM     63  C   UNL     1      -0.274 -10.778 -10.143  1.00  0.00     0.074 A 
ATOM     64  C   UNL     1      -1.093 -11.841  -9.544  1.00  0.00     0.031 C 
ATOM     65  C   UNL     1      -0.342 -10.400 -11.485  1.00  0.00     0.037 A 
BRANCH  52  66
ATOM     66  C   UNL     1       3.133  -5.794 -13.323  1.00  0.00     0.057 A 
ATOM     67  C   UNL     1       4.399  -5.815 -13.883  1.00  0.00     0.134 A 
ATOM     68  C   UNL     1       2.140  -5.119 -13.889  1.00  0.00     0.134 A 
ATOM     69  F   UNL     1       5.347  -6.667 -13.503  1.00  0.00    -0.206 F 
ATOM     70  C   UNL     1       4.593  -4.848 -14.897  1.00  0.00     0.040 A 
ATOM     71  C   UNL     1       2.377  -4.295 -14.963  1.00  0.00     0.040 A 
ATOM     72  F   UNL     1       0.904  -5.240 -13.412  1.00  0.00    -0.206 F 
ATOM     73  C   UNL     1       3.619  -4.222 -15.532  1.00  0.00     0.006 A 
ENDBRANCH  52  66
BRANCH  53  74
ATOM     74  C   UNL     1       0.581 -11.556  -5.637  1.00  0.00     0.057 A 
ATOM     75  C   UNL     1       0.605 -12.934  -5.775  1.00  0.00     0.134 A 
ATOM     76  C   UNL     1       0.084 -10.982  -4.548  1.00  0.00     0.134 A 
ATOM     77  F   UNL     1       1.310 -13.557  -6.716  1.00  0.00    -0.206 F 
ATOM     78  C   UNL     1      -0.189 -13.620  -4.826  1.00  0.00     0.040 A 
ATOM     79  C   UNL     1      -0.561 -11.732  -3.594  1.00  0.00     0.040 A 
ATOM     80  F   UNL     1       0.211  -9.669  -4.378  1.00  0.00    -0.206 F 
ATOM     81  C   UNL     1      -0.627 -13.094  -3.696  1.00  0.00     0.006 A 
ENDBRANCH  53  74
BRANCH  65  82
ATOM     82  C   UNL     1      -1.298 -11.156 -12.393  1.00  0.00     0.057 A 
ATOM     83  C   UNL     1      -2.668 -11.129 -12.194  1.00  0.00     0.134 A 
ATOM     84  C   UNL     1      -0.765 -11.785 -13.434  1.00  0.00     0.134 A 
ATOM     85  F   UNL     1      -3.259 -10.313 -11.326  1.00  0.00    -0.206 F 
ATOM     86  C   UNL     1      -3.383 -12.046 -13.000  1.00  0.00     0.040 A 
ATOM     87  C   UNL     1      -1.546 -12.556 -14.260  1.00  0.00     0.040 A 
ATOM     88  F   UNL     1       0.537 -11.668 -13.679  1.00  0.00    -0.206 F 
ATOM     89  C   UNL     1      -2.901 -12.622 -14.087  1.00  0.00     0.006 A 
ENDBRANCH  65  82
ENDBRANCH  39  40
ENDBRANCH  31  34
ENDBRANCH  29  30
ENDBRANCH   1  29
TORSDOF 13
