REMARK SMILES O=C(CCCNC(=O)N1CSC[C@@H]1C(=O)NCCCCNC(=O)c1ccc(-c2c3nc(c(-c4c(F)cccc4F)c4ccc([nH]4)c(-c4c(F)cccc4F)c4nc(c(-c5c(F)cccc5F)c5ccc2[nH]5)C=C4)C=C3)cc1)NC1CC1
REMARK SMILES IDX 14 1 15 2 16 3 13 5 9 6 10 7 11 8 12 9 7 10 6 11 8 13 5 14
REMARK SMILES IDX 4 15 3 16 2 17 1 18 78 19 79 21 80 22 81 23 17 24 18 25
REMARK SMILES IDX 19 26 20 27 21 28 22 29 23 31 24 32 25 33 77 34 26 35 76 36
REMARK SMILES IDX 27 37 28 38 29 39 70 40 30 41 75 42 69 43 71 44 31 45 74 46
REMARK SMILES IDX 68 47 67 48 32 50 58 51 41 52 57 53 42 54 45 55 56 56 72 57
REMARK SMILES IDX 43 58 44 59 55 61 73 62 46 63 33 64 34 65 39 66 35 67 36 68
REMARK SMILES IDX 38 69 40 70 37 71 59 72 60 73 65 74 61 75 62 76 64 77 66 78
REMARK SMILES IDX 63 79 47 80 48 81 53 82 49 83 50 84 52 85 54 86 51 87
REMARK H PARENT 16 4 6 12 78 20 21 30 71 49 45 60
REMARK Flexibility Score: inf
ROOT
ATOM      1  C   UNL     1       8.963  -1.216   2.678  1.00  0.00     0.243 C 
ATOM      2  O   UNL     1       9.946  -0.733   3.252  1.00  0.00    -0.273 OA
ATOM      3  N   UNL     1       7.920  -1.611   3.471  1.00  0.00    -0.354 N 
ATOM      4  H   UNL     1       8.040  -1.469   4.438  1.00  0.00     0.163 HD
ENDROOT
BRANCH   1   5
ATOM      5  C   UNL     1       9.042  -1.590   1.180  1.00  0.00     0.187 C 
ATOM      6  N   UNL     1       7.789  -1.524   0.413  1.00  0.00    -0.303 N 
ATOM      7  C   UNL     1       7.764  -2.458  -0.689  1.00  0.00     0.192 C 
ATOM      8  S   UNL     1       8.686  -3.908  -0.164  1.00  0.00    -0.138 SA
ATOM      9  C   UNL     1       9.608  -3.015   1.114  1.00  0.00     0.106 C 
BRANCH   6  10
ATOM     10  C   UNL     1       7.159  -0.317   0.310  1.00  0.00     0.318 C 
ATOM     11  N   UNL     1       5.844  -0.279  -0.020  1.00  0.00    -0.338 N 
ATOM     12  H   UNL     1       5.532   0.589  -0.362  1.00  0.00     0.165 HD
ATOM     13  O   UNL     1       7.715   0.748   0.565  1.00  0.00    -0.249 OA
BRANCH  11  14
ATOM     14  C   UNL     1       4.818  -1.311   0.049  1.00  0.00     0.118 C 
BRANCH  14  15
ATOM     15  C   UNL     1       3.701  -0.974   1.046  1.00  0.00     0.031 C 
BRANCH  15  16
ATOM     16  C   UNL     1       2.909   0.298   0.757  1.00  0.00     0.102 C 
BRANCH  16  17
ATOM     17  C   UNL     1       2.044   0.133  -0.469  1.00  0.00     0.220 C 
ATOM     18  O   UNL     1       0.906  -0.318  -0.408  1.00  0.00    -0.275 OA
ATOM     19  N   UNL     1       2.682   0.473  -1.643  1.00  0.00    -0.353 N 
ATOM     20  H   UNL     1       3.576   0.883  -1.596  1.00  0.00     0.163 HD
BRANCH  19  21
ATOM     21  C   UNL     1       2.094   0.251  -2.923  1.00  0.00     0.082 C 
ATOM     22  C   UNL     1       2.820   0.654  -4.175  1.00  0.00     0.027 C 
ATOM     23  C   UNL     1       2.659  -0.800  -3.838  1.00  0.00     0.027 C 
ENDBRANCH  19  21
ENDBRANCH  16  17
ENDBRANCH  15  16
ENDBRANCH  14  15
ENDBRANCH  11  14
ENDBRANCH   6  10
ENDBRANCH   1   5
BRANCH   3  24
ATOM     24  C   UNL     1       6.665  -2.208   3.078  1.00  0.00     0.116 C 
BRANCH  24  25
ATOM     25  C   UNL     1       6.136  -3.250   4.052  1.00  0.00     0.023 C 
BRANCH  25  26
ATOM     26  C   UNL     1       5.635  -2.711   5.387  1.00  0.00     0.023 C 
BRANCH  26  27
ATOM     27  C   UNL     1       4.529  -1.663   5.308  1.00  0.00     0.116 C 
BRANCH  27  28
ATOM     28  N   UNL     1       3.326  -2.126   4.629  1.00  0.00    -0.352 N 
ATOM     29  C   UNL     1       2.011  -2.018   5.018  1.00  0.00     0.251 C 
ATOM     30  H   UNL     1       3.476  -2.581   3.769  1.00  0.00     0.163 HD
ATOM     31  O   UNL     1       1.123  -2.535   4.346  1.00  0.00    -0.269 OA
BRANCH  29  32
ATOM     32  C   UNL     1       1.675  -1.325   6.279  1.00  0.00     0.039 A 
ATOM     33  C   UNL     1       0.852  -1.975   7.203  1.00  0.00     0.014 A 
ATOM     34  C   UNL     1       2.220  -0.074   6.576  1.00  0.00     0.014 A 
ATOM     35  C   UNL     1       0.660  -1.416   8.469  1.00  0.00     0.010 A 
ATOM     36  C   UNL     1       2.089   0.444   7.861  1.00  0.00     0.010 A 
ATOM     37  C   UNL     1       1.321  -0.229   8.824  1.00  0.00    -0.014 A 
BRANCH  37  38
ATOM     38  C   UNL     1       1.242   0.319  10.201  1.00  0.00     0.031 A 
ATOM     39  C   UNL     1       0.616   1.663  10.440  1.00  0.00     0.074 A 
ATOM     40  C   UNL     1       1.813  -0.350  11.222  1.00  0.00     0.049 A 
ATOM     41  N   UNL     1       0.556   2.364  11.544  1.00  0.00    -0.248 NA
ATOM     42  C   UNL     1       0.002   2.320   9.276  1.00  0.00     0.031 C 
ATOM     43  C   UNL     1       2.495  -1.642  11.115  1.00  0.00     0.029 A 
ATOM     44  N   UNL     1       1.926  -0.027  12.551  1.00  0.00    -0.354 N 
ATOM     45  C   UNL     1      -0.079   3.550  11.202  1.00  0.00     0.074 A 
ATOM     46  C   UNL     1      -0.345   3.494   9.781  1.00  0.00     0.031 C 
ATOM     47  C   UNL     1       2.936  -2.009  12.329  1.00  0.00     0.029 A 
ATOM     48  C   UNL     1       2.603  -0.965  13.292  1.00  0.00     0.049 A 
ATOM     49  H   UNL     1       1.555   0.800  12.937  1.00  0.00     0.167 HD
ATOM     50  C   UNL     1      -0.428   4.584  12.004  1.00  0.00     0.037 A 
ATOM     51  C   UNL     1       2.927  -0.977  14.599  1.00  0.00     0.037 A 
ATOM     52  C   UNL     1      -0.195   4.624  13.423  1.00  0.00     0.049 A 
ATOM     53  C   UNL     1       2.519   0.178  15.470  1.00  0.00     0.074 A 
ATOM     54  C   UNL     1      -0.564   5.602  14.330  1.00  0.00     0.029 A 
ATOM     55  N   UNL     1       0.464   3.639  14.141  1.00  0.00    -0.354 N 
ATOM     56  N   UNL     1       1.871   1.270  15.143  1.00  0.00    -0.248 NA
ATOM     57  C   UNL     1       2.885   0.099  16.892  1.00  0.00     0.031 C 
ATOM     58  C   UNL     1      -0.102   5.221  15.595  1.00  0.00     0.029 A 
ATOM     59  C   UNL     1       0.522   3.990  15.479  1.00  0.00     0.049 A 
ATOM     60  H   UNL     1       0.835   2.812  13.757  1.00  0.00     0.167 HD
ATOM     61  C   UNL     1       1.726   1.992  16.320  1.00  0.00     0.074 A 
ATOM     62  C   UNL     1       2.346   1.211  17.371  1.00  0.00     0.031 C 
ATOM     63  C   UNL     1       1.130   3.193  16.514  1.00  0.00     0.037 A 
BRANCH  50  64
ATOM     64  C   UNL     1      -1.107   5.755  11.358  1.00  0.00     0.057 A 
ATOM     65  C   UNL     1      -2.425   5.675  10.889  1.00  0.00     0.134 A 
ATOM     66  C   UNL     1      -0.444   6.981  11.220  1.00  0.00     0.134 A 
ATOM     67  F   UNL     1      -3.109   4.525  10.979  1.00  0.00    -0.206 F 
ATOM     68  C   UNL     1      -3.050   6.765  10.282  1.00  0.00     0.040 A 
ATOM     69  C   UNL     1      -1.068   8.085  10.637  1.00  0.00     0.040 A 
ATOM     70  F   UNL     1       0.818   7.125  11.651  1.00  0.00    -0.206 F 
ATOM     71  C   UNL     1      -2.373   7.976  10.160  1.00  0.00     0.006 A 
ENDBRANCH  50  64
BRANCH  51  72
ATOM     72  C   UNL     1       3.655  -2.135  15.174  1.00  0.00     0.057 A 
ATOM     73  C   UNL     1       3.009  -3.038  16.026  1.00  0.00     0.134 A 
ATOM     74  C   UNL     1       5.008  -2.363  14.897  1.00  0.00     0.134 A 
ATOM     75  F   UNL     1       1.718  -2.859  16.344  1.00  0.00    -0.206 F 
ATOM     76  C   UNL     1       3.685  -4.117  16.596  1.00  0.00     0.040 A 
ATOM     77  C   UNL     1       5.691  -3.451  15.443  1.00  0.00     0.040 A 
ATOM     78  F   UNL     1       5.681  -1.538  14.083  1.00  0.00    -0.206 F 
ATOM     79  C   UNL     1       5.030  -4.328  16.301  1.00  0.00     0.006 A 
ENDBRANCH  51  72
BRANCH  63  80
ATOM     80  C   UNL     1       1.082   3.718  17.917  1.00  0.00     0.057 A 
ATOM     81  C   UNL     1       2.213   4.255  18.543  1.00  0.00     0.134 A 
ATOM     82  C   UNL     1      -0.123   3.727  18.631  1.00  0.00     0.134 A 
ATOM     83  F   UNL     1       3.399   4.261  17.916  1.00  0.00    -0.206 F 
ATOM     84  C   UNL     1       2.151   4.770  19.838  1.00  0.00     0.040 A 
ATOM     85  C   UNL     1      -0.202   4.259  19.918  1.00  0.00     0.040 A 
ATOM     86  F   UNL     1      -1.243   3.233  18.084  1.00  0.00    -0.206 F 
ATOM     87  C   UNL     1       0.938   4.780  20.527  1.00  0.00     0.006 A 
ENDBRANCH  63  80
ENDBRANCH  37  38
ENDBRANCH  29  32
ENDBRANCH  27  28
ENDBRANCH  26  27
ENDBRANCH  25  26
ENDBRANCH  24  25
ENDBRANCH   3  24
TORSDOF 17
