REMARK SMILES CC(C)[C@H]([NH2+]Cc1ccc(O)cn1)C(=O)NCCCCNC(=O)c1ccc(-c2c3nc(c(-c4c(F)cccc4F)c4ccc([nH]4)c(-c4c(F)cccc4F)c4nc(c(-c5c(F)cccc5F)c5ccc2[nH]5)C=C4)C=C3)cc1
REMARK SMILES IDX 17 1 16 2 14 3 15 4 4 6 2 7 1 8 3 9 5 10 6 13 7 14 8 15
REMARK SMILES IDX 13 16 9 17 12 18 10 19 11 20 18 22 19 23 20 24 21 25 22 26
REMARK SMILES IDX 23 28 24 29 25 30 77 31 26 32 76 33 27 34 28 35 29 36 70 37
REMARK SMILES IDX 30 38 75 39 69 40 71 41 31 42 74 43 68 44 67 45 32 47 58 48
REMARK SMILES IDX 41 49 57 50 42 51 45 52 56 53 72 54 43 55 44 56 55 58 73 59
REMARK SMILES IDX 46 60 33 61 34 62 39 63 35 64 36 65 38 66 40 67 37 68 59 69
REMARK SMILES IDX 60 70 65 71 61 72 62 73 64 74 66 75 63 76 47 77 48 78 53 79
REMARK SMILES IDX 49 80 50 81 52 82 54 83 51 84
REMARK H PARENT 16 5 5 11 5 12 11 21 21 27 71 46 45 57
REMARK Flexibility Score: inf
ROOT
ATOM      1  C   UNL     1       0.056  -1.919   3.495  1.00  0.00     0.116 C 
ENDROOT
BRANCH   1   2
ATOM      2  N   UNL     1      -0.944  -0.879   3.672  1.00  0.00    -0.351 N 
ATOM      3  C   UNL     1      -1.532  -0.074   2.736  1.00  0.00     0.278 C 
ATOM      4  O   UNL     1      -2.453   0.661   3.106  1.00  0.00    -0.268 OA
ATOM      5  H   UNL     1      -1.240  -0.734   4.600  1.00  0.00     0.163 HD
BRANCH   3   6
ATOM      6  C   UNL     1      -1.083  -0.079   1.250  1.00  0.00     0.275 C 
BRANCH   6   7
ATOM      7  C   UNL     1      -1.747  -1.222   0.413  1.00  0.00     0.051 C 
ATOM      8  C   UNL     1      -1.006  -1.513  -0.901  1.00  0.00     0.014 C 
ATOM      9  C   UNL     1      -2.003  -2.555   1.120  1.00  0.00     0.014 C 
ENDBRANCH   6   7
BRANCH   6  10
ATOM     10  N   UNL     1       0.389   0.018   1.137  1.00  0.00    -0.331 N 
ATOM     11  H   UNL     1       0.645  -0.027   0.150  1.00  0.00     0.347 HD
ATOM     12  H   UNL     1       0.791  -0.756   1.665  1.00  0.00     0.347 HD
BRANCH  10  13
ATOM     13  C   UNL     1       0.920   1.271   1.705  1.00  0.00     0.318 C 
BRANCH  13  14
ATOM     14  C   UNL     1       2.437   1.275   1.657  1.00  0.00     0.095 A 
ATOM     15  C   UNL     1       3.104   1.761   0.531  1.00  0.00     0.033 A 
ATOM     16  N   UNL     1       3.093   0.701   2.699  1.00  0.00    -0.251 NA
ATOM     17  C   UNL     1       4.491   1.638   0.461  1.00  0.00     0.050 A 
ATOM     18  C   UNL     1       4.436   0.592   2.602  1.00  0.00     0.157 A 
ATOM     19  C   UNL     1       5.165   1.031   1.510  1.00  0.00     0.133 A 
BRANCH  19  20
ATOM     20  O   UNL     1       6.513   0.846   1.490  1.00  0.00    -0.506 OA
ATOM     21  H   UNL     1       7.014   1.140   0.755  1.00  0.00     0.293 HD
ENDBRANCH  19  20
ENDBRANCH  13  14
ENDBRANCH  10  13
ENDBRANCH   6  10
ENDBRANCH   3   6
ENDBRANCH   1   2
BRANCH   1  22
ATOM     22  C   UNL     1       1.191  -1.850   4.509  1.00  0.00     0.023 C 
BRANCH  22  23
ATOM     23  C   UNL     1       0.786  -2.119   5.957  1.00  0.00     0.023 C 
BRANCH  23  24
ATOM     24  C   UNL     1      -0.048  -3.374   6.189  1.00  0.00     0.116 C 
BRANCH  24  25
ATOM     25  N   UNL     1       0.603  -4.597   5.742  1.00  0.00    -0.352 N 
ATOM     26  C   UNL     1       0.825  -5.771   6.426  1.00  0.00     0.251 C 
ATOM     27  H   UNL     1       0.933  -4.582   4.815  1.00  0.00     0.163 HD
ATOM     28  O   UNL     1       1.480  -6.671   5.920  1.00  0.00    -0.269 OA
BRANCH  26  29
ATOM     29  C   UNL     1       0.299  -5.924   7.800  1.00  0.00     0.039 A 
ATOM     30  C   UNL     1       1.162  -6.375   8.802  1.00  0.00     0.014 A 
ATOM     31  C   UNL     1      -1.022  -5.588   8.105  1.00  0.00     0.014 A 
ATOM     32  C   UNL     1       0.723  -6.407  10.128  1.00  0.00     0.010 A 
ATOM     33  C   UNL     1      -1.431  -5.545   9.435  1.00  0.00     0.010 A 
ATOM     34  C   UNL     1      -0.561  -5.947  10.461  1.00  0.00    -0.014 A 
BRANCH  34  35
ATOM     35  C   UNL     1      -1.008  -5.862  11.875  1.00  0.00     0.031 A 
ATOM     36  C   UNL     1      -2.174  -6.682  12.352  1.00  0.00     0.074 A 
ATOM     37  C   UNL     1      -0.411  -4.990  12.712  1.00  0.00     0.049 A 
ATOM     38  N   UNL     1      -2.758  -6.686  13.523  1.00  0.00    -0.248 NA
ATOM     39  C   UNL     1      -2.784  -7.596  11.373  1.00  0.00     0.031 C 
ATOM     40  C   UNL     1       0.695  -4.097  12.360  1.00  0.00     0.029 A 
ATOM     41  N   UNL     1      -0.661  -4.702  14.031  1.00  0.00    -0.354 N 
ATOM     42  C   UNL     1      -3.811  -7.586  13.417  1.00  0.00     0.074 A 
ATOM     43  C   UNL     1      -3.817  -8.069  12.053  1.00  0.00     0.031 C 
ATOM     44  C   UNL     1       1.041  -3.378  13.439  1.00  0.00     0.029 A 
ATOM     45  C   UNL     1       0.160  -3.729  14.549  1.00  0.00     0.049 A 
ATOM     46  H   UNL     1      -1.362  -5.151  14.557  1.00  0.00     0.167 HD
ATOM     47  C   UNL     1      -4.679  -7.991  14.374  1.00  0.00     0.037 A 
ATOM     48  C   UNL     1       0.194  -3.176  15.776  1.00  0.00     0.037 A 
ATOM     49  C   UNL     1      -4.654  -7.531  15.738  1.00  0.00     0.049 A 
ATOM     50  C   UNL     1      -0.778  -3.646  16.822  1.00  0.00     0.074 A 
ATOM     51  C   UNL     1      -5.448  -7.933  16.797  1.00  0.00     0.029 A 
ATOM     52  N   UNL     1      -3.790  -6.564  16.229  1.00  0.00    -0.354 N 
ATOM     53  N   UNL     1      -1.721  -4.552  16.728  1.00  0.00    -0.248 NA
ATOM     54  C   UNL     1      -0.678  -3.020  18.149  1.00  0.00     0.031 C 
ATOM     55  C   UNL     1      -5.093  -7.179  17.921  1.00  0.00     0.029 A 
ATOM     56  C   UNL     1      -4.046  -6.342  17.573  1.00  0.00     0.049 A 
ATOM     57  H   UNL     1      -3.097  -6.104  15.702  1.00  0.00     0.167 HD
ATOM     58  C   UNL     1      -2.306  -4.626  17.985  1.00  0.00     0.074 A 
ATOM     59  C   UNL     1      -1.603  -3.682  18.829  1.00  0.00     0.031 C 
ATOM     60  C   UNL     1      -3.333  -5.405  18.403  1.00  0.00     0.037 A 
BRANCH  47  61
ATOM     61  C   UNL     1      -5.729  -8.988  13.978  1.00  0.00     0.057 A 
ATOM     62  C   UNL     1      -5.409 -10.320  13.685  1.00  0.00     0.134 A 
ATOM     63  C   UNL     1      -7.080  -8.621  13.923  1.00  0.00     0.134 A 
ATOM     64  F   UNL     1      -4.133 -10.734  13.709  1.00  0.00    -0.206 F 
ATOM     65  C   UNL     1      -6.391 -11.245  13.325  1.00  0.00     0.040 A 
ATOM     66  C   UNL     1      -8.073  -9.543  13.591  1.00  0.00     0.040 A 
ATOM     67  F   UNL     1      -7.456  -7.363  14.198  1.00  0.00    -0.206 F 
ATOM     68  C   UNL     1      -7.729 -10.858  13.284  1.00  0.00     0.006 A 
ENDBRANCH  47  61
BRANCH  48  69
ATOM     69  C   UNL     1       1.198  -2.129  16.093  1.00  0.00     0.057 A 
ATOM     70  C   UNL     1       2.264  -2.392  16.961  1.00  0.00     0.134 A 
ATOM     71  C   UNL     1       1.112  -0.843  15.547  1.00  0.00     0.134 A 
ATOM     72  F   UNL     1       2.388  -3.599  17.531  1.00  0.00    -0.206 F 
ATOM     73  C   UNL     1       3.197  -1.408  17.292  1.00  0.00     0.040 A 
ATOM     74  C   UNL     1       2.052   0.143  15.850  1.00  0.00     0.040 A 
ATOM     75  F   UNL     1       0.117  -0.530  14.704  1.00  0.00    -0.206 F 
ATOM     76  C   UNL     1       3.095  -0.136  16.731  1.00  0.00     0.006 A 
ENDBRANCH  48  69
BRANCH  60  77
ATOM     77  C   UNL     1      -3.736  -5.298  19.844  1.00  0.00     0.057 A 
ATOM     78  C   UNL     1      -4.418  -4.180  20.341  1.00  0.00     0.134 A 
ATOM     79  C   UNL     1      -3.471  -6.344  20.737  1.00  0.00     0.134 A 
ATOM     80  F   UNL     1      -4.689  -3.138  19.540  1.00  0.00    -0.206 F 
ATOM     81  C   UNL     1      -4.804  -4.098  21.680  1.00  0.00     0.040 A 
ATOM     82  C   UNL     1      -3.875  -6.285  22.071  1.00  0.00     0.040 A 
ATOM     83  F   UNL     1      -2.829  -7.447  20.323  1.00  0.00    -0.206 F 
ATOM     84  C   UNL     1      -4.539  -5.156  22.547  1.00  0.00     0.006 A 
ENDBRANCH  60  77
ENDBRANCH  34  35
ENDBRANCH  26  29
ENDBRANCH  24  25
ENDBRANCH  23  24
ENDBRANCH  22  23
ENDBRANCH   1  22
TORSDOF 16
