REMARK SMILES O=C(NCCCCNC(=O)c1ccc(Cn2nnc3ccccc32)nc1)c1ccc(-c2c3nc(c(-c4c(F)cccc4F)c4ccc([nH]4)c(-c4c(F)cccc4F)c4nc(c(-c5c(F)cccc5F)c5ccc2[nH]5)C=C4)C=C3)cc1
REMARK SMILES IDX 5 1 4 2 3 3 1 4 2 5 27 7 28 8 80 9 29 10 79 11 30 12 31 13
REMARK SMILES IDX 32 14 73 15 33 16 78 17 72 18 74 19 34 20 77 21 71 22 70 23
REMARK SMILES IDX 35 25 61 26 44 27 60 28 45 29 48 30 59 31 75 32 46 33 47 34
REMARK SMILES IDX 58 36 76 37 49 38 36 39 37 40 42 41 38 42 39 43 41 44 43 45
REMARK SMILES IDX 40 46 62 47 63 48 68 49 64 50 65 51 67 52 69 53 66 54 50 55
REMARK SMILES IDX 51 56 56 57 52 58 53 59 55 60 57 61 54 62 6 63 7 64 8 65
REMARK SMILES IDX 9 66 10 68 11 69 12 70 26 71 13 72 25 73 14 74 15 75 16 76
REMARK SMILES IDX 17 77 24 78 18 79 19 80 23 81 20 82 22 83 21 84
REMARK H PARENT 3 6 74 24 48 35 8 67
REMARK Flexibility Score: inf
ROOT
ATOM      1  C   UNL     1       4.954   2.176   2.035  1.00  0.00     0.023 C 
ENDROOT
BRANCH   1   2
ATOM      2  C   UNL     1       4.523   1.092   1.064  1.00  0.00     0.116 C 
BRANCH   2   3
ATOM      3  N   UNL     1       3.067   0.974   0.902  1.00  0.00    -0.352 N 
ATOM      4  O   UNL     1       1.224   0.284  -0.261  1.00  0.00    -0.269 OA
ATOM      5  C   UNL     1       2.379   0.066   0.112  1.00  0.00     0.251 C 
ATOM      6  H   UNL     1       2.518   1.612   1.413  1.00  0.00     0.163 HD
BRANCH   5   7
ATOM      7  C   UNL     1       3.054  -1.188  -0.253  1.00  0.00     0.039 A 
ATOM      8  C   UNL     1       2.957  -1.790  -1.509  1.00  0.00     0.014 A 
ATOM      9  C   UNL     1       3.880  -1.725   0.724  1.00  0.00     0.014 A 
ATOM     10  C   UNL     1       3.751  -2.908  -1.762  1.00  0.00     0.010 A 
ATOM     11  C   UNL     1       4.867  -2.587   0.363  1.00  0.00     0.010 A 
ATOM     12  C   UNL     1       4.716  -3.292  -0.812  1.00  0.00    -0.014 A 
BRANCH  12  13
ATOM     13  C   UNL     1       5.649  -4.387  -1.025  1.00  0.00     0.031 A 
ATOM     14  C   UNL     1       6.367  -4.290  -2.313  1.00  0.00     0.074 A 
ATOM     15  C   UNL     1       5.958  -5.295  -0.068  1.00  0.00     0.049 A 
ATOM     16  N   UNL     1       6.128  -4.978  -3.377  1.00  0.00    -0.248 NA
ATOM     17  C   UNL     1       7.292  -3.166  -2.523  1.00  0.00     0.031 C 
ATOM     18  C   UNL     1       5.545  -5.332   1.344  1.00  0.00     0.029 A 
ATOM     19  N   UNL     1       6.787  -6.372  -0.150  1.00  0.00    -0.354 N 
ATOM     20  C   UNL     1       7.057  -4.550  -4.317  1.00  0.00     0.074 A 
ATOM     21  C   UNL     1       7.570  -3.301  -3.822  1.00  0.00     0.031 C 
ATOM     22  C   UNL     1       6.291  -6.231   2.023  1.00  0.00     0.029 A 
ATOM     23  C   UNL     1       7.100  -6.966   1.073  1.00  0.00     0.049 A 
ATOM     24  H   UNL     1       7.138  -6.707  -1.007  1.00  0.00     0.167 HD
ATOM     25  C   UNL     1       7.519  -5.422  -5.255  1.00  0.00     0.037 A 
ATOM     26  C   UNL     1       7.959  -7.999   1.278  1.00  0.00     0.037 A 
ATOM     27  C   UNL     1       6.659  -6.585  -5.322  1.00  0.00     0.049 A 
ATOM     28  C   UNL     1       8.125  -8.684  -0.027  1.00  0.00     0.074 A 
ATOM     29  C   UNL     1       5.325  -6.801  -5.612  1.00  0.00     0.029 A 
ATOM     30  N   UNL     1       7.084  -7.708  -4.652  1.00  0.00    -0.354 N 
ATOM     31  N   UNL     1       7.173  -9.357  -0.611  1.00  0.00    -0.248 NA
ATOM     32  C   UNL     1       9.182  -8.208  -0.903  1.00  0.00     0.031 C 
ATOM     33  C   UNL     1       4.909  -7.825  -4.708  1.00  0.00     0.029 A 
ATOM     34  C   UNL     1       6.020  -8.243  -3.976  1.00  0.00     0.049 A 
ATOM     35  H   UNL     1       8.000  -8.068  -4.659  1.00  0.00     0.167 HD
ATOM     36  C   UNL     1       7.262  -9.002  -1.949  1.00  0.00     0.074 A 
ATOM     37  C   UNL     1       8.571  -8.361  -2.082  1.00  0.00     0.031 C 
ATOM     38  C   UNL     1       6.150  -8.988  -2.743  1.00  0.00     0.037 A 
BRANCH  25  39
ATOM     39  C   UNL     1       8.950  -5.465  -5.751  1.00  0.00     0.057 A 
ATOM     40  C   UNL     1      10.046  -4.829  -5.135  1.00  0.00     0.134 A 
ATOM     41  C   UNL     1       9.295  -6.452  -6.695  1.00  0.00     0.134 A 
ATOM     42  F   UNL     1       9.912  -3.873  -4.211  1.00  0.00    -0.206 F 
ATOM     43  C   UNL     1      11.371  -5.207  -5.367  1.00  0.00     0.040 A 
ATOM     44  C   UNL     1      10.615  -6.868  -6.902  1.00  0.00     0.040 A 
ATOM     45  F   UNL     1       8.348  -7.115  -7.378  1.00  0.00    -0.206 F 
ATOM     46  C   UNL     1      11.658  -6.259  -6.219  1.00  0.00     0.006 A 
ENDBRANCH  25  39
BRANCH  26  47
ATOM     47  C   UNL     1       8.845  -8.286   2.430  1.00  0.00     0.057 A 
ATOM     48  C   UNL     1       9.364  -7.250   3.225  1.00  0.00     0.134 A 
ATOM     49  C   UNL     1       9.444  -9.545   2.596  1.00  0.00     0.134 A 
ATOM     50  F   UNL     1       8.913  -5.994   3.100  1.00  0.00    -0.206 F 
ATOM     51  C   UNL     1      10.432  -7.446   4.109  1.00  0.00     0.040 A 
ATOM     52  C   UNL     1      10.515  -9.755   3.477  1.00  0.00     0.040 A 
ATOM     53  F   UNL     1       9.047 -10.590   1.855  1.00  0.00    -0.206 F 
ATOM     54  C   UNL     1      11.022  -8.699   4.227  1.00  0.00     0.006 A 
ENDBRANCH  26  47
BRANCH  38  55
ATOM     55  C   UNL     1       4.900  -9.632  -2.200  1.00  0.00     0.057 A 
ATOM     56  C   UNL     1       4.319 -10.674  -2.928  1.00  0.00     0.134 A 
ATOM     57  C   UNL     1       4.197  -9.185  -1.069  1.00  0.00     0.134 A 
ATOM     58  F   UNL     1       4.904 -11.120  -4.051  1.00  0.00    -0.206 F 
ATOM     59  C   UNL     1       3.106 -11.255  -2.551  1.00  0.00     0.040 A 
ATOM     60  C   UNL     1       2.998  -9.780  -0.660  1.00  0.00     0.040 A 
ATOM     61  F   UNL     1       4.619  -8.132  -0.358  1.00  0.00    -0.206 F 
ATOM     62  C   UNL     1       2.447 -10.817  -1.405  1.00  0.00     0.006 A 
ENDBRANCH  38  55
ENDBRANCH  12  13
ENDBRANCH   5   7
ENDBRANCH   2   3
ENDBRANCH   1   2
BRANCH   1  63
ATOM     63  C   UNL     1       4.494   1.964   3.483  1.00  0.00     0.023 C 
BRANCH  63  64
ATOM     64  C   UNL     1       4.864   0.629   4.137  1.00  0.00     0.116 C 
BRANCH  64  65
ATOM     65  N   UNL     1       6.300   0.414   4.229  1.00  0.00    -0.352 N 
ATOM     66  C   UNL     1       7.088   0.361   5.353  1.00  0.00     0.252 C 
ATOM     67  H   UNL     1       6.769   0.290   3.373  1.00  0.00     0.163 HD
ATOM     68  O   UNL     1       8.310   0.316   5.266  1.00  0.00    -0.269 OA
BRANCH  66  69
ATOM     69  C   UNL     1       6.451   0.406   6.672  1.00  0.00     0.058 A 
ATOM     70  C   UNL     1       5.552  -0.566   7.108  1.00  0.00     0.017 A 
ATOM     71  C   UNL     1       6.723   1.479   7.495  1.00  0.00     0.125 A 
ATOM     72  C   UNL     1       4.925  -0.406   8.344  1.00  0.00     0.026 A 
ATOM     73  N   UNL     1       6.094   1.675   8.675  1.00  0.00    -0.258 NA
ATOM     74  C   UNL     1       5.218   0.726   9.104  1.00  0.00     0.062 A 
BRANCH  74  75
ATOM     75  C   UNL     1       4.594   0.944  10.459  1.00  0.00     0.202 C 
BRANCH  75  76
ATOM     76  N   UNL     1       5.556   0.684  11.512  1.00  0.00    -0.239 N 
ATOM     77  N   UNL     1       5.425  -0.414  12.287  1.00  0.00    -0.066 NA
ATOM     78  C   UNL     1       6.664   1.417  11.855  1.00  0.00     0.089 A 
ATOM     79  N   UNL     1       6.471  -0.450  13.104  1.00  0.00    -0.130 NA
ATOM     80  C   UNL     1       7.254   0.644  12.847  1.00  0.00     0.113 A 
ATOM     81  C   UNL     1       7.224   2.612  11.387  1.00  0.00     0.030 A 
ATOM     82  C   UNL     1       8.477   1.051  13.399  1.00  0.00     0.032 A 
ATOM     83  C   UNL     1       8.455   2.991  11.930  1.00  0.00     0.002 A 
ATOM     84  C   UNL     1       9.075   2.224  12.917  1.00  0.00     0.002 A 
ENDBRANCH  75  76
ENDBRANCH  74  75
ENDBRANCH  66  69
ENDBRANCH  64  65
ENDBRANCH  63  64
ENDBRANCH   1  63
TORSDOF 13
