REMARK SMILES O=C(NCCCCNC(=O)[C@]1(CCc2cccnc2)C[C@H]2CC[C@@H]1O2)c1ccc(-c2c3nc(c(-c4c(F)cccc4F)c4ccc([nH]4)c(-c4c(F)cccc4F)c4nc(c(-c5c(F)cccc5F)c5ccc2[nH]5)C=C4)C=C3)cc1
REMARK SMILES IDX 6 1 5 2 4 3 3 4 1 5 2 6 26 8 27 9 79 10 28 11 78 12 29 13
REMARK SMILES IDX 30 14 31 15 72 16 32 17 77 18 71 19 73 20 33 21 76 22 70 23
REMARK SMILES IDX 69 24 34 26 60 27 43 28 59 29 44 30 47 31 58 32 74 33 45 34
REMARK SMILES IDX 46 35 57 37 75 38 48 39 35 40 36 41 41 42 37 43 38 44 40 45
REMARK SMILES IDX 42 46 39 47 61 48 62 49 67 50 63 51 64 52 66 53 68 54 65 55
REMARK SMILES IDX 49 56 50 57 55 58 51 59 52 60 54 61 56 62 53 63 7 64 8 65
REMARK SMILES IDX 9 66 10 68 11 69 20 70 24 71 21 72 23 73 25 74 22 75 12 76
REMARK SMILES IDX 13 77 14 78 15 79 19 80 16 81 18 82 17 83
REMARK H PARENT 3 7 73 25 47 36 8 67
REMARK Flexibility Score: inf
ROOT
ATOM      1  C   UNL     1       3.263  -3.062  -2.680  1.00  0.00     0.023 C 
ENDROOT
BRANCH   1   2
ATOM      2  C   UNL     1       3.409  -2.580  -1.224  1.00  0.00     0.023 C 
BRANCH   2   3
ATOM      3  C   UNL     1       3.568  -1.090  -0.967  1.00  0.00     0.116 C 
BRANCH   3   4
ATOM      4  N   UNL     1       2.279  -0.422  -0.936  1.00  0.00    -0.352 N 
ATOM      5  O   UNL     1       0.632   0.828  -0.055  1.00  0.00    -0.269 OA
ATOM      6  C   UNL     1       1.824   0.560  -0.083  1.00  0.00     0.251 C 
ATOM      7  H   UNL     1       1.637  -0.713  -1.624  1.00  0.00     0.163 HD
BRANCH   6   8
ATOM      8  C   UNL     1       2.764   1.289   0.808  1.00  0.00     0.039 A 
ATOM      9  C   UNL     1       4.030   1.678   0.368  1.00  0.00     0.014 A 
ATOM     10  C   UNL     1       2.333   1.661   2.088  1.00  0.00     0.014 A 
ATOM     11  C   UNL     1       4.893   2.356   1.228  1.00  0.00     0.010 A 
ATOM     12  C   UNL     1       3.174   2.402   2.927  1.00  0.00     0.010 A 
ATOM     13  C   UNL     1       4.469   2.746   2.509  1.00  0.00    -0.014 A 
BRANCH  13  14
ATOM     14  C   UNL     1       5.360   3.572   3.367  1.00  0.00     0.031 A 
ATOM     15  C   UNL     1       5.878   3.051   4.679  1.00  0.00     0.074 A 
ATOM     16  C   UNL     1       5.697   4.810   2.955  1.00  0.00     0.049 A 
ATOM     17  N   UNL     1       6.645   3.646   5.560  1.00  0.00    -0.248 NA
ATOM     18  C   UNL     1       5.473   1.690   5.060  1.00  0.00     0.031 C 
ATOM     19  C   UNL     1       5.244   5.436   1.711  1.00  0.00     0.029 A 
ATOM     20  N   UNL     1       6.502   5.762   3.530  1.00  0.00    -0.354 N 
ATOM     21  C   UNL     1       6.794   2.745   6.608  1.00  0.00     0.074 A 
ATOM     22  C   UNL     1       6.017   1.572   6.264  1.00  0.00     0.031 C 
ATOM     23  C   UNL     1       5.809   6.647   1.595  1.00  0.00     0.029 A 
ATOM     24  C   UNL     1       6.613   6.910   2.783  1.00  0.00     0.049 A 
ATOM     25  H   UNL     1       6.957   5.634   4.393  1.00  0.00     0.167 HD
ATOM     26  C   UNL     1       7.515   2.883   7.747  1.00  0.00     0.037 A 
ATOM     27  C   UNL     1       7.274   8.056   3.032  1.00  0.00     0.037 A 
ATOM     28  C   UNL     1       8.299   4.049   8.075  1.00  0.00     0.049 A 
ATOM     29  C   UNL     1       8.051   8.187   4.310  1.00  0.00     0.074 A 
ATOM     30  C   UNL     1       9.099   4.267   9.184  1.00  0.00     0.029 A 
ATOM     31  N   UNL     1       8.377   5.196   7.298  1.00  0.00    -0.354 N 
ATOM     32  N   UNL     1       8.214   7.312   5.273  1.00  0.00    -0.248 NA
ATOM     33  C   UNL     1       8.738   9.466   4.536  1.00  0.00     0.031 C 
ATOM     34  C   UNL     1       9.618   5.564   9.104  1.00  0.00     0.029 A 
ATOM     35  C   UNL     1       9.193   6.132   7.914  1.00  0.00     0.049 A 
ATOM     36  H   UNL     1       7.919   5.325   6.436  1.00  0.00     0.167 HD
ATOM     37  C   UNL     1       9.048   7.920   6.201  1.00  0.00     0.074 A 
ATOM     38  C   UNL     1       9.366   9.233   5.679  1.00  0.00     0.031 C 
ATOM     39  C   UNL     1       9.511   7.432   7.378  1.00  0.00     0.037 A 
BRANCH  26  40
ATOM     40  C   UNL     1       7.473   1.755   8.741  1.00  0.00     0.057 A 
ATOM     41  C   UNL     1       8.082   0.518   8.493  1.00  0.00     0.134 A 
ATOM     42  C   UNL     1       6.843   1.923   9.982  1.00  0.00     0.134 A 
ATOM     43  F   UNL     1       8.696   0.285   7.322  1.00  0.00    -0.206 F 
ATOM     44  C   UNL     1       8.043  -0.518   9.429  1.00  0.00     0.040 A 
ATOM     45  C   UNL     1       6.822   0.904  10.937  1.00  0.00     0.040 A 
ATOM     46  F   UNL     1       6.247   3.084  10.293  1.00  0.00    -0.206 F 
ATOM     47  C   UNL     1       7.417  -0.324  10.658  1.00  0.00     0.006 A 
ENDBRANCH  26  40
BRANCH  27  48
ATOM     48  C   UNL     1       7.236   9.165   2.046  1.00  0.00     0.057 A 
ATOM     49  C   UNL     1       8.381   9.534   1.330  1.00  0.00     0.134 A 
ATOM     50  C   UNL     1       6.060   9.883   1.795  1.00  0.00     0.134 A 
ATOM     51  F   UNL     1       9.542   8.896   1.538  1.00  0.00    -0.206 F 
ATOM     52  C   UNL     1       8.364  10.587   0.414  1.00  0.00     0.040 A 
ATOM     53  C   UNL     1       6.021  10.919   0.860  1.00  0.00     0.040 A 
ATOM     54  F   UNL     1       4.927   9.574   2.441  1.00  0.00    -0.206 F 
ATOM     55  C   UNL     1       7.178  11.279   0.173  1.00  0.00     0.006 A 
ENDBRANCH  27  48
BRANCH  39  56
ATOM     56  C   UNL     1      10.460   8.303   8.150  1.00  0.00     0.057 A 
ATOM     57  C   UNL     1      10.044   9.476   8.792  1.00  0.00     0.134 A 
ATOM     58  C   UNL     1      11.812   7.951   8.261  1.00  0.00     0.134 A 
ATOM     59  F   UNL     1       8.766   9.878   8.714  1.00  0.00    -0.206 F 
ATOM     60  C   UNL     1      10.945  10.286   9.486  1.00  0.00     0.040 A 
ATOM     61  C   UNL     1      12.715   8.736   8.978  1.00  0.00     0.040 A 
ATOM     62  F   UNL     1      12.276   6.836   7.677  1.00  0.00    -0.206 F 
ATOM     63  C   UNL     1      12.284   9.913   9.585  1.00  0.00     0.006 A 
ENDBRANCH  39  56
ENDBRANCH  13  14
ENDBRANCH   6   8
ENDBRANCH   3   4
ENDBRANCH   2   3
ENDBRANCH   1   2
BRANCH   1  64
ATOM     64  C   UNL     1       4.239  -2.766  -3.875  1.00  0.00     0.116 C 
BRANCH  64  65
ATOM     65  N   UNL     1       5.713  -2.945  -3.876  1.00  0.00    -0.356 N 
ATOM     66  C   UNL     1       6.693  -3.909  -3.966  1.00  0.00     0.228 C 
ATOM     67  H   UNL     1       6.140  -2.063  -3.777  1.00  0.00     0.163 HD
ATOM     68  O   UNL     1       7.844  -3.467  -4.061  1.00  0.00    -0.274 OA
BRANCH  66  69
ATOM     69  C   UNL     1       6.438  -5.426  -4.006  1.00  0.00     0.078 C 
ATOM     70  C   UNL     1       7.569  -6.396  -3.545  1.00  0.00     0.051 C 
ATOM     71  C   UNL     1       6.439  -5.744  -5.538  1.00  0.00     0.134 C 
ATOM     72  C   UNL     1       7.820  -7.246  -4.787  1.00  0.00     0.120 C 
ATOM     73  C   UNL     1       5.744  -7.028  -5.946  1.00  0.00     0.036 C 
ATOM     74  O   UNL     1       7.818  -6.199  -5.769  1.00  0.00    -0.374 OA
ATOM     75  C   UNL     1       6.593  -8.071  -5.221  1.00  0.00     0.035 C 
BRANCH  69  76
ATOM     76  C   UNL     1       5.252  -5.734  -3.107  1.00  0.00     0.024 C 
BRANCH  76  77
ATOM     77  C   UNL     1       5.480  -5.491  -1.564  1.00  0.00     0.038 C 
BRANCH  77  78
ATOM     78  C   UNL     1       6.536  -4.577  -0.933  1.00  0.00    -0.030 A 
ATOM     79  C   UNL     1       6.618  -3.186  -1.076  1.00  0.00     0.007 A 
ATOM     80  C   UNL     1       7.444  -5.095  -0.015  1.00  0.00     0.114 A 
ATOM     81  C   UNL     1       7.551  -2.404  -0.398  1.00  0.00     0.020 A 
ATOM     82  N   UNL     1       8.355  -4.371   0.692  1.00  0.00    -0.264 NA
ATOM     83  C   UNL     1       8.393  -3.040   0.478  1.00  0.00     0.111 A 
ENDBRANCH  77  78
ENDBRANCH  76  77
ENDBRANCH  69  76
ENDBRANCH  66  69
ENDBRANCH  64  65
ENDBRANCH   1  64
TORSDOF 14
