REMARK SMILES Cn1cc(C[C@@H](NC(=O)OCC2c3ccccc3-c3ccccc32)C(=O)NCCCCNC(=O)c2ccc(-c3c4nc(c(-c5c(F)cccc5F)c5ccc([nH]5)c(-c5c(F)cccc5F)c5nc(c(-c6c(F)cccc6F)c6ccc3[nH]6)C=C5)C=C4)cc2)c2ccccc21
REMARK SMILES IDX 28 1 27 2 25 3 26 4 6 6 5 7 4 8 1 9 2 10 3 11 94 12 89 13
REMARK SMILES IDX 93 14 90 15 92 16 91 17 7 18 8 19 9 21 10 22 11 23 12 24
REMARK SMILES IDX 13 25 24 26 14 27 18 28 19 29 23 30 15 31 17 32 20 33 22 34
REMARK SMILES IDX 16 35 21 36 29 37 30 38 31 39 32 40 33 41 34 43 35 44 36 45
REMARK SMILES IDX 88 46 37 47 87 48 38 49 39 50 40 51 81 52 41 53 86 54 80 55
REMARK SMILES IDX 82 56 42 57 85 58 79 59 78 60 43 62 69 63 52 64 68 65 53 66
REMARK SMILES IDX 56 67 67 68 83 69 54 70 55 71 66 73 84 74 57 75 44 76 45 77
REMARK SMILES IDX 50 78 46 79 47 80 49 81 51 82 48 83 70 84 71 85 76 86 72 87
REMARK SMILES IDX 73 88 75 89 77 90 74 91 58 92 59 93 64 94 60 95 61 96 63 97
REMARK SMILES IDX 65 98 62 99
REMARK H PARENT 27 5 7 20 32 42 82 61 56 72
REMARK Flexibility Score: inf
ROOT
ATOM      1  C   UNL     1      -0.737  -5.557  -1.250  1.00  0.00     0.116 C 
ENDROOT
BRANCH   1   2
ATOM      2  N   UNL     1       0.144  -6.038  -0.200  1.00  0.00    -0.354 N 
ATOM      3  C   UNL     1       0.606  -5.398   0.919  1.00  0.00     0.243 C 
ATOM      4  O   UNL     1       1.368  -6.027   1.660  1.00  0.00    -0.273 OA
ATOM      5  H   UNL     1       0.456  -6.965  -0.310  1.00  0.00     0.163 HD
BRANCH   3   6
ATOM      6  C   UNL     1       0.308  -3.904   1.169  1.00  0.00     0.179 C 
BRANCH   6   7
ATOM      7  C   UNL     1       1.031  -3.087   0.060  1.00  0.00     0.073 C 
BRANCH   7   8
ATOM      8  C   UNL     1       0.967  -1.585   0.148  1.00  0.00    -0.020 A 
ATOM      9  C   UNL     1       2.512   1.693   0.293  1.00  0.00     0.149 C 
ATOM     10  N   UNL     1       1.636   0.542   0.280  1.00  0.00    -0.350 N 
ATOM     11  C   UNL     1       2.052  -0.758   0.376  1.00  0.00     0.090 A 
ATOM     12  C   UNL     1       0.275   0.596   0.084  1.00  0.00     0.048 A 
ATOM     13  C   UNL     1      -0.158  -0.721  -0.097  1.00  0.00     0.003 A 
ATOM     14  C   UNL     1      -0.602   1.692   0.012  1.00  0.00     0.027 A 
ATOM     15  C   UNL     1      -1.509  -0.927  -0.454  1.00  0.00     0.010 A 
ATOM     16  C   UNL     1      -1.950   1.444  -0.256  1.00  0.00     0.002 A 
ATOM     17  C   UNL     1      -2.398   0.152  -0.499  1.00  0.00     0.001 A 
ENDBRANCH   7   8
ENDBRANCH   6   7
BRANCH   6  18
ATOM     18  N   UNL     1      -1.097  -3.525   1.336  1.00  0.00    -0.309 N 
ATOM     19  C   UNL     1      -2.240  -4.231   1.161  1.00  0.00     0.407 C 
ATOM     20  H   UNL     1      -1.234  -2.594   1.627  1.00  0.00     0.167 HD
ATOM     21  O   UNL     1      -3.244  -3.669   0.726  1.00  0.00    -0.225 OA
BRANCH  19  22
ATOM     22  O   UNL     1      -2.173  -5.540   1.504  1.00  0.00    -0.449 OA
BRANCH  22  23
ATOM     23  C   UNL     1      -3.424  -6.263   1.420  1.00  0.00     0.248 C 
BRANCH  23  24
ATOM     24  C   UNL     1      -4.196  -6.336   2.756  1.00  0.00     0.088 C 
ATOM     25  C   UNL     1      -3.601  -7.353   3.725  1.00  0.00    -0.029 A 
ATOM     26  C   UNL     1      -4.146  -5.059   3.584  1.00  0.00    -0.029 A 
ATOM     27  C   UNL     1      -3.532  -8.732   3.592  1.00  0.00     0.005 A 
ATOM     28  C   UNL     1      -3.160  -6.704   4.899  1.00  0.00    -0.014 A 
ATOM     29  C   UNL     1      -3.451  -5.290   4.790  1.00  0.00    -0.014 A 
ATOM     30  C   UNL     1      -4.636  -3.802   3.268  1.00  0.00     0.005 A 
ATOM     31  C   UNL     1      -3.000  -9.469   4.652  1.00  0.00     0.000 A 
ATOM     32  C   UNL     1      -2.624  -7.436   5.945  1.00  0.00     0.009 A 
ATOM     33  C   UNL     1      -3.162  -4.240   5.644  1.00  0.00     0.009 A 
ATOM     34  C   UNL     1      -4.333  -2.741   4.121  1.00  0.00     0.000 A 
ATOM     35  C   UNL     1      -2.547  -8.827   5.816  1.00  0.00     0.001 A 
ATOM     36  C   UNL     1      -3.591  -2.956   5.292  1.00  0.00     0.001 A 
ENDBRANCH  23  24
ENDBRANCH  22  23
ENDBRANCH  19  22
ENDBRANCH   6  18
ENDBRANCH   3   6
ENDBRANCH   1   2
BRANCH   1  37
ATOM     37  C   UNL     1      -0.119  -5.734  -2.631  1.00  0.00     0.023 C 
BRANCH  37  38
ATOM     38  C   UNL     1      -0.104  -7.180  -3.124  1.00  0.00     0.023 C 
BRANCH  38  39
ATOM     39  C   UNL     1      -1.468  -7.860  -3.167  1.00  0.00     0.116 C 
BRANCH  39  40
ATOM     40  N   UNL     1      -2.438  -7.160  -3.998  1.00  0.00    -0.352 N 
ATOM     41  C   UNL     1      -3.386  -7.707  -4.830  1.00  0.00     0.251 C 
ATOM     42  H   UNL     1      -2.411  -6.177  -3.959  1.00  0.00     0.163 HD
ATOM     43  O   UNL     1      -4.075  -7.002  -5.558  1.00  0.00    -0.269 OA
BRANCH  41  44
ATOM     44  C   UNL     1      -3.530  -9.174  -4.858  1.00  0.00     0.039 A 
ATOM     45  C   UNL     1      -3.377  -9.845  -6.072  1.00  0.00     0.014 A 
ATOM     46  C   UNL     1      -3.728  -9.878  -3.667  1.00  0.00     0.014 A 
ATOM     47  C   UNL     1      -3.345 -11.239  -6.082  1.00  0.00     0.010 A 
ATOM     48  C   UNL     1      -3.635 -11.265  -3.671  1.00  0.00     0.010 A 
ATOM     49  C   UNL     1      -3.433 -11.956  -4.877  1.00  0.00    -0.014 A 
BRANCH  49  50
ATOM     50  C   UNL     1      -3.297 -13.432  -4.850  1.00  0.00     0.031 A 
ATOM     51  C   UNL     1      -4.462 -14.285  -4.441  1.00  0.00     0.074 A 
ATOM     52  C   UNL     1      -2.103 -13.995  -5.113  1.00  0.00     0.049 A 
ATOM     53  N   UNL     1      -4.517 -15.581  -4.271  1.00  0.00    -0.248 NA
ATOM     54  C   UNL     1      -5.724 -13.585  -4.154  1.00  0.00     0.031 C 
ATOM     55  C   UNL     1      -0.881 -13.269  -5.466  1.00  0.00     0.029 A 
ATOM     56  N   UNL     1      -1.717 -15.312  -5.111  1.00  0.00    -0.354 N 
ATOM     57  C   UNL     1      -5.809 -15.849  -3.839  1.00  0.00     0.074 A 
ATOM     58  C   UNL     1      -6.492 -14.578  -3.731  1.00  0.00     0.031 C 
ATOM     59  C   UNL     1       0.113 -14.150  -5.664  1.00  0.00     0.029 A 
ATOM     60  C   UNL     1      -0.393 -15.498  -5.425  1.00  0.00     0.049 A 
ATOM     61  H   UNL     1      -2.331 -16.053  -4.903  1.00  0.00     0.167 HD
ATOM     62  C   UNL     1      -6.379 -17.048  -3.576  1.00  0.00     0.037 A 
ATOM     63  C   UNL     1       0.331 -16.630  -5.507  1.00  0.00     0.037 A 
ATOM     64  C   UNL     1      -5.711 -18.312  -3.724  1.00  0.00     0.049 A 
ATOM     65  C   UNL     1      -0.332 -17.950  -5.234  1.00  0.00     0.074 A 
ATOM     66  C   UNL     1      -6.228 -19.585  -3.558  1.00  0.00     0.029 A 
ATOM     67  N   UNL     1      -4.379 -18.462  -4.077  1.00  0.00    -0.354 N 
ATOM     68  N   UNL     1      -1.574 -18.194  -4.893  1.00  0.00    -0.248 NA
ATOM     69  C   UNL     1       0.505 -19.152  -5.362  1.00  0.00     0.031 C 
ATOM     70  C   UNL     1      -5.199 -20.507  -3.784  1.00  0.00     0.029 A 
ATOM     71  C   UNL     1      -4.051 -19.807  -4.121  1.00  0.00     0.049 A 
ATOM     72  H   UNL     1      -3.758 -17.723  -4.269  1.00  0.00     0.167 HD
ATOM     73  C   UNL     1      -1.674 -19.575  -4.787  1.00  0.00     0.074 A 
ATOM     74  C   UNL     1      -0.370 -20.116  -5.110  1.00  0.00     0.031 C 
ATOM     75  C   UNL     1      -2.750 -20.326  -4.452  1.00  0.00     0.037 A 
BRANCH  62  76
ATOM     76  C   UNL     1      -7.804 -17.043  -3.112  1.00  0.00     0.057 A 
ATOM     77  C   UNL     1      -8.861 -16.755  -3.985  1.00  0.00     0.134 A 
ATOM     78  C   UNL     1      -8.125 -17.353  -1.785  1.00  0.00     0.134 A 
ATOM     79  F   UNL     1      -8.616 -16.435  -5.265  1.00  0.00    -0.206 F 
ATOM     80  C   UNL     1     -10.186 -16.751  -3.549  1.00  0.00     0.040 A 
ATOM     81  C   UNL     1      -9.449 -17.375  -1.343  1.00  0.00     0.040 A 
ATOM     82  F   UNL     1      -7.160 -17.642  -0.899  1.00  0.00    -0.206 F 
ATOM     83  C   UNL     1     -10.483 -17.068  -2.225  1.00  0.00     0.006 A 
ENDBRANCH  62  76
BRANCH  63  84
ATOM     84  C   UNL     1       1.761 -16.567  -5.893  1.00  0.00     0.057 A 
ATOM     85  C   UNL     1       2.180 -16.983  -7.162  1.00  0.00     0.134 A 
ATOM     86  C   UNL     1       2.739 -16.095  -5.011  1.00  0.00     0.134 A 
ATOM     87  F   UNL     1       1.289 -17.462  -8.043  1.00  0.00    -0.206 F 
ATOM     88  C   UNL     1       3.523 -16.944  -7.537  1.00  0.00     0.040 A 
ATOM     89  C   UNL     1       4.084 -16.033  -5.379  1.00  0.00     0.040 A 
ATOM     90  F   UNL     1       2.398 -15.676  -3.784  1.00  0.00    -0.206 F 
ATOM     91  C   UNL     1       4.480 -16.464  -6.645  1.00  0.00     0.006 A 
ENDBRANCH  63  84
BRANCH  75  92
ATOM     92  C   UNL     1      -2.571 -21.813  -4.444  1.00  0.00     0.057 A 
ATOM     93  C   UNL     1      -1.900 -22.465  -3.402  1.00  0.00     0.134 A 
ATOM     94  C   UNL     1      -3.117 -22.603  -5.463  1.00  0.00     0.134 A 
ATOM     95  F   UNL     1      -1.345 -21.761  -2.405  1.00  0.00    -0.206 F 
ATOM     96  C   UNL     1      -1.768 -23.854  -3.381  1.00  0.00     0.040 A 
ATOM     97  C   UNL     1      -3.008 -23.993  -5.443  1.00  0.00     0.040 A 
ATOM     98  F   UNL     1      -3.775 -22.036  -6.485  1.00  0.00    -0.206 F 
ATOM     99  C   UNL     1      -2.330 -24.622  -4.400  1.00  0.00     0.006 A 
ENDBRANCH  75  92
ENDBRANCH  49  50
ENDBRANCH  41  44
ENDBRANCH  39  40
ENDBRANCH  38  39
ENDBRANCH  37  38
ENDBRANCH   1  37
TORSDOF 17
