REMARK SMILES COC[C@@H](C)N(C)C(=O)N1CCC(CC(=O)NCCCCNC(=O)c2ccc(-c3c4nc(c(-c5c(F)cccc5F)c5ccc([nH]5)c(-c5c(F)cccc5F)c5nc(c(-c6c(F)cccc6F)c6ccc3[nH]6)C=C5)C=C4)cc2)CC1
REMARK SMILES IDX 18 1 17 2 15 3 16 4 14 6 13 7 8 8 9 9 10 10 11 11 80 12
REMARK SMILES IDX 12 13 79 14 6 15 7 16 4 17 5 18 3 19 2 20 1 21 19 22 20 23
REMARK SMILES IDX 21 24 22 25 23 26 24 28 25 29 26 30 78 31 27 32 77 33 28 34
REMARK SMILES IDX 29 35 30 36 71 37 31 38 76 39 70 40 72 41 32 42 75 43 69 44
REMARK SMILES IDX 68 45 33 47 59 48 42 49 58 50 43 51 46 52 57 53 73 54 44 55
REMARK SMILES IDX 45 56 56 58 74 59 47 60 34 61 35 62 40 63 36 64 37 65 39 66
REMARK SMILES IDX 41 67 38 68 60 69 61 70 66 71 62 72 63 73 65 74 67 75 64 76
REMARK SMILES IDX 48 77 49 78 54 79 50 80 51 81 53 82 55 83 52 84
REMARK H PARENT 17 5 22 27 72 46 46 57
REMARK Flexibility Score: inf
ROOT
ATOM      1  C   UNL     1       7.462  -6.104   3.162  1.00  0.00     0.116 C 
ENDROOT
BRANCH   1   2
ATOM      2  N   UNL     1       7.302  -7.511   3.494  1.00  0.00    -0.356 N 
ATOM      3  C   UNL     1       6.476  -8.460   2.962  1.00  0.00     0.220 C 
ATOM      4  O   UNL     1       6.489  -9.587   3.459  1.00  0.00    -0.275 OA
ATOM      5  H   UNL     1       7.883  -7.831   4.221  1.00  0.00     0.163 HD
BRANCH   3   6
ATOM      6  C   UNL     1       5.549  -8.135   1.796  1.00  0.00     0.103 C 
BRANCH   6   7
ATOM      7  C   UNL     1       4.114  -7.758   2.227  1.00  0.00     0.002 C 
ATOM      8  C   UNL     1       1.950  -4.453   1.702  1.00  0.00     0.320 C 
ATOM      9  O   UNL     1       2.947  -3.743   1.595  1.00  0.00    -0.248 OA
ATOM     10  N   UNL     1       2.020  -5.726   2.233  1.00  0.00    -0.325 N 
ATOM     11  C   UNL     1       2.777  -5.935   3.441  1.00  0.00     0.121 C 
ATOM     12  C   UNL     1       1.855  -6.899   1.386  1.00  0.00     0.121 C 
ATOM     13  C   UNL     1       4.133  -6.533   3.139  1.00  0.00     0.026 C 
ATOM     14  C   UNL     1       3.217  -7.496   1.001  1.00  0.00     0.026 C 
BRANCH   8  15
ATOM     15  N   UNL     1       0.667  -4.024   1.385  1.00  0.00    -0.323 N 
ATOM     16  C   UNL     1      -0.521  -4.731   1.846  1.00  0.00     0.149 C 
BRANCH  15  17
ATOM     17  C   UNL     1       0.455  -2.726   0.707  1.00  0.00     0.109 C 
ATOM     18  C   UNL     1       1.049  -2.741  -0.703  1.00  0.00     0.033 C 
BRANCH  17  19
ATOM     19  C   UNL     1       0.947  -1.533   1.561  1.00  0.00     0.184 C 
BRANCH  19  20
ATOM     20  O   UNL     1       0.267  -0.308   1.264  1.00  0.00    -0.383 OA
ATOM     21  C   UNL     1       0.885   0.462   0.243  1.00  0.00     0.194 C 
ENDBRANCH  19  20
ENDBRANCH  17  19
ENDBRANCH  15  17
ENDBRANCH   8  15
ENDBRANCH   6   7
ENDBRANCH   3   6
ENDBRANCH   1   2
BRANCH   1  22
ATOM     22  C   UNL     1       6.843  -5.189   4.225  1.00  0.00     0.023 C 
BRANCH  22  23
ATOM     23  C   UNL     1       7.736  -4.858   5.407  1.00  0.00     0.023 C 
BRANCH  23  24
ATOM     24  C   UNL     1       8.896  -3.945   5.067  1.00  0.00     0.116 C 
BRANCH  24  25
ATOM     25  N   UNL     1       8.485  -2.651   4.535  1.00  0.00    -0.352 N 
ATOM     26  C   UNL     1       8.945  -1.398   4.869  1.00  0.00     0.251 C 
ATOM     27  H   UNL     1       7.784  -2.677   3.844  1.00  0.00     0.163 HD
ATOM     28  O   UNL     1       8.439  -0.391   4.396  1.00  0.00    -0.269 OA
BRANCH  26  29
ATOM     29  C   UNL     1      10.039  -1.291   5.855  1.00  0.00     0.039 A 
ATOM     30  C   UNL     1       9.893  -0.426   6.940  1.00  0.00     0.014 A 
ATOM     31  C   UNL     1      11.156  -2.122   5.750  1.00  0.00     0.014 A 
ATOM     32  C   UNL     1      10.831  -0.460   7.971  1.00  0.00     0.010 A 
ATOM     33  C   UNL     1      12.022  -2.236   6.826  1.00  0.00     0.010 A 
ATOM     34  C   UNL     1      11.875  -1.399   7.943  1.00  0.00    -0.014 A 
BRANCH  34  35
ATOM     35  C   UNL     1      12.850  -1.514   9.053  1.00  0.00     0.031 A 
ATOM     36  C   UNL     1      14.310  -1.278   8.780  1.00  0.00     0.074 A 
ATOM     37  C   UNL     1      12.440  -1.913  10.273  1.00  0.00     0.049 A 
ATOM     38  N   UNL     1      15.337  -1.437   9.573  1.00  0.00    -0.248 NA
ATOM     39  C   UNL     1      14.666  -0.849   7.416  1.00  0.00     0.031 C 
ATOM     40  C   UNL     1      11.061  -2.239  10.644  1.00  0.00     0.029 A 
ATOM     41  N   UNL     1      13.151  -2.124  11.427  1.00  0.00    -0.354 N 
ATOM     42  C   UNL     1      16.455  -1.161   8.796  1.00  0.00     0.074 A 
ATOM     43  C   UNL     1      15.988  -0.885   7.457  1.00  0.00     0.031 C 
ATOM     44  C   UNL     1      11.023  -2.579  11.943  1.00  0.00     0.029 A 
ATOM     45  C   UNL     1      12.376  -2.529  12.486  1.00  0.00     0.049 A 
ATOM     46  H   UNL     1      14.125  -1.997  11.490  1.00  0.00     0.167 HD
ATOM     47  C   UNL     1      17.753  -1.110   9.173  1.00  0.00     0.037 A 
ATOM     48  C   UNL     1      12.723  -2.825  13.753  1.00  0.00     0.037 A 
ATOM     49  C   UNL     1      18.206  -1.325  10.520  1.00  0.00     0.049 A 
ATOM     50  C   UNL     1      14.166  -2.714  14.159  1.00  0.00     0.074 A 
ATOM     51  C   UNL     1      19.489  -1.217  11.026  1.00  0.00     0.029 A 
ATOM     52  N   UNL     1      17.383  -1.680  11.577  1.00  0.00    -0.354 N 
ATOM     53  N   UNL     1      15.206  -2.385  13.431  1.00  0.00    -0.248 NA
ATOM     54  C   UNL     1      14.484  -3.008  15.564  1.00  0.00     0.031 C 
ATOM     55  C   UNL     1      19.446  -1.534  12.388  1.00  0.00     0.029 A 
ATOM     56  C   UNL     1      18.131  -1.805  12.735  1.00  0.00     0.049 A 
ATOM     57  H   UNL     1      16.411  -1.822  11.514  1.00  0.00     0.167 HD
ATOM     58  C   UNL     1      16.295  -2.406  14.293  1.00  0.00     0.074 A 
ATOM     59  C   UNL     1      15.787  -2.768  15.600  1.00  0.00     0.031 C 
ATOM     60  C   UNL     1      17.599  -2.152  14.026  1.00  0.00     0.037 A 
BRANCH  47  61
ATOM     61  C   UNL     1      18.766  -0.789   8.114  1.00  0.00     0.057 A 
ATOM     62  C   UNL     1      18.862   0.490   7.549  1.00  0.00     0.134 A 
ATOM     63  C   UNL     1      19.665  -1.763   7.665  1.00  0.00     0.134 A 
ATOM     64  F   UNL     1      18.017   1.463   7.923  1.00  0.00    -0.206 F 
ATOM     65  C   UNL     1      19.796   0.780   6.554  1.00  0.00     0.040 A 
ATOM     66  C   UNL     1      20.622  -1.478   6.690  1.00  0.00     0.040 A 
ATOM     67  F   UNL     1      19.629  -3.007   8.166  1.00  0.00    -0.206 F 
ATOM     68  C   UNL     1      20.685  -0.204   6.127  1.00  0.00     0.006 A 
ENDBRANCH  47  61
BRANCH  48  69
ATOM     69  C   UNL     1      11.685  -3.216  14.739  1.00  0.00     0.057 A 
ATOM     70  C   UNL     1      11.312  -2.347  15.772  1.00  0.00     0.134 A 
ATOM     71  C   UNL     1      11.049  -4.461  14.683  1.00  0.00     0.134 A 
ATOM     72  F   UNL     1      11.899  -1.146  15.888  1.00  0.00    -0.206 F 
ATOM     73  C   UNL     1      10.360  -2.710  16.726  1.00  0.00     0.040 A 
ATOM     74  C   UNL     1      10.079  -4.829  15.617  1.00  0.00     0.040 A 
ATOM     75  F   UNL     1      11.356  -5.334  13.712  1.00  0.00    -0.206 F 
ATOM     76  C   UNL     1       9.737  -3.954  16.647  1.00  0.00     0.006 A 
ENDBRANCH  48  69
BRANCH  60  77
ATOM     77  C   UNL     1      18.558  -2.220  15.176  1.00  0.00     0.057 A 
ATOM     78  C   UNL     1      18.966  -3.443  15.722  1.00  0.00     0.134 A 
ATOM     79  C   UNL     1      19.114  -1.051  15.709  1.00  0.00     0.134 A 
ATOM     80  F   UNL     1      18.459  -4.596  15.261  1.00  0.00    -0.206 F 
ATOM     81  C   UNL     1      19.882  -3.499  16.773  1.00  0.00     0.040 A 
ATOM     82  C   UNL     1      20.048  -1.096  16.744  1.00  0.00     0.040 A 
ATOM     83  F   UNL     1      18.770   0.151  15.222  1.00  0.00    -0.206 F 
ATOM     84  C   UNL     1      20.431  -2.323  17.281  1.00  0.00     0.006 A 
ENDBRANCH  60  77
ENDBRANCH  34  35
ENDBRANCH  26  29
ENDBRANCH  24  25
ENDBRANCH  23  24
ENDBRANCH  22  23
ENDBRANCH   1  22
TORSDOF 16
