REMARK SMILES CN(CC1CCC1)C(=O)N(CC(=O)NCCCCNC(=O)c1ccc(-c2c3nc(c(-c4c(F)cccc4F)c4ccc([nH]4)c(-c4c(F)cccc4F)c4nc(c(-c5c(F)cccc5F)c5ccc2[nH]5)C=C4)C=C3)cc1)C(C)(C)C
REMARK SMILES IDX 15 1 14 2 12 3 13 4 11 6 10 7 8 8 9 9 2 10 1 11 3 12 4 13
REMARK SMILES IDX 5 14 7 15 6 16 76 17 77 18 78 19 79 20 16 21 17 22 18 23
REMARK SMILES IDX 19 24 20 25 21 27 22 28 23 29 75 30 24 31 74 32 25 33 26 34
REMARK SMILES IDX 27 35 68 36 28 37 73 38 67 39 69 40 29 41 72 42 66 43 65 44
REMARK SMILES IDX 30 46 56 47 39 48 55 49 40 50 43 51 54 52 70 53 41 54 42 55
REMARK SMILES IDX 53 57 71 58 44 59 31 60 32 61 37 62 33 63 34 64 36 65 38 66
REMARK SMILES IDX 35 67 57 68 58 69 63 70 59 71 60 72 62 73 64 74 61 75 45 76
REMARK SMILES IDX 46 77 51 78 47 79 48 80 50 81 52 82 49 83
REMARK H PARENT 14 5 19 26 69 45 43 56
REMARK Flexibility Score: inf
ROOT
ATOM      1  C   UNL     1      -2.141   1.717  -3.126  1.00  0.00     0.116 C 
ENDROOT
BRANCH   1   2
ATOM      2  N   UNL     1      -2.369   1.223  -4.465  1.00  0.00    -0.355 N 
ATOM      3  C   UNL     1      -1.775   0.171  -5.098  1.00  0.00     0.239 C 
ATOM      4  O   UNL     1      -2.401  -0.334  -6.038  1.00  0.00    -0.273 OA
ATOM      5  H   UNL     1      -3.042   1.712  -4.990  1.00  0.00     0.163 HD
BRANCH   3   6
ATOM      6  C   UNL     1      -0.469  -0.491  -4.605  1.00  0.00     0.221 C 
BRANCH   6   7
ATOM      7  N   UNL     1       0.614   0.351  -4.079  1.00  0.00    -0.311 N 
BRANCH   7   8
ATOM      8  C   UNL     1       1.027   0.453  -2.751  1.00  0.00     0.320 C 
ATOM      9  O   UNL     1       1.826   1.351  -2.444  1.00  0.00    -0.248 OA
BRANCH   8  10
ATOM     10  N   UNL     1       0.565  -0.342  -1.708  1.00  0.00    -0.327 N 
ATOM     11  C   UNL     1       1.058   0.094  -0.394  1.00  0.00     0.148 C 
BRANCH  10  12
ATOM     12  C   UNL     1      -0.206  -1.595  -1.647  1.00  0.00     0.124 C 
BRANCH  12  13
ATOM     13  C   UNL     1      -1.681  -1.244  -1.492  1.00  0.00     0.008 C 
ATOM     14  C   UNL     1      -2.683  -2.337  -1.017  1.00  0.00     0.005 C 
ATOM     15  C   UNL     1      -2.185  -0.427  -0.258  1.00  0.00     0.005 C 
ATOM     16  C   UNL     1      -3.527  -1.169  -0.443  1.00  0.00     0.001 C 
ENDBRANCH  12  13
ENDBRANCH  10  12
ENDBRANCH   8  10
ENDBRANCH   7   8
BRANCH   7  17
ATOM     17  C   UNL     1       1.259   1.310  -5.091  1.00  0.00     0.037 C 
ATOM     18  C   UNL     1       0.841   2.774  -4.821  1.00  0.00     0.034 C 
ATOM     19  C   UNL     1       2.804   1.198  -5.077  1.00  0.00     0.034 C 
ATOM     20  C   UNL     1       0.868   1.040  -6.575  1.00  0.00     0.034 C 
ENDBRANCH   7  17
ENDBRANCH   6   7
ENDBRANCH   3   6
ENDBRANCH   1   2
BRANCH   1  21
ATOM     21  C   UNL     1      -2.254   3.225  -2.970  1.00  0.00     0.023 C 
BRANCH  21  22
ATOM     22  C   UNL     1      -3.677   3.760  -3.042  1.00  0.00     0.023 C 
BRANCH  22  23
ATOM     23  C   UNL     1      -4.651   3.144  -2.046  1.00  0.00     0.116 C 
BRANCH  23  24
ATOM     24  N   UNL     1      -4.253   3.318  -0.655  1.00  0.00    -0.352 N 
ATOM     25  C   UNL     1      -4.965   3.872   0.388  1.00  0.00     0.251 C 
ATOM     26  H   UNL     1      -3.351   2.997  -0.429  1.00  0.00     0.163 HD
ATOM     27  O   UNL     1      -4.452   4.036   1.482  1.00  0.00    -0.269 OA
BRANCH  25  28
ATOM     28  C   UNL     1      -6.356   4.307   0.143  1.00  0.00     0.039 A 
ATOM     29  C   UNL     1      -6.721   5.615   0.464  1.00  0.00     0.014 A 
ATOM     30  C   UNL     1      -7.260   3.450  -0.489  1.00  0.00     0.014 A 
ATOM     31  C   UNL     1      -7.966   6.098   0.057  1.00  0.00     0.010 A 
ATOM     32  C   UNL     1      -8.457   3.959  -0.973  1.00  0.00     0.010 A 
ATOM     33  C   UNL     1      -8.819   5.291  -0.713  1.00  0.00    -0.014 A 
BRANCH  33  34
ATOM     34  C   UNL     1     -10.084   5.822  -1.281  1.00  0.00     0.031 A 
ATOM     35  C   UNL     1     -11.400   5.208  -0.894  1.00  0.00     0.074 A 
ATOM     36  C   UNL     1     -10.041   6.786  -2.221  1.00  0.00     0.049 A 
ATOM     37  N   UNL     1     -12.599   5.468  -1.350  1.00  0.00    -0.248 NA
ATOM     38  C   UNL     1     -11.357   4.132   0.108  1.00  0.00     0.031 C 
ATOM     39  C   UNL     1      -8.823   7.409  -2.743  1.00  0.00     0.029 A 
ATOM     40  N   UNL     1     -11.051   7.396  -2.922  1.00  0.00    -0.354 N 
ATOM     41  C   UNL     1     -13.445   4.570  -0.713  1.00  0.00     0.074 A 
ATOM     42  C   UNL     1     -12.617   3.725   0.120  1.00  0.00     0.031 C 
ATOM     43  C   UNL     1      -9.157   8.323  -3.667  1.00  0.00     0.029 A 
ATOM     44  C   UNL     1     -10.608   8.328  -3.829  1.00  0.00     0.049 A 
ATOM     45  H   UNL     1     -12.003   7.186  -2.788  1.00  0.00     0.167 HD
ATOM     46  C   UNL     1     -14.793   4.472  -0.797  1.00  0.00     0.037 A 
ATOM     47  C   UNL     1     -11.291   9.095  -4.699  1.00  0.00     0.037 A 
ATOM     48  C   UNL     1     -15.617   5.341  -1.593  1.00  0.00     0.049 A 
ATOM     49  C   UNL     1     -12.790   9.000  -4.746  1.00  0.00     0.074 A 
ATOM     50  C   UNL     1     -16.998   5.393  -1.663  1.00  0.00     0.029 A 
ATOM     51  N   UNL     1     -15.135   6.308  -2.462  1.00  0.00    -0.354 N 
ATOM     52  N   UNL     1     -13.587   8.214  -4.064  1.00  0.00    -0.248 NA
ATOM     53  C   UNL     1     -13.484   9.904  -5.674  1.00  0.00     0.031 C 
ATOM     54  C   UNL     1     -17.351   6.362  -2.609  1.00  0.00     0.029 A 
ATOM     55  C   UNL     1     -16.191   6.944  -3.095  1.00  0.00     0.049 A 
ATOM     56  H   UNL     1     -14.183   6.512  -2.608  1.00  0.00     0.167 HD
ATOM     57  C   UNL     1     -14.876   8.537  -4.468  1.00  0.00     0.074 A 
ATOM     58  C   UNL     1     -14.754   9.603  -5.441  1.00  0.00     0.031 C 
ATOM     59  C   UNL     1     -16.054   7.999  -4.066  1.00  0.00     0.037 A 
BRANCH  46  60
ATOM     60  C   UNL     1     -15.453   3.384  -0.002  1.00  0.00     0.057 A 
ATOM     61  C   UNL     1     -15.514   3.421   1.398  1.00  0.00     0.134 A 
ATOM     62  C   UNL     1     -16.042   2.289  -0.645  1.00  0.00     0.134 A 
ATOM     63  F   UNL     1     -14.957   4.436   2.076  1.00  0.00    -0.206 F 
ATOM     64  C   UNL     1     -16.104   2.390   2.131  1.00  0.00     0.040 A 
ATOM     65  C   UNL     1     -16.660   1.266   0.075  1.00  0.00     0.040 A 
ATOM     66  F   UNL     1     -16.024   2.193  -1.983  1.00  0.00    -0.206 F 
ATOM     67  C   UNL     1     -16.684   1.310   1.468  1.00  0.00     0.006 A 
ENDBRANCH  46  60
BRANCH  47  68
ATOM     68  C   UNL     1     -10.558  10.039  -5.579  1.00  0.00     0.057 A 
ATOM     69  C   UNL     1     -10.594  11.418  -5.347  1.00  0.00     0.134 A 
ATOM     70  C   UNL     1      -9.787   9.584  -6.655  1.00  0.00     0.134 A 
ATOM     71  F   UNL     1     -11.330  11.914  -4.341  1.00  0.00    -0.206 F 
ATOM     72  C   UNL     1      -9.897  12.314  -6.158  1.00  0.00     0.040 A 
ATOM     73  C   UNL     1      -9.067  10.467  -7.462  1.00  0.00     0.040 A 
ATOM     74  F   UNL     1      -9.705   8.273  -6.923  1.00  0.00    -0.206 F 
ATOM     75  C   UNL     1      -9.125  11.838  -7.216  1.00  0.00     0.006 A 
ENDBRANCH  47  68
BRANCH  59  76
ATOM     76  C   UNL     1     -17.306   8.563  -4.669  1.00  0.00     0.057 A 
ATOM     77  C   UNL     1     -17.676   8.287  -5.991  1.00  0.00     0.134 A 
ATOM     78  C   UNL     1     -18.174   9.352  -3.904  1.00  0.00     0.134 A 
ATOM     79  F   UNL     1     -16.882   7.547  -6.779  1.00  0.00    -0.206 F 
ATOM     80  C   UNL     1     -18.858   8.791  -6.536  1.00  0.00     0.040 A 
ATOM     81  C   UNL     1     -19.369   9.842  -4.431  1.00  0.00     0.040 A 
ATOM     82  F   UNL     1     -17.881   9.647  -2.628  1.00  0.00    -0.206 F 
ATOM     83  C   UNL     1     -19.712   9.565  -5.753  1.00  0.00     0.006 A 
ENDBRANCH  59  76
ENDBRANCH  33  34
ENDBRANCH  25  28
ENDBRANCH  23  24
ENDBRANCH  22  23
ENDBRANCH  21  22
ENDBRANCH   1  21
TORSDOF 17
