REMARK SMILES CN1C(=O)Cc2cc([C@@H](O)CCCCC(=O)NCCCCNC(=O)c3ccc(-c4c5nc(c(-c6c(F)cccc6F)c6ccc([nH]6)c(-c6c(F)cccc6F)c6nc(c(-c7c(F)cccc7F)c7ccc4[nH]7)C=C6)C=C5)cc3)ccc21
REMARK SMILES IDX 18 1 17 2 15 3 16 4 14 6 13 7 12 8 11 9 9 10 8 11 1 12 2 13
REMARK SMILES IDX 3 14 81 15 4 16 5 17 6 18 80 19 7 20 79 21 10 22 19 24 20 25
REMARK SMILES IDX 21 26 22 27 23 28 24 30 25 31 26 32 78 33 27 34 77 35 28 36
REMARK SMILES IDX 29 37 30 38 71 39 31 40 76 41 70 42 72 43 32 44 75 45 69 46
REMARK SMILES IDX 68 47 33 49 59 50 42 51 58 52 43 53 46 54 57 55 73 56 44 57
REMARK SMILES IDX 45 58 56 60 74 61 47 62 34 63 35 64 40 65 36 66 37 67 39 68
REMARK SMILES IDX 41 69 38 70 60 71 61 72 66 73 62 74 63 75 65 76 67 77 64 78
REMARK SMILES IDX 48 79 49 80 54 81 50 82 51 83 53 84 55 85 52 86
REMARK H PARENT 17 5 10 23 22 29 72 48 46 59
REMARK Flexibility Score: inf
ROOT
ATOM      1  C   UNL     1       5.614   3.013   3.644  1.00  0.00     0.116 C 
ENDROOT
BRANCH   1   2
ATOM      2  N   UNL     1       6.416   2.114   4.446  1.00  0.00    -0.356 N 
ATOM      3  C   UNL     1       6.974   0.915   4.124  1.00  0.00     0.219 C 
ATOM      4  O   UNL     1       7.544   0.282   5.014  1.00  0.00    -0.275 OA
ATOM      5  H   UNL     1       6.585   2.417   5.368  1.00  0.00     0.163 HD
BRANCH   3   6
ATOM      6  C   UNL     1       6.928   0.386   2.701  1.00  0.00     0.100 C 
BRANCH   6   7
ATOM      7  C   UNL     1       5.713  -0.487   2.375  1.00  0.00     0.010 C 
BRANCH   7   8
ATOM      8  C   UNL     1       4.429   0.239   1.980  1.00  0.00     0.004 C 
BRANCH   8   9
ATOM      9  C   UNL     1       4.536   1.206   0.791  1.00  0.00     0.037 C 
BRANCH   9  10
ATOM     10  C   UNL     1       4.138   0.603  -0.558  1.00  0.00     0.144 C 
BRANCH  10  11
ATOM     11  C   UNL     1       2.681   0.191  -0.564  1.00  0.00    -0.019 A 
ATOM     12  C   UNL     1      -1.962  -2.076   0.053  1.00  0.00     0.153 C 
ATOM     13  N   UNL     1      -1.313  -0.798  -0.059  1.00  0.00    -0.315 N 
ATOM     14  C   UNL     1      -1.965   0.436   0.020  1.00  0.00     0.231 C 
ATOM     15  C   UNL     1       0.059  -0.636  -0.250  1.00  0.00     0.047 A 
ATOM     16  O   UNL     1      -3.156   0.631   0.184  1.00  0.00    -0.274 OA
ATOM     17  C   UNL     1      -0.894   1.524  -0.131  1.00  0.00     0.138 C 
ATOM     18  C   UNL     1       0.359   0.723  -0.311  1.00  0.00    -0.014 A 
ATOM     19  C   UNL     1       1.036  -1.606  -0.358  1.00  0.00     0.027 A 
ATOM     20  C   UNL     1       1.661   1.157  -0.477  1.00  0.00     0.012 A 
ATOM     21  C   UNL     1       2.355  -1.184  -0.520  1.00  0.00     0.008 A 
ENDBRANCH  10  11
BRANCH  10  22
ATOM     22  O   UNL     1       4.370   1.582  -1.569  1.00  0.00    -0.388 OA
ATOM     23  H   UNL     1       3.833   2.369  -1.387  1.00  0.00     0.211 HD
ENDBRANCH  10  22
ENDBRANCH   9  10
ENDBRANCH   8   9
ENDBRANCH   7   8
ENDBRANCH   6   7
ENDBRANCH   3   6
ENDBRANCH   1   2
BRANCH   1  24
ATOM     24  C   UNL     1       4.144   2.957   4.069  1.00  0.00     0.023 C 
BRANCH  24  25
ATOM     25  C   UNL     1       3.754   3.948   5.154  1.00  0.00     0.023 C 
BRANCH  25  26
ATOM     26  C   UNL     1       3.876   5.402   4.741  1.00  0.00     0.116 C 
BRANCH  26  27
ATOM     27  N   UNL     1       3.018   5.774   3.625  1.00  0.00    -0.352 N 
ATOM     28  C   UNL     1       2.325   6.950   3.449  1.00  0.00     0.251 C 
ATOM     29  H   UNL     1       2.921   5.104   2.910  1.00  0.00     0.163 HD
ATOM     30  O   UNL     1       1.559   7.095   2.503  1.00  0.00    -0.269 OA
BRANCH  28  31
ATOM     31  C   UNL     1       2.487   8.022   4.454  1.00  0.00     0.039 A 
ATOM     32  C   UNL     1       1.350   8.622   4.995  1.00  0.00     0.014 A 
ATOM     33  C   UNL     1       3.759   8.364   4.920  1.00  0.00     0.014 A 
ATOM     34  C   UNL     1       1.491   9.523   6.051  1.00  0.00     0.010 A 
ATOM     35  C   UNL     1       3.886   9.165   6.046  1.00  0.00     0.010 A 
ATOM     36  C   UNL     1       2.757   9.774   6.609  1.00  0.00    -0.014 A 
BRANCH  36  37
ATOM     37  C   UNL     1       2.917  10.706   7.753  1.00  0.00     0.031 A 
ATOM     38  C   UNL     1       3.762  11.944   7.598  1.00  0.00     0.074 A 
ATOM     39  C   UNL     1       2.337  10.423   8.937  1.00  0.00     0.049 A 
ATOM     40  N   UNL     1       4.022  12.880   8.474  1.00  0.00    -0.248 NA
ATOM     41  C   UNL     1       4.432  12.140   6.301  1.00  0.00     0.031 C 
ATOM     42  C   UNL     1       1.562   9.216   9.236  1.00  0.00     0.029 A 
ATOM     43  N   UNL     1       2.308  11.132  10.111  1.00  0.00    -0.354 N 
ATOM     44  C   UNL     1       4.893  13.758   7.840  1.00  0.00     0.074 A 
ATOM     45  C   UNL     1       5.174  13.211   6.534  1.00  0.00     0.031 C 
ATOM     46  C   UNL     1       1.103   9.288  10.496  1.00  0.00     0.029 A 
ATOM     47  C   UNL     1       1.577  10.527  11.105  1.00  0.00     0.049 A 
ATOM     48  H   UNL     1       2.769  11.994  10.231  1.00  0.00     0.167 HD
ATOM     49  C   UNL     1       5.385  14.934   8.292  1.00  0.00     0.037 A 
ATOM     50  C   UNL     1       1.315  10.930  12.363  1.00  0.00     0.037 A 
ATOM     51  C   UNL     1       5.065  15.499   9.574  1.00  0.00     0.049 A 
ATOM     52  C   UNL     1       1.851  12.258  12.827  1.00  0.00     0.074 A 
ATOM     53  C   UNL     1       5.438  16.726  10.091  1.00  0.00     0.029 A 
ATOM     54  N   UNL     1       4.295  14.871  10.541  1.00  0.00    -0.354 N 
ATOM     55  N   UNL     1       2.585  13.129  12.176  1.00  0.00    -0.248 NA
ATOM     56  C   UNL     1       1.510  12.667  14.197  1.00  0.00     0.031 C 
ATOM     57  C   UNL     1       4.940  16.818  11.394  1.00  0.00     0.029 A 
ATOM     58  C   UNL     1       4.208  15.673  11.666  1.00  0.00     0.049 A 
ATOM     59  H   UNL     1       3.874  13.986  10.443  1.00  0.00     0.167 HD
ATOM     60  C   UNL     1       2.773  14.195  13.046  1.00  0.00     0.074 A 
ATOM     61  C   UNL     1       2.052  13.874  14.261  1.00  0.00     0.031 C 
ATOM     62  C   UNL     1       3.482  15.335  12.863  1.00  0.00     0.037 A 
BRANCH  49  63
ATOM     63  C   UNL     1       6.311  15.698   7.389  1.00  0.00     0.057 A 
ATOM     64  C   UNL     1       5.859  16.318   6.216  1.00  0.00     0.134 A 
ATOM     65  C   UNL     1       7.661  15.858   7.726  1.00  0.00     0.134 A 
ATOM     66  F   UNL     1       4.581  16.191   5.828  1.00  0.00    -0.206 F 
ATOM     67  C   UNL     1       6.721  17.054   5.401  1.00  0.00     0.040 A 
ATOM     68  C   UNL     1       8.525  16.616   6.934  1.00  0.00     0.040 A 
ATOM     69  F   UNL     1       8.159  15.293   8.835  1.00  0.00    -0.206 F 
ATOM     70  C   UNL     1       8.056  17.213   5.765  1.00  0.00     0.006 A 
ENDBRANCH  49  63
BRANCH  50  71
ATOM     71  C   UNL     1       0.497  10.084  13.271  1.00  0.00     0.057 A 
ATOM     72  C   UNL     1      -0.771  10.493  13.702  1.00  0.00     0.134 A 
ATOM     73  C   UNL     1       0.978   8.863  13.759  1.00  0.00     0.134 A 
ATOM     74  F   UNL     1      -1.282  11.660  13.284  1.00  0.00    -0.206 F 
ATOM     75  C   UNL     1      -1.515   9.738  14.612  1.00  0.00     0.040 A 
ATOM     76  C   UNL     1       0.232   8.084  14.645  1.00  0.00     0.040 A 
ATOM     77  F   UNL     1       2.180   8.408  13.379  1.00  0.00    -0.206 F 
ATOM     78  C   UNL     1      -1.014   8.527  15.084  1.00  0.00     0.006 A 
ENDBRANCH  50  71
BRANCH  62  79
ATOM     79  C   UNL     1       3.490  16.327  13.990  1.00  0.00     0.057 A 
ATOM     80  C   UNL     1       4.169  16.078  15.189  1.00  0.00     0.134 A 
ATOM     81  C   UNL     1       2.836  17.559  13.860  1.00  0.00     0.134 A 
ATOM     82  F   UNL     1       4.807  14.914  15.381  1.00  0.00    -0.206 F 
ATOM     83  C   UNL     1       4.170  17.006  16.232  1.00  0.00     0.040 A 
ATOM     84  C   UNL     1       2.857  18.507  14.882  1.00  0.00     0.040 A 
ATOM     85  F   UNL     1       2.178  17.866  12.732  1.00  0.00    -0.206 F 
ATOM     86  C   UNL     1       3.518  18.227  16.076  1.00  0.00     0.006 A 
ENDBRANCH  62  79
ENDBRANCH  36  37
ENDBRANCH  28  31
ENDBRANCH  26  27
ENDBRANCH  25  26
ENDBRANCH  24  25
ENDBRANCH   1  24
TORSDOF 17
