REMARK SMILES COC(=O)c1ccc(Cl)c(-c2ccc(F)cc2C(=O)NCCCCNC(=O)c2ccc(-c3c4nc(c(-c5c(F)cccc5F)c5ccc([nH]5)c(-c5c(F)cccc5F)c5nc(c(-c6c(F)cccc6F)c6ccc3[nH]6)C=C5)C=C4)cc2)c1
REMARK SMILES IDX 22 1 21 2 20 3 18 4 19 5 17 7 11 8 12 9 13 10 16 11 14 12
REMARK SMILES IDX 15 13 10 14 5 15 6 16 82 17 7 18 8 19 9 20 3 21 4 22 2 23
REMARK SMILES IDX 1 24 23 25 24 26 25 27 26 28 27 30 28 31 29 32 81 33 30 34
REMARK SMILES IDX 80 35 31 36 32 37 33 38 74 39 34 40 79 41 73 42 75 43 35 44
REMARK SMILES IDX 78 45 72 46 71 47 36 49 62 50 45 51 61 52 46 53 49 54 60 55
REMARK SMILES IDX 76 56 47 57 48 58 59 60 77 61 50 62 37 63 38 64 43 65 39 66
REMARK SMILES IDX 40 67 42 68 44 69 41 70 63 71 64 72 69 73 65 74 66 75 68 76
REMARK SMILES IDX 70 77 67 78 51 79 52 80 57 81 53 82 54 83 56 84 58 85 55 86
REMARK H PARENT 20 6 25 29 75 48 49 59
REMARK Flexibility Score: inf
ROOT
ATOM      1  C   UNL     1      -0.193  -5.997   0.856  1.00  0.00     0.023 C 
ENDROOT
BRANCH   1   2
ATOM      2  C   UNL     1       0.591  -5.805  -0.433  1.00  0.00     0.116 C 
BRANCH   2   3
ATOM      3  N   UNL     1       2.025  -5.757  -0.316  1.00  0.00    -0.352 N 
ATOM      4  C   UNL     1       2.993  -6.065  -1.243  1.00  0.00     0.252 C 
ATOM      5  O   UNL     1       4.163  -5.828  -0.936  1.00  0.00    -0.269 OA
ATOM      6  H   UNL     1       2.364  -5.460   0.559  1.00  0.00     0.163 HD
BRANCH   4   7
ATOM      7  C   UNL     1       2.739  -6.743  -2.555  1.00  0.00     0.050 A 
ATOM      8  C   UNL     1       1.816  -6.362  -3.564  1.00  0.00    -0.004 A 
ATOM      9  C   UNL     1       1.831  -7.080  -4.786  1.00  0.00     0.012 A 
ATOM     10  C   UNL     1       2.712  -8.138  -5.009  1.00  0.00     0.040 A 
ATOM     11  C   UNL     1       3.634  -7.804  -2.809  1.00  0.00     0.053 A 
ATOM     12  C   UNL     1       3.608  -8.488  -4.018  1.00  0.00     0.124 A 
ATOM     13  F   UNL     1       4.473  -9.487  -4.233  1.00  0.00    -0.207 F 
BRANCH   8  14
ATOM     14  C   UNL     1       0.868  -5.234  -3.461  1.00  0.00     0.002 A 
ATOM     15  C   UNL     1       0.497  -2.856  -3.063  1.00  0.00     0.060 A 
ATOM     16  C   UNL     1      -0.887  -3.052  -3.036  1.00  0.00     0.017 A 
ATOM     17  C   UNL     1       1.365  -3.930  -3.301  1.00  0.00     0.026 A 
ATOM     18  C   UNL     1      -1.404  -4.327  -3.259  1.00  0.00     0.022 A 
ATOM     19  C   UNL     1      -0.539  -5.408  -3.473  1.00  0.00     0.048 A 
ATOM     20  Cl  UNL     1      -1.276  -6.970  -3.628  1.00  0.00    -0.084 Cl
BRANCH  15  21
ATOM     21  C   UNL     1       1.098  -1.535  -2.790  1.00  0.00     0.337 C 
ATOM     22  O   UNL     1       2.081  -1.109  -3.364  1.00  0.00    -0.246 OA
BRANCH  21  23
ATOM     23  O   UNL     1       0.460  -0.973  -1.733  1.00  0.00    -0.465 OA
ATOM     24  C   UNL     1       1.073   0.234  -1.283  1.00  0.00     0.282 C 
ENDBRANCH  21  23
ENDBRANCH  15  21
ENDBRANCH   8  14
ENDBRANCH   4   7
ENDBRANCH   2   3
ENDBRANCH   1   2
BRANCH   1  25
ATOM     25  C   UNL     1      -0.086  -4.906   1.922  1.00  0.00     0.023 C 
BRANCH  25  26
ATOM     26  C   UNL     1      -0.158  -3.443   1.486  1.00  0.00     0.116 C 
BRANCH  26  27
ATOM     27  N   UNL     1      -1.298  -3.093   0.655  1.00  0.00    -0.352 N 
ATOM     28  C   UNL     1      -2.096  -1.970   0.652  1.00  0.00     0.251 C 
ATOM     29  H   UNL     1      -1.540  -3.770  -0.017  1.00  0.00     0.163 HD
ATOM     30  O   UNL     1      -2.973  -1.867  -0.204  1.00  0.00    -0.269 OA
BRANCH  28  31
ATOM     31  C   UNL     1      -1.969  -0.919   1.695  1.00  0.00     0.039 A 
ATOM     32  C   UNL     1      -3.144  -0.384   2.241  1.00  0.00     0.014 A 
ATOM     33  C   UNL     1      -0.733  -0.462   2.155  1.00  0.00     0.014 A 
ATOM     34  C   UNL     1      -3.079   0.514   3.312  1.00  0.00     0.010 A 
ATOM     35  C   UNL     1      -0.666   0.384   3.264  1.00  0.00     0.010 A 
ATOM     36  C   UNL     1      -1.838   0.861   3.868  1.00  0.00    -0.014 A 
BRANCH  36  37
ATOM     37  C   UNL     1      -1.747   1.652   5.123  1.00  0.00     0.031 A 
ATOM     38  C   UNL     1      -1.125   3.019   5.129  1.00  0.00     0.074 A 
ATOM     39  C   UNL     1      -2.134   1.083   6.283  1.00  0.00     0.049 A 
ATOM     40  N   UNL     1      -0.894   3.816   6.142  1.00  0.00    -0.248 NA
ATOM     41  C   UNL     1      -0.675   3.551   3.833  1.00  0.00     0.031 C 
ATOM     42  C   UNL     1      -2.675  -0.272   6.418  1.00  0.00     0.029 A 
ATOM     43  N   UNL     1      -2.110   1.559   7.570  1.00  0.00    -0.354 N 
ATOM     44  C   UNL     1      -0.259   4.931   5.612  1.00  0.00     0.074 A 
ATOM     45  C   UNL     1      -0.107   4.695   4.192  1.00  0.00     0.031 C 
ATOM     46  C   UNL     1      -2.936  -0.515   7.713  1.00  0.00     0.029 A 
ATOM     47  C   UNL     1      -2.564   0.655   8.501  1.00  0.00     0.049 A 
ATOM     48  H   UNL     1      -1.797   2.462   7.805  1.00  0.00     0.167 HD
ATOM     49  C   UNL     1       0.143   6.055   6.250  1.00  0.00     0.037 A 
ATOM     50  C   UNL     1      -2.669   0.755   9.840  1.00  0.00     0.037 A 
ATOM     51  C   UNL     1      -0.044   6.301   7.656  1.00  0.00     0.049 A 
ATOM     52  C   UNL     1      -2.278   2.039  10.513  1.00  0.00     0.074 A 
ATOM     53  C   UNL     1       0.252   7.445   8.377  1.00  0.00     0.029 A 
ATOM     54  N   UNL     1      -0.579   5.390   8.553  1.00  0.00    -0.354 N 
ATOM     55  N   UNL     1      -1.761   3.120   9.983  1.00  0.00    -0.248 NA
ATOM     56  C   UNL     1      -2.500   2.127  11.964  1.00  0.00     0.031 C 
ATOM     57  C   UNL     1      -0.075   7.216   9.716  1.00  0.00     0.029 A 
ATOM     58  C   UNL     1      -0.612   5.943   9.822  1.00  0.00     0.049 A 
ATOM     59  H   UNL     1      -0.890   4.484   8.323  1.00  0.00     0.167 HD
ATOM     60  C   UNL     1      -1.617   4.024  11.027  1.00  0.00     0.074 A 
ATOM     61  C   UNL     1      -2.112   3.369  12.220  1.00  0.00     0.031 C 
ATOM     62  C   UNL     1      -1.117   5.282  10.997  1.00  0.00     0.037 A 
BRANCH  49  63
ATOM     63  C   UNL     1       0.807   7.128   5.438  1.00  0.00     0.057 A 
ATOM     64  C   UNL     1       2.169   7.410   5.599  1.00  0.00     0.134 A 
ATOM     65  C   UNL     1       0.077   7.941   4.562  1.00  0.00     0.134 A 
ATOM     66  F   UNL     1       2.924   6.674   6.429  1.00  0.00    -0.206 F 
ATOM     67  C   UNL     1       2.779   8.472   4.929  1.00  0.00     0.040 A 
ATOM     68  C   UNL     1       0.680   8.992   3.870  1.00  0.00     0.040 A 
ATOM     69  F   UNL     1      -1.230   7.718   4.358  1.00  0.00    -0.206 F 
ATOM     70  C   UNL     1       2.033   9.266   4.060  1.00  0.00     0.006 A 
ENDBRANCH  49  63
BRANCH  50  71
ATOM     71  C   UNL     1      -3.211  -0.384  10.622  1.00  0.00     0.057 A 
ATOM     72  C   UNL     1      -2.467  -1.553  10.825  1.00  0.00     0.134 A 
ATOM     73  C   UNL     1      -4.501  -0.338  11.163  1.00  0.00     0.134 A 
ATOM     74  F   UNL     1      -1.229  -1.663  10.322  1.00  0.00    -0.206 F 
ATOM     75  C   UNL     1      -2.991  -2.638  11.529  1.00  0.00     0.040 A 
ATOM     76  C   UNL     1      -5.029  -1.407  11.887  1.00  0.00     0.040 A 
ATOM     77  F   UNL     1      -5.255   0.761  11.014  1.00  0.00    -0.206 F 
ATOM     78  C   UNL     1      -4.275  -2.565  12.066  1.00  0.00     0.006 A 
ENDBRANCH  50  71
BRANCH  62  79
ATOM     79  C   UNL     1      -1.099   6.049  12.284  1.00  0.00     0.057 A 
ATOM     80  C   UNL     1      -1.986   7.112  12.492  1.00  0.00     0.134 A 
ATOM     81  C   UNL     1      -0.159   5.781  13.285  1.00  0.00     0.134 A 
ATOM     82  F   UNL     1      -2.905   7.425  11.566  1.00  0.00    -0.206 F 
ATOM     83  C   UNL     1      -1.931   7.891  13.649  1.00  0.00     0.040 A 
ATOM     84  C   UNL     1      -0.107   6.539  14.456  1.00  0.00     0.040 A 
ATOM     85  F   UNL     1       0.711   4.769  13.148  1.00  0.00    -0.206 F 
ATOM     86  C   UNL     1      -0.990   7.603  14.635  1.00  0.00     0.006 A 
ENDBRANCH  62  79
ENDBRANCH  36  37
ENDBRANCH  28  31
ENDBRANCH  26  27
ENDBRANCH  25  26
ENDBRANCH   1  25
TORSDOF 14
