REMARK SMILES Cc1ccn2c(CC(=O)NCCCCNC(=O)c3ccc(-c4c5nc(c(-c6c(F)cccc6F)c6ccc([nH]6)c(-c6c(F)cccc6F)c6nc(c(-c7c(F)cccc7F)c7ccc4[nH]7)C=C6)C=C5)cc3)nnc2c1
REMARK SMILES IDX 13 1 12 2 11 3 10 4 8 5 9 6 7 8 6 9 1 10 2 11 3 12 75 13
REMARK SMILES IDX 4 14 74 15 5 16 73 17 72 18 14 19 15 20 16 21 17 23 18 24
REMARK SMILES IDX 19 25 71 26 20 27 70 28 21 29 22 30 23 31 64 32 24 33 69 34
REMARK SMILES IDX 63 35 65 36 25 37 68 38 62 39 61 40 26 42 52 43 35 44 51 45
REMARK SMILES IDX 36 46 39 47 50 48 66 49 37 50 38 51 49 53 67 54 40 55 27 56
REMARK SMILES IDX 28 57 33 58 29 59 30 60 32 61 34 62 31 63 53 64 54 65 59 66
REMARK SMILES IDX 55 67 56 68 58 69 60 70 57 71 41 72 42 73 47 74 43 75 44 76
REMARK SMILES IDX 46 77 48 78 45 79
REMARK H PARENT 10 7 15 22 65 41 39 52
REMARK Flexibility Score: inf
ROOT
ATOM      1  C   UNL     1      -5.158   2.368  -3.501  1.00  0.00     0.023 C 
ENDROOT
BRANCH   1   2
ATOM      2  C   UNL     1      -3.727   1.816  -3.481  1.00  0.00     0.023 C 
BRANCH   2   3
ATOM      3  C   UNL     1      -3.389   0.918  -4.668  1.00  0.00     0.116 C 
BRANCH   3   4
ATOM      4  N   UNL     1      -3.309   1.663  -5.905  1.00  0.00    -0.356 N 
ATOM      5  C   UNL     1      -2.222   1.917  -6.701  1.00  0.00     0.227 C 
ATOM      6  O   UNL     1      -2.400   2.544  -7.732  1.00  0.00    -0.275 OA
ATOM      7  H   UNL     1      -4.160   2.043  -6.222  1.00  0.00     0.163 HD
BRANCH   5   8
ATOM      8  C   UNL     1      -0.867   1.319  -6.348  1.00  0.00     0.177 C 
BRANCH   8   9
ATOM      9  C   UNL     1      -0.319   1.933  -5.111  1.00  0.00     0.146 A 
ATOM     10  C   UNL     1       1.000  -0.041  -0.043  1.00  0.00     0.044 C 
ATOM     11  C   UNL     1       0.688   0.462  -1.421  1.00  0.00    -0.046 A 
ATOM     12  C   UNL     1       0.356  -0.536  -2.437  1.00  0.00     0.022 A 
ATOM     13  C   UNL     1       0.694   1.779  -1.727  1.00  0.00     0.053 A 
ATOM     14  C   UNL     1       0.044  -0.133  -3.680  1.00  0.00     0.095 A 
ATOM     15  C   UNL     1       0.369   2.204  -3.044  1.00  0.00     0.161 A 
ATOM     16  N   UNL     1       0.036   1.232  -3.974  1.00  0.00    -0.286 N 
ATOM     17  N   UNL     1       0.295   3.391  -3.601  1.00  0.00    -0.130 NA
ATOM     18  N   UNL     1      -0.126   3.221  -4.898  1.00  0.00    -0.134 NA
ENDBRANCH   8   9
ENDBRANCH   5   8
ENDBRANCH   3   4
ENDBRANCH   2   3
ENDBRANCH   1   2
BRANCH   1  19
ATOM     19  C   UNL     1      -6.240   1.315  -3.759  1.00  0.00     0.116 C 
BRANCH  19  20
ATOM     20  N   UNL     1      -6.219   0.211  -2.818  1.00  0.00    -0.352 N 
ATOM     21  C   UNL     1      -6.753   0.002  -1.577  1.00  0.00     0.251 C 
ATOM     22  H   UNL     1      -5.704  -0.561  -3.148  1.00  0.00     0.163 HD
ATOM     23  O   UNL     1      -6.608  -1.127  -1.102  1.00  0.00    -0.269 OA
BRANCH  21  24
ATOM     24  C   UNL     1      -7.418   1.047  -0.755  1.00  0.00     0.039 A 
ATOM     25  C   UNL     1      -7.701   2.343  -1.181  1.00  0.00     0.014 A 
ATOM     26  C   UNL     1      -7.713   0.698   0.577  1.00  0.00     0.014 A 
ATOM     27  C   UNL     1      -8.136   3.303  -0.283  1.00  0.00     0.010 A 
ATOM     28  C   UNL     1      -8.182   1.648   1.477  1.00  0.00     0.010 A 
ATOM     29  C   UNL     1      -8.330   2.964   1.053  1.00  0.00    -0.014 A 
BRANCH  29  30
ATOM     30  C   UNL     1      -8.722   4.044   1.947  1.00  0.00     0.031 A 
ATOM     31  C   UNL     1     -10.024   4.697   1.636  1.00  0.00     0.074 A 
ATOM     32  C   UNL     1      -7.981   4.394   3.014  1.00  0.00     0.049 A 
ATOM     33  N   UNL     1     -10.263   5.944   1.381  1.00  0.00    -0.248 NA
ATOM     34  C   UNL     1     -11.200   3.822   1.506  1.00  0.00     0.031 C 
ATOM     35  C   UNL     1      -6.830   3.685   3.580  1.00  0.00     0.029 A 
ATOM     36  N   UNL     1      -8.176   5.420   3.888  1.00  0.00    -0.354 N 
ATOM     37  C   UNL     1     -11.646   6.044   1.228  1.00  0.00     0.074 A 
ATOM     38  C   UNL     1     -12.153   4.698   1.189  1.00  0.00     0.031 C 
ATOM     39  C   UNL     1      -6.581   4.167   4.817  1.00  0.00     0.029 A 
ATOM     40  C   UNL     1      -7.465   5.292   5.069  1.00  0.00     0.049 A 
ATOM     41  H   UNL     1      -8.768   6.184   3.697  1.00  0.00     0.167 HD
ATOM     42  C   UNL     1     -12.300   7.231   1.353  1.00  0.00     0.037 A 
ATOM     43  C   UNL     1      -7.644   6.006   6.205  1.00  0.00     0.037 A 
ATOM     44  C   UNL     1     -11.421   8.351   1.155  1.00  0.00     0.049 A 
ATOM     45  C   UNL     1      -8.394   7.237   5.867  1.00  0.00     0.074 A 
ATOM     46  C   UNL     1     -10.651   8.821   0.110  1.00  0.00     0.029 A 
ATOM     47  N   UNL     1     -11.008   9.050   2.261  1.00  0.00    -0.354 N 
ATOM     48  N   UNL     1      -7.899   8.234   5.189  1.00  0.00    -0.248 NA
ATOM     49  C   UNL     1      -9.847   7.193   5.934  1.00  0.00     0.031 C 
ATOM     50  C   UNL     1      -9.512   9.420   0.726  1.00  0.00     0.029 A 
ATOM     51  C   UNL     1      -9.671   9.298   2.106  1.00  0.00     0.049 A 
ATOM     52  H   UNL     1     -11.569   9.323   3.023  1.00  0.00     0.167 HD
ATOM     53  C   UNL     1      -8.950   8.685   4.403  1.00  0.00     0.074 A 
ATOM     54  C   UNL     1     -10.145   8.085   4.987  1.00  0.00     0.031 C 
ATOM     55  C   UNL     1      -8.722   9.273   3.192  1.00  0.00     0.037 A 
BRANCH  42  56
ATOM     56  C   UNL     1     -13.647   7.380   2.026  1.00  0.00     0.057 A 
ATOM     57  C   UNL     1     -14.181   6.443   2.933  1.00  0.00     0.134 A 
ATOM     58  C   UNL     1     -14.279   8.638   2.027  1.00  0.00     0.134 A 
ATOM     59  F   UNL     1     -13.661   5.222   3.097  1.00  0.00    -0.206 F 
ATOM     60  C   UNL     1     -15.229   6.747   3.807  1.00  0.00     0.040 A 
ATOM     61  C   UNL     1     -15.294   8.968   2.933  1.00  0.00     0.040 A 
ATOM     62  F   UNL     1     -13.867   9.618   1.209  1.00  0.00    -0.206 F 
ATOM     63  C   UNL     1     -15.762   8.024   3.838  1.00  0.00     0.006 A 
ENDBRANCH  42  56
BRANCH  43  64
ATOM     64  C   UNL     1      -7.441   5.541   7.591  1.00  0.00     0.057 A 
ATOM     65  C   UNL     1      -7.680   4.202   7.952  1.00  0.00     0.134 A 
ATOM     66  C   UNL     1      -7.231   6.436   8.645  1.00  0.00     0.134 A 
ATOM     67  F   UNL     1      -7.989   3.280   7.027  1.00  0.00    -0.206 F 
ATOM     68  C   UNL     1      -7.692   3.773   9.281  1.00  0.00     0.040 A 
ATOM     69  C   UNL     1      -7.251   6.022   9.984  1.00  0.00     0.040 A 
ATOM     70  F   UNL     1      -7.047   7.742   8.403  1.00  0.00    -0.206 F 
ATOM     71  C   UNL     1      -7.486   4.687  10.305  1.00  0.00     0.006 A 
ENDBRANCH  43  64
BRANCH  55  72
ATOM     72  C   UNL     1      -7.310   9.664   2.868  1.00  0.00     0.057 A 
ATOM     73  C   UNL     1      -7.026  11.001   2.570  1.00  0.00     0.134 A 
ATOM     74  C   UNL     1      -6.266   8.741   2.711  1.00  0.00     0.134 A 
ATOM     75  F   UNL     1      -7.995  11.929   2.635  1.00  0.00    -0.206 F 
ATOM     76  C   UNL     1      -5.756  11.408   2.156  1.00  0.00     0.040 A 
ATOM     77  C   UNL     1      -4.982   9.140   2.330  1.00  0.00     0.040 A 
ATOM     78  F   UNL     1      -6.474   7.427   2.870  1.00  0.00    -0.206 F 
ATOM     79  C   UNL     1      -4.725  10.478   2.047  1.00  0.00     0.006 A 
ENDBRANCH  55  72
ENDBRANCH  29  30
ENDBRANCH  21  24
ENDBRANCH  19  20
ENDBRANCH   1  19
TORSDOF 12
