REMARK SMILES C[C@H]1CCCC[C@@H]1NC(=O)CCn1cc(C(=O)NCCCCNC(=O)c2ccc(-c3c4nc(c(-c5c(F)cccc5F)c5ccc([nH]5)c(-c5c(F)cccc5F)c5nc(c(-c6c(F)cccc6F)c6ccc3[nH]6)C=C5)C=C4)cc2)cn1
REMARK SMILES IDX 19 1 18 2 16 3 17 4 15 6 13 7 14 8 81 9 80 10 12 11 11 12
REMARK SMILES IDX 9 13 8 14 10 16 7 17 1 18 2 19 3 20 4 21 6 22 5 23 20 24
REMARK SMILES IDX 21 25 22 26 23 27 24 28 25 30 26 31 27 32 79 33 28 34 78 35
REMARK SMILES IDX 29 36 30 37 31 38 72 39 32 40 77 41 71 42 73 43 33 44 76 45
REMARK SMILES IDX 70 46 69 47 34 49 60 50 43 51 59 52 44 53 47 54 58 55 74 56
REMARK SMILES IDX 45 57 46 58 57 60 75 61 48 62 35 63 36 64 41 65 37 66 38 67
REMARK SMILES IDX 40 68 42 69 39 70 61 71 62 72 67 73 63 74 64 75 66 76 68 77
REMARK SMILES IDX 65 78 49 79 50 80 55 81 51 82 52 83 54 84 56 85 53 86
REMARK H PARENT 18 5 8 15 23 29 73 48 47 59
REMARK Flexibility Score: inf
ROOT
ATOM      1  C   UNL     1      -2.110   1.586  -2.594  1.00  0.00     0.116 C 
ENDROOT
BRANCH   1   2
ATOM      2  N   UNL     1      -3.295   0.836  -2.226  1.00  0.00    -0.352 N 
ATOM      3  C   UNL     1      -3.526  -0.505  -2.052  1.00  0.00     0.254 C 
ATOM      4  O   UNL     1      -4.647  -0.823  -1.651  1.00  0.00    -0.269 OA
ATOM      5  H   UNL     1      -4.087   1.399  -2.070  1.00  0.00     0.163 HD
BRANCH   3   6
ATOM      6  C   UNL     1      -2.485  -1.505  -2.223  1.00  0.00     0.077 A 
ATOM      7  N   UNL     1      -0.651  -2.678  -2.596  1.00  0.00    -0.271 N 
ATOM      8  C   UNL     1      -1.296  -1.515  -2.930  1.00  0.00     0.122 A 
ATOM      9  N   UNL     1      -1.397  -3.494  -1.841  1.00  0.00    -0.181 NA
ATOM     10  C   UNL     1      -2.513  -2.795  -1.630  1.00  0.00     0.149 A 
BRANCH   7  11
ATOM     11  C   UNL     1       0.699  -3.070  -2.959  1.00  0.00     0.154 C 
BRANCH  11  12
ATOM     12  C   UNL     1       1.779  -2.401  -2.118  1.00  0.00     0.123 C 
BRANCH  12  13
ATOM     13  C   UNL     1       1.832  -2.946  -0.705  1.00  0.00     0.222 C 
ATOM     14  N   UNL     1       1.299  -2.234   0.331  1.00  0.00    -0.353 N 
ATOM     15  H   UNL     1       1.419  -2.629   1.225  1.00  0.00     0.163 HD
ATOM     16  O   UNL     1       2.386  -4.020  -0.469  1.00  0.00    -0.275 OA
BRANCH  14  17
ATOM     17  C   UNL     1       0.578  -0.972   0.296  1.00  0.00     0.084 C 
ATOM     18  C   UNL     1       2.784   0.337   0.106  1.00  0.00     0.010 C 
ATOM     19  C   UNL     1       1.415   0.234   0.776  1.00  0.00     0.008 C 
ATOM     20  C   UNL     1       0.604   1.518   0.522  1.00  0.00     0.005 C 
ATOM     21  C   UNL     1      -0.752   1.490   1.230  1.00  0.00     0.000 C 
ATOM     22  C   UNL     1      -0.700  -1.053   1.143  1.00  0.00     0.025 C 
ATOM     23  C   UNL     1      -1.535   0.210   0.957  1.00  0.00     0.002 C 
ENDBRANCH  14  17
ENDBRANCH  12  13
ENDBRANCH  11  12
ENDBRANCH   7  11
ENDBRANCH   3   6
ENDBRANCH   1   2
BRANCH   1  24
ATOM     24  C   UNL     1      -2.236   2.143  -4.014  1.00  0.00     0.023 C 
BRANCH  24  25
ATOM     25  C   UNL     1      -3.186   3.346  -4.145  1.00  0.00     0.023 C 
BRANCH  25  26
ATOM     26  C   UNL     1      -2.644   4.623  -3.519  1.00  0.00     0.116 C 
BRANCH  26  27
ATOM     27  N   UNL     1      -1.427   5.116  -4.172  1.00  0.00    -0.352 N 
ATOM     28  C   UNL     1      -0.680   6.243  -3.858  1.00  0.00     0.251 C 
ATOM     29  H   UNL     1      -1.097   4.579  -4.929  1.00  0.00     0.163 HD
ATOM     30  O   UNL     1       0.103   6.734  -4.648  1.00  0.00    -0.269 OA
BRANCH  28  31
ATOM     31  C   UNL     1      -0.843   6.815  -2.511  1.00  0.00     0.039 A 
ATOM     32  C   UNL     1      -0.915   8.192  -2.272  1.00  0.00     0.014 A 
ATOM     33  C   UNL     1      -0.970   5.901  -1.475  1.00  0.00     0.014 A 
ATOM     34  C   UNL     1      -1.177   8.632  -0.975  1.00  0.00     0.010 A 
ATOM     35  C   UNL     1      -1.464   6.318  -0.278  1.00  0.00     0.010 A 
ATOM     36  C   UNL     1      -1.452   7.678   0.011  1.00  0.00    -0.014 A 
BRANCH  36  37
ATOM     37  C   UNL     1      -1.745   8.016   1.394  1.00  0.00     0.031 A 
ATOM     38  C   UNL     1      -3.022   8.743   1.623  1.00  0.00     0.074 A 
ATOM     39  C   UNL     1      -1.053   7.399   2.379  1.00  0.00     0.049 A 
ATOM     40  N   UNL     1      -3.182   9.906   2.159  1.00  0.00    -0.248 NA
ATOM     41  C   UNL     1      -4.266   8.165   1.087  1.00  0.00     0.031 C 
ATOM     42  C   UNL     1       0.022   6.399   2.255  1.00  0.00     0.029 A 
ATOM     43  N   UNL     1      -1.276   7.418   3.716  1.00  0.00    -0.354 N 
ATOM     44  C   UNL     1      -4.558  10.131   2.205  1.00  0.00     0.074 A 
ATOM     45  C   UNL     1      -5.153   9.121   1.372  1.00  0.00     0.031 C 
ATOM     46  C   UNL     1       0.169   5.740   3.424  1.00  0.00     0.029 A 
ATOM     47  C   UNL     1      -0.667   6.382   4.417  1.00  0.00     0.049 A 
ATOM     48  H   UNL     1      -1.825   8.108   4.155  1.00  0.00     0.167 HD
ATOM     49  C   UNL     1      -5.104  10.999   3.104  1.00  0.00     0.037 A 
ATOM     50  C   UNL     1      -0.888   6.062   5.715  1.00  0.00     0.037 A 
ATOM     51  C   UNL     1      -4.078  11.805   3.717  1.00  0.00     0.049 A 
ATOM     52  C   UNL     1      -1.508   7.256   6.350  1.00  0.00     0.074 A 
ATOM     53  C   UNL     1      -3.159  12.724   3.250  1.00  0.00     0.029 A 
ATOM     54  N   UNL     1      -3.632  11.422   4.961  1.00  0.00    -0.354 N 
ATOM     55  N   UNL     1      -0.875   8.387   6.518  1.00  0.00    -0.248 NA
ATOM     56  C   UNL     1      -2.962   7.356   6.321  1.00  0.00     0.031 C 
ATOM     57  C   UNL     1      -1.975  12.465   3.999  1.00  0.00     0.029 A 
ATOM     58  C   UNL     1      -2.263  11.468   4.933  1.00  0.00     0.049 A 
ATOM     59  H   UNL     1      -4.192  11.164   5.728  1.00  0.00     0.167 HD
ATOM     60  C   UNL     1      -1.803   9.369   6.194  1.00  0.00     0.074 A 
ATOM     61  C   UNL     1      -3.091   8.676   6.150  1.00  0.00     0.031 C 
ATOM     62  C   UNL     1      -1.412  10.576   5.688  1.00  0.00     0.037 A 
BRANCH  49  63
ATOM     63  C   UNL     1      -6.484  10.902   3.712  1.00  0.00     0.057 A 
ATOM     64  C   UNL     1      -6.924  11.937   4.562  1.00  0.00     0.134 A 
ATOM     65  C   UNL     1      -7.265   9.732   3.748  1.00  0.00     0.134 A 
ATOM     66  F   UNL     1      -6.279  13.113   4.610  1.00  0.00    -0.206 F 
ATOM     67  C   UNL     1      -7.987  11.776   5.458  1.00  0.00     0.040 A 
ATOM     68  C   UNL     1      -8.361   9.580   4.603  1.00  0.00     0.040 A 
ATOM     69  F   UNL     1      -6.960   8.639   3.041  1.00  0.00    -0.206 F 
ATOM     70  C   UNL     1      -8.701  10.587   5.492  1.00  0.00     0.006 A 
ENDBRANCH  49  63
BRANCH  50  71
ATOM     71  C   UNL     1      -0.863   4.720   6.341  1.00  0.00     0.057 A 
ATOM     72  C   UNL     1      -0.774   4.560   7.730  1.00  0.00     0.134 A 
ATOM     73  C   UNL     1      -1.170   3.557   5.608  1.00  0.00     0.134 A 
ATOM     74  F   UNL     1      -0.526   5.615   8.520  1.00  0.00    -0.206 F 
ATOM     75  C   UNL     1      -0.990   3.323   8.355  1.00  0.00     0.040 A 
ATOM     76  C   UNL     1      -1.383   2.316   6.218  1.00  0.00     0.040 A 
ATOM     77  F   UNL     1      -1.355   3.602   4.280  1.00  0.00    -0.206 F 
ATOM     78  C   UNL     1      -1.305   2.197   7.599  1.00  0.00     0.006 A 
ENDBRANCH  50  71
BRANCH  62  79
ATOM     79  C   UNL     1       0.057  10.906   5.673  1.00  0.00     0.057 A 
ATOM     80  C   UNL     1       1.004  10.227   4.890  1.00  0.00     0.134 A 
ATOM     81  C   UNL     1       0.485  12.083   6.295  1.00  0.00     0.134 A 
ATOM     82  F   UNL     1       0.667   9.150   4.175  1.00  0.00    -0.206 F 
ATOM     83  C   UNL     1       2.318  10.684   4.752  1.00  0.00     0.040 A 
ATOM     84  C   UNL     1       1.786  12.568   6.139  1.00  0.00     0.040 A 
ATOM     85  F   UNL     1      -0.380  12.821   7.008  1.00  0.00    -0.206 F 
ATOM     86  C   UNL     1       2.709  11.866   5.369  1.00  0.00     0.006 A 
ENDBRANCH  62  79
ENDBRANCH  36  37
ENDBRANCH  28  31
ENDBRANCH  26  27
ENDBRANCH  25  26
ENDBRANCH  24  25
ENDBRANCH   1  24
TORSDOF 15
