REMARK SMILES C[C@@H](c1cccc(O)c1)[N@H+]1[C@@H]2CC[C@H]1C[C@H](CC(=O)NCCCCNC(=O)c1ccc(-c3c4nc(c(-c5c(F)cccc5F)c5ccc([nH]5)c(-c5c(F)cccc5F)c5nc(c(-c6c(F)cccc6F)c6ccc3[nH]6)C=C5)C=C4)cc1)C2
REMARK SMILES IDX 21 1 20 2 18 3 19 4 17 6 16 7 10 8 11 9 14 10 12 12 82 13
REMARK SMILES IDX 13 14 15 15 2 16 1 17 3 18 4 19 9 20 5 21 7 22 6 23 8 24
REMARK SMILES IDX 22 26 23 27 24 28 25 29 26 30 27 32 28 33 29 34 81 35 30 36
REMARK SMILES IDX 80 37 31 38 32 39 33 40 74 41 34 42 79 43 73 44 75 45 35 46
REMARK SMILES IDX 78 47 72 48 71 49 36 51 62 52 45 53 61 54 46 55 49 56 60 57
REMARK SMILES IDX 76 58 47 59 48 60 59 62 77 63 50 64 37 65 38 66 43 67 39 68
REMARK SMILES IDX 40 69 42 70 44 71 41 72 63 73 64 74 69 75 65 76 66 77 68 78
REMARK SMILES IDX 70 79 67 80 51 81 52 82 57 83 53 84 54 85 56 86 58 87 55 88
REMARK H PARENT 20 5 10 11 8 25 25 31 75 50 49 61
REMARK Flexibility Score: inf
ROOT
ATOM      1  C   UNL     1       0.565  -3.698  -4.305  1.00  0.00     0.116 C 
ENDROOT
BRANCH   1   2
ATOM      2  N   UNL     1      -0.083  -2.869  -5.306  1.00  0.00    -0.356 N 
ATOM      3  C   UNL     1      -0.502  -1.573  -5.239  1.00  0.00     0.220 C 
ATOM      4  O   UNL     1      -1.167  -1.129  -6.176  1.00  0.00    -0.275 OA
ATOM      5  H   UNL     1      -0.247  -3.314  -6.169  1.00  0.00     0.163 HD
BRANCH   3   6
ATOM      6  C   UNL     1      -0.135  -0.689  -4.060  1.00  0.00     0.104 C 
BRANCH   6   7
ATOM      7  C   UNL     1      -1.248  -0.527  -2.999  1.00  0.00     0.010 C 
ATOM      8  N   UNL     1      -1.100  -0.600   0.002  1.00  0.00    -0.324 N 
ATOM      9  C   UNL     1      -1.518   0.631  -0.695  1.00  0.00     0.185 C 
ATOM     10  C   UNL     1      -1.884  -1.621  -0.707  1.00  0.00     0.185 C 
ATOM     11  H   UNL     1      -1.290  -0.569   1.004  1.00  0.00     0.349 HD
ATOM     12  C   UNL     1      -3.047   0.482  -0.705  1.00  0.00     0.071 C 
ATOM     13  C   UNL     1      -0.958   0.713  -2.130  1.00  0.00     0.069 C 
ATOM     14  C   UNL     1      -3.289  -1.021  -0.679  1.00  0.00     0.071 C 
ATOM     15  C   UNL     1      -1.416  -1.802  -2.157  1.00  0.00     0.069 C 
BRANCH   8  16
ATOM     16  C   UNL     1       0.357  -0.849   0.130  1.00  0.00     0.212 C 
ATOM     17  C   UNL     1       1.117   0.431   0.552  1.00  0.00     0.081 C 
BRANCH  16  18
ATOM     18  C   UNL     1       0.695  -2.014   1.082  1.00  0.00     0.013 A 
ATOM     19  C   UNL     1       0.625  -3.348   0.634  1.00  0.00     0.010 A 
ATOM     20  C   UNL     1       1.152  -1.806   2.396  1.00  0.00     0.056 A 
ATOM     21  C   UNL     1       0.997  -4.419   1.456  1.00  0.00     0.004 A 
ATOM     22  C   UNL     1       1.562  -2.873   3.195  1.00  0.00     0.116 A 
ATOM     23  C   UNL     1       1.481  -4.181   2.739  1.00  0.00     0.046 A 
BRANCH  22  24
ATOM     24  O   UNL     1       2.066  -2.582   4.429  1.00  0.00    -0.508 OA
ATOM     25  H   UNL     1       2.352  -3.274   4.993  1.00  0.00     0.293 HD
ENDBRANCH  22  24
ENDBRANCH  16  18
ENDBRANCH   8  16
ENDBRANCH   6   7
ENDBRANCH   3   6
ENDBRANCH   1   2
BRANCH   1  26
ATOM     26  C   UNL     1      -0.468  -4.535  -3.549  1.00  0.00     0.023 C 
BRANCH  26  27
ATOM     27  C   UNL     1      -0.783  -5.890  -4.152  1.00  0.00     0.023 C 
BRANCH  27  28
ATOM     28  C   UNL     1       0.337  -6.898  -4.010  1.00  0.00     0.116 C 
BRANCH  28  29
ATOM     29  N   UNL     1       0.654  -7.240  -2.627  1.00  0.00    -0.352 N 
ATOM     30  C   UNL     1       0.949  -8.487  -2.108  1.00  0.00     0.251 C 
ATOM     31  H   UNL     1       0.659  -6.492  -1.987  1.00  0.00     0.163 HD
ATOM     32  O   UNL     1       1.132  -8.654  -0.920  1.00  0.00    -0.269 OA
BRANCH  30  33
ATOM     33  C   UNL     1       0.976  -9.624  -3.054  1.00  0.00     0.039 A 
ATOM     34  C   UNL     1       0.125 -10.708  -2.835  1.00  0.00     0.014 A 
ATOM     35  C   UNL     1       1.715  -9.516  -4.233  1.00  0.00     0.014 A 
ATOM     36  C   UNL     1      -0.066 -11.640  -3.857  1.00  0.00     0.010 A 
ATOM     37  C   UNL     1       1.441 -10.381  -5.281  1.00  0.00     0.010 A 
ATOM     38  C   UNL     1       0.545 -11.449  -5.106  1.00  0.00    -0.014 A 
BRANCH  38  39
ATOM     39  C   UNL     1       0.293 -12.349  -6.259  1.00  0.00     0.031 A 
ATOM     40  C   UNL     1       1.454 -13.069  -6.887  1.00  0.00     0.074 A 
ATOM     41  C   UNL     1      -0.933 -12.425  -6.813  1.00  0.00     0.049 A 
ATOM     42  N   UNL     1       1.510 -13.727  -8.015  1.00  0.00    -0.248 NA
ATOM     43  C   UNL     1       2.740 -12.987  -6.173  1.00  0.00     0.031 C 
ATOM     44  C   UNL     1      -2.132 -11.733  -6.334  1.00  0.00     0.029 A 
ATOM     45  N   UNL     1      -1.367 -13.108  -7.922  1.00  0.00    -0.354 N 
ATOM     46  C   UNL     1       2.842 -14.089  -8.169  1.00  0.00     0.074 A 
ATOM     47  C   UNL     1       3.567 -13.540  -7.045  1.00  0.00     0.031 C 
ATOM     48  C   UNL     1      -3.168 -12.045  -7.131  1.00  0.00     0.029 A 
ATOM     49  C   UNL     1      -2.700 -12.922  -8.199  1.00  0.00     0.049 A 
ATOM     50  H   UNL     1      -0.778 -13.677  -8.468  1.00  0.00     0.167 HD
ATOM     51  C   UNL     1       3.407 -14.833  -9.147  1.00  0.00     0.037 A 
ATOM     52  C   UNL     1      -3.454 -13.399  -9.207  1.00  0.00     0.037 A 
ATOM     53  C   UNL     1       2.670 -15.441 -10.221  1.00  0.00     0.049 A 
ATOM     54  C   UNL     1      -2.817 -14.278 -10.248  1.00  0.00     0.074 A 
ATOM     55  C   UNL     1       3.134 -16.278 -11.219  1.00  0.00     0.029 A 
ATOM     56  N   UNL     1       1.307 -15.289 -10.421  1.00  0.00    -0.354 N 
ATOM     57  N   UNL     1      -1.564 -14.647 -10.361  1.00  0.00    -0.248 NA
ATOM     58  C   UNL     1      -3.696 -14.807 -11.301  1.00  0.00     0.031 C 
ATOM     59  C   UNL     1       2.051 -16.623 -12.035  1.00  0.00     0.029 A 
ATOM     60  C   UNL     1       0.910 -16.021 -11.526  1.00  0.00     0.049 A 
ATOM     61  H   UNL     1       0.710 -14.743  -9.860  1.00  0.00     0.167 HD
ATOM     62  C   UNL     1      -1.510 -15.473 -11.475  1.00  0.00     0.074 A 
ATOM     63  C   UNL     1      -2.856 -15.555 -12.003  1.00  0.00     0.031 C 
ATOM     64  C   UNL     1      -0.441 -16.107 -12.015  1.00  0.00     0.037 A 
BRANCH  51  65
ATOM     65  C   UNL     1       4.890 -15.039  -9.083  1.00  0.00     0.057 A 
ATOM     66  C   UNL     1       5.480 -15.858  -8.111  1.00  0.00     0.134 A 
ATOM     67  C   UNL     1       5.738 -14.415 -10.006  1.00  0.00     0.134 A 
ATOM     68  F   UNL     1       4.723 -16.468  -7.186  1.00  0.00    -0.206 F 
ATOM     69  C   UNL     1       6.863 -16.024  -8.040  1.00  0.00     0.040 A 
ATOM     70  C   UNL     1       7.121 -14.595  -9.961  1.00  0.00     0.040 A 
ATOM     71  F   UNL     1       5.237 -13.619 -10.963  1.00  0.00    -0.206 F 
ATOM     72  C   UNL     1       7.688 -15.395  -8.971  1.00  0.00     0.006 A 
ENDBRANCH  51  65
BRANCH  52  73
ATOM     73  C   UNL     1      -4.903 -13.086  -9.268  1.00  0.00     0.057 A 
ATOM     74  C   UNL     1      -5.859 -14.063  -8.968  1.00  0.00     0.134 A 
ATOM     75  C   UNL     1      -5.368 -11.816  -9.628  1.00  0.00     0.134 A 
ATOM     76  F   UNL     1      -5.473 -15.303  -8.634  1.00  0.00    -0.206 F 
ATOM     77  C   UNL     1      -7.227 -13.795  -9.040  1.00  0.00     0.040 A 
ATOM     78  C   UNL     1      -6.733 -11.528  -9.686  1.00  0.00     0.040 A 
ATOM     79  F   UNL     1      -4.501 -10.835  -9.920  1.00  0.00    -0.206 F 
ATOM     80  C   UNL     1      -7.667 -12.522  -9.397  1.00  0.00     0.006 A 
ENDBRANCH  52  73
BRANCH  64  81
ATOM     81  C   UNL     1      -0.689 -16.982 -13.204  1.00  0.00     0.057 A 
ATOM     82  C   UNL     1      -0.883 -16.449 -14.483  1.00  0.00     0.134 A 
ATOM     83  C   UNL     1      -0.667 -18.376 -13.074  1.00  0.00     0.134 A 
ATOM     84  F   UNL     1      -0.924 -15.121 -14.666  1.00  0.00    -0.206 F 
ATOM     85  C   UNL     1      -1.056 -17.274 -15.594  1.00  0.00     0.040 A 
ATOM     86  C   UNL     1      -0.820 -19.212 -14.181  1.00  0.00     0.040 A 
ATOM     87  F   UNL     1      -0.477 -18.946 -11.874  1.00  0.00    -0.206 F 
ATOM     88  C   UNL     1      -1.017 -18.660 -15.445  1.00  0.00     0.006 A 
ENDBRANCH  64  81
ENDBRANCH  38  39
ENDBRANCH  30  33
ENDBRANCH  28  29
ENDBRANCH  27  28
ENDBRANCH  26  27
ENDBRANCH   1  26
TORSDOF 15
