REMARK SMILES C[C@@H](C(=O)NCCCCNC(=O)c1ccc(-c2c3nc(c(-c4c(F)cccc4F)c4ccc([nH]4)c(-c4c(F)cccc4F)c4nc(c(-c5c(F)cccc5F)c5ccc2[nH]5)C=C4)C=C3)cc1)S(=O)(=O)N[C@@]12C[C@@H]3C[C@@](C)(C[C@@](C)(C3)C1)C2
REMARK SMILES IDX 7 1 6 2 5 3 3 4 4 5 2 7 1 8 67 9 68 10 69 11 70 12 71 14
REMARK SMILES IDX 72 15 81 16 82 17 73 18 78 19 75 20 80 21 74 22 77 23 79 24
REMARK SMILES IDX 76 25 8 26 9 27 10 28 11 29 12 31 13 32 14 33 66 34 15 35
REMARK SMILES IDX 65 36 16 37 17 38 18 39 59 40 19 41 64 42 58 43 60 44 20 45
REMARK SMILES IDX 63 46 57 47 56 48 21 50 47 51 30 52 46 53 31 54 34 55 45 56
REMARK SMILES IDX 61 57 32 58 33 59 44 61 62 62 35 63 22 64 23 65 28 66 24 67
REMARK SMILES IDX 25 68 27 69 29 70 26 71 48 72 49 73 54 74 50 75 51 76 53 77
REMARK SMILES IDX 55 78 52 79 36 80 37 81 42 82 38 83 39 84 41 85 43 86 40 87
REMARK H PARENT 5 6 70 13 10 30 60 49 34 60
REMARK Flexibility Score: inf
ROOT
ATOM      1  C   UNL     1       4.115  -1.293   0.590  1.00  0.00     0.023 C 
ENDROOT
BRANCH   1   2
ATOM      2  C   UNL     1       3.405  -2.280  -0.345  1.00  0.00     0.116 C 
BRANCH   2   3
ATOM      3  N   UNL     1       2.247  -2.844   0.322  1.00  0.00    -0.355 N 
ATOM      4  C   UNL     1       0.937  -2.439   0.333  1.00  0.00     0.239 C 
ATOM      5  O   UNL     1       0.229  -2.947   1.204  1.00  0.00    -0.274 OA
ATOM      6  H   UNL     1       2.433  -3.651   0.856  1.00  0.00     0.163 HD
BRANCH   4   7
ATOM      7  C   UNL     1       0.425  -1.465  -0.712  1.00  0.00     0.209 C 
ATOM      8  C   UNL     1       1.117  -0.110  -0.789  1.00  0.00     0.037 C 
BRANCH   7   9
ATOM      9  S   UNL     1      -1.395  -1.306  -0.621  1.00  0.00     0.223 S 
ATOM     10  O   UNL     1      -1.794  -0.273  -1.553  1.00  0.00    -0.212 OA
ATOM     11  O   UNL     1      -1.962  -2.633  -0.787  1.00  0.00    -0.212 OA
BRANCH   9  12
ATOM     12  N   UNL     1      -1.882  -0.817   0.901  1.00  0.00    -0.208 NA
ATOM     13  H   UNL     1      -1.593  -1.573   1.521  1.00  0.00     0.141 HD
BRANCH  12  14
ATOM     14  C   UNL     1      -1.510   0.420   1.621  1.00  0.00     0.034 C 
ATOM     15  C   UNL     1      -1.310   1.626   0.689  1.00  0.00     0.027 C 
ATOM     16  C   UNL     1      -2.646   0.850   2.598  1.00  0.00     0.030 C 
ATOM     17  C   UNL     1      -0.292   0.099   2.513  1.00  0.00     0.030 C 
ATOM     18  C   UNL     1      -0.790   2.838   1.463  1.00  0.00    -0.008 C 
ATOM     19  C   UNL     1      -2.221   2.122   3.409  1.00  0.00    -0.030 C 
ATOM     20  C   UNL     1       0.197   1.347   3.262  1.00  0.00    -0.030 C 
ATOM     21  C   UNL     1      -1.885   3.276   2.435  1.00  0.00     0.010 C 
ATOM     22  C   UNL     1       0.484   2.468   2.239  1.00  0.00     0.010 C 
ATOM     23  C   UNL     1      -0.933   1.802   4.210  1.00  0.00     0.013 C 
ATOM     24  C   UNL     1      -3.340   2.571   4.358  1.00  0.00     0.011 C 
ATOM     25  C   UNL     1       1.466   1.010   4.053  1.00  0.00     0.011 C 
ENDBRANCH  12  14
ENDBRANCH   9  12
ENDBRANCH   7   9
ENDBRANCH   4   7
ENDBRANCH   2   3
ENDBRANCH   1   2
BRANCH   1  26
ATOM     26  C   UNL     1       4.953  -1.975   1.679  1.00  0.00     0.023 C 
BRANCH  26  27
ATOM     27  C   UNL     1       6.062  -2.881   1.154  1.00  0.00     0.116 C 
BRANCH  27  28
ATOM     28  N   UNL     1       6.984  -2.188   0.271  1.00  0.00    -0.352 N 
ATOM     29  C   UNL     1       8.327  -2.399   0.087  1.00  0.00     0.251 C 
ATOM     30  H   UNL     1       6.591  -1.466  -0.272  1.00  0.00     0.163 HD
ATOM     31  O   UNL     1       8.981  -1.617  -0.596  1.00  0.00    -0.269 OA
BRANCH  29  32
ATOM     32  C   UNL     1       8.991  -3.543   0.746  1.00  0.00     0.039 A 
ATOM     33  C   UNL     1      10.225  -3.328   1.361  1.00  0.00     0.014 A 
ATOM     34  C   UNL     1       8.408  -4.814   0.763  1.00  0.00     0.014 A 
ATOM     35  C   UNL     1      10.848  -4.375   2.038  1.00  0.00     0.010 A 
ATOM     36  C   UNL     1       8.993  -5.836   1.506  1.00  0.00     0.010 A 
ATOM     37  C   UNL     1      10.220  -5.628   2.149  1.00  0.00    -0.014 A 
BRANCH  37  38
ATOM     38  C   UNL     1      10.842  -6.705   2.959  1.00  0.00     0.031 A 
ATOM     39  C   UNL     1      11.303  -7.984   2.317  1.00  0.00     0.074 A 
ATOM     40  C   UNL     1      10.979  -6.527   4.287  1.00  0.00     0.049 A 
ATOM     41  N   UNL     1      11.902  -9.011   2.866  1.00  0.00    -0.248 NA
ATOM     42  C   UNL     1      11.037  -8.145   0.879  1.00  0.00     0.031 C 
ATOM     43  C   UNL     1      10.510  -5.359   5.036  1.00  0.00     0.029 A 
ATOM     44  N   UNL     1      11.558  -7.322   5.244  1.00  0.00    -0.354 N 
ATOM     45  C   UNL     1      12.096  -9.929   1.841  1.00  0.00     0.074 A 
ATOM     46  C   UNL     1      11.486  -9.371   0.654  1.00  0.00     0.031 C 
ATOM     47  C   UNL     1      10.853  -5.495   6.326  1.00  0.00     0.029 A 
ATOM     48  C   UNL     1      11.534  -6.773   6.503  1.00  0.00     0.049 A 
ATOM     49  H   UNL     1      11.954  -8.202   5.046  1.00  0.00     0.167 HD
ATOM     50  C   UNL     1      12.750 -11.115   1.879  1.00  0.00     0.037 A 
ATOM     51  C   UNL     1      12.009  -7.247   7.670  1.00  0.00     0.037 A 
ATOM     52  C   UNL     1      13.356 -11.668   3.063  1.00  0.00     0.049 A 
ATOM     53  C   UNL     1      12.725  -8.568   7.683  1.00  0.00     0.074 A 
ATOM     54  C   UNL     1      14.070 -12.846   3.197  1.00  0.00     0.029 A 
ATOM     55  N   UNL     1      13.317 -11.081   4.319  1.00  0.00    -0.354 N 
ATOM     56  N   UNL     1      12.966  -9.389   6.690  1.00  0.00    -0.248 NA
ATOM     57  C   UNL     1      13.248  -9.022   8.979  1.00  0.00     0.031 C 
ATOM     58  C   UNL     1      14.421 -12.995   4.543  1.00  0.00     0.029 A 
ATOM     59  C   UNL     1      13.977 -11.883   5.237  1.00  0.00     0.049 A 
ATOM     60  H   UNL     1      12.883 -10.222   4.528  1.00  0.00     0.167 HD
ATOM     61  C   UNL     1      13.685 -10.445   7.236  1.00  0.00     0.074 A 
ATOM     62  C   UNL     1      13.871 -10.140   8.639  1.00  0.00     0.031 C 
ATOM     63  C   UNL     1      14.145 -11.569   6.633  1.00  0.00     0.037 A 
BRANCH  50  64
ATOM     64  C   UNL     1      12.860 -11.888   0.596  1.00  0.00     0.057 A 
ATOM     65  C   UNL     1      13.665 -11.445  -0.463  1.00  0.00     0.134 A 
ATOM     66  C   UNL     1      12.200 -13.113   0.433  1.00  0.00     0.134 A 
ATOM     67  F   UNL     1      14.315 -10.274  -0.379  1.00  0.00    -0.206 F 
ATOM     68  C   UNL     1      13.794 -12.181  -1.642  1.00  0.00     0.040 A 
ATOM     69  C   UNL     1      12.345 -13.872  -0.730  1.00  0.00     0.040 A 
ATOM     70  F   UNL     1      11.418 -13.601   1.408  1.00  0.00    -0.206 F 
ATOM     71  C   UNL     1      13.140 -13.404  -1.774  1.00  0.00     0.006 A 
ENDBRANCH  50  64
BRANCH  51  72
ATOM     72  C   UNL     1      11.834  -6.464   8.922  1.00  0.00     0.057 A 
ATOM     73  C   UNL     1      12.929  -5.909   9.594  1.00  0.00     0.134 A 
ATOM     74  C   UNL     1      10.568  -6.278   9.491  1.00  0.00     0.134 A 
ATOM     75  F   UNL     1      14.170  -6.065   9.109  1.00  0.00    -0.206 F 
ATOM     76  C   UNL     1      12.777  -5.227  10.803  1.00  0.00     0.040 A 
ATOM     77  C   UNL     1      10.397  -5.571  10.681  1.00  0.00     0.040 A 
ATOM     78  F   UNL     1       9.476  -6.774   8.891  1.00  0.00    -0.206 F 
ATOM     79  C   UNL     1      11.506  -5.053  11.347  1.00  0.00     0.006 A 
ENDBRANCH  51  72
BRANCH  63  80
ATOM     80  C   UNL     1      14.910 -12.535   7.494  1.00  0.00     0.057 A 
ATOM     81  C   UNL     1      14.289 -13.276   8.509  1.00  0.00     0.134 A 
ATOM     82  C   UNL     1      16.285 -12.724   7.308  1.00  0.00     0.134 A 
ATOM     83  F   UNL     1      12.976 -13.134   8.748  1.00  0.00    -0.206 F 
ATOM     84  C   UNL     1      15.015 -14.134   9.336  1.00  0.00     0.040 A 
ATOM     85  C   UNL     1      17.016 -13.604   8.107  1.00  0.00     0.040 A 
ATOM     86  F   UNL     1      16.942 -12.056   6.347  1.00  0.00    -0.206 F 
ATOM     87  C   UNL     1      16.383 -14.303   9.133  1.00  0.00     0.006 A 
ENDBRANCH  63  80
ENDBRANCH  37  38
ENDBRANCH  29  32
ENDBRANCH  27  28
ENDBRANCH  26  27
ENDBRANCH   1  26
TORSDOF 14
