REMARK SMILES CCc1cccc(NC(=O)N2CCO[C@@H](CC(=O)NCCCCNC(=O)c3ccc(-c4c5nc(c(-c6c(F)cccc6F)c6ccc([nH]6)c(-c6c(F)cccc6F)c6nc(c(-c7c(F)cccc7F)c7ccc4[nH]7)C=C6)C=C5)cc3)C2)c1
REMARK SMILES IDX 20 1 19 2 17 3 18 4 16 6 15 7 11 8 12 9 81 10 13 11 14 12
REMARK SMILES IDX 9 13 8 14 10 16 7 17 3 18 4 19 82 20 5 21 6 22 2 23 1 24
REMARK SMILES IDX 21 25 22 26 23 27 24 28 25 29 26 31 27 32 28 33 80 34 29 35
REMARK SMILES IDX 79 36 30 37 31 38 32 39 73 40 33 41 78 42 72 43 74 44 34 45
REMARK SMILES IDX 77 46 71 47 70 48 35 50 61 51 44 52 60 53 45 54 48 55 59 56
REMARK SMILES IDX 75 57 46 58 47 59 58 61 76 62 49 63 36 64 37 65 42 66 38 67
REMARK SMILES IDX 39 68 41 69 43 70 40 71 62 72 63 73 68 74 64 75 65 76 67 77
REMARK SMILES IDX 69 78 66 79 50 80 51 81 56 82 52 83 53 84 55 85 57 86 54 87
REMARK H PARENT 19 5 8 15 24 30 74 49 48 60
REMARK Flexibility Score: inf
ROOT
ATOM      1  C   UNL     1       0.565  -7.072   8.040  1.00  0.00     0.116 C 
ENDROOT
BRANCH   1   2
ATOM      2  N   UNL     1      -0.747  -7.247   7.436  1.00  0.00    -0.356 N 
ATOM      3  C   UNL     1      -1.101  -7.767   6.223  1.00  0.00     0.222 C 
ATOM      4  O   UNL     1      -2.275  -7.660   5.865  1.00  0.00    -0.275 OA
ATOM      5  H   UNL     1      -1.501  -6.942   7.990  1.00  0.00     0.163 HD
BRANCH   3   6
ATOM      6  C   UNL     1      -0.074  -8.440   5.332  1.00  0.00     0.133 C 
BRANCH   6   7
ATOM      7  C   UNL     1       0.500  -7.512   4.258  1.00  0.00     0.147 C 
ATOM      8  N   UNL     1       1.826  -5.432   3.952  1.00  0.00    -0.320 N 
ATOM      9  C   UNL     1       2.773  -6.152   3.111  1.00  0.00     0.150 C 
ATOM     10  C   UNL     1       1.114  -6.264   4.886  1.00  0.00     0.154 C 
ATOM     11  C   UNL     1       2.120  -7.404   2.511  1.00  0.00     0.182 C 
ATOM     12  O   UNL     1       1.517  -8.233   3.526  1.00  0.00    -0.374 OA
BRANCH   8  13
ATOM     13  C   UNL     1       2.048  -4.129   4.316  1.00  0.00     0.322 C 
ATOM     14  N   UNL     1       1.913  -3.160   3.369  1.00  0.00    -0.308 N 
ATOM     15  H   UNL     1       2.327  -2.298   3.602  1.00  0.00     0.171 HD
ATOM     16  O   UNL     1       2.317  -3.808   5.475  1.00  0.00    -0.248 OA
BRANCH  14  17
ATOM     17  C   UNL     1       1.279  -3.186   2.112  1.00  0.00     0.043 A 
ATOM     18  C   UNL     1       0.809  -2.006   0.030  1.00  0.00    -0.046 A 
ATOM     19  C   UNL     1       0.160  -3.153  -0.452  1.00  0.00     0.004 A 
ATOM     20  C   UNL     1       1.391  -2.047   1.307  1.00  0.00     0.029 A 
ATOM     21  C   UNL     1      -0.005  -4.266   0.360  1.00  0.00     0.002 A 
ATOM     22  C   UNL     1       0.512  -4.256   1.650  1.00  0.00     0.026 A 
BRANCH  18  23
ATOM     23  C   UNL     1       0.837  -0.792  -0.866  1.00  0.00     0.032 C 
ATOM     24  C   UNL     1       1.259   0.521  -0.223  1.00  0.00     0.009 C 
ENDBRANCH  18  23
ENDBRANCH  14  17
ENDBRANCH   8  13
ENDBRANCH   6   7
ENDBRANCH   3   6
ENDBRANCH   1   2
BRANCH   1  25
ATOM     25  C   UNL     1       1.019  -5.611   7.951  1.00  0.00     0.023 C 
BRANCH  25  26
ATOM     26  C   UNL     1       0.735  -4.750   9.165  1.00  0.00     0.023 C 
BRANCH  26  27
ATOM     27  C   UNL     1       1.532  -5.135  10.390  1.00  0.00     0.116 C 
BRANCH  27  28
ATOM     28  N   UNL     1       2.977  -5.072  10.211  1.00  0.00    -0.352 N 
ATOM     29  C   UNL     1       3.930  -4.652  11.114  1.00  0.00     0.251 C 
ATOM     30  H   UNL     1       3.316  -5.366   9.335  1.00  0.00     0.163 HD
ATOM     31  O   UNL     1       5.110  -4.597  10.813  1.00  0.00    -0.269 OA
BRANCH  29  32
ATOM     32  C   UNL     1       3.474  -4.209  12.448  1.00  0.00     0.039 A 
ATOM     33  C   UNL     1       3.903  -2.972  12.930  1.00  0.00     0.014 A 
ATOM     34  C   UNL     1       2.531  -4.960  13.152  1.00  0.00     0.014 A 
ATOM     35  C   UNL     1       3.319  -2.453  14.085  1.00  0.00     0.010 A 
ATOM     36  C   UNL     1       1.859  -4.383  14.216  1.00  0.00     0.010 A 
ATOM     37  C   UNL     1       2.261  -3.135  14.709  1.00  0.00    -0.014 A 
BRANCH  37  38
ATOM     38  C   UNL     1       1.585  -2.578  15.905  1.00  0.00     0.031 A 
ATOM     39  C   UNL     1       1.615  -3.343  17.199  1.00  0.00     0.074 A 
ATOM     40  C   UNL     1       0.903  -1.421  15.812  1.00  0.00     0.049 A 
ATOM     41  N   UNL     1       1.079  -3.040  18.353  1.00  0.00    -0.248 NA
ATOM     42  C   UNL     1       2.304  -4.644  17.185  1.00  0.00     0.031 C 
ATOM     43  C   UNL     1       0.738  -0.625  14.594  1.00  0.00     0.029 A 
ATOM     44  N   UNL     1       0.227  -0.707  16.769  1.00  0.00    -0.354 N 
ATOM     45  C   UNL     1       1.348  -4.118  19.186  1.00  0.00     0.074 A 
ATOM     46  C   UNL     1       2.018  -5.117  18.386  1.00  0.00     0.031 C 
ATOM     47  C   UNL     1       0.062   0.497  14.891  1.00  0.00     0.029 A 
ATOM     48  C   UNL     1      -0.279   0.484  16.309  1.00  0.00     0.049 A 
ATOM     49  H   UNL     1       0.116  -1.018  17.696  1.00  0.00     0.167 HD
ATOM     50  C   UNL     1       1.101  -4.251  20.510  1.00  0.00     0.037 A 
ATOM     51  C   UNL     1      -0.924   1.463  16.969  1.00  0.00     0.037 A 
ATOM     52  C   UNL     1       0.469  -3.237  21.309  1.00  0.00     0.049 A 
ATOM     53  C   UNL     1      -1.172   1.307  18.443  1.00  0.00     0.074 A 
ATOM     54  C   UNL     1       0.229  -3.233  22.671  1.00  0.00     0.029 A 
ATOM     55  N   UNL     1      -0.021  -2.038  20.810  1.00  0.00    -0.354 N 
ATOM     56  N   UNL     1      -0.841   0.318  19.239  1.00  0.00    -0.248 NA
ATOM     57  C   UNL     1      -1.877   2.409  19.111  1.00  0.00     0.031 C 
ATOM     58  C   UNL     1      -0.442  -2.046  22.990  1.00  0.00     0.029 A 
ATOM     59  C   UNL     1      -0.580  -1.293  21.834  1.00  0.00     0.049 A 
ATOM     60  H   UNL     1       0.022  -1.759  19.867  1.00  0.00     0.167 HD
ATOM     61  C   UNL     1      -1.269   0.690  20.506  1.00  0.00     0.074 A 
ATOM     62  C   UNL     1      -1.871   2.002  20.373  1.00  0.00     0.031 C 
ATOM     63  C   UNL     1      -1.173   0.010  21.676  1.00  0.00     0.037 A 
BRANCH  50  64
ATOM     64  C   UNL     1       1.528  -5.538  21.156  1.00  0.00     0.057 A 
ATOM     65  C   UNL     1       2.881  -5.880  21.302  1.00  0.00     0.134 A 
ATOM     66  C   UNL     1       0.578  -6.461  21.608  1.00  0.00     0.134 A 
ATOM     67  F   UNL     1       3.842  -5.049  20.870  1.00  0.00    -0.206 F 
ATOM     68  C   UNL     1       3.272  -7.111  21.830  1.00  0.00     0.040 A 
ATOM     69  C   UNL     1       0.958  -7.682  22.169  1.00  0.00     0.040 A 
ATOM     70  F   UNL     1      -0.733  -6.199  21.502  1.00  0.00    -0.206 F 
ATOM     71  C   UNL     1       2.308  -8.015  22.269  1.00  0.00     0.006 A 
ENDBRANCH  50  64
BRANCH  51  72
ATOM     72  C   UNL     1      -1.310   2.708  16.259  1.00  0.00     0.057 A 
ATOM     73  C   UNL     1      -0.632   3.908  16.505  1.00  0.00     0.134 A 
ATOM     74  C   UNL     1      -2.348   2.735  15.322  1.00  0.00     0.134 A 
ATOM     75  F   UNL     1       0.362   3.949  17.406  1.00  0.00    -0.206 F 
ATOM     76  C   UNL     1      -0.980   5.093  15.856  1.00  0.00     0.040 A 
ATOM     77  C   UNL     1      -2.693   3.908  14.648  1.00  0.00     0.040 A 
ATOM     78  F   UNL     1      -3.031   1.617  15.036  1.00  0.00    -0.206 F 
ATOM     79  C   UNL     1      -2.012   5.093  14.920  1.00  0.00     0.006 A 
ENDBRANCH  51  72
BRANCH  63  80
ATOM     80  C   UNL     1      -1.706   0.693  22.901  1.00  0.00     0.057 A 
ATOM     81  C   UNL     1      -3.079   0.859  23.117  1.00  0.00     0.134 A 
ATOM     82  C   UNL     1      -0.832   1.174  23.883  1.00  0.00     0.134 A 
ATOM     83  F   UNL     1      -3.967   0.431  22.207  1.00  0.00    -0.206 F 
ATOM     84  C   UNL     1      -3.564   1.509  24.252  1.00  0.00     0.040 A 
ATOM     85  C   UNL     1      -1.305   1.801  25.036  1.00  0.00     0.040 A 
ATOM     86  F   UNL     1       0.496   1.038  23.742  1.00  0.00    -0.206 F 
ATOM     87  C   UNL     1      -2.675   1.978  25.218  1.00  0.00     0.006 A 
ENDBRANCH  63  80
ENDBRANCH  37  38
ENDBRANCH  29  32
ENDBRANCH  27  28
ENDBRANCH  26  27
ENDBRANCH  25  26
ENDBRANCH   1  25
TORSDOF 15
