REMARK SMILES C[C@H]1CCC[C@@H]1n1c(SCC(=O)NCCCCNC(=O)c2ccc(-c3c4nc(c(-c5c(F)cccc5F)c5ccc([nH]5)c(-c5c(F)cccc5F)c5nc(c(-c6c(F)cccc6F)c6ccc3[nH]6)C=C5)C=C4)cc2)nc2cnccc21
REMARK SMILES IDX 15 1 14 2 13 3 11 4 12 5 10 7 9 8 8 9 7 10 81 11 75 12 76 13
REMARK SMILES IDX 80 14 77 15 79 16 78 17 6 18 1 19 2 20 3 21 4 22 5 23 16 24
REMARK SMILES IDX 17 25 18 26 19 27 20 29 21 30 22 31 74 32 23 33 73 34 24 35
REMARK SMILES IDX 25 36 26 37 67 38 27 39 72 40 66 41 68 42 28 43 71 44 65 45
REMARK SMILES IDX 64 46 29 48 55 49 38 50 54 51 39 52 42 53 53 54 69 55 40 56
REMARK SMILES IDX 41 57 52 59 70 60 43 61 30 62 31 63 36 64 32 65 33 66 35 67
REMARK SMILES IDX 37 68 34 69 56 70 57 71 62 72 58 73 59 74 61 75 63 76 60 77
REMARK SMILES IDX 44 78 45 79 50 80 46 81 47 82 49 83 51 84 48 85
REMARK H PARENT 13 6 18 28 68 47 42 58
REMARK Flexibility Score: inf
ROOT
ATOM      1  C   UNL     1      -0.881   4.647  -4.226  1.00  0.00     0.023 C 
ENDROOT
BRANCH   1   2
ATOM      2  C   UNL     1      -2.173   4.079  -3.657  1.00  0.00     0.116 C 
BRANCH   2   3
ATOM      3  N   UNL     1      -2.048   2.691  -3.283  1.00  0.00    -0.355 N 
ATOM      4  C   UNL     1      -2.529   2.080  -2.175  1.00  0.00     0.230 C 
ATOM      5  O   UNL     1      -2.778   0.874  -2.293  1.00  0.00    -0.274 OA
ATOM      6  H   UNL     1      -1.551   2.118  -3.910  1.00  0.00     0.163 HD
BRANCH   4   7
ATOM      7  C   UNL     1      -2.892   2.819  -0.912  1.00  0.00     0.178 C 
BRANCH   7   8
ATOM      8  S   UNL     1      -1.708   3.690   0.096  1.00  0.00    -0.078 SA
BRANCH   8   9
ATOM      9  C   UNL     1      -0.021   3.294   0.049  1.00  0.00     0.169 A 
ATOM     10  N   UNL     1       0.671   2.104   0.311  1.00  0.00    -0.315 N 
ATOM     11  C   UNL     1       2.028   2.450   0.376  1.00  0.00     0.072 A 
ATOM     12  N   UNL     1       0.793   4.329   0.146  1.00  0.00    -0.221 NA
ATOM     13  C   UNL     1       2.033   3.841   0.430  1.00  0.00     0.108 A 
ATOM     14  C   UNL     1       3.242   1.756   0.467  1.00  0.00     0.049 A 
ATOM     15  C   UNL     1       3.215   4.524   0.749  1.00  0.00     0.141 A 
ATOM     16  C   UNL     1       4.369   2.512   0.768  1.00  0.00     0.113 A 
ATOM     17  N   UNL     1       4.376   3.848   0.940  1.00  0.00    -0.262 NA
BRANCH  10  18
ATOM     18  C   UNL     1       0.098   0.831   0.768  1.00  0.00     0.093 C 
ATOM     19  C   UNL     1       1.820  -0.461   2.229  1.00  0.00     0.010 C 
ATOM     20  C   UNL     1       1.014  -0.410   0.934  1.00  0.00     0.009 C 
ATOM     21  C   UNL     1       0.054  -1.601   0.869  1.00  0.00     0.005 C 
ATOM     22  C   UNL     1      -0.925  -1.221  -0.213  1.00  0.00     0.002 C 
ATOM     23  C   UNL     1      -0.946   0.296  -0.205  1.00  0.00     0.026 C 
ENDBRANCH  10  18
ENDBRANCH   8   9
ENDBRANCH   7   8
ENDBRANCH   4   7
ENDBRANCH   2   3
ENDBRANCH   1   2
BRANCH   1  24
ATOM     24  C   UNL     1      -0.292   3.913  -5.438  1.00  0.00     0.023 C 
BRANCH  24  25
ATOM     25  C   UNL     1      -1.261   3.591  -6.579  1.00  0.00     0.116 C 
BRANCH  25  26
ATOM     26  N   UNL     1      -2.033   4.717  -7.063  1.00  0.00    -0.352 N 
ATOM     27  C   UNL     1      -1.843   5.686  -8.006  1.00  0.00     0.251 C 
ATOM     28  H   UNL     1      -2.900   4.804  -6.604  1.00  0.00     0.163 HD
ATOM     29  O   UNL     1      -2.835   6.377  -8.275  1.00  0.00    -0.269 OA
BRANCH  27  30
ATOM     30  C   UNL     1      -0.552   6.013  -8.665  1.00  0.00     0.039 A 
ATOM     31  C   UNL     1       0.632   5.294  -8.524  1.00  0.00     0.014 A 
ATOM     32  C   UNL     1      -0.536   7.186  -9.448  1.00  0.00     0.014 A 
ATOM     33  C   UNL     1       1.817   5.789  -9.056  1.00  0.00     0.010 A 
ATOM     34  C   UNL     1       0.642   7.674 -10.004  1.00  0.00     0.010 A 
ATOM     35  C   UNL     1       1.830   6.995  -9.769  1.00  0.00    -0.014 A 
BRANCH  35  36
ATOM     36  C   UNL     1       3.091   7.394 -10.391  1.00  0.00     0.031 A 
ATOM     37  C   UNL     1       3.618   6.376 -11.338  1.00  0.00     0.074 A 
ATOM     38  C   UNL     1       3.705   8.582 -10.212  1.00  0.00     0.049 A 
ATOM     39  N   UNL     1       4.677   5.649 -11.200  1.00  0.00    -0.248 NA
ATOM     40  C   UNL     1       2.782   6.004 -12.491  1.00  0.00     0.031 C 
ATOM     41  C   UNL     1       3.180   9.765  -9.528  1.00  0.00     0.029 A 
ATOM     42  N   UNL     1       4.916   9.012 -10.682  1.00  0.00    -0.354 N 
ATOM     43  C   UNL     1       4.759   4.876 -12.356  1.00  0.00     0.074 A 
ATOM     44  C   UNL     1       3.491   5.006 -13.021  1.00  0.00     0.031 C 
ATOM     45  C   UNL     1       3.960  10.832  -9.815  1.00  0.00     0.029 A 
ATOM     46  C   UNL     1       5.109  10.387 -10.585  1.00  0.00     0.049 A 
ATOM     47  H   UNL     1       5.592   8.402 -11.056  1.00  0.00     0.167 HD
ATOM     48  C   UNL     1       5.966   4.435 -12.803  1.00  0.00     0.037 A 
ATOM     49  C   UNL     1       6.119  11.114 -11.130  1.00  0.00     0.037 A 
ATOM     50  C   UNL     1       6.946   4.467 -11.742  1.00  0.00     0.049 A 
ATOM     51  C   UNL     1       7.236  10.190 -11.416  1.00  0.00     0.074 A 
ATOM     52  C   UNL     1       7.130   3.848 -10.524  1.00  0.00     0.029 A 
ATOM     53  N   UNL     1       7.784   5.550 -11.756  1.00  0.00    -0.354 N 
ATOM     54  N   UNL     1       7.978   9.637 -10.501  1.00  0.00    -0.248 NA
ATOM     55  C   UNL     1       7.324   9.587 -12.737  1.00  0.00     0.031 C 
ATOM     56  C   UNL     1       7.811   4.803  -9.708  1.00  0.00     0.029 A 
ATOM     57  C   UNL     1       8.055   5.942 -10.477  1.00  0.00     0.049 A 
ATOM     58  H   UNL     1       8.138   5.981 -12.567  1.00  0.00     0.167 HD
ATOM     59  C   UNL     1       8.243   8.371 -10.992  1.00  0.00     0.074 A 
ATOM     60  C   UNL     1       7.971   8.462 -12.423  1.00  0.00     0.031 C 
ATOM     61  C   UNL     1       8.361   7.313 -10.136  1.00  0.00     0.037 A 
BRANCH  48  62
ATOM     62  C   UNL     1       6.393   4.514 -14.263  1.00  0.00     0.057 A 
ATOM     63  C   UNL     1       5.752   5.298 -15.245  1.00  0.00     0.134 A 
ATOM     64  C   UNL     1       7.696   4.096 -14.603  1.00  0.00     0.134 A 
ATOM     65  F   UNL     1       4.521   5.795 -15.091  1.00  0.00    -0.206 F 
ATOM     66  C   UNL     1       6.386   5.711 -16.421  1.00  0.00     0.040 A 
ATOM     67  C   UNL     1       8.355   4.541 -15.757  1.00  0.00     0.040 A 
ATOM     68  F   UNL     1       8.414   3.331 -13.765  1.00  0.00    -0.206 F 
ATOM     69  C   UNL     1       7.706   5.370 -16.661  1.00  0.00     0.006 A 
ENDBRANCH  48  62
BRANCH  49  70
ATOM     70  C   UNL     1       6.129  12.511 -11.627  1.00  0.00     0.057 A 
ATOM     71  C   UNL     1       4.966  13.112 -12.136  1.00  0.00     0.134 A 
ATOM     72  C   UNL     1       7.333  13.187 -11.886  1.00  0.00     0.134 A 
ATOM     73  F   UNL     1       3.770  12.520 -12.011  1.00  0.00    -0.206 F 
ATOM     74  C   UNL     1       4.999  14.297 -12.880  1.00  0.00     0.040 A 
ATOM     75  C   UNL     1       7.380  14.371 -12.635  1.00  0.00     0.040 A 
ATOM     76  F   UNL     1       8.504  12.678 -11.478  1.00  0.00    -0.206 F 
ATOM     77  C   UNL     1       6.210  14.923 -13.146  1.00  0.00     0.006 A 
ENDBRANCH  49  70
BRANCH  61  78
ATOM     78  C   UNL     1       8.643   7.629  -8.695  1.00  0.00     0.057 A 
ATOM     79  C   UNL     1       9.811   7.112  -8.123  1.00  0.00     0.134 A 
ATOM     80  C   UNL     1       7.795   8.365  -7.854  1.00  0.00     0.134 A 
ATOM     81  F   UNL     1      10.645   6.354  -8.854  1.00  0.00    -0.206 F 
ATOM     82  C   UNL     1      10.141   7.338  -6.786  1.00  0.00     0.040 A 
ATOM     83  C   UNL     1       8.134   8.633  -6.524  1.00  0.00     0.040 A 
ATOM     84  F   UNL     1       6.608   8.816  -8.282  1.00  0.00    -0.206 F 
ATOM     85  C   UNL     1       9.311   8.117  -5.987  1.00  0.00     0.006 A 
ENDBRANCH  61  78
ENDBRANCH  35  36
ENDBRANCH  27  30
ENDBRANCH  25  26
ENDBRANCH  24  25
ENDBRANCH   1  24
TORSDOF 14
