REMARK SMILES Cc1noc(C[N@H+]2CCC[C@@H](c3ccc(C(=O)NCCCCNC(=O)c4ccc(-c5c6nc(c(-c7c(F)cccc7F)c7ccc([nH]7)c(-c7c(F)cccc7F)c7nc(c(-c8c(F)cccc8F)c8ccc5[nH]8)C=C7)C=C6)cc4)cc3)C2)n1
REMARK SMILES IDX 20 1 19 2 18 3 16 4 17 5 15 7 12 8 13 9 81 10 14 11 80 12
REMARK SMILES IDX 11 13 7 14 8 15 82 16 9 18 10 19 6 20 5 21 1 22 2 23 3 24
REMARK SMILES IDX 83 25 4 26 21 27 22 28 23 29 24 30 25 32 26 33 27 34 79 35
REMARK SMILES IDX 28 36 78 37 29 38 30 39 31 40 72 41 32 42 77 43 71 44 73 45
REMARK SMILES IDX 33 46 76 47 70 48 69 49 34 51 60 52 43 53 59 54 44 55 47 56
REMARK SMILES IDX 58 57 74 58 45 59 46 60 57 62 75 63 48 64 35 65 36 66 41 67
REMARK SMILES IDX 37 68 38 69 40 70 42 71 39 72 61 73 62 74 67 75 63 76 64 77
REMARK SMILES IDX 66 78 68 79 65 80 49 81 50 82 55 83 51 84 52 85 54 86 56 87
REMARK SMILES IDX 53 88
REMARK H PARENT 18 6 7 17 23 31 73 50 47 61
REMARK Flexibility Score: inf
ROOT
ATOM      1  C   UNL     1      -2.646  10.016  -3.480  1.00  0.00     0.023 C 
ENDROOT
BRANCH   1   2
ATOM      2  C   UNL     1      -3.023   9.204  -2.238  1.00  0.00     0.116 C 
BRANCH   2   3
ATOM      3  N   UNL     1      -4.030   8.217  -2.564  1.00  0.00    -0.352 N 
ATOM      4  C   UNL     1      -3.922   6.887  -2.883  1.00  0.00     0.251 C 
ATOM      5  O   UNL     1      -4.963   6.263  -3.091  1.00  0.00    -0.269 OA
ATOM      6  H   UNL     1      -4.953   8.559  -2.556  1.00  0.00     0.163 HD
BRANCH   4   7
ATOM      7  C   UNL     1      -2.620   6.165  -2.926  1.00  0.00     0.039 A 
ATOM      8  C   UNL     1      -0.229   4.652  -2.873  1.00  0.00    -0.039 A 
ATOM      9  C   UNL     1      -1.467   4.056  -2.587  1.00  0.00     0.005 A 
ATOM     10  C   UNL     1      -0.214   5.995  -3.255  1.00  0.00     0.005 A 
ATOM     11  C   UNL     1      -2.645   4.806  -2.600  1.00  0.00     0.014 A 
ATOM     12  C   UNL     1      -1.401   6.734  -3.303  1.00  0.00     0.014 A 
BRANCH   8  13
ATOM     13  C   UNL     1       1.078   3.876  -2.800  1.00  0.00     0.074 C 
ATOM     14  N   UNL     1       2.372   2.201  -1.405  1.00  0.00    -0.327 N 
ATOM     15  C   UNL     1       2.446   1.301  -2.565  1.00  0.00     0.262 C 
ATOM     16  C   UNL     1       1.192   3.083  -1.480  1.00  0.00     0.270 C 
ATOM     17  H   UNL     1       3.205   2.790  -1.428  1.00  0.00     0.348 HD
ATOM     18  C   UNL     1       2.467   2.083  -3.878  1.00  0.00     0.062 C 
ATOM     19  C   UNL     1       1.223   2.954  -4.015  1.00  0.00     0.020 C 
BRANCH  14  20
ATOM     20  C   UNL     1       2.382   1.439  -0.123  1.00  0.00     0.364 C 
BRANCH  20  21
ATOM     21  C   UNL     1       1.185   0.569   0.116  1.00  0.00     0.281 A 
ATOM     22  C   UNL     1      -2.200  -0.323   0.287  1.00  0.00     0.093 C 
ATOM     23  C   UNL     1      -0.727  -0.262   0.241  1.00  0.00     0.169 A 
ATOM     24  N   UNL     1       0.039  -1.315  -0.067  1.00  0.00    -0.063 NA
ATOM     25  N   UNL     1      -0.051   0.915   0.412  1.00  0.00    -0.191 NA
ATOM     26  O   UNL     1       1.322  -0.764  -0.149  1.00  0.00    -0.333 OA
ENDBRANCH  20  21
ENDBRANCH  14  20
ENDBRANCH   8  13
ENDBRANCH   4   7
ENDBRANCH   2   3
ENDBRANCH   1   2
BRANCH   1  27
ATOM     27  C   UNL     1      -3.675  11.075  -3.877  1.00  0.00     0.023 C 
BRANCH  27  28
ATOM     28  C   UNL     1      -3.888  12.173  -2.845  1.00  0.00     0.116 C 
BRANCH  28  29
ATOM     29  N   UNL     1      -2.667  12.888  -2.506  1.00  0.00    -0.352 N 
ATOM     30  C   UNL     1      -2.529  14.201  -2.126  1.00  0.00     0.251 C 
ATOM     31  H   UNL     1      -1.835  12.364  -2.554  1.00  0.00     0.163 HD
ATOM     32  O   UNL     1      -1.420  14.694  -1.968  1.00  0.00    -0.269 OA
BRANCH  30  33
ATOM     33  C   UNL     1      -3.743  15.024  -1.956  1.00  0.00     0.039 A 
ATOM     34  C   UNL     1      -3.821  16.249  -2.621  1.00  0.00     0.014 A 
ATOM     35  C   UNL     1      -4.814  14.562  -1.187  1.00  0.00     0.014 A 
ATOM     36  C   UNL     1      -5.005  16.984  -2.568  1.00  0.00     0.010 A 
ATOM     37  C   UNL     1      -6.015  15.262  -1.190  1.00  0.00     0.010 A 
ATOM     38  C   UNL     1      -6.121  16.478  -1.883  1.00  0.00    -0.014 A 
BRANCH  38  39
ATOM     39  C   UNL     1      -7.411  17.208  -1.874  1.00  0.00     0.031 A 
ATOM     40  C   UNL     1      -7.948  17.766  -0.586  1.00  0.00     0.074 A 
ATOM     41  C   UNL     1      -8.123  17.318  -3.012  1.00  0.00     0.049 A 
ATOM     42  N   UNL     1      -9.088  18.365  -0.356  1.00  0.00    -0.248 NA
ATOM     43  C   UNL     1      -7.100  17.608   0.607  1.00  0.00     0.031 C 
ATOM     44  C   UNL     1      -7.726  16.785  -4.317  1.00  0.00     0.029 A 
ATOM     45  N   UNL     1      -9.337  17.910  -3.252  1.00  0.00    -0.354 N 
ATOM     46  C   UNL     1      -9.096  18.650   1.003  1.00  0.00     0.074 A 
ATOM     47  C   UNL     1      -7.874  18.110   1.558  1.00  0.00     0.031 C 
ATOM     48  C   UNL     1      -8.668  17.093  -5.224  1.00  0.00     0.029 A 
ATOM     49  C   UNL     1      -9.749  17.814  -4.559  1.00  0.00     0.049 A 
ATOM     50  H   UNL     1      -9.864  18.362  -2.554  1.00  0.00     0.167 HD
ATOM     51  C   UNL     1     -10.025  19.326   1.718  1.00  0.00     0.037 A 
ATOM     52  C   UNL     1     -10.876  18.253  -5.151  1.00  0.00     0.037 A 
ATOM     53  C   UNL     1     -11.230  19.881   1.162  1.00  0.00     0.049 A 
ATOM     54  C   UNL     1     -11.899  18.985  -4.326  1.00  0.00     0.074 A 
ATOM     55  C   UNL     1     -12.221  20.605   1.800  1.00  0.00     0.029 A 
ATOM     56  N   UNL     1     -11.601  19.778  -0.170  1.00  0.00    -0.354 N 
ATOM     57  N   UNL     1     -11.871  19.287  -3.051  1.00  0.00    -0.248 NA
ATOM     58  C   UNL     1     -13.109  19.441  -5.026  1.00  0.00     0.031 C 
ATOM     59  C   UNL     1     -13.207  20.919   0.859  1.00  0.00     0.029 A 
ATOM     60  C   UNL     1     -12.811  20.421  -0.372  1.00  0.00     0.049 A 
ATOM     61  H   UNL     1     -11.083  19.317  -0.868  1.00  0.00     0.167 HD
ATOM     62  C   UNL     1     -13.039  19.997  -2.804  1.00  0.00     0.074 A 
ATOM     63  C   UNL     1     -13.748  20.090  -4.063  1.00  0.00     0.031 C 
ATOM     64  C   UNL     1     -13.488  20.522  -1.638  1.00  0.00     0.037 A 
BRANCH  51  65
ATOM     65  C   UNL     1      -9.762  19.520   3.182  1.00  0.00     0.057 A 
ATOM     66  C   UNL     1      -8.779  20.410   3.635  1.00  0.00     0.134 A 
ATOM     67  C   UNL     1     -10.523  18.849   4.146  1.00  0.00     0.134 A 
ATOM     68  F   UNL     1      -8.006  21.072   2.761  1.00  0.00    -0.206 F 
ATOM     69  C   UNL     1      -8.550  20.612   4.997  1.00  0.00     0.040 A 
ATOM     70  C   UNL     1     -10.319  19.061   5.511  1.00  0.00     0.040 A 
ATOM     71  F   UNL     1     -11.482  17.986   3.779  1.00  0.00    -0.206 F 
ATOM     72  C   UNL     1      -9.327  19.942   5.939  1.00  0.00     0.006 A 
ENDBRANCH  51  65
BRANCH  52  73
ATOM     73  C   UNL     1     -11.098  18.037  -6.602  1.00  0.00     0.057 A 
ATOM     74  C   UNL     1     -11.082  19.111  -7.500  1.00  0.00     0.134 A 
ATOM     75  C   UNL     1     -11.369  16.766  -7.122  1.00  0.00     0.134 A 
ATOM     76  F   UNL     1     -10.847  20.355  -7.059  1.00  0.00    -0.206 F 
ATOM     77  C   UNL     1     -11.357  18.934  -8.857  1.00  0.00     0.040 A 
ATOM     78  C   UNL     1     -11.621  16.571  -8.481  1.00  0.00     0.040 A 
ATOM     79  F   UNL     1     -11.392  15.695  -6.315  1.00  0.00    -0.206 F 
ATOM     80  C   UNL     1     -11.626  17.660  -9.351  1.00  0.00     0.006 A 
ENDBRANCH  52  73
BRANCH  64  81
ATOM     81  C   UNL     1     -14.777  21.285  -1.683  1.00  0.00     0.057 A 
ATOM     82  C   UNL     1     -16.013  20.640  -1.815  1.00  0.00     0.134 A 
ATOM     83  C   UNL     1     -14.783  22.680  -1.556  1.00  0.00     0.134 A 
ATOM     84  F   UNL     1     -16.072  19.307  -1.955  1.00  0.00    -0.206 F 
ATOM     85  C   UNL     1     -17.209  21.358  -1.842  1.00  0.00     0.040 A 
ATOM     86  C   UNL     1     -15.973  23.406  -1.557  1.00  0.00     0.040 A 
ATOM     87  F   UNL     1     -13.632  23.356  -1.418  1.00  0.00    -0.206 F 
ATOM     88  C   UNL     1     -17.191  22.745  -1.706  1.00  0.00     0.006 A 
ENDBRANCH  64  81
ENDBRANCH  38  39
ENDBRANCH  30  33
ENDBRANCH  28  29
ENDBRANCH  27  28
ENDBRANCH   1  27
TORSDOF 14
