REMARK SMILES COc1cc([C@@H]2CC(=O)Nc3c(C(=O)NCCCCNC(=O)c4ccc(-c5c6nc(c(-c7c(F)cccc7F)c7ccc([nH]7)c(-c7c(F)cccc7F)c7nc(c(-c8c(F)cccc8F)c8ccc5[nH]8)C=C7)C=C6)cc4)cn(-c4ccc(F)cc4)c32)c(OC)c2c1OCO2
REMARK SMILES IDX 17 1 16 2 15 3 13 4 14 5 12 7 6 8 7 9 86 10 8 11 11 12 78 13
REMARK SMILES IDX 9 14 10 15 77 16 5 18 3 19 4 20 91 21 90 22 92 23 87 24
REMARK SMILES IDX 94 25 93 26 2 27 1 28 88 29 89 30 79 31 80 32 85 33 81 34
REMARK SMILES IDX 84 35 82 36 83 37 18 38 19 39 20 40 21 41 22 43 23 44 24 45
REMARK SMILES IDX 76 46 25 47 75 48 26 49 27 50 28 51 69 52 29 53 74 54 68 55
REMARK SMILES IDX 70 56 30 57 73 58 67 59 66 60 31 62 57 63 40 64 56 65 41 66
REMARK SMILES IDX 44 67 55 68 71 69 42 70 43 71 54 73 72 74 45 75 32 76 33 77
REMARK SMILES IDX 38 78 34 79 35 80 37 81 39 82 36 83 58 84 59 85 64 86 60 87
REMARK SMILES IDX 61 88 63 89 65 90 62 91 46 92 47 93 52 94 48 95 49 96 51 97
REMARK SMILES IDX 53 98 50 99
REMARK H PARENT 15 6 10 17 20 42 70 61 44 72
REMARK Flexibility Score: inf
ROOT
ATOM      1  C   UNL     1       0.298  -5.298  10.039  1.00  0.00     0.023 C 
ENDROOT
BRANCH   1   2
ATOM      2  C   UNL     1       1.010  -6.101   8.938  1.00  0.00     0.116 C 
BRANCH   2   3
ATOM      3  N   UNL     1       0.100  -6.974   8.237  1.00  0.00    -0.352 N 
ATOM      4  C   UNL     1      -0.748  -6.813   7.173  1.00  0.00     0.254 C 
ATOM      5  O   UNL     1      -1.341  -7.847   6.843  1.00  0.00    -0.269 OA
ATOM      6  H   UNL     1       0.084  -7.887   8.606  1.00  0.00     0.163 HD
BRANCH   4   7
ATOM      7  C   UNL     1      -0.953  -5.570   6.413  1.00  0.00     0.081 A 
ATOM      8  C   UNL     1      -0.773  -2.074   5.098  1.00  0.00     0.082 C 
ATOM      9  C   UNL     1      -0.625  -1.317   6.421  1.00  0.00     0.115 C 
ATOM     10  C   UNL     1      -1.008  -3.534   5.369  1.00  0.00     0.055 A 
ATOM     11  C   UNL     1       0.173  -2.081   7.448  1.00  0.00     0.225 C 
ATOM     12  C   UNL     1      -0.618  -4.186   6.524  1.00  0.00     0.076 A 
ATOM     13  N   UNL     1      -1.712  -4.418   4.589  1.00  0.00    -0.317 N 
ATOM     14  O   UNL     1       0.844  -1.515   8.312  1.00  0.00    -0.275 OA
ATOM     15  N   UNL     1       0.017  -3.440   7.488  1.00  0.00    -0.324 N 
ATOM     16  C   UNL     1      -1.720  -5.625   5.243  1.00  0.00     0.107 A 
ATOM     17  H   UNL     1       0.386  -3.919   8.265  1.00  0.00     0.170 HD
BRANCH   8  18
ATOM     18  C   UNL     1       0.391  -1.761   4.154  1.00  0.00     0.012 A 
ATOM     19  C   UNL     1       1.075  -0.483   2.166  1.00  0.00     0.165 A 
ATOM     20  C   UNL     1       0.132  -0.799   3.142  1.00  0.00     0.059 A 
ATOM     21  C   UNL     1       2.313  -1.086   2.256  1.00  0.00     0.211 A 
ATOM     22  C   UNL     1       2.607  -1.989   3.263  1.00  0.00     0.211 A 
ATOM     23  O   UNL     1       3.375  -0.877   1.428  1.00  0.00    -0.449 OA
ATOM     24  C   UNL     1       1.674  -2.350   4.228  1.00  0.00     0.168 A 
ATOM     25  O   UNL     1       3.886  -2.453   3.154  1.00  0.00    -0.449 OA
ATOM     26  C   UNL     1       4.387  -1.675   2.058  1.00  0.00     0.468 C 
BRANCH  19  27
ATOM     27  O   UNL     1       0.676   0.432   1.237  1.00  0.00    -0.493 OA
ATOM     28  C   UNL     1       1.101   0.147  -0.092  1.00  0.00     0.278 C 
ENDBRANCH  19  27
BRANCH  24  29
ATOM     29  O   UNL     1       1.885  -3.240   5.238  1.00  0.00    -0.492 OA
ATOM     30  C   UNL     1       3.200  -3.704   5.498  1.00  0.00     0.278 C 
ENDBRANCH  24  29
ENDBRANCH   8  18
BRANCH  13  31
ATOM     31  C   UNL     1      -2.393  -4.141   3.382  1.00  0.00     0.046 A 
ATOM     32  C   UNL     1      -1.713  -3.541   2.317  1.00  0.00     0.029 A 
ATOM     33  C   UNL     1      -3.762  -4.416   3.286  1.00  0.00     0.029 A 
ATOM     34  C   UNL     1      -2.416  -3.139   1.183  1.00  0.00     0.041 A 
ATOM     35  C   UNL     1      -4.461  -4.004   2.149  1.00  0.00     0.041 A 
ATOM     36  C   UNL     1      -3.786  -3.358   1.117  1.00  0.00     0.123 A 
ATOM     37  F   UNL     1      -4.466  -2.941   0.041  1.00  0.00    -0.207 F 
ENDBRANCH  13  31
ENDBRANCH   4   7
ENDBRANCH   2   3
ENDBRANCH   1   2
BRANCH   1  38
ATOM     38  C   UNL     1       0.182  -5.977  11.407  1.00  0.00     0.023 C 
BRANCH  38  39
ATOM     39  C   UNL     1       1.481  -6.031  12.209  1.00  0.00     0.116 C 
BRANCH  39  40
ATOM     40  N   UNL     1       2.053  -4.706  12.501  1.00  0.00    -0.352 N 
ATOM     41  C   UNL     1       3.368  -4.369  12.809  1.00  0.00     0.251 C 
ATOM     42  H   UNL     1       1.418  -3.954  12.476  1.00  0.00     0.163 HD
ATOM     43  O   UNL     1       3.649  -3.351  13.413  1.00  0.00    -0.269 OA
BRANCH  41  44
ATOM     44  C   UNL     1       4.430  -5.274  12.336  1.00  0.00     0.039 A 
ATOM     45  C   UNL     1       5.568  -5.602  13.078  1.00  0.00     0.014 A 
ATOM     46  C   UNL     1       4.190  -5.857  11.102  1.00  0.00     0.014 A 
ATOM     47  C   UNL     1       6.430  -6.573  12.566  1.00  0.00     0.010 A 
ATOM     48  C   UNL     1       4.838  -7.007  10.785  1.00  0.00     0.010 A 
ATOM     49  C   UNL     1       6.043  -7.265  11.411  1.00  0.00    -0.014 A 
BRANCH  49  50
ATOM     50  C   UNL     1       6.841  -8.287  10.766  1.00  0.00     0.031 A 
ATOM     51  C   UNL     1       7.060  -9.517  11.556  1.00  0.00     0.074 A 
ATOM     52  C   UNL     1       7.102  -8.232   9.441  1.00  0.00     0.049 A 
ATOM     53  N   UNL     1       8.166  -9.912  12.084  1.00  0.00    -0.248 NA
ATOM     54  C   UNL     1       5.896 -10.338  11.917  1.00  0.00     0.031 C 
ATOM     55  C   UNL     1       6.652  -7.255   8.436  1.00  0.00     0.029 A 
ATOM     56  N   UNL     1       7.777  -9.135   8.689  1.00  0.00    -0.354 N 
ATOM     57  C   UNL     1       7.891 -11.132  12.693  1.00  0.00     0.074 A 
ATOM     58  C   UNL     1       6.456 -11.245  12.721  1.00  0.00     0.031 C 
ATOM     59  C   UNL     1       6.891  -7.736   7.195  1.00  0.00     0.029 A 
ATOM     60  C   UNL     1       7.657  -8.961   7.317  1.00  0.00     0.049 A 
ATOM     61  H   UNL     1       8.312  -9.860   9.086  1.00  0.00     0.167 HD
ATOM     62  C   UNL     1       8.884 -12.035  12.930  1.00  0.00     0.037 A 
ATOM     63  C   UNL     1       8.146  -9.793   6.366  1.00  0.00     0.037 A 
ATOM     64  C   UNL     1      10.181 -11.433  12.720  1.00  0.00     0.049 A 
ATOM     65  C   UNL     1       9.221 -10.595   7.012  1.00  0.00     0.074 A 
ATOM     66  C   UNL     1      10.861 -10.380  13.301  1.00  0.00     0.029 A 
ATOM     67  N   UNL     1      10.795 -11.650  11.508  1.00  0.00    -0.354 N 
ATOM     68  N   UNL     1      10.345 -10.079   7.435  1.00  0.00    -0.248 NA
ATOM     69  C   UNL     1       8.840 -11.852   7.642  1.00  0.00     0.031 C 
ATOM     70  C   UNL     1      11.494  -9.709  12.213  1.00  0.00     0.029 A 
ATOM     71  C   UNL     1      11.233 -10.433  11.048  1.00  0.00     0.049 A 
ATOM     72  H   UNL     1      10.901 -12.517  11.055  1.00  0.00     0.167 HD
ATOM     73  C   UNL     1      10.588 -10.698   8.655  1.00  0.00     0.074 A 
ATOM     74  C   UNL     1       9.668 -11.836   8.692  1.00  0.00     0.031 C 
ATOM     75  C   UNL     1      11.286 -10.068   9.648  1.00  0.00     0.037 A 
BRANCH  62  76
ATOM     76  C   UNL     1       8.713 -13.529  13.023  1.00  0.00     0.057 A 
ATOM     77  C   UNL     1       9.812 -14.316  13.418  1.00  0.00     0.134 A 
ATOM     78  C   UNL     1       7.623 -14.249  12.497  1.00  0.00     0.134 A 
ATOM     79  F   UNL     1      10.912 -13.753  13.941  1.00  0.00    -0.206 F 
ATOM     80  C   UNL     1       9.856 -15.701  13.221  1.00  0.00     0.040 A 
ATOM     81  C   UNL     1       7.637 -15.639  12.345  1.00  0.00     0.040 A 
ATOM     82  F   UNL     1       6.531 -13.650  12.011  1.00  0.00    -0.206 F 
ATOM     83  C   UNL     1       8.769 -16.366  12.673  1.00  0.00     0.006 A 
ENDBRANCH  62  76
BRANCH  63  84
ATOM     84  C   UNL     1       7.542 -10.143   5.060  1.00  0.00     0.057 A 
ATOM     85  C   UNL     1       8.280 -10.799   4.066  1.00  0.00     0.134 A 
ATOM     86  C   UNL     1       6.151 -10.083   4.854  1.00  0.00     0.134 A 
ATOM     87  F   UNL     1       9.608 -10.942   4.188  1.00  0.00    -0.206 F 
ATOM     88  C   UNL     1       7.670 -11.385   2.946  1.00  0.00     0.040 A 
ATOM     89  C   UNL     1       5.530 -10.659   3.740  1.00  0.00     0.040 A 
ATOM     90  F   UNL     1       5.337  -9.539   5.770  1.00  0.00    -0.206 F 
ATOM     91  C   UNL     1       6.288 -11.326   2.788  1.00  0.00     0.006 A 
ENDBRANCH  63  84
BRANCH  75  92
ATOM     92  C   UNL     1      11.962  -8.761   9.320  1.00  0.00     0.057 A 
ATOM     93  C   UNL     1      11.277  -7.591   8.954  1.00  0.00     0.134 A 
ATOM     94  C   UNL     1      13.335  -8.631   9.552  1.00  0.00     0.134 A 
ATOM     95  F   UNL     1       9.949  -7.581   8.809  1.00  0.00    -0.206 F 
ATOM     96  C   UNL     1      11.929  -6.365   8.788  1.00  0.00     0.040 A 
ATOM     97  C   UNL     1      13.995  -7.406   9.421  1.00  0.00     0.040 A 
ATOM     98  F   UNL     1      14.052  -9.688   9.965  1.00  0.00    -0.206 F 
ATOM     99  C   UNL     1      13.294  -6.268   9.029  1.00  0.00     0.006 A 
ENDBRANCH  75  92
ENDBRANCH  49  50
ENDBRANCH  41  44
ENDBRANCH  39  40
ENDBRANCH  38  39
ENDBRANCH   1  38
TORSDOF 15
