REMARK SMILES O=C(CSc1ccc(NC(=O)c2cccc3ccccc23)cc1)NCCCCNC(=O)c1ccc(-c2c3nc(c(-c4c(F)cccc4F)c4ccc([nH]4)c(-c4c(F)cccc4F)c4nc(c(-c5c(F)cccc5F)c5ccc2[nH]5)C=C4)C=C3)cc1
REMARK SMILES IDX 25 1 24 2 1 3 2 4 3 6 4 7 5 8 6 9 23 10 7 11 22 12 8 13 9 14
REMARK SMILES IDX 10 15 11 17 12 18 13 19 21 20 14 21 16 22 20 23 15 24 17 25
REMARK SMILES IDX 19 26 18 27 26 28 27 29 28 30 29 31 30 32 31 34 32 35 33 36
REMARK SMILES IDX 85 37 34 38 84 39 35 40 36 41 37 42 78 43 38 44 83 45 77 46
REMARK SMILES IDX 79 47 39 48 82 49 76 50 75 51 40 53 66 54 49 55 65 56 50 57
REMARK SMILES IDX 53 58 64 59 80 60 51 61 52 62 63 64 81 65 54 66 41 67 42 68
REMARK SMILES IDX 47 69 43 70 44 71 46 72 48 73 45 74 67 75 68 76 73 77 69 78
REMARK SMILES IDX 70 79 72 80 74 81 71 82 55 83 56 84 61 85 57 86 58 87 60 88
REMARK SMILES IDX 62 89 59 90
REMARK H PARENT 24 5 9 16 29 33 79 52 53 63
REMARK Flexibility Score: inf
ROOT
ATOM      1  C   UNL     1       2.079  -2.049   1.545  1.00  0.00     0.116 C 
ENDROOT
BRANCH   1   2
ATOM      2  N   UNL     1       2.773  -1.042   0.772  1.00  0.00    -0.355 N 
ATOM      3  O   UNL     1       0.920  -0.123  -0.218  1.00  0.00    -0.274 OA
ATOM      4  C   UNL     1       2.129  -0.104  -0.005  1.00  0.00     0.230 C 
ATOM      5  H   UNL     1       3.757  -1.026   0.803  1.00  0.00     0.163 HD
BRANCH   4   6
ATOM      6  C   UNL     1       3.037   0.950  -0.620  1.00  0.00     0.174 C 
BRANCH   6   7
ATOM      7  S   UNL     1       4.439   1.401   0.479  1.00  0.00    -0.116 SA
BRANCH   7   8
ATOM      8  C   UNL     1       3.619   2.425   1.688  1.00  0.00     0.008 A 
ATOM      9  C   UNL     1       4.106   3.714   1.913  1.00  0.00     0.017 A 
ATOM     10  C   UNL     1       2.535   1.981   2.446  1.00  0.00     0.017 A 
ATOM     11  C   UNL     1       3.458   4.575   2.806  1.00  0.00     0.027 A 
ATOM     12  C   UNL     1       1.873   2.848   3.317  1.00  0.00     0.027 A 
ATOM     13  C   UNL     1       2.287   4.174   3.442  1.00  0.00     0.041 A 
BRANCH  13  14
ATOM     14  N   UNL     1       1.431   5.022   4.157  1.00  0.00    -0.322 N 
ATOM     15  C   UNL     1       1.268   6.385   4.184  1.00  0.00     0.256 C 
ATOM     16  H   UNL     1       0.822   4.543   4.764  1.00  0.00     0.170 HD
ATOM     17  O   UNL     1       0.451   6.857   4.979  1.00  0.00    -0.269 OA
BRANCH  15  18
ATOM     18  C   UNL     1       2.006   7.333   3.318  1.00  0.00     0.048 A 
ATOM     19  C   UNL     1       2.672   8.349   4.025  1.00  0.00     0.014 A 
ATOM     20  C   UNL     1       2.017   7.305   1.892  1.00  0.00    -0.006 A 
ATOM     21  C   UNL     1       3.350   9.351   3.346  1.00  0.00     0.001 A 
ATOM     22  C   UNL     1       2.719   8.340   1.222  1.00  0.00    -0.018 A 
ATOM     23  C   UNL     1       1.413   6.309   1.081  1.00  0.00     0.009 A 
ATOM     24  C   UNL     1       3.356   9.354   1.955  1.00  0.00     0.009 A 
ATOM     25  C   UNL     1       2.805   8.348  -0.180  1.00  0.00     0.009 A 
ATOM     26  C   UNL     1       1.589   6.280  -0.306  1.00  0.00     0.001 A 
ATOM     27  C   UNL     1       2.275   7.307  -0.937  1.00  0.00     0.001 A 
ENDBRANCH  15  18
ENDBRANCH  13  14
ENDBRANCH   7   8
ENDBRANCH   6   7
ENDBRANCH   4   6
ENDBRANCH   1   2
BRANCH   1  28
ATOM     28  C   UNL     1       2.509  -3.460   1.162  1.00  0.00     0.023 C 
BRANCH  28  29
ATOM     29  C   UNL     1       4.004  -3.745   1.329  1.00  0.00     0.023 C 
BRANCH  29  30
ATOM     30  C   UNL     1       4.563  -3.522   2.731  1.00  0.00     0.116 C 
BRANCH  30  31
ATOM     31  N   UNL     1       3.965  -4.399   3.724  1.00  0.00    -0.352 N 
ATOM     32  C   UNL     1       4.565  -5.260   4.613  1.00  0.00     0.251 C 
ATOM     33  H   UNL     1       2.982  -4.371   3.768  1.00  0.00     0.163 HD
ATOM     34  O   UNL     1       3.880  -6.034   5.271  1.00  0.00    -0.269 OA
BRANCH  32  35
ATOM     35  C   UNL     1       6.039  -5.280   4.756  1.00  0.00     0.039 A 
ATOM     36  C   UNL     1       6.690  -6.516   4.824  1.00  0.00     0.014 A 
ATOM     37  C   UNL     1       6.779  -4.098   4.833  1.00  0.00     0.014 A 
ATOM     38  C   UNL     1       8.085  -6.564   4.894  1.00  0.00     0.010 A 
ATOM     39  C   UNL     1       8.171  -4.147   4.822  1.00  0.00     0.010 A 
ATOM     40  C   UNL     1       8.841  -5.380   4.850  1.00  0.00    -0.014 A 
BRANCH  40  41
ATOM     41  C   UNL     1      10.327  -5.417   4.820  1.00  0.00     0.031 A 
ATOM     42  C   UNL     1      11.129  -4.802   5.934  1.00  0.00     0.074 A 
ATOM     43  C   UNL     1      10.959  -5.950   3.755  1.00  0.00     0.049 A 
ATOM     44  N   UNL     1      12.427  -4.679   6.049  1.00  0.00    -0.248 NA
ATOM     45  C   UNL     1      10.370  -4.228   7.056  1.00  0.00     0.031 C 
ATOM     46  C   UNL     1      10.300  -6.538   2.587  1.00  0.00     0.029 A 
ATOM     47  N   UNL     1      12.298  -6.073   3.477  1.00  0.00    -0.354 N 
ATOM     48  C   UNL     1      12.640  -4.010   7.248  1.00  0.00     0.074 A 
ATOM     49  C   UNL     1      11.336  -3.699   7.793  1.00  0.00     0.031 C 
ATOM     50  C   UNL     1      11.235  -6.978   1.730  1.00  0.00     0.029 A 
ATOM     51  C   UNL     1      12.557  -6.665   2.264  1.00  0.00     0.049 A 
ATOM     52  H   UNL     1      13.006  -5.767   4.089  1.00  0.00     0.167 HD
ATOM     53  C   UNL     1      13.813  -3.703   7.852  1.00  0.00     0.037 A 
ATOM     54  C   UNL     1      13.726  -6.916   1.643  1.00  0.00     0.037 A 
ATOM     55  C   UNL     1      15.110  -4.021   7.313  1.00  0.00     0.049 A 
ATOM     56  C   UNL     1      15.015  -6.541   2.321  1.00  0.00     0.074 A 
ATOM     57  C   UNL     1      16.355  -3.793   7.872  1.00  0.00     0.029 A 
ATOM     58  N   UNL     1      15.330  -4.628   6.085  1.00  0.00    -0.354 N 
ATOM     59  N   UNL     1      15.201  -5.967   3.485  1.00  0.00    -0.248 NA
ATOM     60  C   UNL     1      16.258  -6.855   1.602  1.00  0.00     0.031 C 
ATOM     61  C   UNL     1      17.329  -4.211   6.960  1.00  0.00     0.029 A 
ATOM     62  C   UNL     1      16.691  -4.757   5.858  1.00  0.00     0.049 A 
ATOM     63  H   UNL     1      14.623  -4.923   5.466  1.00  0.00     0.167 HD
ATOM     64  C   UNL     1      16.577  -5.878   3.651  1.00  0.00     0.074 A 
ATOM     65  C   UNL     1      17.178  -6.472   2.475  1.00  0.00     0.031 C 
ATOM     66  C   UNL     1      17.279  -5.354   4.685  1.00  0.00     0.037 A 
BRANCH  53  67
ATOM     67  C   UNL     1      13.745  -2.984   9.170  1.00  0.00     0.057 A 
ATOM     68  C   UNL     1      13.261  -3.607  10.329  1.00  0.00     0.134 A 
ATOM     69  C   UNL     1      14.199  -1.664   9.291  1.00  0.00     0.134 A 
ATOM     70  F   UNL     1      12.802  -4.867  10.283  1.00  0.00    -0.206 F 
ATOM     71  C   UNL     1      13.200  -2.934  11.551  1.00  0.00     0.040 A 
ATOM     72  C   UNL     1      14.173  -0.991  10.514  1.00  0.00     0.040 A 
ATOM     73  F   UNL     1      14.684  -1.009   8.226  1.00  0.00    -0.206 F 
ATOM     74  C   UNL     1      13.664  -1.624  11.647  1.00  0.00     0.006 A 
ENDBRANCH  53  67
BRANCH  54  75
ATOM     75  C   UNL     1      13.733  -7.566   0.307  1.00  0.00     0.057 A 
ATOM     76  C   UNL     1      14.219  -8.868   0.138  1.00  0.00     0.134 A 
ATOM     77  C   UNL     1      13.264  -6.901  -0.832  1.00  0.00     0.134 A 
ATOM     78  F   UNL     1      14.700  -9.551   1.187  1.00  0.00    -0.206 F 
ATOM     79  C   UNL     1      14.259  -9.477  -1.118  1.00  0.00     0.040 A 
ATOM     80  C   UNL     1      13.271  -7.508  -2.089  1.00  0.00     0.040 A 
ATOM     81  F   UNL     1      12.778  -5.655  -0.737  1.00  0.00    -0.206 F 
ATOM     82  C   UNL     1      13.779  -8.797  -2.236  1.00  0.00     0.006 A 
ENDBRANCH  54  75
BRANCH  66  83
ATOM     83  C   UNL     1      18.778  -5.432   4.612  1.00  0.00     0.057 A 
ATOM     84  C   UNL     1      19.521  -4.657   3.712  1.00  0.00     0.134 A 
ATOM     85  C   UNL     1      19.489  -6.268   5.483  1.00  0.00     0.134 A 
ATOM     86  F   UNL     1      18.902  -3.845   2.842  1.00  0.00    -0.206 F 
ATOM     87  C   UNL     1      20.914  -4.731   3.663  1.00  0.00     0.040 A 
ATOM     88  C   UNL     1      20.884  -6.327   5.465  1.00  0.00     0.040 A 
ATOM     89  F   UNL     1      18.842  -7.030   6.378  1.00  0.00    -0.206 F 
ATOM     90  C   UNL     1      21.600  -5.561   4.547  1.00  0.00     0.006 A 
ENDBRANCH  66  83
ENDBRANCH  40  41
ENDBRANCH  32  35
ENDBRANCH  30  31
ENDBRANCH  29  30
ENDBRANCH  28  29
ENDBRANCH   1  28
TORSDOF 15
