REMARK SMILES CS(=O)(=O)c1ccc(/C=C(/C(=O)NCCCCNC(=O)c2ccc(-c3c4nc(c(-c5c(F)cccc5F)c5ccc([nH]5)c(-c5c(F)cccc5F)c5nc(c(-c6c(F)cccc6F)c6ccc3[nH]6)C=C5)C=C4)cc2)c2cccc(Br)c2)cc1
REMARK SMILES IDX 15 1 14 2 13 3 11 4 12 5 10 7 9 8 8 9 5 10 6 11 83 12 7 13
REMARK SMILES IDX 82 14 2 15 1 16 3 17 4 18 75 19 76 20 81 21 77 22 79 23
REMARK SMILES IDX 78 24 80 25 16 26 17 27 18 28 19 29 20 31 21 32 22 33 74 34
REMARK SMILES IDX 23 35 73 36 24 37 25 38 26 39 67 40 27 41 72 42 66 43 68 44
REMARK SMILES IDX 28 45 71 46 65 47 64 48 29 50 55 51 38 52 54 53 39 54 42 55
REMARK SMILES IDX 53 56 69 57 40 58 41 59 52 61 70 62 43 63 30 64 31 65 36 66
REMARK SMILES IDX 32 67 33 68 35 69 37 70 34 71 56 72 57 73 62 74 58 75 59 76
REMARK SMILES IDX 61 77 63 78 60 79 44 80 45 81 50 82 46 83 47 84 49 85 51 86
REMARK SMILES IDX 48 87
REMARK H PARENT 13 6 18 30 68 49 42 60
REMARK Flexibility Score: inf
ROOT
ATOM      1  C   UNL     1       5.316  -8.243   0.740  1.00  0.00     0.023 C 
ENDROOT
BRANCH   1   2
ATOM      2  C   UNL     1       4.260  -8.295  -0.367  1.00  0.00     0.116 C 
BRANCH   2   3
ATOM      3  N   UNL     1       3.190  -9.201  -0.000  1.00  0.00    -0.352 N 
ATOM      4  C   UNL     1       1.947  -9.030   0.524  1.00  0.00     0.251 C 
ATOM      5  O   UNL     1       1.314 -10.065   0.749  1.00  0.00    -0.269 OA
ATOM      6  H   UNL     1       3.411 -10.146  -0.166  1.00  0.00     0.163 HD
BRANCH   4   7
ATOM      7  C   UNL     1       1.305  -7.677   0.751  1.00  0.00     0.047 C 
ATOM      8  C   UNL     1       2.024  -6.589   1.113  1.00  0.00     0.022 C 
BRANCH   8   9
ATOM      9  C   UNL     1       1.606  -5.179   1.278  1.00  0.00    -0.025 A 
ATOM     10  C   UNL     1       0.916  -2.455   1.418  1.00  0.00     0.067 A 
ATOM     11  C   UNL     1       0.070  -3.421   1.965  1.00  0.00     0.021 A 
ATOM     12  C   UNL     1       2.126  -2.830   0.836  1.00  0.00     0.021 A 
ATOM     13  C   UNL     1       0.432  -4.771   1.921  1.00  0.00     0.009 A 
ATOM     14  C   UNL     1       2.461  -4.187   0.764  1.00  0.00     0.009 A 
BRANCH  10  15
ATOM     15  S   UNL     1       0.423  -0.749   1.472  1.00  0.00     0.175 S 
ATOM     16  C   UNL     1       0.950  -0.035  -0.063  1.00  0.00     0.163 C 
ATOM     17  O   UNL     1       1.181  -0.134   2.543  1.00  0.00    -0.224 OA
ATOM     18  O   UNL     1      -1.029  -0.725   1.468  1.00  0.00    -0.224 OA
ENDBRANCH  10  15
ENDBRANCH   8   9
BRANCH   7  19
ATOM     19  C   UNL     1      -0.180  -7.630   0.733  1.00  0.00    -0.012 A 
ATOM     20  C   UNL     1      -0.886  -8.304   1.746  1.00  0.00     0.009 A 
ATOM     21  C   UNL     1      -0.894  -6.868  -0.200  1.00  0.00     0.024 A 
ATOM     22  C   UNL     1      -2.273  -8.200   1.846  1.00  0.00     0.002 A 
ATOM     23  C   UNL     1      -2.281  -6.750  -0.080  1.00  0.00     0.018 A 
ATOM     24  C   UNL     1      -2.972  -7.409   0.938  1.00  0.00     0.016 A 
ATOM     25  Br  UNL     1      -3.232  -5.643  -1.282  1.00  0.00    -0.051 Br
ENDBRANCH   7  19
ENDBRANCH   4   7
ENDBRANCH   2   3
ENDBRANCH   1   2
BRANCH   1  26
ATOM     26  C   UNL     1       6.173  -9.511   0.860  1.00  0.00     0.023 C 
BRANCH  26  27
ATOM     27  C   UNL     1       7.002  -9.858  -0.374  1.00  0.00     0.116 C 
BRANCH  27  28
ATOM     28  N   UNL     1       7.897  -8.787  -0.781  1.00  0.00    -0.352 N 
ATOM     29  C   UNL     1       9.149  -8.872  -1.339  1.00  0.00     0.251 C 
ATOM     30  H   UNL     1       7.558  -7.873  -0.636  1.00  0.00     0.163 HD
ATOM     31  O   UNL     1       9.810  -7.856  -1.525  1.00  0.00    -0.269 OA
BRANCH  29  32
ATOM     32  C   UNL     1       9.713 -10.195  -1.675  1.00  0.00     0.039 A 
ATOM     33  C   UNL     1      11.011 -10.496  -1.252  1.00  0.00     0.014 A 
ATOM     34  C   UNL     1       8.966 -11.137  -2.386  1.00  0.00     0.014 A 
ATOM     35  C   UNL     1      11.533 -11.770  -1.479  1.00  0.00     0.010 A 
ATOM     36  C   UNL     1       9.466 -12.424  -2.562  1.00  0.00     0.010 A 
ATOM     37  C   UNL     1      10.750 -12.755  -2.102  1.00  0.00    -0.014 A 
BRANCH  37  38
ATOM     38  C   UNL     1      11.247 -14.145  -2.253  1.00  0.00     0.031 A 
ATOM     39  C   UNL     1      11.508 -14.714  -3.618  1.00  0.00     0.074 A 
ATOM     40  C   UNL     1      11.392 -14.916  -1.159  1.00  0.00     0.049 A 
ATOM     41  N   UNL     1      11.875 -15.926  -3.950  1.00  0.00    -0.248 NA
ATOM     42  C   UNL     1      11.308 -13.811  -4.762  1.00  0.00     0.031 C 
ATOM     43  C   UNL     1      11.122 -14.493   0.217  1.00  0.00     0.029 A 
ATOM     44  N   UNL     1      11.790 -16.223  -1.032  1.00  0.00    -0.354 N 
ATOM     45  C   UNL     1      11.934 -15.936  -5.337  1.00  0.00     0.074 A 
ATOM     46  C   UNL     1      11.525 -14.622  -5.787  1.00  0.00     0.031 C 
ATOM     47  C   UNL     1      11.380 -15.515   1.049  1.00  0.00     0.029 A 
ATOM     48  C   UNL     1      11.800 -16.672   0.266  1.00  0.00     0.049 A 
ATOM     49  H   UNL     1      12.044 -16.786  -1.799  1.00  0.00     0.167 HD
ATOM     50  C   UNL     1      12.313 -16.942  -6.160  1.00  0.00     0.037 A 
ATOM     51  C   UNL     1      12.108 -17.883   0.767  1.00  0.00     0.037 A 
ATOM     52  C   UNL     1      12.746 -18.239  -5.710  1.00  0.00     0.049 A 
ATOM     53  C   UNL     1      12.531 -18.981  -0.168  1.00  0.00     0.074 A 
ATOM     54  C   UNL     1      13.213 -19.302  -6.463  1.00  0.00     0.029 A 
ATOM     55  N   UNL     1      12.764 -18.649  -4.385  1.00  0.00    -0.354 N 
ATOM     56  N   UNL     1      12.647 -18.954  -1.473  1.00  0.00    -0.248 NA
ATOM     57  C   UNL     1      12.869 -20.275   0.441  1.00  0.00     0.031 C 
ATOM     58  C   UNL     1      13.480 -20.368  -5.598  1.00  0.00     0.029 A 
ATOM     59  C   UNL     1      13.216 -19.956  -4.301  1.00  0.00     0.049 A 
ATOM     60  H   UNL     1      12.495 -18.094  -3.618  1.00  0.00     0.167 HD
ATOM     61  C   UNL     1      13.096 -20.216  -1.839  1.00  0.00     0.074 A 
ATOM     62  C   UNL     1      13.242 -20.980  -0.617  1.00  0.00     0.031 C 
ATOM     63  C   UNL     1      13.363 -20.699  -3.077  1.00  0.00     0.037 A 
BRANCH  50  64
ATOM     64  C   UNL     1      12.282 -16.678  -7.636  1.00  0.00     0.057 A 
ATOM     65  C   UNL     1      13.220 -15.840  -8.253  1.00  0.00     0.134 A 
ATOM     66  C   UNL     1      11.331 -17.299  -8.455  1.00  0.00     0.134 A 
ATOM     67  F   UNL     1      14.150 -15.206  -7.523  1.00  0.00    -0.206 F 
ATOM     68  C   UNL     1      13.200 -15.611  -9.630  1.00  0.00     0.040 A 
ATOM     69  C   UNL     1      11.316 -17.097  -9.836  1.00  0.00     0.040 A 
ATOM     70  F   UNL     1      10.408 -18.117  -7.928  1.00  0.00    -0.206 F 
ATOM     71  C   UNL     1      12.249 -16.247 -10.427  1.00  0.00     0.006 A 
ENDBRANCH  50  64
BRANCH  51  72
ATOM     72  C   UNL     1      12.053 -18.116   2.231  1.00  0.00     0.057 A 
ATOM     73  C   UNL     1      13.226 -18.274   2.978  1.00  0.00     0.134 A 
ATOM     74  C   UNL     1      10.835 -18.195   2.916  1.00  0.00     0.134 A 
ATOM     75  F   UNL     1      14.422 -18.227   2.374  1.00  0.00    -0.206 F 
ATOM     76  C   UNL     1      13.190 -18.520   4.351  1.00  0.00     0.040 A 
ATOM     77  C   UNL     1      10.785 -18.419   4.293  1.00  0.00     0.040 A 
ATOM     78  F   UNL     1       9.677 -18.044   2.257  1.00  0.00    -0.206 F 
ATOM     79  C   UNL     1      11.966 -18.589   5.013  1.00  0.00     0.006 A 
ENDBRANCH  51  72
BRANCH  63  80
ATOM     80  C   UNL     1      13.870 -22.107  -3.167  1.00  0.00     0.057 A 
ATOM     81  C   UNL     1      13.027 -23.208  -2.972  1.00  0.00     0.134 A 
ATOM     82  C   UNL     1      15.209 -22.363  -3.488  1.00  0.00     0.134 A 
ATOM     83  F   UNL     1      11.738 -23.028  -2.648  1.00  0.00    -0.206 F 
ATOM     84  C   UNL     1      13.504 -24.516  -3.074  1.00  0.00     0.040 A 
ATOM     85  C   UNL     1      15.691 -23.666  -3.615  1.00  0.00     0.040 A 
ATOM     86  F   UNL     1      16.066 -21.351  -3.694  1.00  0.00    -0.206 F 
ATOM     87  C   UNL     1      14.838 -24.747  -3.403  1.00  0.00     0.006 A 
ENDBRANCH  63  80
ENDBRANCH  37  38
ENDBRANCH  29  32
ENDBRANCH  27  28
ENDBRANCH  26  27
ENDBRANCH   1  26
TORSDOF 14
