REMARK SMILES O=C1C[C@H](c2cn[nH]c2C(=O)NCCCCNC(=O)c2ccc(-c3c4nc(c(-c5c(F)cccc5F)c5ccc([nH]5)c(-c5c(F)cccc5F)c5nc(c(-c6c(F)cccc6F)c6ccc3[nH]6)C=C5)C=C4)cc2)c2c(-c3cccs3)n[nH]c2N1
REMARK SMILES IDX 14 1 13 2 12 3 10 4 11 5 9 7 5 8 6 9 7 10 8 11 4 13 1 14
REMARK SMILES IDX 2 15 3 16 84 17 83 18 74 20 82 21 75 22 81 23 76 25 77 26
REMARK SMILES IDX 80 27 78 28 79 29 15 30 16 31 17 32 18 33 19 35 20 36 21 37
REMARK SMILES IDX 73 38 22 39 72 40 23 41 24 42 25 43 66 44 26 45 71 46 65 47
REMARK SMILES IDX 67 48 27 49 70 50 64 51 63 52 28 54 54 55 37 56 53 57 38 58
REMARK SMILES IDX 41 59 52 60 68 61 39 62 40 63 51 65 69 66 42 67 29 68 30 69
REMARK SMILES IDX 35 70 31 71 32 72 34 73 36 74 33 75 55 76 56 77 61 78 57 79
REMARK SMILES IDX 58 80 60 81 62 82 59 83 43 84 44 85 49 86 45 87 46 88 48 89
REMARK SMILES IDX 50 90 47 91
REMARK H PARENT 12 6 8 12 84 19 82 24 17 34 67 53 41 64
REMARK Flexibility Score: inf
ROOT
ATOM      1  C   UNL     1       3.642  -2.192   0.995  1.00  0.00     0.023 C 
ENDROOT
BRANCH   1   2
ATOM      2  C   UNL     1       4.954  -1.086   0.543  1.00  0.00     0.116 C 
BRANCH   2   3
ATOM      3  N   UNL     1       5.537  -0.472  -1.467  1.00  0.00    -0.351 N 
ATOM      4  C   UNL     1       5.600   0.357  -2.611  1.00  0.00     0.269 C 
ATOM      5  O   UNL     1       6.252  -0.095  -3.558  1.00  0.00    -0.268 OA
ATOM      6  H   UNL     1       6.095  -1.233  -1.748  1.00  0.00     0.163 HD
BRANCH   4   7
ATOM      7  C   UNL     1       5.027   1.681  -2.691  1.00  0.00     0.126 A 
ATOM      8  C   UNL     1       4.362   2.461  -1.757  1.00  0.00     0.011 A 
ATOM      9  C   UNL     1       4.147   3.693  -2.401  1.00  0.00     0.140 A 
ATOM     10  N   UNL     1       4.603   3.695  -3.655  1.00  0.00    -0.183 NA
ATOM     11  N   UNL     1       5.130   2.466  -3.805  1.00  0.00    -0.273 N 
ATOM     12  H   UNL     1       5.551   2.160  -4.641  1.00  0.00     0.190 HD
BRANCH   8  13
ATOM     13  C   UNL     1       4.021   2.028  -0.378  1.00  0.00     0.069 C 
ATOM     14  O   UNL     1       0.522   0.491  -0.423  1.00  0.00    -0.275 OA
ATOM     15  C   UNL     1       1.739   0.579  -0.623  1.00  0.00     0.226 C 
ATOM     16  C   UNL     1       2.495   1.862  -0.171  1.00  0.00     0.114 C 
ATOM     17  N   UNL     1       2.377  -0.512  -1.161  1.00  0.00    -0.311 N 
ATOM     18  C   UNL     1       3.713  -0.624  -0.931  1.00  0.00     0.132 A 
ATOM     19  H   UNL     1       1.888  -1.184  -1.690  1.00  0.00     0.171 HD
ATOM     20  C   UNL     1       4.638   0.709  -0.240  1.00  0.00     0.031 A 
ATOM     21  N   UNL     1       4.841  -2.091  -1.070  1.00  0.00    -0.262 N 
ATOM     22  C   UNL     1       6.458   0.077   0.063  1.00  0.00     0.108 A 
ATOM     23  N   UNL     1       6.557  -1.617  -0.437  1.00  0.00    -0.173 NA
ATOM     24  H   UNL     1       4.585  -2.976  -1.417  1.00  0.00     0.192 HD
BRANCH  22  25
ATOM     25  C   UNL     1       7.592   1.037   0.203  1.00  0.00     0.055 A 
ATOM     26  C   UNL     1       8.667   1.081  -0.656  1.00  0.00     0.022 A 
ATOM     27  S   UNL     1       7.595   2.318   1.322  1.00  0.00    -0.142 S 
ATOM     28  C   UNL     1       9.479   2.234  -0.420  1.00  0.00     0.012 A 
ATOM     29  C   UNL     1       9.042   2.961   0.667  1.00  0.00     0.065 A 
ENDBRANCH  22  25
ENDBRANCH   8  13
ENDBRANCH   4   7
ENDBRANCH   2   3
ENDBRANCH   1   2
BRANCH   1  30
ATOM     30  C   UNL     1       4.025  -3.605   1.443  1.00  0.00     0.023 C 
BRANCH  30  31
ATOM     31  C   UNL     1       5.114  -3.653   2.483  1.00  0.00     0.116 C 
BRANCH  31  32
ATOM     32  N   UNL     1       4.718  -2.928   3.686  1.00  0.00    -0.352 N 
ATOM     33  C   UNL     1       5.349  -3.021   4.907  1.00  0.00     0.251 C 
ATOM     34  H   UNL     1       3.941  -2.328   3.620  1.00  0.00     0.163 HD
ATOM     35  O   UNL     1       4.752  -2.863   5.961  1.00  0.00    -0.269 OA
BRANCH  33  36
ATOM     36  C   UNL     1       6.808  -3.201   4.862  1.00  0.00     0.039 A 
ATOM     37  C   UNL     1       7.497  -4.117   5.654  1.00  0.00     0.014 A 
ATOM     38  C   UNL     1       7.465  -2.459   3.883  1.00  0.00     0.014 A 
ATOM     39  C   UNL     1       8.885  -4.202   5.498  1.00  0.00     0.010 A 
ATOM     40  C   UNL     1       8.754  -2.770   3.564  1.00  0.00     0.010 A 
ATOM     41  C   UNL     1       9.523  -3.469   4.472  1.00  0.00    -0.014 A 
BRANCH  41  42
ATOM     42  C   UNL     1      10.909  -3.686   4.046  1.00  0.00     0.031 A 
ATOM     43  C   UNL     1      11.031  -5.112   3.625  1.00  0.00     0.074 A 
ATOM     44  C   UNL     1      11.850  -2.702   3.916  1.00  0.00     0.049 A 
ATOM     45  N   UNL     1      11.476  -6.055   4.386  1.00  0.00    -0.248 NA
ATOM     46  C   UNL     1      10.295  -5.641   2.454  1.00  0.00     0.031 C 
ATOM     47  C   UNL     1      11.732  -1.256   4.170  1.00  0.00     0.029 A 
ATOM     48  N   UNL     1      13.169  -2.787   3.500  1.00  0.00    -0.354 N 
ATOM     49  C   UNL     1      11.447  -7.206   3.613  1.00  0.00     0.074 A 
ATOM     50  C   UNL     1      10.467  -6.962   2.597  1.00  0.00     0.031 C 
ATOM     51  C   UNL     1      12.809  -0.588   3.673  1.00  0.00     0.029 A 
ATOM     52  C   UNL     1      13.782  -1.542   3.176  1.00  0.00     0.049 A 
ATOM     53  H   UNL     1      13.647  -3.645   3.433  1.00  0.00     0.167 HD
ATOM     54  C   UNL     1      12.514  -8.051   3.673  1.00  0.00     0.037 A 
ATOM     55  C   UNL     1      15.021  -1.346   2.609  1.00  0.00     0.037 A 
ATOM     56  C   UNL     1      13.327  -7.700   4.819  1.00  0.00     0.049 A 
ATOM     57  C   UNL     1      15.804  -2.588   2.852  1.00  0.00     0.074 A 
ATOM     58  C   UNL     1      13.102  -7.615   6.180  1.00  0.00     0.029 A 
ATOM     59  N   UNL     1      14.395  -6.883   4.542  1.00  0.00    -0.354 N 
ATOM     60  N   UNL     1      16.185  -2.945   4.048  1.00  0.00    -0.248 NA
ATOM     61  C   UNL     1      15.587  -3.664   1.895  1.00  0.00     0.031 C 
ATOM     62  C   UNL     1      13.774  -6.428   6.593  1.00  0.00     0.029 A 
ATOM     63  C   UNL     1      14.531  -5.946   5.527  1.00  0.00     0.049 A 
ATOM     64  H   UNL     1      14.976  -6.961   3.751  1.00  0.00     0.167 HD
ATOM     65  C   UNL     1      15.727  -4.249   4.154  1.00  0.00     0.074 A 
ATOM     66  C   UNL     1      15.380  -4.645   2.781  1.00  0.00     0.031 C 
ATOM     67  C   UNL     1      15.323  -4.753   5.358  1.00  0.00     0.037 A 
BRANCH  54  68
ATOM     68  C   UNL     1      13.116  -8.786   2.495  1.00  0.00     0.057 A 
ATOM     69  C   UNL     1      14.235  -9.609   2.734  1.00  0.00     0.134 A 
ATOM     70  C   UNL     1      12.873  -8.496   1.139  1.00  0.00     0.134 A 
ATOM     71  F   UNL     1      14.583  -9.953   3.984  1.00  0.00    -0.206 F 
ATOM     72  C   UNL     1      15.095 -10.030   1.714  1.00  0.00     0.040 A 
ATOM     73  C   UNL     1      13.701  -8.950   0.107  1.00  0.00     0.040 A 
ATOM     74  F   UNL     1      11.888  -7.688   0.734  1.00  0.00    -0.206 F 
ATOM     75  C   UNL     1      14.834  -9.694   0.393  1.00  0.00     0.006 A 
ENDBRANCH  54  68
BRANCH  55  76
ATOM     76  C   UNL     1      15.534  -0.328   1.629  1.00  0.00     0.057 A 
ATOM     77  C   UNL     1      16.898  -0.207   1.268  1.00  0.00     0.134 A 
ATOM     78  C   UNL     1      14.641   0.333   0.774  1.00  0.00     0.134 A 
ATOM     79  F   UNL     1      17.855  -0.830   1.974  1.00  0.00    -0.206 F 
ATOM     80  C   UNL     1      17.328   0.499   0.123  1.00  0.00     0.040 A 
ATOM     81  C   UNL     1      15.054   1.030  -0.373  1.00  0.00     0.040 A 
ATOM     82  F   UNL     1      13.320   0.244   0.973  1.00  0.00    -0.206 F 
ATOM     83  C   UNL     1      16.399   1.106  -0.713  1.00  0.00     0.006 A 
ENDBRANCH  55  76
BRANCH  67  84
ATOM     84  C   UNL     1      15.616  -3.965   6.606  1.00  0.00     0.057 A 
ATOM     85  C   UNL     1      15.082  -2.705   6.922  1.00  0.00     0.134 A 
ATOM     86  C   UNL     1      16.352  -4.604   7.608  1.00  0.00     0.134 A 
ATOM     87  F   UNL     1      14.258  -2.067   6.081  1.00  0.00    -0.206 F 
ATOM     88  C   UNL     1      15.329  -2.089   8.156  1.00  0.00     0.040 A 
ATOM     89  C   UNL     1      16.574  -4.019   8.854  1.00  0.00     0.040 A 
ATOM     90  F   UNL     1      16.822  -5.846   7.409  1.00  0.00    -0.206 F 
ATOM     91  C   UNL     1      16.081  -2.748   9.125  1.00  0.00     0.006 A 
ENDBRANCH  67  84
ENDBRANCH  41  42
ENDBRANCH  33  36
ENDBRANCH  31  32
ENDBRANCH  30  31
ENDBRANCH   1  30
TORSDOF 13
