REMARK SMILES COc1ccc(Br)cc1CNc1ccc(N2CCOCC2)c(C(=O)NCCCCNC(=O)c2ccc(-c3c4nc(c(-c5c(F)cccc5F)c5ccc([nH]5)c(-c5c(F)cccc5F)c5nc(c(-c6c(F)cccc6F)c6ccc3[nH]6)C=C5)C=C4)cc2)c1
REMARK SMILES IDX 26 1 25 2 23 3 24 4 22 6 12 7 13 8 87 9 14 10 15 11 11 12
REMARK SMILES IDX 10 14 9 15 3 16 4 17 5 18 8 19 6 20 7 21 2 22 1 23 16 24
REMARK SMILES IDX 17 25 21 26 18 27 20 28 19 29 27 30 28 31 29 32 30 33 31 34
REMARK SMILES IDX 32 36 33 37 34 38 86 39 35 40 85 41 36 42 37 43 38 44 79 45
REMARK SMILES IDX 39 46 84 47 78 48 80 49 40 50 83 51 77 52 76 53 41 55 67 56
REMARK SMILES IDX 50 57 66 58 51 59 54 60 65 61 81 62 52 63 53 64 64 66 82 67
REMARK SMILES IDX 55 68 42 69 43 70 48 71 44 72 45 73 47 74 49 75 46 76 68 77
REMARK SMILES IDX 69 78 74 79 70 80 71 81 73 82 75 83 72 84 56 85 57 86 62 87
REMARK SMILES IDX 58 88 59 89 61 90 63 91 60 92
REMARK H PARENT 25 5 11 13 30 35 80 54 54 65
REMARK Flexibility Score: inf
ROOT
ATOM      1  C   UNL     1      -5.043   3.594  -1.790  1.00  0.00     0.116 C 
ENDROOT
BRANCH   1   2
ATOM      2  N   UNL     1      -5.737   4.872  -1.860  1.00  0.00    -0.352 N 
ATOM      3  C   UNL     1      -5.713   5.973  -1.016  1.00  0.00     0.253 C 
ATOM      4  O   UNL     1      -6.291   6.986  -1.403  1.00  0.00    -0.269 OA
ATOM      5  H   UNL     1      -6.326   4.973  -2.643  1.00  0.00     0.163 HD
BRANCH   3   6
ATOM      6  C   UNL     1      -5.035   5.910   0.317  1.00  0.00     0.065 A 
ATOM      7  C   UNL     1      -3.211   4.896   1.602  1.00  0.00     0.035 A 
ATOM      8  C   UNL     1      -3.793   5.406   2.760  1.00  0.00     0.028 A 
ATOM      9  C   UNL     1      -3.804   5.242   0.393  1.00  0.00     0.041 A 
ATOM     10  C   UNL     1      -4.916   6.236   2.694  1.00  0.00     0.029 A 
ATOM     11  C   UNL     1      -5.554   6.521   1.475  1.00  0.00     0.050 A 
BRANCH   7  12
ATOM     12  N   UNL     1      -2.073   4.129   1.694  1.00  0.00    -0.381 N 
ATOM     13  H   UNL     1      -1.700   3.985   2.593  1.00  0.00     0.160 HD
BRANCH  12  14
ATOM     14  C   UNL     1      -1.371   3.511   0.578  1.00  0.00     0.152 C 
BRANCH  14  15
ATOM     15  C   UNL     1       0.115   3.526   0.850  1.00  0.00     0.014 A 
ATOM     16  C   UNL     1       0.932   2.431   0.527  1.00  0.00     0.123 A 
ATOM     17  C   UNL     1       2.307   2.499   0.778  1.00  0.00     0.048 A 
ATOM     18  C   UNL     1       2.870   3.649   1.343  1.00  0.00     0.019 A 
ATOM     19  C   UNL     1       0.701   4.692   1.384  1.00  0.00     0.025 A 
ATOM     20  C   UNL     1       2.065   4.743   1.638  1.00  0.00     0.018 A 
ATOM     21  Br  UNL     1       2.820   6.307   2.381  1.00  0.00    -0.051 Br
BRANCH  16  22
ATOM     22  O   UNL     1       0.313   1.369  -0.079  1.00  0.00    -0.496 OA
ATOM     23  C   UNL     1       0.943   0.101   0.061  1.00  0.00     0.278 C 
ENDBRANCH  16  22
ENDBRANCH  14  15
ENDBRANCH  12  14
ENDBRANCH   7  12
BRANCH  11  24
ATOM     24  N   UNL     1      -6.577   7.444   1.462  1.00  0.00    -0.366 N 
ATOM     25  C   UNL     1      -7.977   7.070   1.267  1.00  0.00     0.145 C 
ATOM     26  C   UNL     1      -6.334   8.800   1.962  1.00  0.00     0.145 C 
ATOM     27  C   UNL     1      -8.721   8.183   0.503  1.00  0.00     0.181 C 
ATOM     28  C   UNL     1      -7.117   9.800   1.101  1.00  0.00     0.181 C 
ATOM     29  O   UNL     1      -8.520   9.481   1.097  1.00  0.00    -0.378 OA
ENDBRANCH  11  24
ENDBRANCH   3   6
ENDBRANCH   1   2
BRANCH   1  30
ATOM     30  C   UNL     1      -5.845   2.382  -2.245  1.00  0.00     0.023 C 
BRANCH  30  31
ATOM     31  C   UNL     1      -6.457   2.444  -3.638  1.00  0.00     0.023 C 
BRANCH  31  32
ATOM     32  C   UNL     1      -5.533   2.887  -4.765  1.00  0.00     0.116 C 
BRANCH  32  33
ATOM     33  N   UNL     1      -4.360   2.043  -4.937  1.00  0.00    -0.352 N 
ATOM     34  C   UNL     1      -3.897   1.394  -6.059  1.00  0.00     0.251 C 
ATOM     35  H   UNL     1      -3.814   1.917  -4.127  1.00  0.00     0.163 HD
ATOM     36  O   UNL     1      -2.914   0.667  -5.988  1.00  0.00    -0.269 OA
BRANCH  34  37
ATOM     37  C   UNL     1      -4.617   1.534  -7.346  1.00  0.00     0.039 A 
ATOM     38  C   UNL     1      -4.916   0.379  -8.074  1.00  0.00     0.014 A 
ATOM     39  C   UNL     1      -5.023   2.784  -7.817  1.00  0.00     0.014 A 
ATOM     40  C   UNL     1      -5.708   0.469  -9.221  1.00  0.00     0.010 A 
ATOM     41  C   UNL     1      -5.878   2.863  -8.913  1.00  0.00     0.010 A 
ATOM     42  C   UNL     1      -6.238   1.706  -9.621  1.00  0.00    -0.014 A 
BRANCH  42  43
ATOM     43  C   UNL     1      -7.186   1.810 -10.760  1.00  0.00     0.031 A 
ATOM     44  C   UNL     1      -6.819   2.610 -11.979  1.00  0.00     0.074 A 
ATOM     45  C   UNL     1      -8.412   1.258 -10.661  1.00  0.00     0.049 A 
ATOM     46  N   UNL     1      -7.546   2.897 -13.029  1.00  0.00    -0.248 NA
ATOM     47  C   UNL     1      -5.466   3.189 -12.008  1.00  0.00     0.031 C 
ATOM     48  C   UNL     1      -8.915   0.510  -9.506  1.00  0.00     0.029 A 
ATOM     49  N   UNL     1      -9.467   1.258 -11.539  1.00  0.00    -0.354 N 
ATOM     50  C   UNL     1      -6.751   3.709 -13.827  1.00  0.00     0.074 A 
ATOM     51  C   UNL     1      -5.502   3.903 -13.124  1.00  0.00     0.031 C 
ATOM     52  C   UNL     1     -10.174   0.114  -9.752  1.00  0.00     0.029 A 
ATOM     53  C   UNL     1     -10.581   0.607 -11.064  1.00  0.00     0.049 A 
ATOM     54  H   UNL     1      -9.430   1.685 -12.425  1.00  0.00     0.167 HD
ATOM     55  C   UNL     1      -7.029   4.230 -15.046  1.00  0.00     0.037 A 
ATOM     56  C   UNL     1     -11.795   0.434 -11.619  1.00  0.00     0.037 A 
ATOM     57  C   UNL     1      -8.255   4.002 -15.764  1.00  0.00     0.049 A 
ATOM     58  C   UNL     1     -12.067   0.998 -12.986  1.00  0.00     0.074 A 
ATOM     59  C   UNL     1      -8.595   4.417 -17.040  1.00  0.00     0.029 A 
ATOM     60  N   UNL     1      -9.340   3.296 -15.269  1.00  0.00    -0.354 N 
ATOM     61  N   UNL     1     -11.276   1.695 -13.764  1.00  0.00    -0.248 NA
ATOM     62  C   UNL     1     -13.399   0.745 -13.556  1.00  0.00     0.031 C 
ATOM     63  C   UNL     1      -9.901   3.992 -17.304  1.00  0.00     0.029 A 
ATOM     64  C   UNL     1     -10.359   3.280 -16.207  1.00  0.00     0.049 A 
ATOM     65  H   UNL     1      -9.381   2.871 -14.382  1.00  0.00     0.167 HD
ATOM     66  C   UNL     1     -12.002   1.942 -14.922  1.00  0.00     0.074 A 
ATOM     67  C   UNL     1     -13.292   1.308 -14.751  1.00  0.00     0.031 C 
ATOM     68  C   UNL     1     -11.633   2.634 -16.027  1.00  0.00     0.037 A 
BRANCH  55  69
ATOM     69  C   UNL     1      -5.983   5.093 -15.687  1.00  0.00     0.057 A 
ATOM     70  C   UNL     1      -4.798   4.555 -16.203  1.00  0.00     0.134 A 
ATOM     71  C   UNL     1      -6.185   6.471 -15.831  1.00  0.00     0.134 A 
ATOM     72  F   UNL     1      -4.539   3.244 -16.087  1.00  0.00    -0.206 F 
ATOM     73  C   UNL     1      -3.839   5.360 -16.821  1.00  0.00     0.040 A 
ATOM     74  C   UNL     1      -5.245   7.283 -16.469  1.00  0.00     0.040 A 
ATOM     75  F   UNL     1      -7.302   7.050 -15.364  1.00  0.00    -0.206 F 
ATOM     76  C   UNL     1      -4.066   6.728 -16.962  1.00  0.00     0.006 A 
ENDBRANCH  55  69
BRANCH  56  77
ATOM     77  C   UNL     1     -12.847  -0.320 -10.891  1.00  0.00     0.057 A 
ATOM     78  C   UNL     1     -13.251  -1.590 -11.318  1.00  0.00     0.134 A 
ATOM     79  C   UNL     1     -13.484   0.216  -9.766  1.00  0.00     0.134 A 
ATOM     80  F   UNL     1     -12.691  -2.147 -12.402  1.00  0.00    -0.206 F 
ATOM     81  C   UNL     1     -14.265  -2.293 -10.665  1.00  0.00     0.040 A 
ATOM     82  C   UNL     1     -14.484  -0.485  -9.090  1.00  0.00     0.040 A 
ATOM     83  F   UNL     1     -13.138   1.426  -9.303  1.00  0.00    -0.206 F 
ATOM     84  C   UNL     1     -14.883  -1.741  -9.545  1.00  0.00     0.006 A 
ENDBRANCH  56  77
BRANCH  68  85
ATOM     85  C   UNL     1     -12.623   2.713 -17.150  1.00  0.00     0.057 A 
ATOM     86  C   UNL     1     -13.758   3.529 -17.076  1.00  0.00     0.134 A 
ATOM     87  C   UNL     1     -12.413   1.997 -18.335  1.00  0.00     0.134 A 
ATOM     88  F   UNL     1     -14.022   4.229 -15.963  1.00  0.00    -0.206 F 
ATOM     89  C   UNL     1     -14.661   3.616 -18.137  1.00  0.00     0.040 A 
ATOM     90  C   UNL     1     -13.296   2.094 -19.411  1.00  0.00     0.040 A 
ATOM     91  F   UNL     1     -11.340   1.203 -18.471  1.00  0.00    -0.206 F 
ATOM     92  C   UNL     1     -14.427   2.902 -19.312  1.00  0.00     0.006 A 
ENDBRANCH  68  85
ENDBRANCH  42  43
ENDBRANCH  34  37
ENDBRANCH  32  33
ENDBRANCH  31  32
ENDBRANCH  30  31
ENDBRANCH   1  30
TORSDOF 16
