REMARK SMILES CC(C)C[C@H](NC(=O)[C@H](Cc1ccccc1)NC(=O)CNC(=O)C[NH3+])C(=O)NCCCCNC(=O)c1ccc(-c2c3nc(c(-c4c(F)cccc4F)c4ccc([nH]4)c(-c4c(F)cccc4F)c4nc(c(-c5c(F)cccc5F)c5ccc2[nH]5)C=C4)C=C3)cc1
REMARK SMILES IDX 26 1 27 2 28 3 5 5 4 6 2 7 1 8 3 9 6 10 7 11 8 13 9 14 17 15
REMARK SMILES IDX 18 16 19 18 20 19 21 20 22 21 23 23 24 24 25 25 10 29 11 30
REMARK SMILES IDX 12 31 16 32 13 33 15 34 14 35 29 36 30 37 31 38 32 39 33 40
REMARK SMILES IDX 34 41 35 43 36 44 37 45 89 46 38 47 88 48 39 49 40 50 41 51
REMARK SMILES IDX 82 52 42 53 87 54 81 55 83 56 43 57 86 58 80 59 79 60 44 62
REMARK SMILES IDX 70 63 53 64 69 65 54 66 57 67 68 68 84 69 55 70 56 71 67 73
REMARK SMILES IDX 85 74 58 75 45 76 46 77 51 78 47 79 48 80 50 81 52 82 49 83
REMARK SMILES IDX 71 84 72 85 77 86 73 87 74 88 76 89 78 90 75 91 59 92 60 93
REMARK SMILES IDX 65 94 61 95 62 96 64 97 66 98 63 99
REMARK H PARENT 28 4 6 12 17 17 21 22 25 26 25 27 25 28 33 42 83 61 57 72
REMARK Flexibility Score: inf
ROOT
ATOM      1  C   UNL     1       0.498   6.143  -0.226  1.00  0.00     0.242 C 
ATOM      2  O   UNL     1       0.215   6.939   0.672  1.00  0.00    -0.273 OA
ATOM      3  N   UNL     1       0.663   6.638  -1.484  1.00  0.00    -0.354 N 
ATOM      4  H   UNL     1       0.627   7.619  -1.561  1.00  0.00     0.163 HD
ENDROOT
BRANCH   1   5
ATOM      5  C   UNL     1       0.641   4.635   0.062  1.00  0.00     0.171 C 
BRANCH   5   6
ATOM      6  C   UNL     1       2.032   4.098  -0.222  1.00  0.00     0.038 C 
BRANCH   6   7
ATOM      7  C   UNL     1       3.290   4.905   0.146  1.00  0.00    -0.015 C 
ATOM      8  C   UNL     1       3.281   5.499   1.548  1.00  0.00     0.007 C 
ATOM      9  C   UNL     1       4.509   3.980  -0.008  1.00  0.00     0.007 C 
ENDBRANCH   6   7
ENDBRANCH   5   6
BRANCH   5  10
ATOM     10  N   UNL     1      -0.524   3.938  -0.541  1.00  0.00    -0.343 N 
ATOM     11  C   UNL     1      -0.859   2.809  -1.215  1.00  0.00     0.243 C 
ATOM     12  H   UNL     1      -1.332   4.484  -0.406  1.00  0.00     0.164 HD
ATOM     13  O   UNL     1      -2.083   2.700  -1.399  1.00  0.00    -0.273 OA
BRANCH  11  14
ATOM     14  C   UNL     1       0.101   1.844  -1.972  1.00  0.00     0.175 C 
BRANCH  14  15
ATOM     15  N   UNL     1       1.443   1.639  -1.438  1.00  0.00    -0.342 N 
ATOM     16  C   UNL     1       2.635   1.573  -2.100  1.00  0.00     0.240 C 
ATOM     17  H   UNL     1       1.497   1.532  -0.461  1.00  0.00     0.164 HD
ATOM     18  O   UNL     1       3.572   0.967  -1.578  1.00  0.00    -0.273 OA
BRANCH  16  19
ATOM     19  C   UNL     1       2.767   2.210  -3.477  1.00  0.00     0.216 C 
BRANCH  19  20
ATOM     20  N   UNL     1       2.545   1.218  -4.502  1.00  0.00    -0.342 N 
ATOM     21  C   UNL     1       2.028   1.418  -5.748  1.00  0.00     0.275 C 
ATOM     22  H   UNL     1       2.794   0.292  -4.277  1.00  0.00     0.164 HD
ATOM     23  O   UNL     1       1.846   0.450  -6.485  1.00  0.00    -0.268 OA
BRANCH  21  24
ATOM     24  C   UNL     1       1.648   2.838  -6.179  1.00  0.00     0.360 C 
BRANCH  24  25
ATOM     25  N   UNL     1       0.373   3.236  -5.554  1.00  0.00    -0.350 N 
ATOM     26  H   UNL     1      -0.364   2.595  -5.848  1.00  0.00     0.344 HD
ATOM     27  H   UNL     1       0.134   4.184  -5.844  1.00  0.00     0.344 HD
ATOM     28  H   UNL     1       0.467   3.204  -4.539  1.00  0.00     0.344 HD
ENDBRANCH  24  25
ENDBRANCH  21  24
ENDBRANCH  19  20
ENDBRANCH  16  19
ENDBRANCH  14  15
BRANCH  14  29
ATOM     29  C   UNL     1      -0.575   0.448  -2.187  1.00  0.00     0.070 C 
BRANCH  29  30
ATOM     30  C   UNL     1      -0.418  -0.469  -0.984  1.00  0.00    -0.045 A 
ATOM     31  C   UNL     1      -1.398  -0.528   0.012  1.00  0.00     0.004 A 
ATOM     32  C   UNL     1       0.785  -1.172  -0.794  1.00  0.00     0.004 A 
ATOM     33  C   UNL     1      -1.147  -1.216   1.202  1.00  0.00     0.000 A 
ATOM     34  C   UNL     1       1.051  -1.818   0.411  1.00  0.00     0.000 A 
ATOM     35  C   UNL     1       0.087  -1.833   1.414  1.00  0.00     0.000 A 
ENDBRANCH  29  30
ENDBRANCH  14  29
ENDBRANCH  11  14
ENDBRANCH   5  10
ENDBRANCH   1   5
BRANCH   3  36
ATOM     36  C   UNL     1       0.883   5.923  -2.723  1.00  0.00     0.116 C 
BRANCH  36  37
ATOM     37  C   UNL     1       0.222   6.627  -3.902  1.00  0.00     0.023 C 
BRANCH  37  38
ATOM     38  C   UNL     1       0.833   7.978  -4.271  1.00  0.00     0.023 C 
BRANCH  38  39
ATOM     39  C   UNL     1       2.335   7.960  -4.531  1.00  0.00     0.116 C 
BRANCH  39  40
ATOM     40  N   UNL     1       2.722   7.023  -5.577  1.00  0.00    -0.352 N 
ATOM     41  C   UNL     1       3.527   7.235  -6.670  1.00  0.00     0.251 C 
ATOM     42  H   UNL     1       2.357   6.113  -5.488  1.00  0.00     0.163 HD
ATOM     43  O   UNL     1       3.654   6.362  -7.523  1.00  0.00    -0.269 OA
BRANCH  41  44
ATOM     44  C   UNL     1       4.204   8.539  -6.822  1.00  0.00     0.039 A 
ATOM     45  C   UNL     1       4.067   9.241  -8.022  1.00  0.00     0.014 A 
ATOM     46  C   UNL     1       4.915   9.093  -5.754  1.00  0.00     0.014 A 
ATOM     47  C   UNL     1       4.569  10.541  -8.119  1.00  0.00     0.010 A 
ATOM     48  C   UNL     1       5.347  10.413  -5.828  1.00  0.00     0.010 A 
ATOM     49  C   UNL     1       5.170  11.154  -7.007  1.00  0.00    -0.014 A 
BRANCH  49  50
ATOM     50  C   UNL     1       5.609  12.572  -7.046  1.00  0.00     0.031 A 
ATOM     51  C   UNL     1       7.062  12.916  -6.876  1.00  0.00     0.074 A 
ATOM     52  C   UNL     1       4.691  13.554  -7.145  1.00  0.00     0.049 A 
ATOM     53  N   UNL     1       7.628  14.092  -6.783  1.00  0.00    -0.248 NA
ATOM     54  C   UNL     1       7.999  11.787  -6.764  1.00  0.00     0.031 C 
ATOM     55  C   UNL     1       3.244  13.356  -7.257  1.00  0.00     0.029 A 
ATOM     56  N   UNL     1       4.840  14.919  -7.152  1.00  0.00    -0.354 N 
ATOM     57  C   UNL     1       8.979  13.845  -6.579  1.00  0.00     0.074 A 
ATOM     58  C   UNL     1       9.142  12.409  -6.513  1.00  0.00     0.031 C 
ATOM     59  C   UNL     1       2.642  14.553  -7.344  1.00  0.00     0.029 A 
ATOM     60  C   UNL     1       3.653  15.603  -7.259  1.00  0.00     0.049 A 
ATOM     61  H   UNL     1       5.714  15.366  -7.086  1.00  0.00     0.167 HD
ATOM     62  C   UNL     1       9.997  14.733  -6.478  1.00  0.00     0.037 A 
ATOM     63  C   UNL     1       3.407  16.926  -7.282  1.00  0.00     0.037 A 
ATOM     64  C   UNL     1       9.841  16.159  -6.582  1.00  0.00     0.049 A 
ATOM     65  C   UNL     1       4.556  17.891  -7.187  1.00  0.00     0.074 A 
ATOM     66  C   UNL     1      10.821  17.137  -6.565  1.00  0.00     0.029 A 
ATOM     67  N   UNL     1       8.626  16.811  -6.725  1.00  0.00    -0.354 N 
ATOM     68  N   UNL     1       5.836  17.641  -7.062  1.00  0.00    -0.248 NA
ATOM     69  C   UNL     1       4.225  19.322  -7.240  1.00  0.00     0.031 C 
ATOM     70  C   UNL     1      10.195  18.384  -6.665  1.00  0.00     0.029 A 
ATOM     71  C   UNL     1       8.830  18.180  -6.782  1.00  0.00     0.049 A 
ATOM     72  H   UNL     1       7.749  16.367  -6.778  1.00  0.00     0.167 HD
ATOM     73  C   UNL     1       6.466  18.878  -7.050  1.00  0.00     0.074 A 
ATOM     74  C   UNL     1       5.428  19.878  -7.191  1.00  0.00     0.031 C 
ATOM     75  C   UNL     1       7.786  19.161  -6.933  1.00  0.00     0.037 A 
BRANCH  62  76
ATOM     76  C   UNL     1      11.373  14.180  -6.255  1.00  0.00     0.057 A 
ATOM     77  C   UNL     1      12.065  13.495  -7.263  1.00  0.00     0.134 A 
ATOM     78  C   UNL     1      12.024  14.354  -5.027  1.00  0.00     0.134 A 
ATOM     79  F   UNL     1      11.491  13.283  -8.457  1.00  0.00    -0.206 F 
ATOM     80  C   UNL     1      13.345  12.981  -7.049  1.00  0.00     0.040 A 
ATOM     81  C   UNL     1      13.314  13.867  -4.810  1.00  0.00     0.040 A 
ATOM     82  F   UNL     1      11.420  15.004  -4.021  1.00  0.00    -0.206 F 
ATOM     83  C   UNL     1      13.975  13.172  -5.822  1.00  0.00     0.006 A 
ENDBRANCH  62  76
BRANCH  63  84
ATOM     84  C   UNL     1       2.016  17.422  -7.431  1.00  0.00     0.057 A 
ATOM     85  C   UNL     1       1.590  18.016  -8.624  1.00  0.00     0.134 A 
ATOM     86  C   UNL     1       1.086  17.324  -6.390  1.00  0.00     0.134 A 
ATOM     87  F   UNL     1       2.442  18.154  -9.650  1.00  0.00    -0.206 F 
ATOM     88  C   UNL     1       0.294  18.512  -8.772  1.00  0.00     0.040 A 
ATOM     89  C   UNL     1      -0.220  17.797  -6.531  1.00  0.00     0.040 A 
ATOM     90  F   UNL     1       1.432  16.759  -5.224  1.00  0.00    -0.206 F 
ATOM     91  C   UNL     1      -0.617  18.399  -7.724  1.00  0.00     0.006 A 
ENDBRANCH  63  84
BRANCH  75  92
ATOM     92  C   UNL     1       8.185  20.605  -6.987  1.00  0.00     0.057 A 
ATOM     93  C   UNL     1       7.958  21.474  -5.913  1.00  0.00     0.134 A 
ATOM     94  C   UNL     1       8.841  21.120  -8.112  1.00  0.00     0.134 A 
ATOM     95  F   UNL     1       7.322  21.044  -4.813  1.00  0.00    -0.206 F 
ATOM     96  C   UNL     1       8.353  22.812  -5.964  1.00  0.00     0.040 A 
ATOM     97  C   UNL     1       9.262  22.449  -8.165  1.00  0.00     0.040 A 
ATOM     98  F   UNL     1       9.095  20.337  -9.171  1.00  0.00    -0.206 F 
ATOM     99  C   UNL     1       9.014  23.300  -7.090  1.00  0.00     0.006 A 
ENDBRANCH  75  92
ENDBRANCH  49  50
ENDBRANCH  41  44
ENDBRANCH  39  40
ENDBRANCH  38  39
ENDBRANCH  37  38
ENDBRANCH  36  37
ENDBRANCH   3  36
TORSDOF 22
