REMARK SMILES CC(C)CSc1cc2c(cc1Cl)C=C(C(=O)NCCCCNC(=O)c1ccc(-c3c4nc(c(-c5c(F)cccc5F)c5ccc([nH]5)c(-c5c(F)cccc5F)c5nc(c(-c6c(F)cccc6F)c6ccc3[nH]6)C=C5)C=C4)cc1)[C@@H](C(F)(F)F)O2
REMARK SMILES IDX 19 1 18 2 17 3 15 4 16 5 14 7 6 8 7 9 11 10 8 11 10 12 12 13
REMARK SMILES IDX 9 14 84 15 13 16 79 17 5 18 4 19 2 20 1 21 3 22 80 23 81 24
REMARK SMILES IDX 82 25 83 26 20 27 21 28 22 29 23 30 24 32 25 33 26 34 78 35
REMARK SMILES IDX 27 36 77 37 28 38 29 39 30 40 71 41 31 42 76 43 70 44 72 45
REMARK SMILES IDX 32 46 75 47 69 48 68 49 33 51 59 52 42 53 58 54 43 55 46 56
REMARK SMILES IDX 57 57 73 58 44 59 45 60 56 62 74 63 47 64 34 65 35 66 40 67
REMARK SMILES IDX 36 68 37 69 39 70 41 71 38 72 60 73 61 74 66 75 62 76 63 77
REMARK SMILES IDX 65 78 67 79 64 80 48 81 49 82 54 83 50 84 51 85 53 86 55 87
REMARK SMILES IDX 52 88
REMARK H PARENT 17 6 22 31 72 50 46 61
REMARK Flexibility Score: inf
ROOT
ATOM      1  C   UNL     1       0.493   2.514   9.463  1.00  0.00     0.023 C 
ENDROOT
BRANCH   1   2
ATOM      2  C   UNL     1       1.549   1.776   8.644  1.00  0.00     0.116 C 
BRANCH   2   3
ATOM      3  N   UNL     1       1.193   0.388   8.411  1.00  0.00    -0.352 N 
ATOM      4  C   UNL     1       0.707  -0.348   7.383  1.00  0.00     0.251 C 
ATOM      5  O   UNL     1       0.553  -1.550   7.624  1.00  0.00    -0.270 OA
ATOM      6  H   UNL     1       1.346  -0.165   9.211  1.00  0.00     0.163 HD
BRANCH   4   7
ATOM      7  C   UNL     1       0.354   0.183   6.031  1.00  0.00     0.067 C 
ATOM      8  C   UNL     1      -1.496   0.679   1.345  1.00  0.00     0.030 A 
ATOM      9  C   UNL     1      -0.907   1.550   2.274  1.00  0.00     0.063 A 
ATOM     10  C   UNL     1      -1.742  -0.646   1.739  1.00  0.00     0.055 A 
ATOM     11  C   UNL     1      -0.514   1.096   3.532  1.00  0.00     0.129 A 
ATOM     12  C   UNL     1      -1.338  -1.098   3.005  1.00  0.00     0.033 A 
ATOM     13  Cl  UNL     1      -2.599  -1.779   0.753  1.00  0.00    -0.083 Cl
ATOM     14  C   UNL     1      -0.718  -0.228   3.904  1.00  0.00     0.019 A 
ATOM     15  O   UNL     1       0.028   2.028   4.366  1.00  0.00    -0.475 OA
ATOM     16  C   UNL     1      -0.338  -0.660   5.242  1.00  0.00     0.025 C 
ATOM     17  C   UNL     1       0.757   1.540   5.525  1.00  0.00     0.314 C 
BRANCH   8  18
ATOM     18  S   UNL     1      -1.913   1.415  -0.232  1.00  0.00    -0.124 SA
BRANCH  18  19
ATOM     19  C   UNL     1      -0.992   0.388  -1.437  1.00  0.00     0.078 C 
BRANCH  19  20
ATOM     20  C   UNL     1       0.533   0.592  -1.502  1.00  0.00    -0.007 C 
ATOM     21  C   UNL     1       1.282   0.044  -0.287  1.00  0.00     0.008 C 
ATOM     22  C   UNL     1       1.065  -0.106  -2.762  1.00  0.00     0.008 C 
ENDBRANCH  19  20
ENDBRANCH  18  19
ENDBRANCH   8  18
BRANCH  17  23
ATOM     23  C   UNL     1       2.266   1.643   5.233  1.00  0.00     0.429 C 
ATOM     24  F   UNL     1       2.637   2.943   5.116  1.00  0.00    -0.167 F 
ATOM     25  F   UNL     1       3.027   1.117   6.220  1.00  0.00    -0.167 F 
ATOM     26  F   UNL     1       2.615   1.016   4.087  1.00  0.00    -0.167 F 
ENDBRANCH  17  23
ENDBRANCH   4   7
ENDBRANCH   2   3
ENDBRANCH   1   2
BRANCH   1  27
ATOM     27  C   UNL     1       0.616   2.313  10.975  1.00  0.00     0.023 C 
BRANCH  27  28
ATOM     28  C   UNL     1       1.980   2.645  11.576  1.00  0.00     0.116 C 
BRANCH  28  29
ATOM     29  N   UNL     1       2.487   3.966  11.228  1.00  0.00    -0.352 N 
ATOM     30  C   UNL     1       3.331   4.773  11.958  1.00  0.00     0.251 C 
ATOM     31  H   UNL     1       2.188   4.327  10.362  1.00  0.00     0.163 HD
ATOM     32  O   UNL     1       3.618   5.898  11.562  1.00  0.00    -0.269 OA
BRANCH  30  33
ATOM     33  C   UNL     1       3.838   4.285  13.256  1.00  0.00     0.039 A 
ATOM     34  C   UNL     1       4.394   3.010  13.361  1.00  0.00     0.014 A 
ATOM     35  C   UNL     1       3.675   5.082  14.392  1.00  0.00     0.014 A 
ATOM     36  C   UNL     1       4.608   2.461  14.618  1.00  0.00     0.010 A 
ATOM     37  C   UNL     1       3.972   4.557  15.652  1.00  0.00     0.010 A 
ATOM     38  C   UNL     1       4.382   3.220  15.778  1.00  0.00    -0.014 A 
BRANCH  38  39
ATOM     39  C   UNL     1       4.551   2.574  17.105  1.00  0.00     0.031 A 
ATOM     40  C   UNL     1       3.369   2.353  18.012  1.00  0.00     0.074 A 
ATOM     41  C   UNL     1       5.764   2.106  17.454  1.00  0.00     0.049 A 
ATOM     42  N   UNL     1       3.321   1.742  19.170  1.00  0.00    -0.248 NA
ATOM     43  C   UNL     1       2.074   2.891  17.567  1.00  0.00     0.031 C 
ATOM     44  C   UNL     1       6.985   2.253  16.658  1.00  0.00     0.029 A 
ATOM     45  N   UNL     1       6.163   1.381  18.546  1.00  0.00    -0.354 N 
ATOM     46  C   UNL     1       2.003   1.840  19.599  1.00  0.00     0.074 A 
ATOM     47  C   UNL     1       1.287   2.592  18.591  1.00  0.00     0.031 C 
ATOM     48  C   UNL     1       7.981   1.583  17.256  1.00  0.00     0.029 A 
ATOM     49  C   UNL     1       7.484   1.006  18.500  1.00  0.00     0.049 A 
ATOM     50  H   UNL     1       5.562   1.151  19.292  1.00  0.00     0.167 HD
ATOM     51  C   UNL     1       1.437   1.339  20.724  1.00  0.00     0.037 A 
ATOM     52  C   UNL     1       8.213   0.277  19.363  1.00  0.00     0.037 A 
ATOM     53  C   UNL     1       2.142   0.570  21.717  1.00  0.00     0.049 A 
ATOM     54  C   UNL     1       7.564  -0.256  20.606  1.00  0.00     0.074 A 
ATOM     55  C   UNL     1       1.653   0.010  22.885  1.00  0.00     0.029 A 
ATOM     56  N   UNL     1       3.489   0.249  21.655  1.00  0.00    -0.354 N 
ATOM     57  N   UNL     1       6.315  -0.159  20.993  1.00  0.00    -0.248 NA
ATOM     58  C   UNL     1       8.429  -0.995  21.535  1.00  0.00     0.031 C 
ATOM     59  C   UNL     1       2.712  -0.626  23.544  1.00  0.00     0.029 A 
ATOM     60  C   UNL     1       3.851  -0.493  22.768  1.00  0.00     0.049 A 
ATOM     61  H   UNL     1       4.099   0.509  20.927  1.00  0.00     0.167 HD
ATOM     62  C   UNL     1       6.241  -0.835  22.202  1.00  0.00     0.074 A 
ATOM     63  C   UNL     1       7.565  -1.357  22.473  1.00  0.00     0.031 C 
ATOM     64  C   UNL     1       5.173  -1.004  23.020  1.00  0.00     0.037 A 
BRANCH  51  65
ATOM     65  C   UNL     1      -0.021   1.621  20.947  1.00  0.00     0.057 A 
ATOM     66  C   UNL     1      -0.430   2.528  21.933  1.00  0.00     0.134 A 
ATOM     67  C   UNL     1      -1.020   0.976  20.207  1.00  0.00     0.134 A 
ATOM     68  F   UNL     1       0.476   3.176  22.680  1.00  0.00    -0.206 F 
ATOM     69  C   UNL     1      -1.781   2.783  22.175  1.00  0.00     0.040 A 
ATOM     70  C   UNL     1      -2.375   1.239  20.426  1.00  0.00     0.040 A 
ATOM     71  F   UNL     1      -0.695   0.107  19.238  1.00  0.00    -0.206 F 
ATOM     72  C   UNL     1      -2.758   2.141  21.416  1.00  0.00     0.006 A 
ENDBRANCH  51  65
BRANCH  52  73
ATOM     73  C   UNL     1       9.641   0.001  19.075  1.00  0.00     0.057 A 
ATOM     74  C   UNL     1      10.605   1.015  19.131  1.00  0.00     0.134 A 
ATOM     75  C   UNL     1      10.074  -1.286  18.737  1.00  0.00     0.134 A 
ATOM     76  F   UNL     1      10.250   2.270  19.444  1.00  0.00    -0.206 F 
ATOM     77  C   UNL     1      11.948   0.761  18.853  1.00  0.00     0.040 A 
ATOM     78  C   UNL     1      11.418  -1.559  18.480  1.00  0.00     0.040 A 
ATOM     79  F   UNL     1       9.198  -2.300  18.684  1.00  0.00    -0.206 F 
ATOM     80  C   UNL     1      12.358  -0.532  18.532  1.00  0.00     0.006 A 
ENDBRANCH  52  73
BRANCH  64  81
ATOM     81  C   UNL     1       5.400  -1.806  24.265  1.00  0.00     0.057 A 
ATOM     82  C   UNL     1       4.906  -3.111  24.373  1.00  0.00     0.134 A 
ATOM     83  C   UNL     1       6.109  -1.287  25.356  1.00  0.00     0.134 A 
ATOM     84  F   UNL     1       4.215  -3.664  23.365  1.00  0.00    -0.206 F 
ATOM     85  C   UNL     1       5.115  -3.876  25.521  1.00  0.00     0.040 A 
ATOM     86  C   UNL     1       6.344  -2.050  26.500  1.00  0.00     0.040 A 
ATOM     87  F   UNL     1       6.622  -0.048  25.306  1.00  0.00    -0.206 F 
ATOM     88  C   UNL     1       5.844  -3.348  26.585  1.00  0.00     0.006 A 
ENDBRANCH  64  81
ENDBRANCH  38  39
ENDBRANCH  30  33
ENDBRANCH  28  29
ENDBRANCH  27  28
ENDBRANCH   1  27
TORSDOF 15
