REMARK SMILES Cc1ccc(-c2cc(C(=O)NCCCCNC(=O)c3ccc(-c4c5nc(c(-c6c(F)cccc6F)c6ccc([nH]6)c(-c6c(F)cccc6F)c6nc(c(-c7c(F)cccc7F)c7ccc4[nH]7)C=C6)C=C5)cc3)c3cc(C)ccc3n2)c(C)c1
REMARK SMILES IDX 14 1 13 2 12 3 11 4 9 5 10 6 8 8 6 9 7 10 80 11 79 12 73 13
REMARK SMILES IDX 78 14 74 15 77 16 75 17 76 18 5 19 1 20 2 21 3 22 83 23 4 24
REMARK SMILES IDX 81 25 82 26 15 27 16 28 17 29 18 31 19 32 20 33 72 34 21 35
REMARK SMILES IDX 71 36 22 37 23 38 24 39 65 40 25 41 70 42 64 43 66 44 26 45
REMARK SMILES IDX 69 46 63 47 62 48 27 50 53 51 36 52 52 53 37 54 40 55 51 56
REMARK SMILES IDX 67 57 38 58 39 59 50 61 68 62 41 63 28 64 29 65 34 66 30 67
REMARK SMILES IDX 31 68 33 69 35 70 32 71 54 72 55 73 60 74 56 75 57 76 59 77
REMARK SMILES IDX 61 78 58 79 42 80 43 81 48 82 44 83 45 84 47 85 49 86 46 87
REMARK H PARENT 11 7 16 30 66 49 40 60
REMARK Flexibility Score: inf
ROOT
ATOM      1  C   UNL     1      -7.064  -7.825   1.534  1.00  0.00     0.023 C 
ENDROOT
BRANCH   1   2
ATOM      2  C   UNL     1      -6.206  -7.143   0.473  1.00  0.00     0.023 C 
BRANCH   2   3
ATOM      3  C   UNL     1      -5.980  -5.648   0.631  1.00  0.00     0.116 C 
BRANCH   3   4
ATOM      4  N   UNL     1      -5.297  -5.197   1.831  1.00  0.00    -0.352 N 
ATOM      5  C   UNL     1      -4.598  -4.024   2.066  1.00  0.00     0.252 C 
ATOM      6  O   UNL     1      -4.173  -3.821   3.204  1.00  0.00    -0.269 OA
ATOM      7  H   UNL     1      -5.337  -5.819   2.592  1.00  0.00     0.163 HD
BRANCH   5   8
ATOM      8  C   UNL     1      -4.241  -3.052   0.985  1.00  0.00     0.051 A 
ATOM      9  C   UNL     1      -2.484  -1.791  -0.044  1.00  0.00     0.072 A 
ATOM     10  C   UNL     1      -2.928  -2.567   1.014  1.00  0.00     0.043 A 
ATOM     11  N   UNL     1      -3.232  -1.606  -1.157  1.00  0.00    -0.248 NA
ATOM     12  C   UNL     1      -4.498  -2.041  -1.172  1.00  0.00     0.072 A 
ATOM     13  C   UNL     1      -5.100  -2.654  -0.062  1.00  0.00     0.013 A 
ATOM     14  C   UNL     1      -5.240  -1.896  -2.336  1.00  0.00     0.029 A 
ATOM     15  C   UNL     1      -6.498  -2.852  -0.087  1.00  0.00     0.014 A 
ATOM     16  C   UNL     1      -6.569  -2.320  -2.419  1.00  0.00     0.005 A 
ATOM     17  C   UNL     1      -7.220  -2.781  -1.280  1.00  0.00    -0.050 A 
ATOM     18  C   UNL     1      -8.605  -3.353  -1.353  1.00  0.00     0.044 C 
BRANCH   9  19
ATOM     19  C   UNL     1      -1.209  -1.058  -0.015  1.00  0.00     0.003 A 
ATOM     20  C   UNL     1       2.578   1.060   0.013  1.00  0.00     0.044 C 
ATOM     21  C   UNL     1       1.277   0.313   0.009  1.00  0.00    -0.051 A 
ATOM     22  C   UNL     1       1.238  -1.082  -0.011  1.00  0.00     0.004 A 
ATOM     23  C   UNL     1       0.072   1.022   0.022  1.00  0.00     0.007 A 
ATOM     24  C   UNL     1       0.011  -1.757  -0.024  1.00  0.00     0.011 A 
ATOM     25  C   UNL     1      -1.169   0.357   0.022  1.00  0.00    -0.041 A 
ATOM     26  C   UNL     1      -2.410   1.213   0.024  1.00  0.00     0.045 C 
ENDBRANCH   9  19
ENDBRANCH   5   8
ENDBRANCH   3   4
ENDBRANCH   2   3
ENDBRANCH   1   2
BRANCH   1  27
ATOM     27  C   UNL     1      -8.327  -7.104   1.997  1.00  0.00     0.116 C 
BRANCH  27  28
ATOM     28  N   UNL     1      -9.304  -6.845   0.949  1.00  0.00    -0.352 N 
ATOM     29  C   UNL     1     -10.627  -7.211   0.848  1.00  0.00     0.251 C 
ATOM     30  H   UNL     1      -8.962  -6.323   0.187  1.00  0.00     0.163 HD
ATOM     31  O   UNL     1     -11.264  -6.908  -0.159  1.00  0.00    -0.269 OA
BRANCH  29  32
ATOM     32  C   UNL     1     -11.281  -8.004   1.915  1.00  0.00     0.039 A 
ATOM     33  C   UNL     1     -12.104  -9.075   1.552  1.00  0.00     0.014 A 
ATOM     34  C   UNL     1     -11.088  -7.711   3.266  1.00  0.00     0.014 A 
ATOM     35  C   UNL     1     -12.661  -9.894   2.539  1.00  0.00     0.010 A 
ATOM     36  C   UNL     1     -11.550  -8.590   4.242  1.00  0.00     0.010 A 
ATOM     37  C   UNL     1     -12.355  -9.684   3.894  1.00  0.00    -0.014 A 
BRANCH  37  38
ATOM     38  C   UNL     1     -12.898 -10.575   4.954  1.00  0.00     0.031 A 
ATOM     39  C   UNL     1     -13.803 -10.018   6.022  1.00  0.00     0.074 A 
ATOM     40  C   UNL     1     -12.550 -11.877   4.987  1.00  0.00     0.049 A 
ATOM     41  N   UNL     1     -14.373 -10.630   7.030  1.00  0.00    -0.248 NA
ATOM     42  C   UNL     1     -14.080  -8.574   5.967  1.00  0.00     0.031 C 
ATOM     43  C   UNL     1     -11.639 -12.536   4.049  1.00  0.00     0.029 A 
ATOM     44  N   UNL     1     -12.930 -12.883   5.840  1.00  0.00    -0.354 N 
ATOM     45  C   UNL     1     -15.063  -9.646   7.728  1.00  0.00     0.074 A 
ATOM     46  C   UNL     1     -14.774  -8.387   7.078  1.00  0.00     0.031 C 
ATOM     47  C   UNL     1     -11.569 -13.843   4.348  1.00  0.00     0.029 A 
ATOM     48  C   UNL     1     -12.403 -14.111   5.515  1.00  0.00     0.049 A 
ATOM     49  H   UNL     1     -13.523 -12.739   6.613  1.00  0.00     0.167 HD
ATOM     50  C   UNL     1     -15.895  -9.777   8.789  1.00  0.00     0.037 A 
ATOM     51  C   UNL     1     -12.585 -15.317   6.085  1.00  0.00     0.037 A 
ATOM     52  C   UNL     1     -16.196 -11.031   9.428  1.00  0.00     0.049 A 
ATOM     53  C   UNL     1     -13.505 -15.440   7.270  1.00  0.00     0.074 A 
ATOM     54  C   UNL     1     -17.051 -11.279  10.488  1.00  0.00     0.029 A 
ATOM     55  N   UNL     1     -15.648 -12.252   9.064  1.00  0.00    -0.354 N 
ATOM     56  N   UNL     1     -14.204 -14.511   7.877  1.00  0.00    -0.248 NA
ATOM     57  C   UNL     1     -13.670 -16.785   7.839  1.00  0.00     0.031 C 
ATOM     58  C   UNL     1     -16.988 -12.644  10.791  1.00  0.00     0.029 A 
ATOM     59  C   UNL     1     -16.136 -13.255   9.885  1.00  0.00     0.049 A 
ATOM     60  H   UNL     1     -15.005 -12.386   8.329  1.00  0.00     0.167 HD
ATOM     61  C   UNL     1     -14.926 -15.166   8.868  1.00  0.00     0.074 A 
ATOM     62  C   UNL     1     -14.583 -16.570   8.774  1.00  0.00     0.031 C 
ATOM     63  C   UNL     1     -15.798 -14.651   9.770  1.00  0.00     0.037 A 
BRANCH  50  64
ATOM     64  C   UNL     1     -16.538  -8.523   9.312  1.00  0.00     0.057 A 
ATOM     65  C   UNL     1     -17.487  -7.811   8.562  1.00  0.00     0.134 A 
ATOM     66  C   UNL     1     -16.203  -8.012  10.572  1.00  0.00     0.134 A 
ATOM     67  F   UNL     1     -17.844  -8.236   7.340  1.00  0.00    -0.206 F 
ATOM     68  C   UNL     1     -18.042  -6.617   9.025  1.00  0.00     0.040 A 
ATOM     69  C   UNL     1     -16.777  -6.837  11.060  1.00  0.00     0.040 A 
ATOM     70  F   UNL     1     -15.309  -8.644  11.348  1.00  0.00    -0.206 F 
ATOM     71  C   UNL     1     -17.689  -6.129  10.281  1.00  0.00     0.006 A 
ENDBRANCH  50  64
BRANCH  51  72
ATOM     72  C   UNL     1     -11.937 -16.522   5.506  1.00  0.00     0.057 A 
ATOM     73  C   UNL     1     -12.698 -17.504   4.859  1.00  0.00     0.134 A 
ATOM     74  C   UNL     1     -10.557 -16.732   5.594  1.00  0.00     0.134 A 
ATOM     75  F   UNL     1     -14.029 -17.369   4.759  1.00  0.00    -0.206 F 
ATOM     76  C   UNL     1     -12.114 -18.661   4.340  1.00  0.00     0.040 A 
ATOM     77  C   UNL     1      -9.955 -17.872   5.057  1.00  0.00     0.040 A 
ATOM     78  F   UNL     1      -9.771 -15.826   6.195  1.00  0.00    -0.206 F 
ATOM     79  C   UNL     1     -10.736 -18.844   4.435  1.00  0.00     0.006 A 
ENDBRANCH  51  72
BRANCH  63  80
ATOM     80  C   UNL     1     -16.490 -15.621  10.685  1.00  0.00     0.057 A 
ATOM     81  C   UNL     1     -15.813 -16.297  11.709  1.00  0.00     0.134 A 
ATOM     82  C   UNL     1     -17.862 -15.869  10.546  1.00  0.00     0.134 A 
ATOM     83  F   UNL     1     -14.496 -16.114  11.890  1.00  0.00    -0.206 F 
ATOM     84  C   UNL     1     -16.468 -17.211  12.537  1.00  0.00     0.040 A 
ATOM     85  C   UNL     1     -18.534 -16.757  11.387  1.00  0.00     0.040 A 
ATOM     86  F   UNL     1     -18.574 -15.248   9.593  1.00  0.00    -0.206 F 
ATOM     87  C   UNL     1     -17.834 -17.439  12.379  1.00  0.00     0.006 A 
ENDBRANCH  63  80
ENDBRANCH  37  38
ENDBRANCH  29  32
ENDBRANCH  27  28
ENDBRANCH   1  27
TORSDOF 12
