REMARK SMILES CC(C)Cc1ccc([C@H](CF)C(=O)NCCCCNC(=O)c2ccc(-c3c4nc(c(-c5c(F)cccc5F)c5ccc([nH]5)c(-c5c(F)cccc5F)c5nc(c(-c6c(F)cccc6F)c6ccc3[nH]6)C=C5)C=C4)cc2)cc1
REMARK SMILES IDX 16 1 15 2 14 3 12 4 13 5 9 7 8 8 5 9 6 10 77 11 7 12 76 13
REMARK SMILES IDX 4 14 2 15 1 16 3 17 10 18 11 19 17 20 18 21 19 22 20 23
REMARK SMILES IDX 21 25 22 26 23 27 75 28 24 29 74 30 25 31 26 32 27 33 68 34
REMARK SMILES IDX 28 35 73 36 67 37 69 38 29 39 72 40 66 41 65 42 30 44 56 45
REMARK SMILES IDX 39 46 55 47 40 48 43 49 54 50 70 51 41 52 42 53 53 55 71 56
REMARK SMILES IDX 44 57 31 58 32 59 37 60 33 61 34 62 36 63 38 64 35 65 57 66
REMARK SMILES IDX 58 67 63 68 59 69 60 70 62 71 64 72 61 73 45 74 46 75 51 76
REMARK SMILES IDX 47 77 48 78 50 79 52 80 49 81
REMARK H PARENT 14 6 19 24 69 43 43 54
REMARK Flexibility Score: inf
ROOT
ATOM      1  C   UNL     1       0.597   3.138  -1.810  1.00  0.00     0.023 C 
ENDROOT
BRANCH   1   2
ATOM      2  C   UNL     1      -0.453   3.914  -2.600  1.00  0.00     0.116 C 
BRANCH   2   3
ATOM      3  N   UNL     1      -0.348   3.653  -4.024  1.00  0.00    -0.355 N 
ATOM      4  C   UNL     1      -1.248   3.093  -4.881  1.00  0.00     0.230 C 
ATOM      5  O   UNL     1      -0.922   3.005  -6.068  1.00  0.00    -0.274 OA
ATOM      6  H   UNL     1       0.505   3.922  -4.434  1.00  0.00     0.163 HD
BRANCH   4   7
ATOM      7  C   UNL     1      -2.592   2.562  -4.396  1.00  0.00     0.139 C 
BRANCH   7   8
ATOM      8  C   UNL     1      -3.480   3.626  -3.756  1.00  0.00    -0.033 A 
ATOM      9  C   UNL     1      -5.238   5.586  -2.707  1.00  0.00    -0.048 A 
ATOM     10  C   UNL     1      -5.127   4.327  -2.107  1.00  0.00     0.004 A 
ATOM     11  C   UNL     1      -4.432   5.876  -3.811  1.00  0.00     0.004 A 
ATOM     12  C   UNL     1      -4.278   3.353  -2.637  1.00  0.00     0.005 A 
ATOM     13  C   UNL     1      -3.567   4.908  -4.329  1.00  0.00     0.005 A 
BRANCH   9  14
ATOM     14  C   UNL     1      -6.263   6.579  -2.213  1.00  0.00     0.038 C 
BRANCH  14  15
ATOM     15  C   UNL     1      -7.679   6.341  -2.785  1.00  0.00    -0.013 C 
ATOM     16  C   UNL     1      -8.292   5.010  -2.335  1.00  0.00     0.008 C 
ATOM     17  C   UNL     1      -8.607   7.485  -2.368  1.00  0.00     0.008 C 
ENDBRANCH  14  15
ENDBRANCH   9  14
ENDBRANCH   7   8
BRANCH   7  18
ATOM     18  C   UNL     1      -2.321   1.288  -3.595  1.00  0.00     0.232 C 
ATOM     19  F   UNL     1      -3.465   0.555  -3.489  1.00  0.00    -0.250 F 
ENDBRANCH   7  18
ENDBRANCH   4   7
ENDBRANCH   2   3
ENDBRANCH   1   2
BRANCH   1  20
ATOM     20  C   UNL     1       2.040   3.557  -2.092  1.00  0.00     0.023 C 
BRANCH  20  21
ATOM     21  C   UNL     1       2.334   5.038  -1.882  1.00  0.00     0.116 C 
BRANCH  21  22
ATOM     22  N   UNL     1       2.063   5.484  -0.524  1.00  0.00    -0.352 N 
ATOM     23  C   UNL     1       2.846   6.258   0.301  1.00  0.00     0.251 C 
ATOM     24  H   UNL     1       1.203   5.193  -0.144  1.00  0.00     0.163 HD
ATOM     25  O   UNL     1       2.532   6.434   1.471  1.00  0.00    -0.269 OA
BRANCH  23  26
ATOM     26  C   UNL     1       4.092   6.847  -0.231  1.00  0.00     0.039 A 
ATOM     27  C   UNL     1       5.275   6.696   0.495  1.00  0.00     0.014 A 
ATOM     28  C   UNL     1       4.094   7.514  -1.459  1.00  0.00     0.014 A 
ATOM     29  C   UNL     1       6.478   7.151  -0.047  1.00  0.00     0.010 A 
ATOM     30  C   UNL     1       5.302   7.900  -2.030  1.00  0.00     0.010 A 
ATOM     31  C   UNL     1       6.506   7.721  -1.331  1.00  0.00    -0.014 A 
BRANCH  31  32
ATOM     32  C   UNL     1       7.782   8.136  -1.965  1.00  0.00     0.031 A 
ATOM     33  C   UNL     1       8.021   9.581  -2.298  1.00  0.00     0.074 A 
ATOM     34  C   UNL     1       8.691   7.203  -2.312  1.00  0.00     0.049 A 
ATOM     35  N   UNL     1       9.025  10.128  -2.936  1.00  0.00    -0.248 NA
ATOM     36  C   UNL     1       6.979  10.535  -1.887  1.00  0.00     0.031 C 
ATOM     37  C   UNL     1       8.554   5.762  -2.088  1.00  0.00     0.029 A 
ATOM     38  N   UNL     1       9.903   7.327  -2.942  1.00  0.00    -0.354 N 
ATOM     39  C   UNL     1       8.725  11.482  -3.019  1.00  0.00     0.074 A 
ATOM     40  C   UNL     1       7.425  11.666  -2.413  1.00  0.00     0.031 C 
ATOM     41  C   UNL     1       9.647   5.139  -2.557  1.00  0.00     0.029 A 
ATOM     42  C   UNL     1      10.543   6.128  -3.148  1.00  0.00     0.049 A 
ATOM     43  H   UNL     1      10.280   8.193  -3.220  1.00  0.00     0.167 HD
ATOM     44  C   UNL     1       9.476  12.484  -3.535  1.00  0.00     0.037 A 
ATOM     45  C   UNL     1      11.714   5.856  -3.755  1.00  0.00     0.037 A 
ATOM     46  C   UNL     1      10.783  12.302  -4.109  1.00  0.00     0.049 A 
ATOM     47  C   UNL     1      12.531   6.987  -4.316  1.00  0.00     0.074 A 
ATOM     48  C   UNL     1      11.651  13.262  -4.597  1.00  0.00     0.029 A 
ATOM     49  N   UNL     1      11.409  11.075  -4.274  1.00  0.00    -0.354 N 
ATOM     50  N   UNL     1      12.267   8.271  -4.326  1.00  0.00    -0.248 NA
ATOM     51  C   UNL     1      13.811   6.632  -4.944  1.00  0.00     0.031 C 
ATOM     52  C   UNL     1      12.785  12.614  -5.096  1.00  0.00     0.029 A 
ATOM     53  C   UNL     1      12.644  11.253  -4.875  1.00  0.00     0.049 A 
ATOM     54  H   UNL     1      11.031  10.207  -4.004  1.00  0.00     0.167 HD
ATOM     55  C   UNL     1      13.358   8.879  -4.934  1.00  0.00     0.074 A 
ATOM     56  C   UNL     1      14.292   7.824  -5.268  1.00  0.00     0.031 C 
ATOM     57  C   UNL     1      13.567  10.193  -5.191  1.00  0.00     0.037 A 
BRANCH  44  58
ATOM     58  C   UNL     1       8.902  13.870  -3.496  1.00  0.00     0.057 A 
ATOM     59  C   UNL     1       8.758  14.577  -2.295  1.00  0.00     0.134 A 
ATOM     60  C   UNL     1       8.518  14.518  -4.677  1.00  0.00     0.134 A 
ATOM     61  F   UNL     1       9.095  14.009  -1.127  1.00  0.00    -0.206 F 
ATOM     62  C   UNL     1       8.231  15.869  -2.267  1.00  0.00     0.040 A 
ATOM     63  C   UNL     1       8.015  15.820  -4.664  1.00  0.00     0.040 A 
ATOM     64  F   UNL     1       8.634  13.901  -5.862  1.00  0.00    -0.206 F 
ATOM     65  C   UNL     1       7.864  16.497  -3.455  1.00  0.00     0.006 A 
ENDBRANCH  44  58
BRANCH  45  66
ATOM     66  C   UNL     1      12.195   4.455  -3.846  1.00  0.00     0.057 A 
ATOM     67  C   UNL     1      13.295   4.020  -3.098  1.00  0.00     0.134 A 
ATOM     68  C   UNL     1      11.575   3.521  -4.685  1.00  0.00     0.134 A 
ATOM     69  F   UNL     1      13.942   4.874  -2.291  1.00  0.00    -0.206 F 
ATOM     70  C   UNL     1      13.774   2.713  -3.193  1.00  0.00     0.040 A 
ATOM     71  C   UNL     1      12.028   2.203  -4.771  1.00  0.00     0.040 A 
ATOM     72  F   UNL     1      10.512   3.873  -5.422  1.00  0.00    -0.206 F 
ATOM     73  C   UNL     1      13.136   1.798  -4.029  1.00  0.00     0.006 A 
ENDBRANCH  45  66
BRANCH  57  74
ATOM     74  C   UNL     1      14.870  10.571  -5.831  1.00  0.00     0.057 A 
ATOM     75  C   UNL     1      15.139  10.302  -7.178  1.00  0.00     0.134 A 
ATOM     76  C   UNL     1      15.849  11.256  -5.099  1.00  0.00     0.134 A 
ATOM     77  F   UNL     1      14.248   9.637  -7.930  1.00  0.00    -0.206 F 
ATOM     78  C   UNL     1      16.343  10.685  -7.771  1.00  0.00     0.040 A 
ATOM     79  C   UNL     1      17.045  11.667  -5.687  1.00  0.00     0.040 A 
ATOM     80  F   UNL     1      15.650  11.552  -3.805  1.00  0.00    -0.206 F 
ATOM     81  C   UNL     1      17.297  11.377  -7.026  1.00  0.00     0.006 A 
ENDBRANCH  57  74
ENDBRANCH  31  32
ENDBRANCH  23  26
ENDBRANCH  21  22
ENDBRANCH  20  21
ENDBRANCH   1  20
TORSDOF 15
