REMARK SMILES NS(=O)(=O)c1ccc(-c2cc(Cl)cc3c2O[C@H](C(F)(F)F)C(C(=O)NCCCCNC(=O)c2ccc(-c4c5nc(c(-c6c(F)cccc6F)c6ccc([nH]6)c(-c6c(F)cccc6F)c6nc(c(-c7c(F)cccc7F)c7ccc4[nH]7)C=C6)C=C5)cc2)=C3)cc1
REMARK SMILES IDX 27 1 26 2 25 3 23 4 24 5 22 7 9 8 10 9 15 10 11 11 14 12
REMARK SMILES IDX 16 13 12 14 13 15 87 16 17 17 8 18 5 19 6 20 89 21 7 22
REMARK SMILES IDX 88 23 2 24 3 25 4 26 1 27 18 30 19 31 20 32 21 33 28 34
REMARK SMILES IDX 29 35 30 36 31 37 32 39 33 40 34 41 86 42 35 43 85 44 36 45
REMARK SMILES IDX 37 46 38 47 79 48 39 49 84 50 78 51 80 52 40 53 83 54 77 55
REMARK SMILES IDX 76 56 41 58 67 59 50 60 66 61 51 62 54 63 65 64 81 65 52 66
REMARK SMILES IDX 53 67 64 69 82 70 55 71 42 72 43 73 48 74 44 75 45 76 47 77
REMARK SMILES IDX 49 78 46 79 68 80 69 81 74 82 70 83 71 84 73 85 75 86 72 87
REMARK SMILES IDX 56 88 57 89 62 90 58 91 59 92 61 93 63 94 60 95
REMARK H PARENT 25 6 1 28 1 29 30 38 80 57 54 68
REMARK Flexibility Score: inf
ROOT
ATOM      1  C   UNL     1       6.666   7.735 -11.213  1.00  0.00     0.023 C 
ENDROOT
BRANCH   1   2
ATOM      2  C   UNL     1       5.405   7.792 -10.338  1.00  0.00     0.116 C 
BRANCH   2   3
ATOM      3  N   UNL     1       4.596   6.618 -10.578  1.00  0.00    -0.352 N 
ATOM      4  C   UNL     1       4.030   5.767  -9.694  1.00  0.00     0.251 C 
ATOM      5  O   UNL     1       3.912   4.592 -10.027  1.00  0.00    -0.270 OA
ATOM      6  H   UNL     1       4.434   6.407 -11.526  1.00  0.00     0.163 HD
BRANCH   4   7
ATOM      7  C   UNL     1       3.454   6.321  -8.431  1.00  0.00     0.067 C 
ATOM      8  C   UNL     1       2.467   2.861  -6.518  1.00  0.00     0.026 A 
ATOM      9  C   UNL     1       1.912   2.018  -7.516  1.00  0.00     0.033 A 
ATOM     10  C   UNL     1       2.633   4.212  -6.872  1.00  0.00     0.135 A 
ATOM     11  C   UNL     1       1.347   2.517  -8.686  1.00  0.00     0.042 A 
ATOM     12  C   UNL     1       1.936   4.715  -7.997  1.00  0.00     0.019 A 
ATOM     13  O   UNL     1       3.503   5.079  -6.221  1.00  0.00    -0.475 OA
ATOM     14  Cl  UNL     1       0.707   1.434  -9.857  1.00  0.00    -0.084 Cl
ATOM     15  C   UNL     1       1.271   3.880  -8.889  1.00  0.00     0.032 A 
ATOM     16  C   UNL     1       2.121   6.143  -8.341  1.00  0.00     0.025 C 
ATOM     17  C   UNL     1       4.226   6.008  -7.154  1.00  0.00     0.314 C 
BRANCH   8  18
ATOM     18  C   UNL     1       2.506   2.254  -5.155  1.00  0.00    -0.015 A 
ATOM     19  C   UNL     1       1.539   0.623  -3.049  1.00  0.00     0.082 A 
ATOM     20  C   UNL     1       2.479   0.114  -3.945  1.00  0.00     0.022 A 
ATOM     21  C   UNL     1       1.157   1.964  -3.125  1.00  0.00     0.022 A 
ATOM     22  C   UNL     1       2.977   0.933  -4.970  1.00  0.00     0.010 A 
ATOM     23  C   UNL     1       1.653   2.775  -4.161  1.00  0.00     0.010 A 
BRANCH  19  24
ATOM     24  S   UNL     1       0.710  -0.470  -1.925  1.00  0.00     0.238 S 
ATOM     25  O   UNL     1       1.235  -1.804  -2.072  1.00  0.00    -0.207 OA
ATOM     26  O   UNL     1      -0.711  -0.191  -1.967  1.00  0.00    -0.207 OA
BRANCH  24  27
ATOM     27  N   UNL     1       1.241   0.059  -0.425  1.00  0.00    -0.225 NA
ATOM     28  H   UNL     1       0.817  -0.512   0.306  1.00  0.00     0.137 HD
ATOM     29  H   UNL     1       0.972   1.034  -0.294  1.00  0.00     0.137 HD
ENDBRANCH  24  27
ENDBRANCH  19  24
ENDBRANCH   8  18
BRANCH  17  30
ATOM     30  C   UNL     1       4.579   7.352  -6.472  1.00  0.00     0.429 C 
ATOM     31  F   UNL     1       3.913   7.542  -5.312  1.00  0.00    -0.167 F 
ATOM     32  F   UNL     1       5.905   7.434  -6.207  1.00  0.00    -0.167 F 
ATOM     33  F   UNL     1       4.289   8.423  -7.260  1.00  0.00    -0.167 F 
ENDBRANCH  17  30
ENDBRANCH   4   7
ENDBRANCH   2   3
ENDBRANCH   1   2
BRANCH   1  34
ATOM     34  C   UNL     1       6.410   7.647 -12.725  1.00  0.00     0.023 C 
BRANCH  34  35
ATOM     35  C   UNL     1       5.517   8.746 -13.285  1.00  0.00     0.116 C 
BRANCH  35  36
ATOM     36  N   UNL     1       6.141  10.056 -13.184  1.00  0.00    -0.352 N 
ATOM     37  C   UNL     1       6.454  10.943 -14.186  1.00  0.00     0.251 C 
ATOM     38  H   UNL     1       6.372  10.347 -12.273  1.00  0.00     0.163 HD
ATOM     39  O   UNL     1       7.162  11.917 -13.954  1.00  0.00    -0.269 OA
BRANCH  37  40
ATOM     40  C   UNL     1       5.951  10.700 -15.554  1.00  0.00     0.039 A 
ATOM     41  C   UNL     1       6.837  10.789 -16.631  1.00  0.00     0.014 A 
ATOM     42  C   UNL     1       4.613  10.357 -15.767  1.00  0.00     0.014 A 
ATOM     43  C   UNL     1       6.396  10.460 -17.915  1.00  0.00     0.010 A 
ATOM     44  C   UNL     1       4.199   9.954 -17.031  1.00  0.00     0.010 A 
ATOM     45  C   UNL     1       5.086   9.998 -18.119  1.00  0.00    -0.014 A 
BRANCH  45  46
ATOM     46  C   UNL     1       4.615   9.548 -19.454  1.00  0.00     0.031 A 
ATOM     47  C   UNL     1       3.479  10.264 -20.130  1.00  0.00     0.074 A 
ATOM     48  C   UNL     1       5.148   8.446 -20.017  1.00  0.00     0.049 A 
ATOM     49  N   UNL     1       2.843   9.955 -21.231  1.00  0.00    -0.248 NA
ATOM     50  C   UNL     1       2.972  11.475 -19.463  1.00  0.00     0.031 C 
ATOM     51  C   UNL     1       6.231   7.641 -19.448  1.00  0.00     0.029 A 
ATOM     52  N   UNL     1       4.836   7.799 -21.188  1.00  0.00    -0.354 N 
ATOM     53  C   UNL     1       1.853  10.918 -21.378  1.00  0.00     0.074 A 
ATOM     54  C   UNL     1       1.938  11.791 -20.228  1.00  0.00     0.031 C 
ATOM     55  C   UNL     1       6.501   6.619 -20.275  1.00  0.00     0.029 A 
ATOM     56  C   UNL     1       5.581   6.664 -21.407  1.00  0.00     0.049 A 
ATOM     57  H   UNL     1       4.144   8.117 -21.811  1.00  0.00     0.167 HD
ATOM     58  C   UNL     1       0.967  11.073 -22.390  1.00  0.00     0.037 A 
ATOM     59  C   UNL     1       5.516   5.752 -22.395  1.00  0.00     0.037 A 
ATOM     60  C   UNL     1       0.899  10.212 -23.542  1.00  0.00     0.049 A 
ATOM     61  C   UNL     1       4.500   5.927 -23.491  1.00  0.00     0.074 A 
ATOM     62  C   UNL     1       0.074  10.319 -24.648  1.00  0.00     0.029 A 
ATOM     63  N   UNL     1       1.680   9.082 -23.732  1.00  0.00    -0.354 N 
ATOM     64  N   UNL     1       3.612   6.878 -23.651  1.00  0.00    -0.248 NA
ATOM     65  C   UNL     1       4.476   4.902 -24.546  1.00  0.00     0.031 C 
ATOM     66  C   UNL     1       0.314   9.221 -25.478  1.00  0.00     0.029 A 
ATOM     67  C   UNL     1       1.335   8.466 -24.923  1.00  0.00     0.049 A 
ATOM     68  H   UNL     1       2.376   8.765 -23.112  1.00  0.00     0.167 HD
ATOM     69  C   UNL     1       2.951   6.588 -24.838  1.00  0.00     0.074 A 
ATOM     70  C   UNL     1       3.544   5.376 -25.362  1.00  0.00     0.031 C 
ATOM     71  C   UNL     1       1.946   7.268 -25.442  1.00  0.00     0.037 A 
BRANCH  58  72
ATOM     72  C   UNL     1      -0.005  12.214 -22.295  1.00  0.00     0.057 A 
ATOM     73  C   UNL     1       0.404  13.549 -22.403  1.00  0.00     0.134 A 
ATOM     74  C   UNL     1      -1.375  11.972 -22.131  1.00  0.00     0.134 A 
ATOM     75  F   UNL     1       1.703  13.853 -22.551  1.00  0.00    -0.206 F 
ATOM     76  C   UNL     1      -0.508  14.603 -22.322  1.00  0.00     0.040 A 
ATOM     77  C   UNL     1      -2.301  13.015 -22.081  1.00  0.00     0.040 A 
ATOM     78  F   UNL     1      -1.839  10.717 -22.029  1.00  0.00    -0.206 F 
ATOM     79  C   UNL     1      -1.867  14.336 -22.168  1.00  0.00     0.006 A 
ENDBRANCH  58  72
BRANCH  59  80
ATOM     80  C   UNL     1       6.443   4.590 -22.401  1.00  0.00     0.057 A 
ATOM     81  C   UNL     1       7.442   4.467 -23.375  1.00  0.00     0.134 A 
ATOM     82  C   UNL     1       6.347   3.571 -21.446  1.00  0.00     0.134 A 
ATOM     83  F   UNL     1       7.573   5.401 -24.328  1.00  0.00    -0.206 F 
ATOM     84  C   UNL     1       8.296   3.363 -23.413  1.00  0.00     0.040 A 
ATOM     85  C   UNL     1       7.213   2.476 -21.454  1.00  0.00     0.040 A 
ATOM     86  F   UNL     1       5.418   3.631 -20.481  1.00  0.00    -0.206 F 
ATOM     87  C   UNL     1       8.185   2.365 -22.446  1.00  0.00     0.006 A 
ENDBRANCH  59  80
BRANCH  71  88
ATOM     88  C   UNL     1       1.451   6.754 -26.763  1.00  0.00     0.057 A 
ATOM     89  C   UNL     1       0.683   5.588 -26.867  1.00  0.00     0.134 A 
ATOM     90  C   UNL     1       1.689   7.479 -27.938  1.00  0.00     0.134 A 
ATOM     91  F   UNL     1       0.429   4.841 -25.783  1.00  0.00    -0.206 F 
ATOM     92  C   UNL     1       0.181   5.154 -28.096  1.00  0.00     0.040 A 
ATOM     93  C   UNL     1       1.168   7.072 -29.166  1.00  0.00     0.040 A 
ATOM     94  F   UNL     1       2.410   8.610 -27.907  1.00  0.00    -0.206 F 
ATOM     95  C   UNL     1       0.414   5.904 -29.248  1.00  0.00     0.006 A 
ENDBRANCH  71  88
ENDBRANCH  45  46
ENDBRANCH  37  40
ENDBRANCH  35  36
ENDBRANCH  34  35
ENDBRANCH   1  34
TORSDOF 15
