REMARK SMILES O=C(COc1ccc2c(c1)CCC2)N[C@@H](CO)C(=O)NCCCCNC(=O)c1ccc(-c2c3nc(c(-c4c(F)cccc4F)c4ccc([nH]4)c(-c4c(F)cccc4F)c4nc(c(-c5c(F)cccc5F)c5ccc2[nH]5)C=C4)C=C3)cc1
REMARK SMILES IDX 21 1 20 2 18 3 19 4 15 6 14 7 1 8 2 9 3 11 4 12 5 13 6 14
REMARK SMILES IDX 10 15 7 16 9 17 8 18 11 19 13 20 12 21 16 22 17 23 22 25
REMARK SMILES IDX 23 26 24 27 25 28 26 29 27 31 28 32 29 33 81 34 30 35 80 36
REMARK SMILES IDX 31 37 32 38 33 39 74 40 34 41 79 42 73 43 75 44 35 45 78 46
REMARK SMILES IDX 72 47 71 48 36 50 62 51 45 52 61 53 46 54 49 55 60 56 76 57
REMARK SMILES IDX 47 58 48 59 59 61 77 62 50 63 37 64 38 65 43 66 39 67 40 68
REMARK SMILES IDX 42 69 44 70 41 71 63 72 64 73 69 74 65 75 66 76 68 77 70 78
REMARK SMILES IDX 67 79 51 80 52 81 57 82 53 83 54 84 56 85 58 86 55 87
REMARK H PARENT 20 5 14 10 17 24 25 30 75 49 49 60
REMARK Flexibility Score: inf
ROOT
ATOM      1  C   UNL     1       5.246  -3.264   0.177  1.00  0.00     0.116 C 
ENDROOT
BRANCH   1   2
ATOM      2  N   UNL     1       4.066  -3.711   0.892  1.00  0.00    -0.354 N 
ATOM      3  C   UNL     1       2.743  -3.491   0.639  1.00  0.00     0.244 C 
ATOM      4  O   UNL     1       1.927  -4.172   1.268  1.00  0.00    -0.273 OA
ATOM      5  H   UNL     1       4.248  -4.261   1.688  1.00  0.00     0.163 HD
BRANCH   3   6
ATOM      6  C   UNL     1       2.269  -2.484  -0.424  1.00  0.00     0.197 C 
BRANCH   6   7
ATOM      7  N   UNL     1       2.929  -1.191  -0.241  1.00  0.00    -0.339 N 
ATOM      8  O   UNL     1       1.139   0.095  -0.865  1.00  0.00    -0.271 OA
ATOM      9  C   UNL     1       2.233  -0.005  -0.320  1.00  0.00     0.258 C 
ATOM     10  H   UNL     1       3.896  -1.168  -0.057  1.00  0.00     0.164 HD
BRANCH   9  11
ATOM     11  C   UNL     1       2.951   1.178   0.343  1.00  0.00     0.329 C 
BRANCH  11  12
ATOM     12  O   UNL     1       3.818   0.822   1.424  1.00  0.00    -0.484 OA
BRANCH  12  13
ATOM     13  C   UNL     1       3.185   0.754   2.641  1.00  0.00     0.120 A 
ATOM     14  C   UNL     1       2.165  -0.175   2.901  1.00  0.00     0.047 A 
ATOM     15  C   UNL     1       3.672   1.571   3.666  1.00  0.00     0.050 A 
ATOM     16  C   UNL     1       1.603  -0.287   4.174  1.00  0.00     0.008 A 
ATOM     17  C   UNL     1       3.112   1.449   4.930  1.00  0.00    -0.041 A 
ATOM     18  C   UNL     1       2.091   0.526   5.180  1.00  0.00    -0.045 A 
ATOM     19  C   UNL     1       3.425   2.229   6.170  1.00  0.00     0.036 C 
ATOM     20  C   UNL     1       1.637   0.591   6.604  1.00  0.00     0.036 C 
ATOM     21  C   UNL     1       2.818   1.323   7.255  1.00  0.00     0.010 C 
ENDBRANCH  12  13
ENDBRANCH  11  12
ENDBRANCH   9  11
ENDBRANCH   6   7
BRANCH   6  22
ATOM     22  C   UNL     1       2.319  -3.064  -1.843  1.00  0.00     0.191 C 
BRANCH  22  23
ATOM     23  O   UNL     1       3.627  -3.103  -2.409  1.00  0.00    -0.394 OA
ATOM     24  H   UNL     1       3.973  -2.200  -2.488  1.00  0.00     0.210 HD
ENDBRANCH  22  23
ENDBRANCH   6  22
ENDBRANCH   3   6
ENDBRANCH   1   2
BRANCH   1  25
ATOM     25  C   UNL     1       6.239  -2.557   1.094  1.00  0.00     0.023 C 
BRANCH  25  26
ATOM     26  C   UNL     1       6.907  -3.459   2.129  1.00  0.00     0.023 C 
BRANCH  26  27
ATOM     27  C   UNL     1       7.584  -4.704   1.565  1.00  0.00     0.116 C 
BRANCH  27  28
ATOM     28  N   UNL     1       8.573  -4.401   0.542  1.00  0.00    -0.352 N 
ATOM     29  C   UNL     1       9.859  -4.859   0.407  1.00  0.00     0.251 C 
ATOM     30  H   UNL     1       8.276  -3.774  -0.156  1.00  0.00     0.163 HD
ATOM     31  O   UNL     1      10.594  -4.373  -0.451  1.00  0.00    -0.269 OA
BRANCH  29  32
ATOM     32  C   UNL     1      10.374  -5.911   1.308  1.00  0.00     0.039 A 
ATOM     33  C   UNL     1      11.667  -5.778   1.820  1.00  0.00     0.014 A 
ATOM     34  C   UNL     1       9.597  -7.020   1.652  1.00  0.00     0.014 A 
ATOM     35  C   UNL     1      12.153  -6.725   2.722  1.00  0.00     0.010 A 
ATOM     36  C   UNL     1      10.047  -7.912   2.622  1.00  0.00     0.010 A 
ATOM     37  C   UNL     1      11.334  -7.780   3.162  1.00  0.00    -0.014 A 
BRANCH  37  38
ATOM     38  C   UNL     1      11.823  -8.730   4.195  1.00  0.00     0.031 A 
ATOM     39  C   UNL     1      11.989 -10.192   3.881  1.00  0.00     0.074 A 
ATOM     40  C   UNL     1      12.104  -8.270   5.431  1.00  0.00     0.049 A 
ATOM     41  N   UNL     1      12.461 -11.150   4.639  1.00  0.00    -0.248 NA
ATOM     42  C   UNL     1      11.544 -10.648   2.554  1.00  0.00     0.031 C 
ATOM     43  C   UNL     1      11.919  -6.888   5.882  1.00  0.00     0.029 A 
ATOM     44  N   UNL     1      12.617  -8.910   6.531  1.00  0.00    -0.354 N 
ATOM     45  C   UNL     1      12.363 -12.314   3.888  1.00  0.00     0.074 A 
ATOM     46  C   UNL     1      11.733 -11.957   2.637  1.00  0.00     0.031 C 
ATOM     47  C   UNL     1      12.365  -6.773   7.143  1.00  0.00     0.029 A 
ATOM     48  C   UNL     1      12.832  -8.076   7.603  1.00  0.00     0.049 A 
ATOM     49  H   UNL     1      12.814  -9.874   6.551  1.00  0.00     0.167 HD
ATOM     50  C   UNL     1      12.784 -13.563   4.201  1.00  0.00     0.037 A 
ATOM     51  C   UNL     1      13.358  -8.332   8.815  1.00  0.00     0.037 A 
ATOM     52  C   UNL     1      13.434 -13.911   5.438  1.00  0.00     0.049 A 
ATOM     53  C   UNL     1      13.826  -9.726   9.128  1.00  0.00     0.074 A 
ATOM     54  C   UNL     1      13.966 -15.131   5.818  1.00  0.00     0.029 A 
ATOM     55  N   UNL     1      13.631 -13.041   6.500  1.00  0.00    -0.354 N 
ATOM     56  N   UNL     1      13.822 -10.794   8.367  1.00  0.00    -0.248 NA
ATOM     57  C   UNL     1      14.385  -9.946  10.469  1.00  0.00     0.031 C 
ATOM     58  C   UNL     1      14.433 -15.015   7.132  1.00  0.00     0.029 A 
ATOM     59  C   UNL     1      14.249 -13.706   7.547  1.00  0.00     0.049 A 
ATOM     60  H   UNL     1      13.371 -12.092   6.508  1.00  0.00     0.167 HD
ATOM     61  C   UNL     1      14.405 -11.802   9.125  1.00  0.00     0.074 A 
ATOM     62  C   UNL     1      14.777 -11.209  10.393  1.00  0.00     0.031 C 
ATOM     63  C   UNL     1      14.611 -13.104   8.804  1.00  0.00     0.037 A 
BRANCH  50  64
ATOM     64  C   UNL     1      12.559 -14.652   3.189  1.00  0.00     0.057 A 
ATOM     65  C   UNL     1      13.264 -14.699   1.980  1.00  0.00     0.134 A 
ATOM     66  C   UNL     1      11.666 -15.698   3.455  1.00  0.00     0.134 A 
ATOM     67  F   UNL     1      14.127 -13.723   1.657  1.00  0.00    -0.206 F 
ATOM     68  C   UNL     1      13.075 -15.735   1.062  1.00  0.00     0.040 A 
ATOM     69  C   UNL     1      11.490 -16.754   2.559  1.00  0.00     0.040 A 
ATOM     70  F   UNL     1      10.961 -15.719   4.596  1.00  0.00    -0.206 F 
ATOM     71  C   UNL     1      12.193 -16.772   1.356  1.00  0.00     0.006 A 
ENDBRANCH  50  64
BRANCH  51  72
ATOM     72  C   UNL     1      13.507  -7.245   9.818  1.00  0.00     0.057 A 
ATOM     73  C   UNL     1      14.774  -6.804  10.223  1.00  0.00     0.134 A 
ATOM     74  C   UNL     1      12.396  -6.652  10.428  1.00  0.00     0.134 A 
ATOM     75  F   UNL     1      15.879  -7.345   9.689  1.00  0.00    -0.206 F 
ATOM     76  C   UNL     1      14.930  -5.841  11.222  1.00  0.00     0.040 A 
ATOM     77  C   UNL     1      12.537  -5.666  11.405  1.00  0.00     0.040 A 
ATOM     78  F   UNL     1      11.154  -7.022  10.080  1.00  0.00    -0.206 F 
ATOM     79  C   UNL     1      13.808  -5.267  11.814  1.00  0.00     0.006 A 
ENDBRANCH  51  72
BRANCH  63  80
ATOM     80  C   UNL     1      15.300 -13.956   9.833  1.00  0.00     0.057 A 
ATOM     81  C   UNL     1      14.689 -14.296  11.047  1.00  0.00     0.134 A 
ATOM     82  C   UNL     1      16.598 -14.434   9.609  1.00  0.00     0.134 A 
ATOM     83  F   UNL     1      13.451 -13.862  11.331  1.00  0.00    -0.206 F 
ATOM     84  C   UNL     1      15.360 -15.038  12.020  1.00  0.00     0.040 A 
ATOM     85  C   UNL     1      17.266 -15.207  10.559  1.00  0.00     0.040 A 
ATOM     86  F   UNL     1      17.239 -14.158   8.463  1.00  0.00    -0.206 F 
ATOM     87  C   UNL     1      16.652 -15.499  11.775  1.00  0.00     0.006 A 
ENDBRANCH  63  80
ENDBRANCH  37  38
ENDBRANCH  29  32
ENDBRANCH  27  28
ENDBRANCH  26  27
ENDBRANCH  25  26
ENDBRANCH   1  25
TORSDOF 17
