REMARK SMILES COc1ccc(CCn2cc(C(=O)NCCCCNC(=O)c3ccc(-c4c5nc(c(-c6c(F)cccc6F)c6ccc([nH]6)c(-c6c(F)cccc6F)c6nc(c(-c7c(F)cccc7F)c7ccc4[nH]7)C=C6)C=C5)cc3)ccc2=O)cc1OC
REMARK SMILES IDX 15 1 14 2 12 3 13 4 11 6 9 7 10 8 78 9 77 10 79 11 76 12
REMARK SMILES IDX 8 13 7 14 6 15 3 16 4 17 81 18 5 19 80 20 2 21 1 22 82 23
REMARK SMILES IDX 83 24 16 25 17 26 18 27 19 28 20 29 21 31 22 32 23 33 75 34
REMARK SMILES IDX 24 35 74 36 25 37 26 38 27 39 68 40 28 41 73 42 67 43 69 44
REMARK SMILES IDX 29 45 72 46 66 47 65 48 30 50 56 51 39 52 55 53 40 54 43 55
REMARK SMILES IDX 54 56 70 57 41 58 42 59 53 61 71 62 44 63 31 64 32 65 37 66
REMARK SMILES IDX 33 67 34 68 36 69 38 70 35 71 57 72 58 73 63 74 59 75 60 76
REMARK SMILES IDX 62 77 64 78 61 79 45 80 46 81 51 82 47 83 48 84 50 85 52 86
REMARK SMILES IDX 49 87
REMARK H PARENT 14 5 19 30 69 49 43 60
REMARK Flexibility Score: inf
ROOT
ATOM      1  C   UNL     1      -1.312   2.129   4.454  1.00  0.00     0.116 C 
ENDROOT
BRANCH   1   2
ATOM      2  N   UNL     1      -2.550   2.886   4.461  1.00  0.00    -0.352 N 
ATOM      3  C   UNL     1      -2.830   4.212   4.599  1.00  0.00     0.252 C 
ATOM      4  O   UNL     1      -4.018   4.542   4.576  1.00  0.00    -0.269 OA
ATOM      5  H   UNL     1      -3.351   2.327   4.340  1.00  0.00     0.163 HD
BRANCH   3   6
ATOM      6  C   UNL     1      -1.763   5.267   4.642  1.00  0.00     0.056 A 
ATOM      7  N   UNL     1       0.488   5.998   4.942  1.00  0.00    -0.314 N 
ATOM      8  C   UNL     1      -0.541   5.091   5.172  1.00  0.00     0.103 A 
ATOM      9  C   UNL     1       0.240   7.279   4.439  1.00  0.00     0.250 A 
ATOM     10  C   UNL     1      -1.155   7.543   4.008  1.00  0.00     0.072 A 
ATOM     11  O   UNL     1       1.085   8.159   4.305  1.00  0.00    -0.269 OA
ATOM     12  C   UNL     1      -2.072   6.570   4.071  1.00  0.00     0.021 A 
BRANCH   7  13
ATOM     13  C   UNL     1       1.891   5.612   5.132  1.00  0.00     0.130 C 
BRANCH  13  14
ATOM     14  C   UNL     1       2.298   4.152   4.819  1.00  0.00     0.057 C 
BRANCH  14  15
ATOM     15  C   UNL     1       2.090   3.530   3.446  1.00  0.00    -0.042 A 
ATOM     16  C   UNL     1       1.589   2.035   1.091  1.00  0.00     0.160 A 
ATOM     17  C   UNL     1       0.897   3.221   1.345  1.00  0.00     0.051 A 
ATOM     18  C   UNL     1       2.595   1.621   1.966  1.00  0.00     0.160 A 
ATOM     19  C   UNL     1       1.161   3.971   2.499  1.00  0.00     0.008 A 
ATOM     20  C   UNL     1       2.805   2.352   3.147  1.00  0.00     0.054 A 
BRANCH  16  21
ATOM     21  O   UNL     1       1.269   1.362  -0.057  1.00  0.00    -0.493 OA
ATOM     22  C   UNL     1       0.367   0.285   0.200  1.00  0.00     0.278 C 
ENDBRANCH  16  21
BRANCH  18  23
ATOM     23  O   UNL     1       3.408   0.528   1.844  1.00  0.00    -0.493 OA
ATOM     24  C   UNL     1       3.669   0.045   0.531  1.00  0.00     0.278 C 
ENDBRANCH  18  23
ENDBRANCH  14  15
ENDBRANCH  13  14
ENDBRANCH   7  13
ENDBRANCH   3   6
ENDBRANCH   1   2
BRANCH   1  25
ATOM     25  C   UNL     1      -1.170   1.335   5.752  1.00  0.00     0.023 C 
BRANCH  25  26
ATOM     26  C   UNL     1      -1.836  -0.038   5.682  1.00  0.00     0.023 C 
BRANCH  26  27
ATOM     27  C   UNL     1      -1.194  -0.995   4.682  1.00  0.00     0.116 C 
BRANCH  27  28
ATOM     28  N   UNL     1       0.203  -1.283   4.975  1.00  0.00    -0.352 N 
ATOM     29  C   UNL     1       0.852  -2.492   4.900  1.00  0.00     0.251 C 
ATOM     30  H   UNL     1       0.750  -0.516   5.263  1.00  0.00     0.163 HD
ATOM     31  O   UNL     1       2.003  -2.620   5.301  1.00  0.00    -0.269 OA
BRANCH  29  32
ATOM     32  C   UNL     1       0.117  -3.650   4.357  1.00  0.00     0.039 A 
ATOM     33  C   UNL     1       0.034  -4.818   5.115  1.00  0.00     0.014 A 
ATOM     34  C   UNL     1      -0.551  -3.540   3.135  1.00  0.00     0.014 A 
ATOM     35  C   UNL     1      -0.784  -5.860   4.678  1.00  0.00     0.010 A 
ATOM     36  C   UNL     1      -1.421  -4.547   2.740  1.00  0.00     0.010 A 
ATOM     37  C   UNL     1      -1.547  -5.716   3.508  1.00  0.00    -0.014 A 
BRANCH  37  38
ATOM     38  C   UNL     1      -2.478  -6.777   3.052  1.00  0.00     0.031 A 
ATOM     39  C   UNL     1      -2.231  -7.466   1.739  1.00  0.00     0.074 A 
ATOM     40  C   UNL     1      -3.583  -7.058   3.769  1.00  0.00     0.049 A 
ATOM     41  N   UNL     1      -2.984  -8.325   1.101  1.00  0.00    -0.248 NA
ATOM     42  C   UNL     1      -0.987  -7.116   1.035  1.00  0.00     0.031 C 
ATOM     43  C   UNL     1      -3.956  -6.428   5.037  1.00  0.00     0.029 A 
ATOM     44  N   UNL     1      -4.606  -7.938   3.522  1.00  0.00    -0.354 N 
ATOM     45  C   UNL     1      -2.318  -8.597  -0.087  1.00  0.00     0.074 A 
ATOM     46  C   UNL     1      -1.127  -7.775  -0.105  1.00  0.00     0.031 C 
ATOM     47  C   UNL     1      -5.116  -6.953   5.464  1.00  0.00     0.029 A 
ATOM     48  C   UNL     1      -5.587  -7.928   4.484  1.00  0.00     0.049 A 
ATOM     49  H   UNL     1      -4.635  -8.523   2.730  1.00  0.00     0.167 HD
ATOM     50  C   UNL     1      -2.655  -9.470  -1.064  1.00  0.00     0.037 A 
ATOM     51  C   UNL     1      -6.740  -8.619   4.561  1.00  0.00     0.037 A 
ATOM     52  C   UNL     1      -3.820 -10.313  -1.026  1.00  0.00     0.049 A 
ATOM     53  C   UNL     1      -7.089  -9.590   3.466  1.00  0.00     0.074 A 
ATOM     54  C   UNL     1      -4.219 -11.273  -1.938  1.00  0.00     0.029 A 
ATOM     55  N   UNL     1      -4.768 -10.301  -0.014  1.00  0.00    -0.354 N 
ATOM     56  N   UNL     1      -6.422  -9.878   2.374  1.00  0.00    -0.248 NA
ATOM     57  C   UNL     1      -8.347 -10.335   3.615  1.00  0.00     0.031 C 
ATOM     58  C   UNL     1      -5.429 -11.818  -1.496  1.00  0.00     0.029 A 
ATOM     59  C   UNL     1      -5.759 -11.229  -0.286  1.00  0.00     0.049 A 
ATOM     60  H   UNL     1      -4.741  -9.719   0.780  1.00  0.00     0.167 HD
ATOM     61  C   UNL     1      -7.160 -10.861   1.727  1.00  0.00     0.074 A 
ATOM     62  C   UNL     1      -8.322 -11.123   2.550  1.00  0.00     0.031 C 
ATOM     63  C   UNL     1      -6.896 -11.492   0.557  1.00  0.00     0.037 A 
BRANCH  50  64
ATOM     64  C   UNL     1      -1.746  -9.560  -2.254  1.00  0.00     0.057 A 
ATOM     65  C   UNL     1      -0.470 -10.133  -2.165  1.00  0.00     0.134 A 
ATOM     66  C   UNL     1      -2.159  -9.094  -3.507  1.00  0.00     0.134 A 
ATOM     67  F   UNL     1      -0.008 -10.585  -0.989  1.00  0.00    -0.206 F 
ATOM     68  C   UNL     1       0.373 -10.213  -3.274  1.00  0.00     0.040 A 
ATOM     69  C   UNL     1      -1.336  -9.194  -4.630  1.00  0.00     0.040 A 
ATOM     70  F   UNL     1      -3.370  -8.538  -3.663  1.00  0.00    -0.206 F 
ATOM     71  C   UNL     1      -0.063  -9.749  -4.514  1.00  0.00     0.006 A 
ENDBRANCH  50  64
BRANCH  51  72
ATOM     72  C   UNL     1      -7.640  -8.441   5.728  1.00  0.00     0.057 A 
ATOM     73  C   UNL     1      -7.790  -9.455   6.682  1.00  0.00     0.134 A 
ATOM     74  C   UNL     1      -8.379  -7.267   5.912  1.00  0.00     0.134 A 
ATOM     75  F   UNL     1      -7.122 -10.610   6.549  1.00  0.00    -0.206 F 
ATOM     76  C   UNL     1      -8.658  -9.317   7.766  1.00  0.00     0.040 A 
ATOM     77  C   UNL     1      -9.233  -7.106   7.005  1.00  0.00     0.040 A 
ATOM     78  F   UNL     1      -8.274  -6.256   5.038  1.00  0.00    -0.206 F 
ATOM     79  C   UNL     1      -9.380  -8.137   7.932  1.00  0.00     0.006 A 
ENDBRANCH  51  72
BRANCH  63  80
ATOM     80  C   UNL     1      -7.849 -12.565   0.121  1.00  0.00     0.057 A 
ATOM     81  C   UNL     1      -9.116 -12.266  -0.394  1.00  0.00     0.134 A 
ATOM     82  C   UNL     1      -7.467 -13.912   0.165  1.00  0.00     0.134 A 
ATOM     83  F   UNL     1      -9.544 -10.996  -0.451  1.00  0.00    -0.206 F 
ATOM     84  C   UNL     1      -9.976 -13.271  -0.837  1.00  0.00     0.040 A 
ATOM     85  C   UNL     1      -8.308 -14.924  -0.297  1.00  0.00     0.040 A 
ATOM     86  F   UNL     1      -6.262 -14.263   0.640  1.00  0.00    -0.206 F 
ATOM     87  C   UNL     1      -9.569 -14.604  -0.797  1.00  0.00     0.006 A 
ENDBRANCH  63  80
ENDBRANCH  37  38
ENDBRANCH  29  32
ENDBRANCH  27  28
ENDBRANCH  26  27
ENDBRANCH  25  26
ENDBRANCH   1  25
TORSDOF 16
