REMARK SMILES C[C@@H](C(=O)NCCCCNC(=O)c1ccc(-c2c3nc(c(-c4c(F)cccc4F)c4ccc([nH]4)c(-c4c(F)cccc4F)c4nc(c(-c5c(F)cccc5F)c5ccc2[nH]5)C=C4)C=C3)cc1)c1ccc(-c2cccc(OC(=O)Nc3ccccc3)c2)c(F)c1
REMARK SMILES IDX 6 1 5 2 3 3 4 4 2 6 1 7 67 8 68 9 89 10 69 11 87 12 70 13
REMARK SMILES IDX 88 14 71 15 72 16 86 17 73 18 75 19 74 20 76 21 77 22 78 23
REMARK SMILES IDX 79 24 80 26 81 27 85 28 82 29 84 30 83 31 7 32 8 33 9 34
REMARK SMILES IDX 10 35 11 36 12 38 13 39 14 40 66 41 15 42 65 43 16 44 17 45
REMARK SMILES IDX 18 46 59 47 19 48 64 49 58 50 60 51 20 52 63 53 57 54 56 55
REMARK SMILES IDX 21 57 47 58 30 59 46 60 31 61 34 62 45 63 61 64 32 65 33 66
REMARK SMILES IDX 44 68 62 69 35 70 22 71 23 72 28 73 24 74 25 75 27 76 29 77
REMARK SMILES IDX 26 78 48 79 49 80 54 81 50 82 51 83 53 84 55 85 52 86 36 87
REMARK SMILES IDX 37 88 42 89 38 90 39 91 41 92 43 93 40 94
REMARK H PARENT 5 5 79 25 10 37 60 56 34 67
REMARK Flexibility Score: inf
ROOT
ATOM      1  C   UNL     1       3.488   0.822  -1.676  1.00  0.00     0.116 C 
ENDROOT
BRANCH   1   2
ATOM      2  N   UNL     1       2.453   0.426  -2.606  1.00  0.00    -0.356 N 
ATOM      3  C   UNL     1       1.115   0.255  -2.407  1.00  0.00     0.227 C 
ATOM      4  O   UNL     1       0.474  -0.212  -3.351  1.00  0.00    -0.274 OA
ATOM      5  H   UNL     1       2.763   0.254  -3.525  1.00  0.00     0.163 HD
BRANCH   3   6
ATOM      6  C   UNL     1       0.474   0.677  -1.075  1.00  0.00     0.105 C 
ATOM      7  C   UNL     1       0.877  -0.233   0.093  1.00  0.00     0.023 C 
BRANCH   6   8
ATOM      8  C   UNL     1      -1.046   0.731  -1.169  1.00  0.00    -0.033 A 
ATOM      9  C   UNL     1      -1.726   1.956  -1.123  1.00  0.00     0.005 A 
ATOM     10  C   UNL     1      -1.796  -0.448  -1.281  1.00  0.00     0.044 A 
ATOM     11  C   UNL     1      -3.126   1.995  -1.128  1.00  0.00     0.012 A 
ATOM     12  C   UNL     1      -3.183  -0.402  -1.284  1.00  0.00     0.131 A 
ATOM     13  C   UNL     1      -3.877   0.811  -1.179  1.00  0.00     0.018 A 
ATOM     14  F   UNL     1      -3.853  -1.563  -1.351  1.00  0.00    -0.206 F 
BRANCH  13  15
ATOM     15  C   UNL     1      -5.335   0.824  -1.018  1.00  0.00    -0.012 A 
ATOM     16  C   UNL     1      -6.183   1.517  -1.892  1.00  0.00     0.009 A 
ATOM     17  C   UNL     1      -5.904   0.126   0.062  1.00  0.00     0.056 A 
ATOM     18  C   UNL     1      -7.567   1.504  -1.696  1.00  0.00     0.004 A 
ATOM     19  C   UNL     1      -7.278   0.128   0.266  1.00  0.00     0.133 A 
ATOM     20  C   UNL     1      -8.116   0.809  -0.616  1.00  0.00     0.047 A 
BRANCH  19  21
ATOM     21  O   UNL     1      -7.919  -0.520   1.350  1.00  0.00    -0.410 OA
BRANCH  21  22
ATOM     22  C   UNL     1      -7.291  -1.066   2.469  1.00  0.00     0.417 C 
ATOM     23  O   UNL     1      -6.078  -1.152   2.646  1.00  0.00    -0.224 OA
ATOM     24  N   UNL     1      -8.137  -1.429   3.485  1.00  0.00    -0.291 N 
ATOM     25  H   UNL     1      -7.688  -1.680   4.324  1.00  0.00     0.173 HD
BRANCH  24  26
ATOM     26  C   UNL     1      -9.535  -1.500   3.525  1.00  0.00     0.044 A 
ATOM     27  C   UNL     1     -10.135  -1.462   4.789  1.00  0.00     0.026 A 
ATOM     28  C   UNL     1     -10.341  -1.638   2.393  1.00  0.00     0.026 A 
ATOM     29  C   UNL     1     -11.524  -1.510   4.917  1.00  0.00     0.002 A 
ATOM     30  C   UNL     1     -11.731  -1.706   2.524  1.00  0.00     0.002 A 
ATOM     31  C   UNL     1     -12.322  -1.631   3.783  1.00  0.00     0.000 A 
ENDBRANCH  24  26
ENDBRANCH  21  22
ENDBRANCH  19  21
ENDBRANCH  13  15
ENDBRANCH   6   8
ENDBRANCH   3   6
ENDBRANCH   1   2
BRANCH   1  32
ATOM     32  C   UNL     1       4.275  -0.395  -1.185  1.00  0.00     0.023 C 
BRANCH  32  33
ATOM     33  C   UNL     1       5.058  -1.129  -2.276  1.00  0.00     0.023 C 
BRANCH  33  34
ATOM     34  C   UNL     1       6.042  -0.266  -3.058  1.00  0.00     0.116 C 
BRANCH  34  35
ATOM     35  N   UNL     1       7.039   0.366  -2.208  1.00  0.00    -0.352 N 
ATOM     36  C   UNL     1       8.394   0.480  -2.409  1.00  0.00     0.251 C 
ATOM     37  H   UNL     1       6.697   0.767  -1.377  1.00  0.00     0.163 HD
ATOM     38  O   UNL     1       9.117   0.937  -1.531  1.00  0.00    -0.269 OA
BRANCH  36  39
ATOM     39  C   UNL     1       8.976   0.010  -3.681  1.00  0.00     0.039 A 
ATOM     40  C   UNL     1      10.059  -0.872  -3.642  1.00  0.00     0.014 A 
ATOM     41  C   UNL     1       8.422   0.399  -4.904  1.00  0.00     0.014 A 
ATOM     42  C   UNL     1      10.532  -1.436  -4.828  1.00  0.00     0.010 A 
ATOM     43  C   UNL     1       8.854  -0.210  -6.077  1.00  0.00     0.010 A 
ATOM     44  C   UNL     1       9.901  -1.145  -6.049  1.00  0.00    -0.014 A 
BRANCH  44  45
ATOM     45  C   UNL     1      10.283  -1.840  -7.303  1.00  0.00     0.031 A 
ATOM     46  C   UNL     1      10.857  -1.062  -8.453  1.00  0.00     0.074 A 
ATOM     47  C   UNL     1      10.009  -3.152  -7.442  1.00  0.00     0.049 A 
ATOM     48  N   UNL     1      11.125  -1.463  -9.669  1.00  0.00    -0.248 NA
ATOM     49  C   UNL     1      11.142   0.362  -8.212  1.00  0.00     0.031 C 
ATOM     50  C   UNL     1       9.405  -4.005  -6.416  1.00  0.00     0.029 A 
ATOM     51  N   UNL     1      10.176  -3.993  -8.515  1.00  0.00    -0.354 N 
ATOM     52  C   UNL     1      11.585  -0.341 -10.344  1.00  0.00     0.074 A 
ATOM     53  C   UNL     1      11.531   0.766  -9.413  1.00  0.00     0.031 C 
ATOM     54  C   UNL     1       9.253  -5.245  -6.909  1.00  0.00     0.029 A 
ATOM     55  C   UNL     1       9.706  -5.266  -8.295  1.00  0.00     0.049 A 
ATOM     56  H   UNL     1      10.593  -3.711  -9.361  1.00  0.00     0.167 HD
ATOM     57  C   UNL     1      12.024  -0.247 -11.621  1.00  0.00     0.037 A 
ATOM     58  C   UNL     1       9.624  -6.323  -9.125  1.00  0.00     0.037 A 
ATOM     59  C   UNL     1      12.112  -1.358 -12.530  1.00  0.00     0.049 A 
ATOM     60  C   UNL     1      10.113  -6.187 -10.541  1.00  0.00     0.074 A 
ATOM     61  C   UNL     1      12.642  -1.383 -13.809  1.00  0.00     0.029 A 
ATOM     62  N   UNL     1      11.650  -2.637 -12.263  1.00  0.00    -0.354 N 
ATOM     63  N   UNL     1      10.634  -5.142 -11.137  1.00  0.00    -0.248 NA
ATOM     64  C   UNL     1      10.001  -7.375 -11.400  1.00  0.00     0.031 C 
ATOM     65  C   UNL     1      12.456  -2.665 -14.334  1.00  0.00     0.029 A 
ATOM     66  C   UNL     1      11.849  -3.450 -13.367  1.00  0.00     0.049 A 
ATOM     67  H   UNL     1      11.242  -2.925 -11.415  1.00  0.00     0.167 HD
ATOM     68  C   UNL     1      10.929  -5.551 -12.431  1.00  0.00     0.074 A 
ATOM     69  C   UNL     1      10.545  -6.944 -12.529  1.00  0.00     0.031 C 
ATOM     70  C   UNL     1      11.466  -4.835 -13.448  1.00  0.00     0.037 A 
BRANCH  57  71
ATOM     71  C   UNL     1      12.447   1.103 -12.119  1.00  0.00     0.057 A 
ATOM     72  C   UNL     1      13.639   1.706 -11.700  1.00  0.00     0.134 A 
ATOM     73  C   UNL     1      11.683   1.776 -13.081  1.00  0.00     0.134 A 
ATOM     74  F   UNL     1      14.410   1.117 -10.774  1.00  0.00    -0.206 F 
ATOM     75  C   UNL     1      14.050   2.939 -12.210  1.00  0.00     0.040 A 
ATOM     76  C   UNL     1      12.095   2.997 -13.615  1.00  0.00     0.040 A 
ATOM     77  F   UNL     1      10.533   1.249 -13.529  1.00  0.00    -0.206 F 
ATOM     78  C   UNL     1      13.281   3.583 -13.177  1.00  0.00     0.006 A 
ENDBRANCH  57  71
BRANCH  58  79
ATOM     79  C   UNL     1       9.041  -7.603  -8.649  1.00  0.00     0.057 A 
ATOM     80  C   UNL     1       9.838  -8.739  -8.473  1.00  0.00     0.134 A 
ATOM     81  C   UNL     1       7.672  -7.727  -8.382  1.00  0.00     0.134 A 
ATOM     82  F   UNL     1      11.152  -8.688  -8.733  1.00  0.00    -0.206 F 
ATOM     83  C   UNL     1       9.292  -9.960  -8.070  1.00  0.00     0.040 A 
ATOM     84  C   UNL     1       7.117  -8.934  -7.954  1.00  0.00     0.040 A 
ATOM     85  F   UNL     1       6.855  -6.673  -8.526  1.00  0.00    -0.206 F 
ATOM     86  C   UNL     1       7.928 -10.058  -7.806  1.00  0.00     0.006 A 
ENDBRANCH  58  79
BRANCH  70  87
ATOM     87  C   UNL     1      11.690  -5.547 -14.748  1.00  0.00     0.057 A 
ATOM     88  C   UNL     1      10.628  -5.868 -15.602  1.00  0.00     0.134 A 
ATOM     89  C   UNL     1      12.986  -5.864 -15.176  1.00  0.00     0.134 A 
ATOM     90  F   UNL     1       9.363  -5.603 -15.243  1.00  0.00    -0.206 F 
ATOM     91  C   UNL     1      10.846  -6.490 -16.832  1.00  0.00     0.040 A 
ATOM     92  C   UNL     1      13.218  -6.464 -16.413  1.00  0.00     0.040 A 
ATOM     93  F   UNL     1      14.047  -5.576 -14.407  1.00  0.00    -0.206 F 
ATOM     94  C   UNL     1      12.146  -6.782 -17.244  1.00  0.00     0.006 A 
ENDBRANCH  70  87
ENDBRANCH  44  45
ENDBRANCH  36  39
ENDBRANCH  34  35
ENDBRANCH  33  34
ENDBRANCH  32  33
ENDBRANCH   1  32
TORSDOF 16
