REMARK SMILES CCCC[C@H](C(=O)NCCCCNC(=O)c1ccc(-c2c3nc(c(-c4c(F)cccc4F)c4ccc([nH]4)c(-c4c(F)cccc4F)c4nc(c(-c5c(F)cccc5F)c5ccc2[nH]5)C=C4)C=C3)cc1)N1C(=O)/C(=C/c2ccc(C)cc2)SC1=S
REMARK SMILES IDX 10 1 9 2 8 3 6 4 7 5 5 7 4 8 3 9 2 10 1 11 70 12 71 13 83 14
REMARK SMILES IDX 72 15 73 16 82 17 84 18 74 19 75 20 76 21 81 22 77 23 80 24
REMARK SMILES IDX 78 25 79 26 11 27 12 28 13 29 14 30 15 32 16 33 17 34 69 35
REMARK SMILES IDX 18 36 68 37 19 38 20 39 21 40 62 41 22 42 67 43 61 44 63 45
REMARK SMILES IDX 23 46 66 47 60 48 59 49 24 51 50 52 33 53 49 54 34 55 37 56
REMARK SMILES IDX 48 57 64 58 35 59 36 60 47 62 65 63 38 64 25 65 26 66 31 67
REMARK SMILES IDX 27 68 28 69 30 70 32 71 29 72 51 73 52 74 57 75 53 76 54 77
REMARK SMILES IDX 56 78 58 79 55 80 39 81 40 82 45 83 41 84 42 85 44 86 46 87
REMARK SMILES IDX 43 88
REMARK H PARENT 8 6 13 31 63 50 37 61
REMARK Flexibility Score: inf
ROOT
ATOM      1  C   UNL     1       0.732   0.183  -1.367  1.00  0.00     0.023 C 
ENDROOT
BRANCH   1   2
ATOM      2  C   UNL     1       0.232  -1.149  -0.822  1.00  0.00     0.116 C 
BRANCH   2   3
ATOM      3  N   UNL     1       0.817  -1.493   0.463  1.00  0.00    -0.354 N 
ATOM      4  C   UNL     1       0.264  -2.188   1.506  1.00  0.00     0.243 C 
ATOM      5  O   UNL     1       0.983  -2.448   2.473  1.00  0.00    -0.273 OA
ATOM      6  H   UNL     1       1.740  -1.182   0.604  1.00  0.00     0.163 HD
BRANCH   4   7
ATOM      7  C   UNL     1      -1.220  -2.587   1.448  1.00  0.00     0.181 C 
BRANCH   7   8
ATOM      8  C   UNL     1      -1.579  -3.883   0.676  1.00  0.00     0.036 C 
BRANCH   8   9
ATOM      9  C   UNL     1      -0.652  -4.450  -0.411  1.00  0.00     0.002 C 
BRANCH   9  10
ATOM     10  C   UNL     1       0.774  -4.870  -0.037  1.00  0.00    -0.003 C 
ATOM     11  C   UNL     1       0.874  -5.800   1.157  1.00  0.00     0.004 C 
ENDBRANCH   9  10
ENDBRANCH   8   9
ENDBRANCH   7   8
BRANCH   7  12
ATOM     12  N   UNL     1      -1.751  -2.487   2.836  1.00  0.00    -0.280 N 
ATOM     13  C   UNL     1      -1.768  -3.576   3.690  1.00  0.00     0.266 C 
ATOM     14  C   UNL     1      -2.087  -1.275   3.422  1.00  0.00     0.149 C 
ATOM     15  O   UNL     1      -1.375  -4.713   3.463  1.00  0.00    -0.268 OA
ATOM     16  C   UNL     1      -2.369  -3.211   4.996  1.00  0.00     0.081 C 
ATOM     17  S   UNL     1      -2.595  -1.519   5.088  1.00  0.00    -0.054 SA
ATOM     18  S   UNL     1      -2.063   0.254   2.745  1.00  0.00    -0.052 S 
ATOM     19  C   UNL     1      -2.667  -4.155   5.900  1.00  0.00     0.029 C 
BRANCH  19  20
ATOM     20  C   UNL     1      -3.267  -3.955   7.221  1.00  0.00    -0.024 A 
ATOM     21  C   UNL     1      -2.636  -4.514   8.337  1.00  0.00     0.008 A 
ATOM     22  C   UNL     1      -4.474  -3.270   7.392  1.00  0.00     0.008 A 
ATOM     23  C   UNL     1      -3.181  -4.350   9.612  1.00  0.00     0.004 A 
ATOM     24  C   UNL     1      -5.016  -3.101   8.668  1.00  0.00     0.004 A 
ATOM     25  C   UNL     1      -4.368  -3.631   9.788  1.00  0.00    -0.051 A 
ATOM     26  C   UNL     1      -4.932  -3.443  11.164  1.00  0.00     0.044 C 
ENDBRANCH  19  20
ENDBRANCH   7  12
ENDBRANCH   4   7
ENDBRANCH   2   3
ENDBRANCH   1   2
BRANCH   1  27
ATOM     27  C   UNL     1       2.221   0.208  -1.711  1.00  0.00     0.023 C 
BRANCH  27  28
ATOM     28  C   UNL     1       2.671  -0.855  -2.707  1.00  0.00     0.116 C 
BRANCH  28  29
ATOM     29  N   UNL     1       2.070  -0.686  -4.024  1.00  0.00    -0.352 N 
ATOM     30  C   UNL     1       2.693  -0.496  -5.235  1.00  0.00     0.251 C 
ATOM     31  H   UNL     1       1.087  -0.712  -4.049  1.00  0.00     0.163 HD
ATOM     32  O   UNL     1       2.046  -0.207  -6.235  1.00  0.00    -0.269 OA
BRANCH  30  33
ATOM     33  C   UNL     1       4.163  -0.619  -5.312  1.00  0.00     0.039 A 
ATOM     34  C   UNL     1       4.908   0.407  -5.897  1.00  0.00     0.014 A 
ATOM     35  C   UNL     1       4.801  -1.729  -4.752  1.00  0.00     0.014 A 
ATOM     36  C   UNL     1       6.304   0.357  -5.848  1.00  0.00     0.010 A 
ATOM     37  C   UNL     1       6.184  -1.734  -4.631  1.00  0.00     0.010 A 
ATOM     38  C   UNL     1       6.952  -0.693  -5.178  1.00  0.00    -0.014 A 
BRANCH  38  39
ATOM     39  C   UNL     1       8.431  -0.752  -5.047  1.00  0.00     0.031 A 
ATOM     40  C   UNL     1       9.179  -1.909  -5.652  1.00  0.00     0.074 A 
ATOM     41  C   UNL     1       9.088   0.171  -4.319  1.00  0.00     0.049 A 
ATOM     42  N   UNL     1      10.437  -2.243  -5.521  1.00  0.00    -0.248 NA
ATOM     43  C   UNL     1       8.397  -2.830  -6.493  1.00  0.00     0.031 C 
ATOM     44  C   UNL     1       8.480   1.330  -3.663  1.00  0.00     0.029 A 
ATOM     45  N   UNL     1      10.419   0.267  -3.991  1.00  0.00    -0.354 N 
ATOM     46  C   UNL     1      10.591  -3.418  -6.247  1.00  0.00     0.074 A 
ATOM     47  C   UNL     1       9.288  -3.771  -6.765  1.00  0.00     0.031 C 
ATOM     48  C   UNL     1       9.435   2.027  -3.026  1.00  0.00     0.029 A 
ATOM     49  C   UNL     1      10.713   1.340  -3.183  1.00  0.00     0.049 A 
ATOM     50  H   UNL     1      11.098  -0.372  -4.305  1.00  0.00     0.167 HD
ATOM     51  C   UNL     1      11.721  -4.125  -6.484  1.00  0.00     0.037 A 
ATOM     52  C   UNL     1      11.878   1.713  -2.617  1.00  0.00     0.037 A 
ATOM     53  C   UNL     1      13.020  -3.761  -5.984  1.00  0.00     0.049 A 
ATOM     54  C   UNL     1      13.111   0.881  -2.857  1.00  0.00     0.074 A 
ATOM     55  C   UNL     1      14.231  -4.398  -6.188  1.00  0.00     0.029 A 
ATOM     56  N   UNL     1      13.276  -2.658  -5.184  1.00  0.00    -0.354 N 
ATOM     57  N   UNL     1      13.250  -0.207  -3.575  1.00  0.00    -0.248 NA
ATOM     58  C   UNL     1      14.351   1.331  -2.207  1.00  0.00     0.031 C 
ATOM     59  C   UNL     1      15.214  -3.706  -5.476  1.00  0.00     0.029 A 
ATOM     60  C   UNL     1      14.625  -2.603  -4.877  1.00  0.00     0.049 A 
ATOM     61  H   UNL     1      12.600  -2.010  -4.879  1.00  0.00     0.167 HD
ATOM     62  C   UNL     1      14.598  -0.540  -3.506  1.00  0.00     0.074 A 
ATOM     63  C   UNL     1      15.234   0.460  -2.675  1.00  0.00     0.031 C 
ATOM     64  C   UNL     1      15.250  -1.578  -4.082  1.00  0.00     0.037 A 
BRANCH  51  65
ATOM     65  C   UNL     1      11.602  -5.359  -7.330  1.00  0.00     0.057 A 
ATOM     66  C   UNL     1      11.320  -5.287  -8.701  1.00  0.00     0.134 A 
ATOM     67  C   UNL     1      11.810  -6.630  -6.779  1.00  0.00     0.134 A 
ATOM     68  F   UNL     1      11.097  -4.102  -9.288  1.00  0.00    -0.206 F 
ATOM     69  C   UNL     1      11.224  -6.436  -9.488  1.00  0.00     0.040 A 
ATOM     70  C   UNL     1      11.747  -7.783  -7.563  1.00  0.00     0.040 A 
ATOM     71  F   UNL     1      12.089  -6.771  -5.475  1.00  0.00    -0.206 F 
ATOM     72  C   UNL     1      11.447  -7.688  -8.920  1.00  0.00     0.006 A 
ENDBRANCH  51  65
BRANCH  52  73
ATOM     73  C   UNL     1      11.952   2.935  -1.774  1.00  0.00     0.057 A 
ATOM     74  C   UNL     1      12.691   4.051  -2.188  1.00  0.00     0.134 A 
ATOM     75  C   UNL     1      11.331   3.005  -0.521  1.00  0.00     0.134 A 
ATOM     76  F   UNL     1      13.326   4.039  -3.369  1.00  0.00    -0.206 F 
ATOM     77  C   UNL     1      12.840   5.175  -1.374  1.00  0.00     0.040 A 
ATOM     78  C   UNL     1      11.447   4.136   0.290  1.00  0.00     0.040 A 
ATOM     79  F   UNL     1      10.602   1.976  -0.068  1.00  0.00    -0.206 F 
ATOM     80  C   UNL     1      12.214   5.220  -0.131  1.00  0.00     0.006 A 
ENDBRANCH  52  73
BRANCH  64  81
ATOM     81  C   UNL     1      16.740  -1.648  -3.909  1.00  0.00     0.057 A 
ATOM     82  C   UNL     1      17.336  -1.996  -2.691  1.00  0.00     0.134 A 
ATOM     83  C   UNL     1      17.586  -1.425  -5.004  1.00  0.00     0.134 A 
ATOM     84  F   UNL     1      16.584  -2.211  -1.602  1.00  0.00    -0.206 F 
ATOM     85  C   UNL     1      18.723  -2.102  -2.564  1.00  0.00     0.040 A 
ATOM     86  C   UNL     1      18.970  -1.557  -4.897  1.00  0.00     0.040 A 
ATOM     87  F   UNL     1      17.078  -1.098  -6.202  1.00  0.00    -0.206 F 
ATOM     88  C   UNL     1      19.543  -1.893  -3.672  1.00  0.00     0.006 A 
ENDBRANCH  64  81
ENDBRANCH  38  39
ENDBRANCH  30  33
ENDBRANCH  28  29
ENDBRANCH  27  28
ENDBRANCH   1  27
TORSDOF 16
