REMARK SMILES COC[C@@H](C)CC(=O)N1CC(CC(=O)NCCCCNC(=O)c2ccc(-c3c4nc(c(-c5c(F)cccc5F)c5ccc([nH]5)c(-c5c(F)cccc5F)c5nc(c(-c6c(F)cccc6F)c6ccc3[nH]6)C=C5)C=C4)cc2)C1
REMARK SMILES IDX 16 1 15 2 13 3 14 4 12 6 11 7 7 8 8 9 9 10 10 11 77 12 6 13
REMARK SMILES IDX 4 14 5 15 3 16 2 17 1 18 17 19 18 20 19 21 20 22 21 23 22 25
REMARK SMILES IDX 23 26 24 27 76 28 25 29 75 30 26 31 27 32 28 33 69 34 29 35
REMARK SMILES IDX 74 36 68 37 70 38 30 39 73 40 67 41 66 42 31 44 57 45 40 46
REMARK SMILES IDX 56 47 41 48 44 49 55 50 71 51 42 52 43 53 54 55 72 56 45 57
REMARK SMILES IDX 32 58 33 59 38 60 34 61 35 62 37 63 39 64 36 65 58 66 59 67
REMARK SMILES IDX 64 68 60 69 61 70 63 71 65 72 62 73 46 74 47 75 52 76 48 77
REMARK SMILES IDX 49 78 51 79 53 80 50 81
REMARK H PARENT 15 5 20 24 70 43 44 54
REMARK Flexibility Score: inf
ROOT
ATOM      1  C   UNL     1       1.629   0.730   4.978  1.00  0.00     0.116 C 
ENDROOT
BRANCH   1   2
ATOM      2  N   UNL     1       0.942   0.386   6.207  1.00  0.00    -0.356 N 
ATOM      3  C   UNL     1       0.873  -0.796   6.883  1.00  0.00     0.220 C 
ATOM      4  O   UNL     1       0.125  -0.859   7.860  1.00  0.00    -0.275 OA
ATOM      5  H   UNL     1       0.442   1.126   6.622  1.00  0.00     0.163 HD
BRANCH   3   6
ATOM      6  C   UNL     1       1.667  -2.014   6.438  1.00  0.00     0.107 C 
BRANCH   6   7
ATOM      7  C   UNL     1       0.860  -2.960   5.551  1.00  0.00     0.037 C 
ATOM      8  C   UNL     1       0.802  -4.568   2.644  1.00  0.00     0.222 C 
ATOM      9  O   UNL     1       0.062  -5.540   2.764  1.00  0.00    -0.275 OA
ATOM     10  N   UNL     1       1.314  -3.868   3.715  1.00  0.00    -0.342 N 
ATOM     11  C   UNL     1       1.453  -4.306   5.105  1.00  0.00     0.125 C 
ATOM     12  C   UNL     1       0.845  -2.548   4.088  1.00  0.00     0.125 C 
BRANCH   8  13
ATOM     13  C   UNL     1       1.343  -4.118   1.286  1.00  0.00     0.106 C 
BRANCH  13  14
ATOM     14  C   UNL     1       0.493  -3.135   0.453  1.00  0.00     0.021 C 
ATOM     15  C   UNL     1       0.872  -3.271  -1.029  1.00  0.00     0.010 C 
BRANCH  14  16
ATOM     16  C   UNL     1       0.695  -1.681   0.902  1.00  0.00     0.163 C 
BRANCH  16  17
ATOM     17  O   UNL     1       0.004  -0.736   0.089  1.00  0.00    -0.384 OA
ATOM     18  C   UNL     1       0.869   0.121  -0.649  1.00  0.00     0.194 C 
ENDBRANCH  16  17
ENDBRANCH  14  16
ENDBRANCH  13  14
ENDBRANCH   8  13
ENDBRANCH   6   7
ENDBRANCH   3   6
ENDBRANCH   1   2
BRANCH   1  19
ATOM     19  C   UNL     1       0.689   0.641   3.776  1.00  0.00     0.023 C 
BRANCH  19  20
ATOM     20  C   UNL     1      -0.121   1.888   3.458  1.00  0.00     0.023 C 
BRANCH  20  21
ATOM     21  C   UNL     1       0.702   3.081   3.001  1.00  0.00     0.116 C 
BRANCH  21  22
ATOM     22  N   UNL     1       1.509   2.820   1.817  1.00  0.00    -0.352 N 
ATOM     23  C   UNL     1       1.695   3.612   0.705  1.00  0.00     0.251 C 
ATOM     24  H   UNL     1       1.988   1.959   1.810  1.00  0.00     0.163 HD
ATOM     25  O   UNL     1       2.321   3.198  -0.258  1.00  0.00    -0.269 OA
BRANCH  23  26
ATOM     26  C   UNL     1       1.088   4.960   0.685  1.00  0.00     0.039 A 
ATOM     27  C   UNL     1       0.344   5.356  -0.428  1.00  0.00     0.014 A 
ATOM     28  C   UNL     1       1.202   5.795   1.798  1.00  0.00     0.014 A 
ATOM     29  C   UNL     1      -0.357   6.562  -0.389  1.00  0.00     0.010 A 
ATOM     30  C   UNL     1       0.429   6.944   1.872  1.00  0.00     0.010 A 
ATOM     31  C   UNL     1      -0.354   7.343   0.778  1.00  0.00    -0.014 A 
BRANCH  31  32
ATOM     32  C   UNL     1      -1.140   8.595   0.886  1.00  0.00     0.031 A 
ATOM     33  C   UNL     1      -0.425   9.897   1.120  1.00  0.00     0.074 A 
ATOM     34  C   UNL     1      -2.486   8.550   0.876  1.00  0.00     0.049 A 
ATOM     35  N   UNL     1      -0.920  11.078   1.387  1.00  0.00    -0.248 NA
ATOM     36  C   UNL     1       1.046   9.854   1.093  1.00  0.00     0.031 C 
ATOM     37  C   UNL     1      -3.296   7.340   0.714  1.00  0.00     0.029 A 
ATOM     38  N   UNL     1      -3.412   9.551   1.025  1.00  0.00    -0.354 N 
ATOM     39  C   UNL     1       0.176  11.906   1.590  1.00  0.00     0.074 A 
ATOM     40  C   UNL     1       1.359  11.084   1.471  1.00  0.00     0.031 C 
ATOM     41  C   UNL     1      -4.596   7.673   0.751  1.00  0.00     0.029 A 
ATOM     42  C   UNL     1      -4.713   9.111   0.977  1.00  0.00     0.049 A 
ATOM     43  H   UNL     1      -3.168  10.496   1.154  1.00  0.00     0.167 HD
ATOM     44  C   UNL     1       0.196  13.238   1.830  1.00  0.00     0.037 A 
ATOM     45  C   UNL     1      -5.867   9.791   1.107  1.00  0.00     0.037 A 
ATOM     46  C   UNL     1      -0.982  14.060   1.898  1.00  0.00     0.049 A 
ATOM     47  C   UNL     1      -5.819  11.275   1.341  1.00  0.00     0.074 A 
ATOM     48  C   UNL     1      -1.069  15.431   2.063  1.00  0.00     0.029 A 
ATOM     49  N   UNL     1      -2.280  13.584   1.795  1.00  0.00    -0.354 N 
ATOM     50  N   UNL     1      -4.775  12.058   1.473  1.00  0.00    -0.248 NA
ATOM     51  C   UNL     1      -7.109  11.973   1.438  1.00  0.00     0.031 C 
ATOM     52  C   UNL     1      -2.423  15.781   2.089  1.00  0.00     0.029 A 
ATOM     53  C   UNL     1      -3.177  14.633   1.903  1.00  0.00     0.049 A 
ATOM     54  H   UNL     1      -2.528  12.640   1.664  1.00  0.00     0.167 HD
ATOM     55  C   UNL     1      -5.279  13.340   1.643  1.00  0.00     0.074 A 
ATOM     56  C   UNL     1      -6.723  13.232   1.585  1.00  0.00     0.031 C 
ATOM     57  C   UNL     1      -4.609  14.503   1.830  1.00  0.00     0.037 A 
BRANCH  44  58
ATOM     58  C   UNL     1       1.536  13.884   2.022  1.00  0.00     0.057 A 
ATOM     59  C   UNL     1       2.438  14.041   0.961  1.00  0.00     0.134 A 
ATOM     60  C   UNL     1       1.925  14.367   3.277  1.00  0.00     0.134 A 
ATOM     61  F   UNL     1       2.134  13.585  -0.264  1.00  0.00    -0.206 F 
ATOM     62  C   UNL     1       3.690  14.629   1.148  1.00  0.00     0.040 A 
ATOM     63  C   UNL     1       3.163  14.981   3.471  1.00  0.00     0.040 A 
ATOM     64  F   UNL     1       1.108  14.250   4.335  1.00  0.00    -0.206 F 
ATOM     65  C   UNL     1       4.053  15.107   2.406  1.00  0.00     0.006 A 
ENDBRANCH  44  58
BRANCH  45  66
ATOM     66  C   UNL     1      -7.166   9.084   0.987  1.00  0.00     0.057 A 
ATOM     67  C   UNL     1      -7.980   9.265  -0.137  1.00  0.00     0.134 A 
ATOM     68  C   UNL     1      -7.626   8.216   1.984  1.00  0.00     0.134 A 
ATOM     69  F   UNL     1      -7.601  10.098  -1.118  1.00  0.00    -0.206 F 
ATOM     70  C   UNL     1      -9.214   8.624  -0.258  1.00  0.00     0.040 A 
ATOM     71  C   UNL     1      -8.848   7.551   1.867  1.00  0.00     0.040 A 
ATOM     72  F   UNL     1      -6.888   7.995   3.082  1.00  0.00    -0.206 F 
ATOM     73  C   UNL     1      -9.649   7.760   0.746  1.00  0.00     0.006 A 
ENDBRANCH  45  66
BRANCH  57  74
ATOM     74  C   UNL     1      -5.428  15.753   1.950  1.00  0.00     0.057 A 
ATOM     75  C   UNL     1      -6.158  16.048   3.107  1.00  0.00     0.134 A 
ATOM     76  C   UNL     1      -5.449  16.691   0.910  1.00  0.00     0.134 A 
ATOM     77  F   UNL     1      -6.188  15.183   4.132  1.00  0.00    -0.206 F 
ATOM     78  C   UNL     1      -6.896  17.227   3.219  1.00  0.00     0.040 A 
ATOM     79  C   UNL     1      -6.164  17.884   1.020  1.00  0.00     0.040 A 
ATOM     80  F   UNL     1      -4.763  16.470  -0.221  1.00  0.00    -0.206 F 
ATOM     81  C   UNL     1      -6.895  18.152   2.176  1.00  0.00     0.006 A 
ENDBRANCH  57  74
ENDBRANCH  31  32
ENDBRANCH  23  26
ENDBRANCH  21  22
ENDBRANCH  20  21
ENDBRANCH  19  20
ENDBRANCH   1  19
TORSDOF 16
