REMARK SMILES O=C(NCCCCNC(=O)c1ccc(Cl)nc1NC[C@@H]1C[N@@H+]2CCC[C@@H]2CO1)c1ccc(-c2c3nc(c(-c4c(F)cccc4F)c4ccc([nH]4)c(-c4c(F)cccc4F)c4nc(c(-c5c(F)cccc5F)c5ccc2[nH]5)C=C4)C=C3)cc1
REMARK SMILES IDX 6 1 5 2 4 3 3 4 1 5 2 6 29 8 30 9 82 10 31 11 81 12 32 13
REMARK SMILES IDX 33 14 34 15 75 16 35 17 80 18 74 19 76 20 36 21 79 22 73 23
REMARK SMILES IDX 72 24 37 26 63 27 46 28 62 29 47 30 50 31 61 32 77 33 48 34
REMARK SMILES IDX 49 35 60 37 78 38 51 39 38 40 39 41 44 42 40 43 41 44 43 45
REMARK SMILES IDX 45 46 42 47 64 48 65 49 70 50 66 51 67 52 69 53 71 54 68 55
REMARK SMILES IDX 52 56 53 57 58 58 54 59 55 60 57 61 59 62 56 63 7 64 8 65
REMARK SMILES IDX 9 66 10 68 11 69 12 70 17 71 13 72 16 73 14 74 15 75 18 76
REMARK SMILES IDX 19 78 20 79 21 80 28 81 22 82 27 83 23 84 26 85 24 87 25 88
REMARK H PARENT 3 7 76 25 50 36 8 67 18 77 22 86
REMARK Flexibility Score: inf
ROOT
ATOM      1  C   UNL     1       9.840   1.885  -1.491  1.00  0.00     0.023 C 
ENDROOT
BRANCH   1   2
ATOM      2  C   UNL     1       8.713   2.699  -0.859  1.00  0.00     0.023 C 
BRANCH   2   3
ATOM      3  C   UNL     1       7.794   1.932   0.082  1.00  0.00     0.116 C 
BRANCH   3   4
ATOM      4  N   UNL     1       8.477   1.394   1.248  1.00  0.00    -0.352 N 
ATOM      5  O   UNL     1       8.908   1.077   3.441  1.00  0.00    -0.269 OA
ATOM      6  C   UNL     1       8.149   1.512   2.579  1.00  0.00     0.251 C 
ATOM      7  H   UNL     1       9.289   0.872   1.058  1.00  0.00     0.163 HD
BRANCH   6   8
ATOM      8  C   UNL     1       6.898   2.196   2.974  1.00  0.00     0.039 A 
ATOM      9  C   UNL     1       5.700   1.927   2.309  1.00  0.00     0.014 A 
ATOM     10  C   UNL     1       6.927   3.131   4.013  1.00  0.00     0.014 A 
ATOM     11  C   UNL     1       4.580   2.708   2.567  1.00  0.00     0.010 A 
ATOM     12  C   UNL     1       5.772   3.852   4.335  1.00  0.00     0.010 A 
ATOM     13  C   UNL     1       4.599   3.674   3.588  1.00  0.00    -0.014 A 
BRANCH  13  14
ATOM     14  C   UNL     1       3.356   4.438   3.871  1.00  0.00     0.031 A 
ATOM     15  C   UNL     1       3.277   5.923   3.644  1.00  0.00     0.074 A 
ATOM     16  C   UNL     1       2.265   3.759   4.275  1.00  0.00     0.049 A 
ATOM     17  N   UNL     1       2.244   6.718   3.769  1.00  0.00    -0.248 NA
ATOM     18  C   UNL     1       4.512   6.607   3.231  1.00  0.00     0.031 C 
ATOM     19  C   UNL     1       2.226   2.320   4.552  1.00  0.00     0.029 A 
ATOM     20  N   UNL     1       0.977   4.173   4.490  1.00  0.00    -0.354 N 
ATOM     21  C   UNL     1       2.702   7.993   3.461  1.00  0.00     0.074 A 
ATOM     22  C   UNL     1       4.115   7.872   3.171  1.00  0.00     0.031 C 
ATOM     23  C   UNL     1       0.967   1.962   4.840  1.00  0.00     0.029 A 
ATOM     24  C   UNL     1       0.122   3.150   4.823  1.00  0.00     0.049 A 
ATOM     25  H   UNL     1       0.691   5.112   4.414  1.00  0.00     0.167 HD
ATOM     26  C   UNL     1       2.006   9.155   3.413  1.00  0.00     0.037 A 
ATOM     27  C   UNL     1      -1.196   3.164   5.088  1.00  0.00     0.037 A 
ATOM     28  C   UNL     1       0.597   9.272   3.692  1.00  0.00     0.049 A 
ATOM     29  C   UNL     1      -1.942   4.462   5.018  1.00  0.00     0.074 A 
ATOM     30  C   UNL     1      -0.198  10.407   3.666  1.00  0.00     0.029 A 
ATOM     31  N   UNL     1      -0.231   8.216   4.043  1.00  0.00    -0.354 N 
ATOM     32  N   UNL     1      -1.494   5.655   4.710  1.00  0.00    -0.248 NA
ATOM     33  C   UNL     1      -3.376   4.418   5.332  1.00  0.00     0.031 C 
ATOM     34  C   UNL     1      -1.499  10.041   4.029  1.00  0.00     0.029 A 
ATOM     35  C   UNL     1      -1.523   8.673   4.244  1.00  0.00     0.049 A 
ATOM     36  H   UNL     1       0.058   7.279   4.135  1.00  0.00     0.167 HD
ATOM     37  C   UNL     1      -2.589   6.503   4.791  1.00  0.00     0.074 A 
ATOM     38  C   UNL     1      -3.729   5.681   5.144  1.00  0.00     0.031 C 
ATOM     39  C   UNL     1      -2.643   7.843   4.602  1.00  0.00     0.037 A 
BRANCH  26  40
ATOM     40  C   UNL     1       2.757  10.402   3.047  1.00  0.00     0.057 A 
ATOM     41  C   UNL     1       3.165  10.654   1.731  1.00  0.00     0.134 A 
ATOM     42  C   UNL     1       3.024  11.387   4.006  1.00  0.00     0.134 A 
ATOM     43  F   UNL     1       2.950   9.746   0.767  1.00  0.00    -0.206 F 
ATOM     44  C   UNL     1       3.823  11.836   1.385  1.00  0.00     0.040 A 
ATOM     45  C   UNL     1       3.663  12.581   3.668  1.00  0.00     0.040 A 
ATOM     46  F   UNL     1       2.654  11.211   5.283  1.00  0.00    -0.206 F 
ATOM     47  C   UNL     1       4.067  12.807   2.354  1.00  0.00     0.006 A 
ENDBRANCH  26  40
BRANCH  27  48
ATOM     48  C   UNL     1      -1.887   1.901   5.448  1.00  0.00     0.057 A 
ATOM     49  C   UNL     1      -2.801   1.300   4.577  1.00  0.00     0.134 A 
ATOM     50  C   UNL     1      -1.635   1.261   6.667  1.00  0.00     0.134 A 
ATOM     51  F   UNL     1      -3.094   1.875   3.401  1.00  0.00    -0.206 F 
ATOM     52  C   UNL     1      -3.453   0.112   4.912  1.00  0.00     0.040 A 
ATOM     53  C   UNL     1      -2.259   0.060   7.003  1.00  0.00     0.040 A 
ATOM     54  F   UNL     1      -0.761   1.784   7.539  1.00  0.00    -0.206 F 
ATOM     55  C   UNL     1      -3.177  -0.515   6.126  1.00  0.00     0.006 A 
ENDBRANCH  27  48
BRANCH  39  56
ATOM     56  C   UNL     1      -3.984   8.492   4.769  1.00  0.00     0.057 A 
ATOM     57  C   UNL     1      -4.557   8.677   6.034  1.00  0.00     0.134 A 
ATOM     58  C   UNL     1      -4.706   8.940   3.657  1.00  0.00     0.134 A 
ATOM     59  F   UNL     1      -3.920   8.254   7.136  1.00  0.00    -0.206 F 
ATOM     60  C   UNL     1      -5.815   9.260   6.184  1.00  0.00     0.040 A 
ATOM     61  C   UNL     1      -5.956   9.545   3.796  1.00  0.00     0.040 A 
ATOM     62  F   UNL     1      -4.210   8.797   2.419  1.00  0.00    -0.206 F 
ATOM     63  C   UNL     1      -6.517   9.699   5.063  1.00  0.00     0.006 A 
ENDBRANCH  39  56
ENDBRANCH  13  14
ENDBRANCH   6   8
ENDBRANCH   3   4
ENDBRANCH   2   3
ENDBRANCH   1   2
BRANCH   1  64
ATOM     64  C   UNL     1       9.415   0.581  -2.164  1.00  0.00     0.116 C 
BRANCH  64  65
ATOM     65  N   UNL     1       8.425   0.784  -3.208  1.00  0.00    -0.352 N 
ATOM     66  C   UNL     1       8.501   0.504  -4.550  1.00  0.00     0.255 C 
ATOM     67  H   UNL     1       7.576   1.182  -2.910  1.00  0.00     0.163 HD
ATOM     68  O   UNL     1       7.615   0.893  -5.307  1.00  0.00    -0.269 OA
BRANCH  66  69
ATOM     69  C   UNL     1       9.644  -0.253  -5.093  1.00  0.00     0.082 A 
ATOM     70  C   UNL     1       9.973  -1.502  -4.552  1.00  0.00     0.021 A 
ATOM     71  C   UNL     1      10.372   0.255  -6.181  1.00  0.00     0.140 A 
ATOM     72  C   UNL     1      11.077  -2.178  -5.048  1.00  0.00     0.042 A 
ATOM     73  N   UNL     1      11.449  -0.407  -6.660  1.00  0.00    -0.219 NA
ATOM     74  C   UNL     1      11.775  -1.585  -6.084  1.00  0.00     0.131 A 
ATOM     75  Cl  UNL     1      13.181  -2.327  -6.727  1.00  0.00    -0.062 Cl
BRANCH  71  76
ATOM     76  N   UNL     1      10.060   1.491  -6.717  1.00  0.00    -0.367 N 
ATOM     77  H   UNL     1       9.295   1.986  -6.344  1.00  0.00     0.162 HD
BRANCH  76  78
ATOM     78  C   UNL     1      10.811   2.094  -7.805  1.00  0.00     0.152 C 
BRANCH  78  79
ATOM     79  C   UNL     1      10.029   2.053  -9.144  1.00  0.00     0.192 C 
ATOM     80  C   UNL     1      10.546   0.930 -10.096  1.00  0.00     0.296 C 
ATOM     81  O   UNL     1      10.037   3.376  -9.720  1.00  0.00    -0.364 OA
ATOM     82  N   UNL     1      10.919   1.300 -11.467  1.00  0.00    -0.328 N 
ATOM     83  C   UNL     1      11.232   3.608 -10.462  1.00  0.00     0.225 C 
ATOM     84  C   UNL     1      11.999   0.487 -12.028  1.00  0.00     0.262 C 
ATOM     85  C   UNL     1      11.224   2.720 -11.701  1.00  0.00     0.210 C 
ATOM     86  H   UNL     1      10.049   1.101 -11.960  1.00  0.00     0.348 HD
ATOM     87  C   UNL     1      12.608   1.376 -13.099  1.00  0.00     0.068 C 
ATOM     88  C   UNL     1      12.548   2.748 -12.457  1.00  0.00     0.073 C 
ENDBRANCH  78  79
ENDBRANCH  76  78
ENDBRANCH  71  76
ENDBRANCH  66  69
ENDBRANCH  64  65
ENDBRANCH   1  64
TORSDOF 14
