REMARK SMILES C[C@@H](C(=O)NCCCCNC(=O)c1ccc(-c2c3nc(c(-c4c(F)cccc4F)c4ccc([nH]4)c(-c4c(F)cccc4F)c4nc(c(-c5c(F)cccc5F)c5ccc2[nH]5)C=C4)C=C3)cc1)c1ccc(-c2ccccc2)c(F)c1
REMARK SMILES IDX 7 1 6 2 5 3 3 4 4 5 2 7 1 8 67 9 68 10 79 11 69 12 77 13
REMARK SMILES IDX 70 14 78 15 71 16 72 17 76 18 73 19 75 20 74 21 8 22 9 23
REMARK SMILES IDX 10 24 11 25 12 27 13 28 14 29 66 30 15 31 65 32 16 33 17 34
REMARK SMILES IDX 18 35 59 36 19 37 64 38 58 39 60 40 20 41 63 42 57 43 56 44
REMARK SMILES IDX 21 46 47 47 30 48 46 49 31 50 34 51 45 52 61 53 32 54 33 55
REMARK SMILES IDX 44 57 62 58 35 59 22 60 23 61 28 62 24 63 25 64 27 65 29 66
REMARK SMILES IDX 26 67 48 68 49 69 54 70 50 71 51 72 53 73 55 74 52 75 36 76
REMARK SMILES IDX 37 77 42 78 38 79 39 80 41 81 43 82 40 83
REMARK H PARENT 5 6 10 26 60 45 34 56
REMARK Flexibility Score: inf
ROOT
ATOM      1  C   UNL     1       4.216  -0.803  -0.783  1.00  0.00     0.023 C 
ENDROOT
BRANCH   1   2
ATOM      2  C   UNL     1       3.393   0.031  -1.767  1.00  0.00     0.116 C 
BRANCH   2   3
ATOM      3  N   UNL     1       2.366  -0.762  -2.410  1.00  0.00    -0.356 N 
ATOM      4  C   UNL     1       1.016  -0.802  -2.209  1.00  0.00     0.227 C 
ATOM      5  O   UNL     1       0.391  -1.607  -2.902  1.00  0.00    -0.274 OA
ATOM      6  H   UNL     1       2.696  -1.373  -3.108  1.00  0.00     0.163 HD
BRANCH   4   7
ATOM      7  C   UNL     1       0.351   0.147  -1.195  1.00  0.00     0.105 C 
ATOM      8  C   UNL     1       0.734  -0.175   0.252  1.00  0.00     0.023 C 
BRANCH   7   9
ATOM      9  C   UNL     1      -1.175   0.168  -1.277  1.00  0.00    -0.033 A 
ATOM     10  C   UNL     1      -1.861   1.388  -1.357  1.00  0.00     0.005 A 
ATOM     11  C   UNL     1      -1.928  -1.010  -1.175  1.00  0.00     0.044 A 
ATOM     12  C   UNL     1      -3.261   1.425  -1.328  1.00  0.00     0.012 A 
ATOM     13  C   UNL     1      -3.320  -0.965  -1.152  1.00  0.00     0.131 A 
ATOM     14  C   UNL     1      -4.020   0.247  -1.216  1.00  0.00     0.017 A 
ATOM     15  F   UNL     1      -3.984  -2.128  -1.050  1.00  0.00    -0.206 F 
BRANCH  14  16
ATOM     16  C   UNL     1      -5.490   0.294  -1.144  1.00  0.00    -0.015 A 
ATOM     17  C   UNL     1      -6.244   0.993  -2.102  1.00  0.00     0.009 A 
ATOM     18  C   UNL     1      -6.184  -0.355  -0.108  1.00  0.00     0.009 A 
ATOM     19  C   UNL     1      -7.639   1.039  -2.027  1.00  0.00     0.001 A 
ATOM     20  C   UNL     1      -7.578  -0.308  -0.030  1.00  0.00     0.001 A 
ATOM     21  C   UNL     1      -8.305   0.389  -0.991  1.00  0.00     0.000 A 
ENDBRANCH  14  16
ENDBRANCH   7   9
ENDBRANCH   4   7
ENDBRANCH   2   3
ENDBRANCH   1   2
BRANCH   1  22
ATOM     22  C   UNL     1       4.995  -1.964  -1.408  1.00  0.00     0.023 C 
BRANCH  22  23
ATOM     23  C   UNL     1       5.949  -1.585  -2.536  1.00  0.00     0.116 C 
BRANCH  23  24
ATOM     24  N   UNL     1       6.954  -0.614  -2.128  1.00  0.00    -0.352 N 
ATOM     25  C   UNL     1       8.313  -0.631  -2.333  1.00  0.00     0.251 C 
ATOM     26  H   UNL     1       6.612   0.166  -1.635  1.00  0.00     0.163 HD
ATOM     27  O   UNL     1       9.027   0.220  -1.811  1.00  0.00    -0.269 OA
BRANCH  25  28
ATOM     28  C   UNL     1       8.919  -1.704  -3.149  1.00  0.00     0.039 A 
ATOM     29  C   UNL     1      10.006  -2.410  -2.628  1.00  0.00     0.014 A 
ATOM     30  C   UNL     1       8.395  -2.036  -4.401  1.00  0.00     0.014 A 
ATOM     31  C   UNL     1      10.506  -3.516  -3.320  1.00  0.00     0.010 A 
ATOM     32  C   UNL     1       8.857  -3.171  -5.061  1.00  0.00     0.010 A 
ATOM     33  C   UNL     1       9.899  -3.936  -4.514  1.00  0.00    -0.014 A 
BRANCH  33  34
ATOM     34  C   UNL     1      10.286  -5.212  -5.168  1.00  0.00     0.031 A 
ATOM     35  C   UNL     1      10.911  -5.214  -6.533  1.00  0.00     0.074 A 
ATOM     36  C   UNL     1       9.975  -6.377  -4.564  1.00  0.00     0.049 A 
ATOM     37  N   UNL     1      11.204  -6.230  -7.303  1.00  0.00    -0.248 NA
ATOM     38  C   UNL     1      11.227  -3.902  -7.120  1.00  0.00     0.031 C 
ATOM     39  C   UNL     1       9.319  -6.507  -3.260  1.00  0.00     0.029 A 
ATOM     40  N   UNL     1      10.143  -7.675  -4.980  1.00  0.00    -0.354 N 
ATOM     41  C   UNL     1      11.722  -5.684  -8.469  1.00  0.00     0.074 A 
ATOM     42  C   UNL     1      11.677  -4.245  -8.320  1.00  0.00     0.031 C 
ATOM     43  C   UNL     1       9.142  -7.809  -2.984  1.00  0.00     0.029 A 
ATOM     44  C   UNL     1       9.632  -8.604  -4.105  1.00  0.00     0.049 A 
ATOM     45  H   UNL     1      10.588  -7.917  -5.824  1.00  0.00     0.167 HD
ATOM     46  C   UNL     1      12.204  -6.328  -9.558  1.00  0.00     0.037 A 
ATOM     47  C   UNL     1       9.544  -9.944  -4.205  1.00  0.00     0.037 A 
ATOM     48  C   UNL     1      12.280  -7.759  -9.691  1.00  0.00     0.049 A 
ATOM     49  C   UNL     1      10.076 -10.627  -5.433  1.00  0.00     0.074 A 
ATOM     50  C   UNL     1      12.846  -8.499 -10.715  1.00  0.00     0.029 A 
ATOM     51  N   UNL     1      11.767  -8.666  -8.777  1.00  0.00    -0.354 N 
ATOM     52  N   UNL     1      10.646 -10.101  -6.489  1.00  0.00    -0.248 NA
ATOM     53  C   UNL     1       9.948 -12.091  -5.486  1.00  0.00     0.031 C 
ATOM     54  C   UNL     1      12.633  -9.855 -10.444  1.00  0.00     0.029 A 
ATOM     55  C   UNL     1      11.970  -9.959  -9.232  1.00  0.00     0.049 A 
ATOM     56  H   UNL     1      11.323  -8.428  -7.931  1.00  0.00     0.167 HD
ATOM     57  C   UNL     1      10.958 -11.166  -7.322  1.00  0.00     0.074 A 
ATOM     58  C   UNL     1      10.534 -12.371  -6.641  1.00  0.00     0.031 C 
ATOM     59  C   UNL     1      11.540 -11.148  -8.545  1.00  0.00     0.037 A 
BRANCH  46  60
ATOM     60  C   UNL     1      12.700  -5.496 -10.702  1.00  0.00     0.057 A 
ATOM     61  C   UNL     1      13.921  -4.814 -10.641  1.00  0.00     0.134 A 
ATOM     62  C   UNL     1      11.989  -5.446 -11.907  1.00  0.00     0.134 A 
ATOM     63  F   UNL     1      14.646  -4.817  -9.512  1.00  0.00    -0.206 F 
ATOM     64  C   UNL     1      14.414  -4.103 -11.737  1.00  0.00     0.040 A 
ATOM     65  C   UNL     1      12.481  -4.756 -13.016  1.00  0.00     0.040 A 
ATOM     66  F   UNL     1      10.815  -6.084 -12.033  1.00  0.00    -0.206 F 
ATOM     67  C   UNL     1      13.697  -4.082 -12.932  1.00  0.00     0.006 A 
ENDBRANCH  46  60
BRANCH  47  68
ATOM     68  C   UNL     1       8.910 -10.734  -3.120  1.00  0.00     0.057 A 
ATOM     69  C   UNL     1       9.668 -11.583  -2.306  1.00  0.00     0.134 A 
ATOM     70  C   UNL     1       7.529 -10.684  -2.893  1.00  0.00     0.134 A 
ATOM     71  F   UNL     1      10.992 -11.690  -2.490  1.00  0.00    -0.206 F 
ATOM     72  C   UNL     1       9.073 -12.373  -1.321  1.00  0.00     0.040 A 
ATOM     73  C   UNL     1       6.925 -11.450  -1.895  1.00  0.00     0.040 A 
ATOM     74  F   UNL     1       6.749  -9.886  -3.637  1.00  0.00    -0.206 F 
ATOM     75  C   UNL     1       7.697 -12.305  -1.111  1.00  0.00     0.006 A 
ENDBRANCH  47  68
BRANCH  59  76
ATOM     76  C   UNL     1      11.759 -12.468  -9.220  1.00  0.00     0.057 A 
ATOM     77  C   UNL     1      10.698 -13.187  -9.785  1.00  0.00     0.134 A 
ATOM     78  C   UNL     1      13.046 -13.007  -9.340  1.00  0.00     0.134 A 
ATOM     79  F   UNL     1       9.441 -12.731  -9.689  1.00  0.00    -0.206 F 
ATOM     80  C   UNL     1      10.908 -14.405 -10.433  1.00  0.00     0.040 A 
ATOM     81  C   UNL     1      13.271 -14.212 -10.006  1.00  0.00     0.040 A 
ATOM     82  F   UNL     1      14.105 -12.364  -8.825  1.00  0.00    -0.206 F 
ATOM     83  C   UNL     1      12.199 -14.917 -10.552  1.00  0.00     0.006 A 
ENDBRANCH  59  76
ENDBRANCH  33  34
ENDBRANCH  25  28
ENDBRANCH  23  24
ENDBRANCH  22  23
ENDBRANCH   1  22
TORSDOF 13
