REMARK SMILES C=CC[N@@H+](CC(=O)NCCCCNC(=O)c1ccc(-c2c3nc(c(-c4c(F)cccc4F)c4ccc([nH]4)c(-c4c(F)cccc4F)c4nc(c(-c5c(F)cccc5F)c5ccc2[nH]5)C=C4)C=C3)cc1)C[C@H]1CCC[C@H](C)C1
REMARK SMILES IDX 10 1 9 2 8 3 6 4 7 5 5 7 4 8 3 10 2 11 1 12 70 13 71 14
REMARK SMILES IDX 72 15 77 16 73 17 75 18 74 19 76 20 11 21 12 22 13 23 14 24
REMARK SMILES IDX 15 26 16 27 17 28 69 29 18 30 68 31 19 32 20 33 21 34 62 35
REMARK SMILES IDX 22 36 67 37 61 38 63 39 23 40 66 41 60 42 59 43 24 45 50 46
REMARK SMILES IDX 33 47 49 48 34 49 37 50 48 51 64 52 35 53 36 54 47 56 65 57
REMARK SMILES IDX 38 58 25 59 26 60 31 61 27 62 28 63 30 64 32 65 29 66 51 67
REMARK SMILES IDX 52 68 57 69 53 70 54 71 56 72 58 73 55 74 39 75 40 76 45 77
REMARK SMILES IDX 41 78 42 79 44 80 46 81 43 82
REMARK H PARENT 8 6 4 9 13 25 63 44 37 55
REMARK Flexibility Score: inf
ROOT
ATOM      1  C   UNL     1      -1.567  -1.897   0.616  1.00  0.00     0.023 C 
ENDROOT
BRANCH   1   2
ATOM      2  C   UNL     1      -2.795  -1.677  -0.280  1.00  0.00     0.116 C 
BRANCH   2   3
ATOM      3  N   UNL     1      -3.532  -0.462   0.005  1.00  0.00    -0.351 N 
ATOM      4  C   UNL     1      -3.715   0.680  -0.717  1.00  0.00     0.275 C 
ATOM      5  O   UNL     1      -4.619   1.427  -0.321  1.00  0.00    -0.269 OA
ATOM      6  H   UNL     1      -3.983  -0.462   0.880  1.00  0.00     0.163 HD
BRANCH   4   7
ATOM      7  C   UNL     1      -2.918   1.031  -1.982  1.00  0.00     0.363 C 
BRANCH   7   8
ATOM      8  N   UNL     1      -1.514   1.458  -1.813  1.00  0.00    -0.324 N 
ATOM      9  H   UNL     1      -1.301   1.973  -2.667  1.00  0.00     0.348 HD
BRANCH   8  10
ATOM     10  C   UNL     1      -0.558   0.377  -1.902  1.00  0.00     0.290 C 
BRANCH  10  11
ATOM     11  C   UNL     1       0.904   0.686  -1.833  1.00  0.00     0.025 C 
ATOM     12  C   UNL     1       1.692   0.334  -0.805  1.00  0.00     0.010 C 
ENDBRANCH  10  11
ENDBRANCH   8  10
BRANCH   8  13
ATOM     13  C   UNL     1      -1.222   2.661  -1.029  1.00  0.00     0.266 C 
BRANCH  13  14
ATOM     14  C   UNL     1      -1.728   2.788   0.426  1.00  0.00     0.044 C 
ATOM     15  C   UNL     1      -1.168   1.721   1.365  1.00  0.00     0.009 C 
ATOM     16  C   UNL     1      -1.435   4.173   1.030  1.00  0.00     0.012 C 
ATOM     17  C   UNL     1      -1.767   1.814   2.765  1.00  0.00     0.001 C 
ATOM     18  C   UNL     1      -2.042   4.327   2.440  1.00  0.00    -0.014 C 
ATOM     19  C   UNL     1      -1.566   3.199   3.368  1.00  0.00     0.003 C 
ATOM     20  C   UNL     1      -3.574   4.400   2.400  1.00  0.00     0.007 C 
ENDBRANCH  13  14
ENDBRANCH   8  13
ENDBRANCH   7   8
ENDBRANCH   4   7
ENDBRANCH   2   3
ENDBRANCH   1   2
BRANCH   1  21
ATOM     21  C   UNL     1      -1.838  -1.948   2.110  1.00  0.00     0.023 C 
BRANCH  21  22
ATOM     22  C   UNL     1      -2.530  -3.216   2.550  1.00  0.00     0.116 C 
BRANCH  22  23
ATOM     23  N   UNL     1      -1.771  -4.409   2.194  1.00  0.00    -0.352 N 
ATOM     24  C   UNL     1      -1.294  -5.416   2.997  1.00  0.00     0.251 C 
ATOM     25  H   UNL     1      -1.569  -4.507   1.235  1.00  0.00     0.163 HD
ATOM     26  O   UNL     1      -0.501  -6.235   2.563  1.00  0.00    -0.269 OA
BRANCH  24  27
ATOM     27  C   UNL     1      -1.749  -5.478   4.399  1.00  0.00     0.039 A 
ATOM     28  C   UNL     1      -0.830  -5.779   5.405  1.00  0.00     0.014 A 
ATOM     29  C   UNL     1      -3.079  -5.195   4.712  1.00  0.00     0.014 A 
ATOM     30  C   UNL     1      -1.241  -5.733   6.736  1.00  0.00     0.010 A 
ATOM     31  C   UNL     1      -3.447  -5.013   6.032  1.00  0.00     0.010 A 
ATOM     32  C   UNL     1      -2.542  -5.313   7.058  1.00  0.00    -0.014 A 
BRANCH  32  33
ATOM     33  C   UNL     1      -3.008  -5.229   8.460  1.00  0.00     0.031 A 
ATOM     34  C   UNL     1      -4.179  -6.066   8.899  1.00  0.00     0.074 A 
ATOM     35  C   UNL     1      -2.429  -4.356   9.305  1.00  0.00     0.049 A 
ATOM     36  N   UNL     1      -4.797  -6.083  10.051  1.00  0.00    -0.248 NA
ATOM     37  C   UNL     1      -4.764  -6.972   7.894  1.00  0.00     0.031 C 
ATOM     38  C   UNL     1      -1.331  -3.446   8.967  1.00  0.00     0.029 A 
ATOM     39  N   UNL     1      -2.689  -4.086  10.623  1.00  0.00    -0.354 N 
ATOM     40  C   UNL     1      -5.850  -6.976   9.897  1.00  0.00     0.074 A 
ATOM     41  C   UNL     1      -5.836  -7.423   8.524  1.00  0.00     0.031 C 
ATOM     42  C   UNL     1      -0.989  -2.745  10.060  1.00  0.00     0.029 A 
ATOM     43  C   UNL     1      -1.868  -3.125  11.160  1.00  0.00     0.049 A 
ATOM     44  H   UNL     1      -3.398  -4.537  11.135  1.00  0.00     0.167 HD
ATOM     45  C   UNL     1      -6.728  -7.413  10.829  1.00  0.00     0.037 A 
ATOM     46  C   UNL     1      -1.835  -2.610  12.403  1.00  0.00     0.037 A 
ATOM     47  C   UNL     1      -6.702  -6.995  12.203  1.00  0.00     0.049 A 
ATOM     48  C   UNL     1      -2.809  -3.126  13.426  1.00  0.00     0.074 A 
ATOM     49  C   UNL     1      -7.494  -7.429  13.251  1.00  0.00     0.029 A 
ATOM     50  N   UNL     1      -5.833  -6.045  12.720  1.00  0.00    -0.354 N 
ATOM     51  N   UNL     1      -3.748  -4.031  13.290  1.00  0.00    -0.248 NA
ATOM     52  C   UNL     1      -2.713  -2.556  14.776  1.00  0.00     0.031 C 
ATOM     53  C   UNL     1      -7.136  -6.705  14.392  1.00  0.00     0.029 A 
ATOM     54  C   UNL     1      -6.084  -5.861  14.068  1.00  0.00     0.049 A 
ATOM     55  H   UNL     1      -5.141  -5.572  12.204  1.00  0.00     0.167 HD
ATOM     56  C   UNL     1      -4.337  -4.160  14.542  1.00  0.00     0.074 A 
ATOM     57  C   UNL     1      -3.635  -3.252  15.426  1.00  0.00     0.031 C 
ATOM     58  C   UNL     1      -5.364  -4.956  14.927  1.00  0.00     0.037 A 
BRANCH  45  59
ATOM     59  C   UNL     1      -7.773  -8.397  10.390  1.00  0.00     0.057 A 
ATOM     60  C   UNL     1      -7.447  -9.708  10.014  1.00  0.00     0.134 A 
ATOM     61  C   UNL     1      -9.126  -8.037  10.361  1.00  0.00     0.134 A 
ATOM     62  F   UNL     1      -6.169 -10.115  10.002  1.00  0.00    -0.206 F 
ATOM     63  C   UNL     1      -8.424 -10.614   9.597  1.00  0.00     0.040 A 
ATOM     64  C   UNL     1     -10.115  -8.943   9.976  1.00  0.00     0.040 A 
ATOM     65  F   UNL     1      -9.509  -6.799  10.709  1.00  0.00    -0.206 F 
ATOM     66  C   UNL     1      -9.765 -10.234   9.585  1.00  0.00     0.006 A 
ENDBRANCH  45  59
BRANCH  46  67
ATOM     67  C   UNL     1      -0.831  -1.573  12.755  1.00  0.00     0.057 A 
ATOM     68  C   UNL     1       0.221  -1.856  13.633  1.00  0.00     0.134 A 
ATOM     69  C   UNL     1      -0.900  -0.278  12.227  1.00  0.00     0.134 A 
ATOM     70  F   UNL     1       0.334  -3.074  14.182  1.00  0.00    -0.206 F 
ATOM     71  C   UNL     1       1.155  -0.882  13.995  1.00  0.00     0.040 A 
ATOM     72  C   UNL     1       0.043   0.697  12.559  1.00  0.00     0.040 A 
ATOM     73  F   UNL     1      -1.876   0.053  11.370  1.00  0.00    -0.206 F 
ATOM     74  C   UNL     1       1.069   0.398  13.453  1.00  0.00     0.006 A 
ENDBRANCH  46  67
BRANCH  58  75
ATOM     75  C   UNL     1      -5.765  -4.906  16.371  1.00  0.00     0.057 A 
ATOM     76  C   UNL     1      -6.431  -3.801  16.917  1.00  0.00     0.134 A 
ATOM     77  C   UNL     1      -5.522  -5.998  17.214  1.00  0.00     0.134 A 
ATOM     78  F   UNL     1      -6.683  -2.719  16.165  1.00  0.00    -0.206 F 
ATOM     79  C   UNL     1      -6.819  -3.775  18.257  1.00  0.00     0.040 A 
ATOM     80  C   UNL     1      -5.933  -5.996  18.547  1.00  0.00     0.040 A 
ATOM     81  F   UNL     1      -4.899  -7.092  16.750  1.00  0.00    -0.206 F 
ATOM     82  C   UNL     1      -6.577  -4.879  19.073  1.00  0.00     0.006 A 
ENDBRANCH  58  75
ENDBRANCH  32  33
ENDBRANCH  24  27
ENDBRANCH  22  23
ENDBRANCH  21  22
ENDBRANCH   1  21
TORSDOF 16
