REMARK SMILES COc1ccc([C@@H](CC(=O)NCCCCNC(=O)c2ccc(-c3c4nc(c(-c5c(F)cccc5F)c5ccc([nH]5)c(-c5c(F)cccc5F)c5nc(c(-c6c(F)cccc6F)c6ccc3[nH]6)C=C5)C=C4)cc2)NC(=O)c2ccc(Cl)c([N+](=O)[O-])c2)cc1
REMARK SMILES IDX 12 1 11 2 9 3 10 4 8 6 7 7 6 8 3 9 4 10 87 11 5 12 86 13
REMARK SMILES IDX 2 14 1 15 73 16 74 17 75 19 76 20 77 21 85 22 78 23 81 24
REMARK SMILES IDX 79 25 80 26 82 27 83 28 84 29 13 30 14 31 15 32 16 33 17 34
REMARK SMILES IDX 18 36 19 37 20 38 72 39 21 40 71 41 22 42 23 43 24 44 65 45
REMARK SMILES IDX 25 46 70 47 64 48 66 49 26 50 69 51 63 52 62 53 27 55 53 56
REMARK SMILES IDX 36 57 52 58 37 59 40 60 51 61 67 62 38 63 39 64 50 66 68 67
REMARK SMILES IDX 41 68 28 69 29 70 34 71 30 72 31 73 33 74 35 75 32 76 54 77
REMARK SMILES IDX 55 78 60 79 56 80 57 81 59 82 61 83 58 84 42 85 43 86 48 87
REMARK SMILES IDX 44 88 45 89 47 90 49 91 46 92
REMARK H PARENT 11 5 73 18 16 35 66 54 40 65
REMARK Flexibility Score: inf
ROOT
ATOM      1  C   UNL     1       0.199  -2.254   5.394  1.00  0.00     0.116 C 
ENDROOT
BRANCH   1   2
ATOM      2  N   UNL     1      -0.069  -3.546   5.987  1.00  0.00    -0.356 N 
ATOM      3  C   UNL     1       0.564  -4.724   5.718  1.00  0.00     0.222 C 
ATOM      4  O   UNL     1      -0.027  -5.774   5.978  1.00  0.00    -0.275 OA
ATOM      5  H   UNL     1      -0.788  -3.578   6.659  1.00  0.00     0.163 HD
BRANCH   3   6
ATOM      6  C   UNL     1       1.981  -4.734   5.175  1.00  0.00     0.129 C 
BRANCH   6   7
ATOM      7  C   UNL     1       2.162  -5.230   3.726  1.00  0.00     0.122 C 
BRANCH   7   8
ATOM      8  C   UNL     1       1.897  -4.192   2.639  1.00  0.00    -0.025 A 
ATOM      9  C   UNL     1       1.247  -2.028   0.958  1.00  0.00     0.118 A 
ATOM     10  C   UNL     1       0.464  -3.181   0.954  1.00  0.00     0.047 A 
ATOM     11  C   UNL     1       2.426  -1.993   1.699  1.00  0.00     0.047 A 
ATOM     12  C   UNL     1       0.797  -4.268   1.771  1.00  0.00     0.010 A 
ATOM     13  C   UNL     1       2.749  -3.074   2.531  1.00  0.00     0.010 A 
BRANCH   9  14
ATOM     14  O   UNL     1       0.652  -0.904   0.458  1.00  0.00    -0.497 OA
ATOM     15  C   UNL     1       1.420  -0.171  -0.485  1.00  0.00     0.278 C 
ENDBRANCH   9  14
ENDBRANCH   7   8
BRANCH   7  16
ATOM     16  N   UNL     1       1.476  -6.501   3.487  1.00  0.00    -0.345 N 
ATOM     17  C   UNL     1       1.945  -7.637   2.877  1.00  0.00     0.252 C 
ATOM     18  H   UNL     1       0.547  -6.547   3.810  1.00  0.00     0.164 HD
ATOM     19  O   UNL     1       1.190  -8.511   2.481  1.00  0.00    -0.269 OA
BRANCH  17  20
ATOM     20  C   UNL     1       3.402  -7.794   2.699  1.00  0.00     0.046 A 
ATOM     21  C   UNL     1       3.913  -8.076   1.433  1.00  0.00     0.016 A 
ATOM     22  C   UNL     1       4.259  -7.632   3.789  1.00  0.00     0.101 A 
ATOM     23  C   UNL     1       5.298  -8.116   1.242  1.00  0.00     0.028 A 
ATOM     24  C   UNL     1       5.644  -7.626   3.578  1.00  0.00     0.288 A 
ATOM     25  C   UNL     1       6.176  -7.862   2.306  1.00  0.00     0.118 A 
ATOM     26  Cl  UNL     1       7.857  -7.796   1.926  1.00  0.00    -0.077 Cl
BRANCH  24  27
ATOM     27  N   UNL     1       6.479  -7.264   4.713  1.00  0.00     0.064 N 
ATOM     28  O   UNL     1       7.516  -7.906   4.911  1.00  0.00    -0.258 OA
ATOM     29  O   UNL     1       6.059  -6.346   5.435  1.00  0.00    -0.258 OA
ENDBRANCH  24  27
ENDBRANCH  17  20
ENDBRANCH   7  16
ENDBRANCH   6   7
ENDBRANCH   3   6
ENDBRANCH   1   2
BRANCH   1  30
ATOM     30  C   UNL     1      -0.434  -2.207   4.013  1.00  0.00     0.023 C 
BRANCH  30  31
ATOM     31  C   UNL     1      -1.819  -1.607   3.915  1.00  0.00     0.023 C 
BRANCH  31  32
ATOM     32  C   UNL     1      -1.837  -0.109   4.133  1.00  0.00     0.116 C 
BRANCH  32  33
ATOM     33  N   UNL     1      -1.040   0.655   3.175  1.00  0.00    -0.352 N 
ATOM     34  C   UNL     1      -1.338   1.853   2.565  1.00  0.00     0.251 C 
ATOM     35  H   UNL     1      -0.172   0.260   2.934  1.00  0.00     0.163 HD
ATOM     36  O   UNL     1      -0.566   2.364   1.761  1.00  0.00    -0.269 OA
BRANCH  34  37
ATOM     37  C   UNL     1      -2.650   2.475   2.838  1.00  0.00     0.039 A 
ATOM     38  C   UNL     1      -3.446   2.869   1.762  1.00  0.00     0.014 A 
ATOM     39  C   UNL     1      -3.146   2.520   4.140  1.00  0.00     0.014 A 
ATOM     40  C   UNL     1      -4.780   3.208   1.987  1.00  0.00     0.010 A 
ATOM     41  C   UNL     1      -4.505   2.702   4.338  1.00  0.00     0.010 A 
ATOM     42  C   UNL     1      -5.336   3.065   3.268  1.00  0.00    -0.014 A 
BRANCH  42  43
ATOM     43  C   UNL     1      -6.777   3.309   3.529  1.00  0.00     0.031 A 
ATOM     44  C   UNL     1      -7.183   4.320   4.567  1.00  0.00     0.074 A 
ATOM     45  C   UNL     1      -7.713   2.561   2.912  1.00  0.00     0.049 A 
ATOM     46  N   UNL     1      -8.375   4.609   5.022  1.00  0.00    -0.248 NA
ATOM     47  C   UNL     1      -6.096   5.066   5.222  1.00  0.00     0.031 C 
ATOM     48  C   UNL     1      -7.448   1.487   1.952  1.00  0.00     0.029 A 
ATOM     49  N   UNL     1      -9.081   2.583   3.013  1.00  0.00    -0.354 N 
ATOM     50  C   UNL     1      -8.172   5.537   6.035  1.00  0.00     0.074 A 
ATOM     51  C   UNL     1      -6.744   5.695   6.188  1.00  0.00     0.031 C 
ATOM     52  C   UNL     1      -8.615   0.977   1.528  1.00  0.00     0.029 A 
ATOM     53  C   UNL     1      -9.708   1.656   2.215  1.00  0.00     0.049 A 
ATOM     54  H   UNL     1      -9.568   3.204   3.602  1.00  0.00     0.167 HD
ATOM     55  C   UNL     1      -9.090   6.228   6.750  1.00  0.00     0.037 A 
ATOM     56  C   UNL     1     -11.017   1.382   2.059  1.00  0.00     0.037 A 
ATOM     57  C   UNL     1     -10.509   6.098   6.561  1.00  0.00     0.049 A 
ATOM     58  C   UNL     1     -12.027   2.186   2.829  1.00  0.00     0.074 A 
ATOM     59  C   UNL     1     -11.529   6.813   7.161  1.00  0.00     0.029 A 
ATOM     60  N   UNL     1     -11.107   5.186   5.702  1.00  0.00    -0.354 N 
ATOM     61  N   UNL     1     -11.827   3.131   3.717  1.00  0.00    -0.248 NA
ATOM     62  C   UNL     1     -13.443   1.895   2.569  1.00  0.00     0.031 C 
ATOM     63  C   UNL     1     -12.747   6.297   6.705  1.00  0.00     0.029 A 
ATOM     64  C   UNL     1     -12.485   5.300   5.778  1.00  0.00     0.049 A 
ATOM     65  H   UNL     1     -10.623   4.552   5.125  1.00  0.00     0.167 HD
ATOM     66  C   UNL     1     -13.088   3.560   4.109  1.00  0.00     0.074 A 
ATOM     67  C   UNL     1     -14.046   2.784   3.348  1.00  0.00     0.031 C 
ATOM     68  C   UNL     1     -13.423   4.512   5.016  1.00  0.00     0.037 A 
BRANCH  55  69
ATOM     69  C   UNL     1      -8.572   7.178   7.793  1.00  0.00     0.057 A 
ATOM     70  C   UNL     1      -7.831   8.322   7.459  1.00  0.00     0.134 A 
ATOM     71  C   UNL     1      -8.789   6.930   9.154  1.00  0.00     0.134 A 
ATOM     72  F   UNL     1      -7.571   8.613   6.175  1.00  0.00    -0.206 F 
ATOM     73  C   UNL     1      -7.280   9.150   8.438  1.00  0.00     0.040 A 
ATOM     74  C   UNL     1      -8.275   7.773  10.142  1.00  0.00     0.040 A 
ATOM     75  F   UNL     1      -9.494   5.859   9.549  1.00  0.00    -0.206 F 
ATOM     76  C   UNL     1      -7.505   8.878   9.785  1.00  0.00     0.006 A 
ENDBRANCH  55  69
BRANCH  56  77
ATOM     77  C   UNL     1     -11.435   0.320   1.110  1.00  0.00     0.057 A 
ATOM     78  C   UNL     1     -12.042   0.637  -0.111  1.00  0.00     0.134 A 
ATOM     79  C   UNL     1     -11.201  -1.034   1.380  1.00  0.00     0.134 A 
ATOM     80  F   UNL     1     -12.306   1.915  -0.421  1.00  0.00    -0.206 F 
ATOM     81  C   UNL     1     -12.406  -0.352  -1.026  1.00  0.00     0.040 A 
ATOM     82  C   UNL     1     -11.538  -2.032   0.464  1.00  0.00     0.040 A 
ATOM     83  F   UNL     1     -10.613  -1.403   2.527  1.00  0.00    -0.206 F 
ATOM     84  C   UNL     1     -12.146  -1.691  -0.743  1.00  0.00     0.006 A 
ENDBRANCH  56  77
BRANCH  68  85
ATOM     85  C   UNL     1     -14.885   4.781   5.221  1.00  0.00     0.057 A 
ATOM     86  C   UNL     1     -15.719   3.872   5.883  1.00  0.00     0.134 A 
ATOM     87  C   UNL     1     -15.453   5.989   4.794  1.00  0.00     0.134 A 
ATOM     88  F   UNL     1     -15.240   2.693   6.308  1.00  0.00    -0.206 F 
ATOM     89  C   UNL     1     -17.071   4.145   6.095  1.00  0.00     0.040 A 
ATOM     90  C   UNL     1     -16.796   6.285   5.025  1.00  0.00     0.040 A 
ATOM     91  F   UNL     1     -14.706   6.907   4.163  1.00  0.00    -0.206 F 
ATOM     92  C   UNL     1     -17.611   5.359   5.672  1.00  0.00     0.006 A 
ENDBRANCH  68  85
ENDBRANCH  42  43
ENDBRANCH  34  37
ENDBRANCH  32  33
ENDBRANCH  31  32
ENDBRANCH  30  31
ENDBRANCH   1  30
TORSDOF 17
