REMARK SMILES COc1ccc(-c2ccc(C(=O)NCc3ccc(C(=O)NCCCCNC(=O)c4ccc(-c5c6nc(c(-c7c(F)cccc7F)c7ccc([nH]7)c(-c7c(F)cccc7F)c7nc(c(-c8c(F)cccc8F)c8ccc5[nH]8)C=C7)C=C6)cc4)cc3)o2)c([N+](=O)[O-])c1
REMARK SMILES IDX 22 1 21 2 19 3 20 4 18 6 15 7 16 8 84 9 17 10 83 11 14 12
REMARK SMILES IDX 13 13 11 14 12 15 10 17 7 18 8 19 85 20 9 21 6 22 3 23 4 24
REMARK SMILES IDX 90 25 5 26 86 27 2 28 1 29 87 30 88 31 89 32 23 33 24 34
REMARK SMILES IDX 25 35 26 36 27 37 28 39 29 40 30 41 82 42 31 43 81 44 32 45
REMARK SMILES IDX 33 46 34 47 75 48 35 49 80 50 74 51 76 52 36 53 79 54 73 55
REMARK SMILES IDX 72 56 37 58 63 59 46 60 62 61 47 62 50 63 61 64 77 65 48 66
REMARK SMILES IDX 49 67 60 69 78 70 51 71 38 72 39 73 44 74 40 75 41 76 43 77
REMARK SMILES IDX 45 78 42 79 64 80 65 81 70 82 66 83 67 84 69 85 71 86 68 87
REMARK SMILES IDX 52 88 53 89 58 90 54 91 55 92 57 93 59 94 56 95
REMARK H PARENT 21 5 13 16 26 38 76 57 50 68
REMARK Flexibility Score: inf
ROOT
ATOM      1  C   UNL     1       4.113  -9.929 -11.950  1.00  0.00     0.116 C 
ENDROOT
BRANCH   1   2
ATOM      2  N   UNL     1       2.803  -9.732 -12.541  1.00  0.00    -0.352 N 
ATOM      3  C   UNL     1       1.981  -8.635 -12.602  1.00  0.00     0.251 C 
ATOM      4  O   UNL     1       0.920  -8.750 -13.216  1.00  0.00    -0.269 OA
ATOM      5  H   UNL     1       2.436 -10.534 -12.979  1.00  0.00     0.163 HD
BRANCH   3   6
ATOM      6  C   UNL     1       2.338  -7.314 -12.014  1.00  0.00     0.039 A 
ATOM      7  C   UNL     1       2.965  -4.725 -11.049  1.00  0.00    -0.029 A 
ATOM      8  C   UNL     1       2.121  -4.891 -12.155  1.00  0.00     0.006 A 
ATOM      9  C   UNL     1       3.483  -5.870 -10.434  1.00  0.00     0.006 A 
ATOM     10  C   UNL     1       1.816  -6.171 -12.634  1.00  0.00     0.014 A 
ATOM     11  C   UNL     1       3.131  -7.147 -10.879  1.00  0.00     0.014 A 
BRANCH   7  12
ATOM     12  C   UNL     1       3.336  -3.350 -10.549  1.00  0.00     0.152 C 
BRANCH  12  13
ATOM     13  N   UNL     1       2.173  -2.539 -10.267  1.00  0.00    -0.345 N 
ATOM     14  C   UNL     1       1.542  -2.213  -9.092  1.00  0.00     0.287 C 
ATOM     15  O   UNL     1       0.643  -1.374  -9.190  1.00  0.00    -0.266 OA
ATOM     16  H   UNL     1       1.755  -2.146 -11.068  1.00  0.00     0.164 HD
BRANCH  14  17
ATOM     17  C   UNL     1       1.920  -2.811  -7.824  1.00  0.00     0.192 A 
ATOM     18  C   UNL     1       1.954  -2.860  -5.611  1.00  0.00     0.142 A 
ATOM     19  C   UNL     1       2.637  -3.978  -6.023  1.00  0.00     0.052 A 
ATOM     20  O   UNL     1       1.503  -2.160  -6.685  1.00  0.00    -0.451 OA
ATOM     21  C   UNL     1       2.591  -3.957  -7.437  1.00  0.00     0.057 A 
BRANCH  18  22
ATOM     22  C   UNL     1       1.597  -2.322  -4.315  1.00  0.00     0.095 A 
ATOM     23  C   UNL     1       0.789  -1.452  -1.751  1.00  0.00     0.125 A 
ATOM     24  C   UNL     1      -0.136  -2.010  -2.635  1.00  0.00     0.047 A 
ATOM     25  C   UNL     1       2.123  -1.333  -2.134  1.00  0.00     0.132 A 
ATOM     26  C   UNL     1       0.259  -2.428  -3.908  1.00  0.00     0.023 A 
ATOM     27  C   UNL     1       2.517  -1.767  -3.413  1.00  0.00     0.284 A 
BRANCH  23  28
ATOM     28  O   UNL     1       0.287  -1.107  -0.528  1.00  0.00    -0.497 OA
ATOM     29  C   UNL     1       0.937  -0.017   0.118  1.00  0.00     0.278 C 
ENDBRANCH  23  28
BRANCH  27  30
ATOM     30  N   UNL     1       3.927  -1.633  -3.759  1.00  0.00     0.063 N 
ATOM     31  O   UNL     1       4.219  -1.194  -4.879  1.00  0.00    -0.258 OA
ATOM     32  O   UNL     1       4.750  -1.942  -2.884  1.00  0.00    -0.258 OA
ENDBRANCH  27  30
ENDBRANCH  18  22
ENDBRANCH  14  17
ENDBRANCH  12  13
ENDBRANCH   7  12
ENDBRANCH   3   6
ENDBRANCH   1   2
BRANCH   1  33
ATOM     33  C   UNL     1       3.991 -10.609 -10.584  1.00  0.00     0.023 C 
BRANCH  33  34
ATOM     34  C   UNL     1       3.724 -12.115 -10.657  1.00  0.00     0.023 C 
BRANCH  34  35
ATOM     35  C   UNL     1       4.870 -12.931 -11.241  1.00  0.00     0.116 C 
BRANCH  35  36
ATOM     36  N   UNL     1       6.096 -12.839 -10.463  1.00  0.00    -0.352 N 
ATOM     37  C   UNL     1       7.100 -13.775 -10.355  1.00  0.00     0.251 C 
ATOM     38  H   UNL     1       6.223 -12.007  -9.952  1.00  0.00     0.163 HD
ATOM     39  O   UNL     1       8.034 -13.611  -9.586  1.00  0.00    -0.269 OA
BRANCH  37  40
ATOM     40  C   UNL     1       6.998 -15.009 -11.159  1.00  0.00     0.039 A 
ATOM     41  C   UNL     1       7.051 -16.245 -10.510  1.00  0.00     0.014 A 
ATOM     42  C   UNL     1       6.788 -14.935 -12.538  1.00  0.00     0.014 A 
ATOM     43  C   UNL     1       6.820 -17.414 -11.238  1.00  0.00     0.010 A 
ATOM     44  C   UNL     1       6.500 -16.093 -13.248  1.00  0.00     0.010 A 
ATOM     45  C   UNL     1       6.506 -17.341 -12.604  1.00  0.00    -0.014 A 
BRANCH  45  46
ATOM     46  C   UNL     1       6.187 -18.550 -13.400  1.00  0.00     0.031 A 
ATOM     47  C   UNL     1       7.096 -18.954 -14.525  1.00  0.00     0.074 A 
ATOM     48  C   UNL     1       5.034 -19.211 -13.186  1.00  0.00     0.049 A 
ATOM     49  N   UNL     1       6.910 -19.849 -15.459  1.00  0.00    -0.248 NA
ATOM     50  C   UNL     1       8.371 -18.227 -14.629  1.00  0.00     0.031 C 
ATOM     51  C   UNL     1       4.056 -18.898 -12.143  1.00  0.00     0.029 A 
ATOM     52  N   UNL     1       4.476 -20.270 -13.857  1.00  0.00    -0.354 N 
ATOM     53  C   UNL     1       8.026 -19.770 -16.281  1.00  0.00     0.074 A 
ATOM     54  C   UNL     1       8.869 -18.719 -15.754  1.00  0.00     0.031 C 
ATOM     55  C   UNL     1       3.020 -19.747 -12.243  1.00  0.00     0.029 A 
ATOM     56  C   UNL     1       3.240 -20.635 -13.381  1.00  0.00     0.049 A 
ATOM     57  H   UNL     1       4.920 -20.726 -14.609  1.00  0.00     0.167 HD
ATOM     58  C   UNL     1       8.325 -20.515 -17.370  1.00  0.00     0.037 A 
ATOM     59  C   UNL     1       2.374 -21.565 -13.826  1.00  0.00     0.037 A 
ATOM     60  C   UNL     1       7.502 -21.585 -17.867  1.00  0.00     0.049 A 
ATOM     61  C   UNL     1       2.734 -22.387 -15.033  1.00  0.00     0.074 A 
ATOM     62  C   UNL     1       7.743 -22.435 -18.931  1.00  0.00     0.029 A 
ATOM     63  N   UNL     1       6.281 -21.955 -17.324  1.00  0.00    -0.354 N 
ATOM     64  N   UNL     1       3.809 -22.328 -15.781  1.00  0.00    -0.248 NA
ATOM     65  C   UNL     1       1.761 -23.404 -15.459  1.00  0.00     0.031 C 
ATOM     66  C   UNL     1       6.654 -23.305 -19.050  1.00  0.00     0.029 A 
ATOM     67  C   UNL     1       5.753 -23.018 -18.037  1.00  0.00     0.049 A 
ATOM     68  H   UNL     1       5.854 -21.527 -16.548  1.00  0.00     0.167 HD
ATOM     69  C   UNL     1       3.659 -23.319 -16.741  1.00  0.00     0.074 A 
ATOM     70  C   UNL     1       2.388 -23.965 -16.484  1.00  0.00     0.031 C 
ATOM     71  C   UNL     1       4.500 -23.665 -17.745  1.00  0.00     0.037 A 
BRANCH  58  72
ATOM     72  C   UNL     1       9.596 -20.197 -18.097  1.00  0.00     0.057 A 
ATOM     73  C   UNL     1      10.851 -20.508 -17.558  1.00  0.00     0.134 A 
ATOM     74  C   UNL     1       9.565 -19.596 -19.362  1.00  0.00     0.134 A 
ATOM     75  F   UNL     1      10.949 -21.070 -16.344  1.00  0.00    -0.206 F 
ATOM     76  C   UNL     1      12.032 -20.211 -18.241  1.00  0.00     0.040 A 
ATOM     77  C   UNL     1      10.738 -19.317 -20.065  1.00  0.00     0.040 A 
ATOM     78  F   UNL     1       8.395 -19.277 -19.936  1.00  0.00    -0.206 F 
ATOM     79  C   UNL     1      11.976 -19.619 -19.502  1.00  0.00     0.006 A 
ENDBRANCH  58  72
BRANCH  59  80
ATOM     80  C   UNL     1       1.087 -21.780 -13.120  1.00  0.00     0.057 A 
ATOM     81  C   UNL     1       0.873 -22.930 -12.353  1.00  0.00     0.134 A 
ATOM     82  C   UNL     1       0.044 -20.849 -13.195  1.00  0.00     0.134 A 
ATOM     83  F   UNL     1       1.830 -23.866 -12.259  1.00  0.00    -0.206 F 
ATOM     84  C   UNL     1      -0.338 -23.158 -11.698  1.00  0.00     0.040 A 
ATOM     85  C   UNL     1      -1.165 -21.053 -12.528  1.00  0.00     0.040 A 
ATOM     86  F   UNL     1       0.191 -19.724 -13.909  1.00  0.00    -0.206 F 
ATOM     87  C   UNL     1      -1.360 -22.214 -11.782  1.00  0.00     0.006 A 
ENDBRANCH  59  80
BRANCH  71  88
ATOM     88  C   UNL     1       4.109 -24.827 -18.605  1.00  0.00     0.057 A 
ATOM     89  C   UNL     1       3.138 -24.711 -19.606  1.00  0.00     0.134 A 
ATOM     90  C   UNL     1       4.769 -26.056 -18.477  1.00  0.00     0.134 A 
ATOM     91  F   UNL     1       2.464 -23.563 -19.770  1.00  0.00    -0.206 F 
ATOM     92  C   UNL     1       2.832 -25.782 -20.447  1.00  0.00     0.040 A 
ATOM     93  C   UNL     1       4.486 -27.127 -19.324  1.00  0.00     0.040 A 
ATOM     94  F   UNL     1       5.715 -26.226 -17.541  1.00  0.00    -0.206 F 
ATOM     95  C   UNL     1       3.514 -26.991 -20.313  1.00  0.00     0.006 A 
ENDBRANCH  71  88
ENDBRANCH  45  46
ENDBRANCH  37  40
ENDBRANCH  35  36
ENDBRANCH  34  35
ENDBRANCH  33  34
ENDBRANCH   1  33
TORSDOF 17
