REMARK SMILES Cc1ccccc1OCC(=O)N1C[C@@H](O)C[C@H]1C(=O)NCCCCNC(=O)c1ccc(-c2c3nc(c(-c4c(F)cccc4F)c4ccc([nH]4)c(-c4c(F)cccc4F)c4nc(c(-c5c(F)cccc5F)c5ccc2[nH]5)C=C4)C=C3)cc1
REMARK SMILES IDX 21 1 20 2 18 3 19 4 17 6 12 7 13 8 14 9 16 10 10 11 11 12
REMARK SMILES IDX 9 13 8 14 7 15 1 16 2 17 3 18 4 19 6 20 5 21 15 22 22 24
REMARK SMILES IDX 23 25 24 26 25 27 26 28 27 30 28 31 29 32 81 33 30 34 80 35
REMARK SMILES IDX 31 36 32 37 33 38 74 39 34 40 79 41 73 42 75 43 35 44 78 45
REMARK SMILES IDX 72 46 71 47 36 49 62 50 45 51 61 52 46 53 49 54 60 55 76 56
REMARK SMILES IDX 47 57 48 58 59 60 77 61 50 62 37 63 38 64 43 65 39 66 40 67
REMARK SMILES IDX 42 68 44 69 41 70 63 71 64 72 69 73 65 74 66 75 68 76 70 77
REMARK SMILES IDX 67 78 51 79 52 80 57 81 53 82 54 83 56 84 58 85 55 86
REMARK H PARENT 20 5 15 23 25 29 75 48 49 59
REMARK Flexibility Score: inf
ROOT
ATOM      1  C   UNL     1       1.485   0.037   4.516  1.00  0.00     0.116 C 
ENDROOT
BRANCH   1   2
ATOM      2  N   UNL     1       2.933  -0.011   4.472  1.00  0.00    -0.354 N 
ATOM      3  C   UNL     1       3.865   0.952   4.215  1.00  0.00     0.242 C 
ATOM      4  O   UNL     1       5.034   0.671   4.504  1.00  0.00    -0.273 OA
ATOM      5  H   UNL     1       3.314  -0.899   4.662  1.00  0.00     0.163 HD
BRANCH   3   6
ATOM      6  C   UNL     1       3.497   2.384   3.771  1.00  0.00     0.177 C 
ATOM      7  N   UNL     1       2.615   2.490   2.609  1.00  0.00    -0.325 N 
ATOM      8  C   UNL     1       1.420   3.259   2.899  1.00  0.00     0.152 C 
ATOM      9  C   UNL     1       1.714   3.977   4.214  1.00  0.00     0.136 C 
ATOM     10  C   UNL     1       2.808   3.159   4.896  1.00  0.00     0.069 C 
BRANCH   7  11
ATOM     11  C   UNL     1       3.095   2.163   1.354  1.00  0.00     0.261 C 
ATOM     12  O   UNL     1       4.202   1.638   1.211  1.00  0.00    -0.271 OA
BRANCH  11  13
ATOM     13  C   UNL     1       2.268   2.560   0.123  1.00  0.00     0.329 C 
BRANCH  13  14
ATOM     14  O   UNL     1       0.888   2.298   0.120  1.00  0.00    -0.484 OA
BRANCH  14  15
ATOM     15  C   UNL     1       0.348   1.063  -0.069  1.00  0.00     0.122 A 
ATOM     16  C   UNL     1       2.415  -0.448  -0.495  1.00  0.00     0.048 C 
ATOM     17  C   UNL     1       0.945  -0.177  -0.344  1.00  0.00    -0.009 A 
ATOM     18  C   UNL     1       0.109  -1.317  -0.418  1.00  0.00     0.007 A 
ATOM     19  C   UNL     1      -1.271  -1.240  -0.236  1.00  0.00     0.001 A 
ATOM     20  C   UNL     1      -1.052   1.124   0.080  1.00  0.00     0.047 A 
ATOM     21  C   UNL     1      -1.857  -0.010   0.005  1.00  0.00     0.004 A 
ENDBRANCH  14  15
ENDBRANCH  13  14
ENDBRANCH  11  13
ENDBRANCH   7  11
BRANCH   9  22
ATOM     22  O   UNL     1       0.562   4.083   5.037  1.00  0.00    -0.391 OA
ATOM     23  H   UNL     1       0.226   3.196   5.239  1.00  0.00     0.211 HD
ENDBRANCH   9  22
ENDBRANCH   3   6
ENDBRANCH   1   2
BRANCH   1  24
ATOM     24  C   UNL     1       0.820  -0.559   3.280  1.00  0.00     0.023 C 
BRANCH  24  25
ATOM     25  C   UNL     1       1.097  -2.042   3.040  1.00  0.00     0.023 C 
BRANCH  25  26
ATOM     26  C   UNL     1       0.493  -2.977   4.076  1.00  0.00     0.116 C 
BRANCH  26  27
ATOM     27  N   UNL     1      -0.918  -3.280   3.883  1.00  0.00    -0.352 N 
ATOM     28  C   UNL     1      -1.796  -3.977   4.703  1.00  0.00     0.251 C 
ATOM     29  H   UNL     1      -1.309  -2.938   3.046  1.00  0.00     0.163 HD
ATOM     30  O   UNL     1      -2.937  -4.188   4.327  1.00  0.00    -0.269 OA
BRANCH  28  31
ATOM     31  C   UNL     1      -1.397  -4.324   6.096  1.00  0.00     0.039 A 
ATOM     32  C   UNL     1      -2.345  -4.118   7.108  1.00  0.00     0.014 A 
ATOM     33  C   UNL     1      -0.078  -4.604   6.436  1.00  0.00     0.014 A 
ATOM     34  C   UNL     1      -1.915  -3.893   8.412  1.00  0.00     0.010 A 
ATOM     35  C   UNL     1       0.366  -4.272   7.699  1.00  0.00     0.010 A 
ATOM     36  C   UNL     1      -0.546  -3.830   8.660  1.00  0.00    -0.014 A 
BRANCH  36  37
ATOM     37  C   UNL     1       0.024  -3.148   9.815  1.00  0.00     0.031 A 
ATOM     38  C   UNL     1       0.695  -3.908  10.887  1.00  0.00     0.074 A 
ATOM     39  C   UNL     1       0.015  -1.795   9.836  1.00  0.00     0.049 A 
ATOM     40  N   UNL     1       0.949  -3.426  12.056  1.00  0.00    -0.248 NA
ATOM     41  C   UNL     1       1.057  -5.317  10.761  1.00  0.00     0.031 C 
ATOM     42  C   UNL     1       0.791  -0.911  10.702  1.00  0.00     0.029 A 
ATOM     43  N   UNL     1      -0.886  -0.940   9.184  1.00  0.00    -0.354 N 
ATOM     44  C   UNL     1       1.739  -4.331  12.724  1.00  0.00     0.074 A 
ATOM     45  C   UNL     1       1.657  -5.534  11.937  1.00  0.00     0.031 C 
ATOM     46  C   UNL     1       0.189   0.287  10.750  1.00  0.00     0.029 A 
ATOM     47  C   UNL     1      -1.074   0.164  10.043  1.00  0.00     0.049 A 
ATOM     48  H   UNL     1      -1.303  -1.081   8.304  1.00  0.00     0.167 HD
ATOM     49  C   UNL     1       2.464  -3.897  13.793  1.00  0.00     0.037 A 
ATOM     50  C   UNL     1      -2.295   0.441  10.586  1.00  0.00     0.037 A 
ATOM     51  C   UNL     1       2.004  -2.572  14.220  1.00  0.00     0.049 A 
ATOM     52  C   UNL     1      -2.320   0.401  12.097  1.00  0.00     0.074 A 
ATOM     53  C   UNL     1       2.518  -1.295  14.079  1.00  0.00     0.029 A 
ATOM     54  N   UNL     1       0.697  -2.424  14.678  1.00  0.00    -0.354 N 
ATOM     55  N   UNL     1      -1.400  -0.172  12.824  1.00  0.00    -0.248 NA
ATOM     56  C   UNL     1      -3.393   0.972  12.906  1.00  0.00     0.031 C 
ATOM     57  C   UNL     1       1.473  -0.374  14.360  1.00  0.00     0.029 A 
ATOM     58  C   UNL     1       0.342  -1.090  14.717  1.00  0.00     0.049 A 
ATOM     59  H   UNL     1       0.107  -3.168  14.937  1.00  0.00     0.167 HD
ATOM     60  C   UNL     1      -1.751  -0.100  14.146  1.00  0.00     0.074 A 
ATOM     61  C   UNL     1      -2.992   0.651  14.149  1.00  0.00     0.031 C 
ATOM     62  C   UNL     1      -0.999  -0.688  15.123  1.00  0.00     0.037 A 
BRANCH  49  63
ATOM     63  C   UNL     1       3.722  -4.549  14.345  1.00  0.00     0.057 A 
ATOM     64  C   UNL     1       4.433  -3.932  15.398  1.00  0.00     0.134 A 
ATOM     65  C   UNL     1       4.366  -5.689  13.823  1.00  0.00     0.134 A 
ATOM     66  F   UNL     1       3.961  -2.841  16.018  1.00  0.00    -0.206 F 
ATOM     67  C   UNL     1       5.679  -4.387  15.859  1.00  0.00     0.040 A 
ATOM     68  C   UNL     1       5.592  -6.177  14.301  1.00  0.00     0.040 A 
ATOM     69  F   UNL     1       3.886  -6.383  12.789  1.00  0.00    -0.206 F 
ATOM     70  C   UNL     1       6.265  -5.517  15.312  1.00  0.00     0.006 A 
ENDBRANCH  49  63
BRANCH  50  71
ATOM     71  C   UNL     1      -3.430   0.075   9.702  1.00  0.00     0.057 A 
ATOM     72  C   UNL     1      -3.604   0.790   8.504  1.00  0.00     0.134 A 
ATOM     73  C   UNL     1      -4.080  -1.158   9.808  1.00  0.00     0.134 A 
ATOM     74  F   UNL     1      -3.004   1.979   8.337  1.00  0.00    -0.206 F 
ATOM     75  C   UNL     1      -4.299   0.253   7.417  1.00  0.00     0.040 A 
ATOM     76  C   UNL     1      -4.785  -1.703   8.727  1.00  0.00     0.040 A 
ATOM     77  F   UNL     1      -3.941  -1.910  10.909  1.00  0.00    -0.206 F 
ATOM     78  C   UNL     1      -4.862  -1.015   7.516  1.00  0.00     0.006 A 
ENDBRANCH  50  71
BRANCH  62  79
ATOM     79  C   UNL     1      -1.422  -0.884  16.560  1.00  0.00     0.057 A 
ATOM     80  C   UNL     1      -2.752  -1.039  16.980  1.00  0.00     0.134 A 
ATOM     81  C   UNL     1      -0.452  -1.078  17.569  1.00  0.00     0.134 A 
ATOM     82  F   UNL     1      -3.772  -0.996  16.112  1.00  0.00    -0.206 F 
ATOM     83  C   UNL     1      -3.095  -1.309  18.312  1.00  0.00     0.040 A 
ATOM     84  C   UNL     1      -0.780  -1.400  18.890  1.00  0.00     0.040 A 
ATOM     85  F   UNL     1       0.861  -0.986  17.310  1.00  0.00    -0.206 F 
ATOM     86  C   UNL     1      -2.109  -1.502  19.270  1.00  0.00     0.006 A 
ENDBRANCH  62  79
ENDBRANCH  36  37
ENDBRANCH  28  31
ENDBRANCH  26  27
ENDBRANCH  25  26
ENDBRANCH  24  25
ENDBRANCH   1  24
TORSDOF 16
