REMARK SMILES Cc1coc2c(C)c3oc(=O)c(CC(=O)NCC(=O)N[C@H](C(=O)NCCCCNC(=O)c4ccc(-c5c6nc(c(-c7c(F)cccc7F)c7ccc([nH]7)c(-c7c(F)cccc7F)c7nc(c(-c8c(F)cccc8F)c8ccc5[nH]8)C=C7)C=C6)cc4)C(C)C)c(C)c3cc12
REMARK SMILES IDX 25 1 24 2 22 3 23 4 21 6 20 7 18 8 19 9 17 11 16 12 14 13
REMARK SMILES IDX 15 14 13 16 12 17 1 18 2 19 3 20 93 21 4 22 5 23 92 24 6 25
REMARK SMILES IDX 91 26 7 27 8 28 89 29 9 30 90 31 10 32 11 33 86 34 87 35
REMARK SMILES IDX 88 36 26 37 27 38 28 39 29 40 30 41 31 43 32 44 33 45 85 46
REMARK SMILES IDX 34 47 84 48 35 49 36 50 37 51 78 52 38 53 83 54 77 55 79 56
REMARK SMILES IDX 39 57 82 58 76 59 75 60 40 62 66 63 49 64 65 65 50 66 53 67
REMARK SMILES IDX 64 68 80 69 51 70 52 71 63 73 81 74 54 75 41 76 42 77 47 78
REMARK SMILES IDX 43 79 44 80 46 81 48 82 45 83 67 84 68 85 73 86 69 87 70 88
REMARK SMILES IDX 72 89 74 90 71 91 55 92 56 93 61 94 57 95 58 96 60 97 62 98
REMARK SMILES IDX 59 99
REMARK H PARENT 24 5 20 10 16 15 29 42 79 61 53 72
REMARK Flexibility Score: inf
ROOT
ATOM      1  C   UNL     1       2.820   8.018   4.687  1.00  0.00     0.116 C 
ENDROOT
BRANCH   1   2
ATOM      2  N   UNL     1       3.122   6.446   4.344  1.00  0.00    -0.354 N 
ATOM      3  C   UNL     1       2.761   4.812   3.363  1.00  0.00     0.242 C 
ATOM      4  O   UNL     1       3.541   3.804   3.284  1.00  0.00    -0.273 OA
ATOM      5  H   UNL     1       3.868   6.209   4.941  1.00  0.00     0.163 HD
BRANCH   3   6
ATOM      6  C   UNL     1       1.476   4.360   2.258  1.00  0.00     0.173 C 
BRANCH   6   7
ATOM      7  N   UNL     1       2.295   4.141   1.026  1.00  0.00    -0.343 N 
ATOM      8  C   UNL     1       2.506   4.779  -0.147  1.00  0.00     0.240 C 
ATOM      9  O   UNL     1       3.394   4.320  -0.873  1.00  0.00    -0.273 OA
ATOM     10  H   UNL     1       2.821   3.312   1.086  1.00  0.00     0.164 HD
BRANCH   8  11
ATOM     11  C   UNL     1       1.831   6.096  -0.524  1.00  0.00     0.216 C 
BRANCH  11  12
ATOM     12  N   UNL     1       0.482   6.313  -0.043  1.00  0.00    -0.347 N 
ATOM     13  C   UNL     1       0.069   7.015   1.046  1.00  0.00     0.225 C 
ATOM     14  O   UNL     1      -1.134   7.050   1.308  1.00  0.00    -0.275 OA
ATOM     15  H   UNL     1      -0.233   5.896  -0.577  1.00  0.00     0.164 HD
BRANCH  13  16
ATOM     16  C   UNL     1       1.093   7.660   1.961  1.00  0.00     0.143 C 
BRANCH  16  17
ATOM     17  C   UNL     1       1.765   6.675   2.896  1.00  0.00     0.051 A 
ATOM     18  C   UNL     1       1.075   1.521   8.272  1.00  0.00     0.048 C 
ATOM     19  C   UNL     1       2.386   2.089   7.875  1.00  0.00    -0.005 A 
ATOM     20  C   UNL     1       3.618   1.542   8.156  1.00  0.00     0.199 A 
ATOM     21  C   UNL     1       2.627   3.243   7.041  1.00  0.00     0.024 A 
ATOM     22  O   UNL     1       4.602   2.225   7.541  1.00  0.00    -0.464 OA
ATOM     23  C   UNL     1       4.032   3.227   6.802  1.00  0.00     0.140 A 
ATOM     24  C   UNL     1       1.695   4.178   6.443  1.00  0.00     0.024 A 
ATOM     25  C   UNL     1       4.820   4.006   5.933  1.00  0.00     0.036 A 
ATOM     26  C   UNL     1       2.193   4.979   5.448  1.00  0.00     0.022 A 
ATOM     27  C   UNL     1       6.265   3.856   5.656  1.00  0.00     0.052 C 
ATOM     28  C   UNL     1       3.926   4.793   5.258  1.00  0.00     0.145 A 
ATOM     29  C   UNL     1       1.131   5.987   4.220  1.00  0.00    -0.029 A 
ATOM     30  O   UNL     1       4.615   5.583   3.717  1.00  0.00    -0.422 OA
ATOM     31  C   UNL     1      -0.303   6.203   4.613  1.00  0.00     0.046 C 
ATOM     32  C   UNL     1       3.679   6.508   2.466  1.00  0.00     0.340 A 
ATOM     33  O   UNL     1       4.245   7.085   1.552  1.00  0.00    -0.246 OA
ENDBRANCH  16  17
ENDBRANCH  13  16
ENDBRANCH  11  12
ENDBRANCH   8  11
ENDBRANCH   6   7
BRANCH   6  34
ATOM     34  C   UNL     1       0.791   2.969   2.546  1.00  0.00     0.015 C 
ATOM     35  C   UNL     1      -0.199   2.952   3.708  1.00  0.00     0.010 C 
ATOM     36  C   UNL     1      -0.017   2.502   1.315  1.00  0.00     0.010 C 
ENDBRANCH   6  34
ENDBRANCH   3   6
ENDBRANCH   1   2
BRANCH   1  37
ATOM     37  C   UNL     1       1.893   8.409   5.843  1.00  0.00     0.023 C 
BRANCH  37  38
ATOM     38  C   UNL     1       2.564   8.860   7.148  1.00  0.00     0.023 C 
BRANCH  38  39
ATOM     39  C   UNL     1       3.631   9.951   7.059  1.00  0.00     0.116 C 
BRANCH  39  40
ATOM     40  N   UNL     1       3.228  11.128   6.299  1.00  0.00    -0.352 N 
ATOM     41  C   UNL     1       4.054  12.021   5.640  1.00  0.00     0.251 C 
ATOM     42  H   UNL     1       2.262  11.307   6.248  1.00  0.00     0.163 HD
ATOM     43  O   UNL     1       3.661  13.132   5.311  1.00  0.00    -0.269 OA
BRANCH  41  44
ATOM     44  C   UNL     1       5.437  11.603   5.351  1.00  0.00     0.039 A 
ATOM     45  C   UNL     1       6.514  12.297   5.893  1.00  0.00     0.014 A 
ATOM     46  C   UNL     1       5.638  10.433   4.623  1.00  0.00     0.014 A 
ATOM     47  C   UNL     1       7.788  11.738   5.796  1.00  0.00     0.010 A 
ATOM     48  C   UNL     1       6.884   9.827   4.621  1.00  0.00     0.010 A 
ATOM     49  C   UNL     1       7.975  10.473   5.204  1.00  0.00    -0.014 A 
BRANCH  49  50
ATOM     50  C   UNL     1       9.299   9.840   5.293  1.00  0.00     0.031 A 
ATOM     51  C   UNL     1       9.989   9.899   6.623  1.00  0.00     0.074 A 
ATOM     52  C   UNL     1       9.898   9.092   4.342  1.00  0.00     0.049 A 
ATOM     53  N   UNL     1      11.070  10.541   6.932  1.00  0.00    -0.248 NA
ATOM     54  C   UNL     1       9.380   9.184   7.753  1.00  0.00     0.031 C 
ATOM     55  C   UNL     1       9.365   8.581   3.077  1.00  0.00     0.029 A 
ATOM     56  N   UNL     1      11.163   8.575   4.372  1.00  0.00    -0.354 N 
ATOM     57  C   UNL     1      11.372  10.203   8.252  1.00  0.00     0.074 A 
ATOM     58  C   UNL     1      10.250   9.437   8.734  1.00  0.00     0.031 C 
ATOM     59  C   UNL     1      10.221   7.671   2.562  1.00  0.00     0.029 A 
ATOM     60  C   UNL     1      11.434   7.675   3.357  1.00  0.00     0.049 A 
ATOM     61  H   UNL     1      11.825   8.821   5.058  1.00  0.00     0.167 HD
ATOM     62  C   UNL     1      12.593  10.458   8.807  1.00  0.00     0.037 A 
ATOM     63  C   UNL     1      12.577   6.980   3.168  1.00  0.00     0.037 A 
ATOM     64  C   UNL     1      13.344  11.405   8.027  1.00  0.00     0.049 A 
ATOM     65  C   UNL     1      13.669   7.702   3.859  1.00  0.00     0.074 A 
ATOM     66  C   UNL     1      13.168  12.716   7.631  1.00  0.00     0.029 A 
ATOM     67  N   UNL     1      14.385  10.934   7.269  1.00  0.00    -0.354 N 
ATOM     68  N   UNL     1      14.138   8.860   3.489  1.00  0.00    -0.248 NA
ATOM     69  C   UNL     1      14.048   7.276   5.197  1.00  0.00     0.031 C 
ATOM     70  C   UNL     1      13.767  12.797   6.338  1.00  0.00     0.029 A 
ATOM     71  C   UNL     1      14.279  11.532   6.042  1.00  0.00     0.049 A 
ATOM     72  H   UNL     1      15.075  10.291   7.552  1.00  0.00     0.167 HD
ATOM     73  C   UNL     1      14.518   9.483   4.666  1.00  0.00     0.074 A 
ATOM     74  C   UNL     1      14.571   8.414   5.656  1.00  0.00     0.031 C 
ATOM     75  C   UNL     1      14.489  10.842   4.790  1.00  0.00     0.037 A 
BRANCH  62  76
ATOM     76  C   UNL     1      13.253   9.648   9.900  1.00  0.00     0.057 A 
ATOM     77  C   UNL     1      14.439  10.123  10.498  1.00  0.00     0.134 A 
ATOM     78  C   UNL     1      12.943   8.305  10.183  1.00  0.00     0.134 A 
ATOM     79  F   UNL     1      14.857  11.383  10.299  1.00  0.00    -0.206 F 
ATOM     80  C   UNL     1      15.286   9.303  11.256  1.00  0.00     0.040 A 
ATOM     81  C   UNL     1      13.756   7.491  10.981  1.00  0.00     0.040 A 
ATOM     82  F   UNL     1      11.894   7.686   9.627  1.00  0.00    -0.206 F 
ATOM     83  C   UNL     1      14.948   7.979  11.494  1.00  0.00     0.006 A 
ENDBRANCH  62  76
BRANCH  63  84
ATOM     84  C   UNL     1      12.745   5.633   2.591  1.00  0.00     0.057 A 
ATOM     85  C   UNL     1      13.987   5.189   2.120  1.00  0.00     0.134 A 
ATOM     86  C   UNL     1      11.746   4.654   2.731  1.00  0.00     0.134 A 
ATOM     87  F   UNL     1      15.012   6.044   1.992  1.00  0.00    -0.206 F 
ATOM     88  C   UNL     1      14.231   3.842   1.829  1.00  0.00     0.040 A 
ATOM     89  C   UNL     1      11.973   3.307   2.435  1.00  0.00     0.040 A 
ATOM     90  F   UNL     1      10.545   4.958   3.245  1.00  0.00    -0.206 F 
ATOM     91  C   UNL     1      13.225   2.894   1.996  1.00  0.00     0.006 A 
ENDBRANCH  63  84
BRANCH  75  92
ATOM     92  C   UNL     1      14.354  11.663   3.539  1.00  0.00     0.057 A 
ATOM     93  C   UNL     1      13.220  11.643   2.715  1.00  0.00     0.134 A 
ATOM     94  C   UNL     1      15.334  12.619   3.248  1.00  0.00     0.134 A 
ATOM     95  F   UNL     1      12.186  10.835   2.978  1.00  0.00    -0.206 F 
ATOM     96  C   UNL     1      13.090  12.505   1.621  1.00  0.00     0.040 A 
ATOM     97  C   UNL     1      15.201  13.507   2.178  1.00  0.00     0.040 A 
ATOM     98  F   UNL     1      16.417  12.738   4.032  1.00  0.00    -0.206 F 
ATOM     99  C   UNL     1      14.080  13.445   1.354  1.00  0.00     0.006 A 
ENDBRANCH  75  92
ENDBRANCH  49  50
ENDBRANCH  41  44
ENDBRANCH  39  40
ENDBRANCH  38  39
ENDBRANCH  37  38
ENDBRANCH   1  37
TORSDOF 17
