REMARK SMILES CC(C)(C)[NH2+]CCC(=O)N1CCO[C@@H](CC(=O)NCCCCNC(=O)c2ccc(-c3c4nc(c(-c5c(F)cccc5F)c5ccc([nH]5)c(-c5c(F)cccc5F)c5nc(c(-c6c(F)cccc6F)c6ccc3[nH]6)C=C5)C=C4)cc2)C1
REMARK SMILES IDX 16 1 17 2 18 3 15 5 14 6 10 7 11 8 80 9 12 10 13 11 8 12
REMARK SMILES IDX 9 13 7 14 6 15 5 16 2 19 1 20 3 21 4 22 19 23 20 24 21 25
REMARK SMILES IDX 22 26 23 27 24 28 25 30 26 31 27 32 79 33 28 34 78 35 29 36
REMARK SMILES IDX 30 37 31 38 72 39 32 40 77 41 71 42 73 43 33 44 76 45 70 46
REMARK SMILES IDX 69 47 34 49 60 50 43 51 59 52 44 53 47 54 58 55 74 56 45 57
REMARK SMILES IDX 46 58 57 60 75 61 48 62 35 63 36 64 41 65 37 66 38 67 40 68
REMARK SMILES IDX 42 69 39 70 61 71 62 72 67 73 63 74 64 75 66 76 68 77 65 78
REMARK SMILES IDX 49 79 50 80 55 81 51 82 52 83 54 84 56 85 53 86
REMARK H PARENT 18 4 5 17 5 18 23 29 73 48 47 59
REMARK Flexibility Score: inf
ROOT
ATOM      1  C   UNL     1      -0.388  -5.011   5.125  1.00  0.00     0.222 C 
ATOM      2  O   UNL     1      -0.392  -4.065   5.913  1.00  0.00    -0.275 OA
ATOM      3  N   UNL     1       0.589  -5.957   5.254  1.00  0.00    -0.356 N 
ATOM      4  H   UNL     1       1.101  -5.912   6.093  1.00  0.00     0.163 HD
ENDROOT
BRANCH   1   5
ATOM      5  C   UNL     1      -1.441  -5.128   4.044  1.00  0.00     0.133 C 
BRANCH   5   6
ATOM      6  C   UNL     1      -1.206  -4.262   2.797  1.00  0.00     0.147 C 
ATOM      7  N   UNL     1       0.428  -4.086   0.857  1.00  0.00    -0.338 N 
ATOM      8  C   UNL     1      -0.625  -4.591  -0.011  1.00  0.00     0.148 C 
ATOM      9  C   UNL     1       0.219  -4.435   2.251  1.00  0.00     0.152 C 
ATOM     10  C   UNL     1      -1.981  -4.154   0.531  1.00  0.00     0.182 C 
ATOM     11  O   UNL     1      -2.194  -4.705   1.837  1.00  0.00    -0.374 OA
BRANCH   7  12
ATOM     12  C   UNL     1       1.740  -4.201   0.391  1.00  0.00     0.228 C 
ATOM     13  O   UNL     1       2.140  -5.177  -0.237  1.00  0.00    -0.275 OA
BRANCH  12  14
ATOM     14  C   UNL     1       2.609  -2.990   0.653  1.00  0.00     0.161 C 
BRANCH  14  15
ATOM     15  C   UNL     1       2.323  -1.896  -0.382  1.00  0.00     0.270 C 
BRANCH  15  16
ATOM     16  N   UNL     1       0.956  -1.369  -0.391  1.00  0.00    -0.342 N 
ATOM     17  H   UNL     1       0.746  -1.100  -1.353  1.00  0.00     0.346 HD
ATOM     18  H   UNL     1       0.399  -2.128   0.002  1.00  0.00     0.346 HD
BRANCH  16  19
ATOM     19  C   UNL     1       0.629  -0.217   0.459  1.00  0.00     0.088 C 
ATOM     20  C   UNL     1       1.409   1.033   0.027  1.00  0.00     0.078 C 
ATOM     21  C   UNL     1       0.852  -0.487   1.952  1.00  0.00     0.078 C 
ATOM     22  C   UNL     1      -0.874   0.050   0.236  1.00  0.00     0.078 C 
ENDBRANCH  16  19
ENDBRANCH  15  16
ENDBRANCH  14  15
ENDBRANCH  12  14
ENDBRANCH   7  12
ENDBRANCH   5   6
ENDBRANCH   1   5
BRANCH   3  23
ATOM     23  C   UNL     1       0.993  -7.022   4.346  1.00  0.00     0.116 C 
BRANCH  23  24
ATOM     24  C   UNL     1       2.217  -6.585   3.531  1.00  0.00     0.023 C 
BRANCH  24  25
ATOM     25  C   UNL     1       3.559  -7.008   4.093  1.00  0.00     0.023 C 
BRANCH  25  26
ATOM     26  C   UNL     1       3.827  -8.494   3.977  1.00  0.00     0.116 C 
BRANCH  26  27
ATOM     27  N   UNL     1       3.852  -8.993   2.606  1.00  0.00    -0.352 N 
ATOM     28  C   UNL     1       4.687  -9.944   2.066  1.00  0.00     0.251 C 
ATOM     29  H   UNL     1       3.190  -8.601   1.992  1.00  0.00     0.163 HD
ATOM     30  O   UNL     1       4.628 -10.243   0.878  1.00  0.00    -0.269 OA
BRANCH  28  31
ATOM     31  C   UNL     1       5.705 -10.557   2.939  1.00  0.00     0.039 A 
ATOM     32  C   UNL     1       7.041 -10.536   2.535  1.00  0.00     0.014 A 
ATOM     33  C   UNL     1       5.349 -11.021   4.207  1.00  0.00     0.014 A 
ATOM     34  C   UNL     1       8.033 -10.899   3.445  1.00  0.00     0.010 A 
ATOM     35  C   UNL     1       6.342 -11.261   5.144  1.00  0.00     0.010 A 
ATOM     36  C   UNL     1       7.693 -11.214   4.771  1.00  0.00    -0.014 A 
BRANCH  36  37
ATOM     37  C   UNL     1       8.730 -11.529   5.782  1.00  0.00     0.031 A 
ATOM     38  C   UNL     1       8.723 -12.874   6.454  1.00  0.00     0.074 A 
ATOM     39  C   UNL     1       9.623 -10.588   6.148  1.00  0.00     0.049 A 
ATOM     40  N   UNL     1       9.485 -13.322   7.418  1.00  0.00    -0.248 NA
ATOM     41  C   UNL     1       7.691 -13.829   6.015  1.00  0.00     0.031 C 
ATOM     42  C   UNL     1       9.684  -9.221   5.625  1.00  0.00     0.029 A 
ATOM     43  N   UNL     1      10.651 -10.640   7.054  1.00  0.00    -0.354 N 
ATOM     44  C   UNL     1       9.004 -14.590   7.717  1.00  0.00     0.074 A 
ATOM     45  C   UNL     1       7.843 -14.813   6.885  1.00  0.00     0.031 C 
ATOM     46  C   UNL     1      10.720  -8.579   6.189  1.00  0.00     0.029 A 
ATOM     47  C   UNL     1      11.376  -9.476   7.135  1.00  0.00     0.049 A 
ATOM     48  H   UNL     1      10.852 -11.438   7.596  1.00  0.00     0.167 HD
ATOM     49  C   UNL     1       9.505 -15.504   8.579  1.00  0.00     0.037 A 
ATOM     50  C   UNL     1      12.453  -9.174   7.883  1.00  0.00     0.037 A 
ATOM     51  C   UNL     1      10.694 -15.300   9.360  1.00  0.00     0.049 A 
ATOM     52  C   UNL     1      13.024 -10.223   8.797  1.00  0.00     0.074 A 
ATOM     53  C   UNL     1      11.334 -16.187  10.205  1.00  0.00     0.029 A 
ATOM     54  N   UNL     1      11.429 -14.124   9.377  1.00  0.00    -0.354 N 
ATOM     55  N   UNL     1      12.602 -11.445   9.016  1.00  0.00    -0.248 NA
ATOM     56  C   UNL     1      14.225  -9.855   9.559  1.00  0.00     0.031 C 
ATOM     57  C   UNL     1      12.443 -15.537  10.757  1.00  0.00     0.029 A 
ATOM     58  C   UNL     1      12.512 -14.258  10.227  1.00  0.00     0.049 A 
ATOM     59  H   UNL     1      11.212 -13.314   8.861  1.00  0.00     0.167 HD
ATOM     60  C   UNL     1      13.498 -12.000   9.920  1.00  0.00     0.074 A 
ATOM     61  C   UNL     1      14.495 -10.986  10.196  1.00  0.00     0.031 C 
ATOM     62  C   UNL     1      13.496 -13.236  10.476  1.00  0.00     0.037 A 
BRANCH  49  63
ATOM     63  C   UNL     1       8.776 -16.809   8.697  1.00  0.00     0.057 A 
ATOM     64  C   UNL     1       8.768 -17.747   7.655  1.00  0.00     0.134 A 
ATOM     65  C   UNL     1       8.075 -17.135   9.864  1.00  0.00     0.134 A 
ATOM     66  F   UNL     1       9.405 -17.487   6.502  1.00  0.00    -0.206 F 
ATOM     67  C   UNL     1       8.064 -18.947   7.756  1.00  0.00     0.040 A 
ATOM     68  C   UNL     1       7.390 -18.345   9.988  1.00  0.00     0.040 A 
ATOM     69  F   UNL     1       8.041 -16.284  10.899  1.00  0.00    -0.206 F 
ATOM     70  C   UNL     1       7.376 -19.251   8.930  1.00  0.00     0.006 A 
ENDBRANCH  49  63
BRANCH  50  71
ATOM     71  C   UNL     1      13.094  -7.839   7.765  1.00  0.00     0.057 A 
ATOM     72  C   UNL     1      14.339  -7.692   7.142  1.00  0.00     0.134 A 
ATOM     73  C   UNL     1      12.487  -6.686   8.274  1.00  0.00     0.134 A 
ATOM     74  F   UNL     1      14.977  -8.764   6.650  1.00  0.00    -0.206 F 
ATOM     75  C   UNL     1      14.967  -6.450   7.046  1.00  0.00     0.040 A 
ATOM     76  C   UNL     1      13.094  -5.433   8.165  1.00  0.00     0.040 A 
ATOM     77  F   UNL     1      11.290  -6.758   8.874  1.00  0.00    -0.206 F 
ATOM     78  C   UNL     1      14.342  -5.314   7.556  1.00  0.00     0.006 A 
ENDBRANCH  50  71
BRANCH  62  79
ATOM     79  C   UNL     1      14.620 -13.566  11.409  1.00  0.00     0.057 A 
ATOM     80  C   UNL     1      14.686 -13.031  12.701  1.00  0.00     0.134 A 
ATOM     81  C   UNL     1      15.626 -14.461  11.024  1.00  0.00     0.134 A 
ATOM     82  F   UNL     1      13.758 -12.159  13.124  1.00  0.00    -0.206 F 
ATOM     83  C   UNL     1      15.726 -13.358  13.572  1.00  0.00     0.040 A 
ATOM     84  C   UNL     1      16.658 -14.814  11.893  1.00  0.00     0.040 A 
ATOM     85  F   UNL     1      15.614 -15.014   9.802  1.00  0.00    -0.206 F 
ATOM     86  C   UNL     1      16.712 -14.257  13.170  1.00  0.00     0.006 A 
ENDBRANCH  62  79
ENDBRANCH  36  37
ENDBRANCH  28  31
ENDBRANCH  26  27
ENDBRANCH  25  26
ENDBRANCH  24  25
ENDBRANCH  23  24
ENDBRANCH   3  23
TORSDOF 17
