REMARK SMILES N#Cc1ccccc1S(=O)(=O)N1CCC(C(=O)NCCCCNC(=O)c2ccc(-c3c4nc(c(-c5c(F)cccc5F)c5ccc([nH]5)c(-c5c(F)cccc5F)c5nc(c(-c6c(F)cccc6F)c6ccc3[nH]6)C=C5)C=C4)cc2)CC1
REMARK SMILES IDX 20 1 19 2 18 3 16 4 17 5 15 7 12 8 13 9 81 10 14 11 80 12
REMARK SMILES IDX 9 13 10 14 11 15 8 16 3 17 4 18 5 19 7 20 6 21 2 22 1 23
REMARK SMILES IDX 21 24 22 25 23 26 24 27 25 29 26 30 27 31 79 32 28 33 78 34
REMARK SMILES IDX 29 35 30 36 31 37 72 38 32 39 77 40 71 41 73 42 33 43 76 44
REMARK SMILES IDX 70 45 69 46 34 48 60 49 43 50 59 51 44 52 47 53 58 54 74 55
REMARK SMILES IDX 45 56 46 57 57 59 75 60 48 61 35 62 36 63 41 64 37 65 38 66
REMARK SMILES IDX 40 67 42 68 39 69 61 70 62 71 67 72 63 73 64 74 66 75 68 76
REMARK SMILES IDX 65 77 49 78 50 79 55 80 51 81 52 82 54 83 56 84 53 85
REMARK H PARENT 18 6 23 28 73 47 47 58
REMARK Flexibility Score: inf
ROOT
ATOM      1  C   UNL     1      -6.875  -4.114   0.814  1.00  0.00     0.023 C 
ENDROOT
BRANCH   1   2
ATOM      2  C   UNL     1      -6.389  -3.416  -0.452  1.00  0.00     0.116 C 
BRANCH   2   3
ATOM      3  N   UNL     1      -6.957  -2.085  -0.583  1.00  0.00    -0.356 N 
ATOM      4  C   UNL     1      -6.359  -0.862  -0.549  1.00  0.00     0.223 C 
ATOM      5  O   UNL     1      -7.076   0.135  -0.642  1.00  0.00    -0.275 OA
ATOM      6  H   UNL     1      -7.932  -2.064  -0.719  1.00  0.00     0.163 HD
BRANCH   4   7
ATOM      7  C   UNL     1      -4.848  -0.735  -0.424  1.00  0.00     0.081 C 
ATOM      8  N   UNL     1      -2.223  -1.994  -0.231  1.00  0.00    -0.198 NA
ATOM      9  C   UNL     1      -2.913  -1.667   1.028  1.00  0.00     0.103 C 
ATOM     10  C   UNL     1      -2.678  -1.490  -1.535  1.00  0.00     0.103 C 
ATOM     11  C   UNL     1      -4.369  -1.272   0.918  1.00  0.00     0.030 C 
ATOM     12  C   UNL     1      -4.173  -1.322  -1.655  1.00  0.00     0.030 C 
BRANCH   8  13
ATOM     13  S   UNL     1      -0.576  -2.368  -0.093  1.00  0.00     0.244 S 
ATOM     14  O   UNL     1      -0.190  -3.022  -1.327  1.00  0.00    -0.207 OA
ATOM     15  O   UNL     1      -0.385  -3.024   1.184  1.00  0.00    -0.207 OA
BRANCH  13  16
ATOM     16  C   UNL     1       0.417  -0.885  -0.017  1.00  0.00     0.100 A 
ATOM     17  C   UNL     1      -0.009   0.444   0.039  1.00  0.00     0.072 A 
ATOM     18  C   UNL     1       0.953   1.475   0.049  1.00  0.00     0.021 A 
ATOM     19  C   UNL     1       2.316   1.198   0.027  1.00  0.00     0.001 A 
ATOM     20  C   UNL     1       1.804  -1.152  -0.031  1.00  0.00     0.023 A 
ATOM     21  C   UNL     1       2.743  -0.121  -0.004  1.00  0.00     0.001 A 
BRANCH  17  22
ATOM     22  C   UNL     1      -1.354   0.916   0.113  1.00  0.00     0.101 C 
ATOM     23  N   UNL     1      -2.405   1.394   0.181  1.00  0.00    -0.192 NA
ENDBRANCH  17  22
ENDBRANCH  13  16
ENDBRANCH   8  13
ENDBRANCH   4   7
ENDBRANCH   2   3
ENDBRANCH   1   2
BRANCH   1  24
ATOM     24  C   UNL     1      -8.374  -4.388   0.834  1.00  0.00     0.023 C 
BRANCH  24  25
ATOM     25  C   UNL     1      -8.896  -5.100  -0.404  1.00  0.00     0.116 C 
BRANCH  25  26
ATOM     26  N   UNL     1      -8.214  -6.362  -0.655  1.00  0.00    -0.352 N 
ATOM     27  C   UNL     1      -8.763  -7.591  -0.925  1.00  0.00     0.251 C 
ATOM     28  H   UNL     1      -7.230  -6.330  -0.628  1.00  0.00     0.163 HD
ATOM     29  O   UNL     1      -8.066  -8.598  -0.960  1.00  0.00    -0.269 OA
BRANCH  27  30
ATOM     30  C   UNL     1     -10.220  -7.681  -1.136  1.00  0.00     0.039 A 
ATOM     31  C   UNL     1     -10.948  -8.631  -0.421  1.00  0.00     0.014 A 
ATOM     32  C   UNL     1     -10.863  -6.778  -1.987  1.00  0.00     0.014 A 
ATOM     33  C   UNL     1     -12.340  -8.630  -0.508  1.00  0.00     0.010 A 
ATOM     34  C   UNL     1     -12.250  -6.719  -1.999  1.00  0.00     0.010 A 
ATOM     35  C   UNL     1     -13.002  -7.648  -1.265  1.00  0.00    -0.014 A 
BRANCH  35  36
ATOM     36  C   UNL     1     -14.483  -7.580  -1.306  1.00  0.00     0.031 A 
ATOM     37  C   UNL     1     -15.207  -7.769  -2.610  1.00  0.00     0.074 A 
ATOM     38  C   UNL     1     -15.169  -7.291  -0.183  1.00  0.00     0.049 A 
ATOM     39  N   UNL     1     -16.488  -7.687  -2.863  1.00  0.00    -0.248 NA
ATOM     40  C   UNL     1     -14.379  -8.060  -3.792  1.00  0.00     0.031 C 
ATOM     41  C   UNL     1     -14.577  -7.036   1.132  1.00  0.00     0.029 A 
ATOM     42  N   UNL     1     -16.518  -7.155   0.030  1.00  0.00    -0.354 N 
ATOM     43  C   UNL     1     -16.616  -7.908  -4.228  1.00  0.00     0.074 A 
ATOM     44  C   UNL     1     -15.281  -8.061  -4.761  1.00  0.00     0.031 C 
ATOM     45  C   UNL     1     -15.557  -6.801   2.018  1.00  0.00     0.029 A 
ATOM     46  C   UNL     1     -16.843  -6.844   1.329  1.00  0.00     0.049 A 
ATOM     47  H   UNL     1     -17.190  -7.268  -0.680  1.00  0.00     0.167 HD
ATOM     48  C   UNL     1     -17.747  -8.005  -4.966  1.00  0.00     0.037 A 
ATOM     49  C   UNL     1     -18.041  -6.611   1.896  1.00  0.00     0.037 A 
ATOM     50  C   UNL     1     -19.074  -7.867  -4.428  1.00  0.00     0.049 A 
ATOM     51  C   UNL     1     -19.281  -6.703   1.049  1.00  0.00     0.074 A 
ATOM     52  C   UNL     1     -20.286  -7.996  -5.082  1.00  0.00     0.029 A 
ATOM     53  N   UNL     1     -19.363  -7.565  -3.105  1.00  0.00    -0.354 N 
ATOM     54  N   UNL     1     -19.393  -6.983  -0.227  1.00  0.00    -0.248 NA
ATOM     55  C   UNL     1     -20.563  -6.453   1.722  1.00  0.00     0.031 C 
ATOM     56  C   UNL     1     -21.307  -7.718  -4.168  1.00  0.00     0.029 A 
ATOM     57  C   UNL     1     -20.734  -7.479  -2.929  1.00  0.00     0.049 A 
ATOM     58  H   UNL     1     -18.693  -7.432  -2.396  1.00  0.00     0.167 HD
ATOM     59  C   UNL     1     -20.755  -6.974  -0.501  1.00  0.00     0.074 A 
ATOM     60  C   UNL     1     -21.429  -6.678   0.745  1.00  0.00     0.031 C 
ATOM     61  C   UNL     1     -21.390  -7.192  -1.679  1.00  0.00     0.037 A 
BRANCH  48  62
ATOM     62  C   UNL     1     -17.595  -8.279  -6.434  1.00  0.00     0.057 A 
ATOM     63  C   UNL     1     -17.130  -9.512  -6.912  1.00  0.00     0.134 A 
ATOM     64  C   UNL     1     -17.951  -7.313  -7.384  1.00  0.00     0.134 A 
ATOM     65  F   UNL     1     -16.758 -10.476  -6.057  1.00  0.00    -0.206 F 
ATOM     66  C   UNL     1     -17.000  -9.764  -8.279  1.00  0.00     0.040 A 
ATOM     67  C   UNL     1     -17.855  -7.565  -8.753  1.00  0.00     0.040 A 
ATOM     68  F   UNL     1     -18.408  -6.112  -6.997  1.00  0.00    -0.206 F 
ATOM     69  C   UNL     1     -17.371  -8.791  -9.204  1.00  0.00     0.006 A 
ENDBRANCH  48  62
BRANCH  49  70
ATOM     70  C   UNL     1     -18.133  -6.279   3.342  1.00  0.00     0.057 A 
ATOM     71  C   UNL     1     -18.726  -7.162   4.252  1.00  0.00     0.134 A 
ATOM     72  C   UNL     1     -17.650  -5.065   3.845  1.00  0.00     0.134 A 
ATOM     73  F   UNL     1     -19.224  -8.333   3.830  1.00  0.00    -0.206 F 
ATOM     74  C   UNL     1     -18.861  -6.838   5.604  1.00  0.00     0.040 A 
ATOM     75  C   UNL     1     -17.751  -4.741   5.199  1.00  0.00     0.040 A 
ATOM     76  F   UNL     1     -17.061  -4.179   3.028  1.00  0.00    -0.206 F 
ATOM     77  C   UNL     1     -18.369  -5.625   6.081  1.00  0.00     0.006 A 
ENDBRANCH  49  70
BRANCH  61  78
ATOM     78  C   UNL     1     -22.892  -7.161  -1.668  1.00  0.00     0.057 A 
ATOM     79  C   UNL     1     -23.609  -5.970  -1.498  1.00  0.00     0.134 A 
ATOM     80  C   UNL     1     -23.628  -8.335  -1.871  1.00  0.00     0.134 A 
ATOM     81  F   UNL     1     -22.966  -4.812  -1.286  1.00  0.00    -0.206 F 
ATOM     82  C   UNL     1     -25.005  -5.953  -1.503  1.00  0.00     0.040 A 
ATOM     83  C   UNL     1     -25.022  -8.326  -1.911  1.00  0.00     0.040 A 
ATOM     84  F   UNL     1     -23.003  -9.509  -2.052  1.00  0.00    -0.206 F 
ATOM     85  C   UNL     1     -25.715  -7.133  -1.719  1.00  0.00     0.006 A 
ENDBRANCH  61  78
ENDBRANCH  35  36
ENDBRANCH  27  30
ENDBRANCH  25  26
ENDBRANCH  24  25
ENDBRANCH   1  24
TORSDOF 14
