REMARK SMILES CC(C)C[C@@H](NC(=O)c1cccnc1)C(=O)NCCCCNC(=O)c1ccc(-c2c3nc(c(-c4c(F)cccc4F)c4ccc([nH]4)c(-c4c(F)cccc4F)c4nc(c(-c5c(F)cccc5F)c5ccc2[nH]5)C=C4)C=C3)cc1
REMARK SMILES IDX 19 1 18 2 17 3 15 4 16 5 5 7 4 8 2 9 1 10 3 11 6 12 7 13
REMARK SMILES IDX 8 15 9 16 10 17 14 18 11 19 13 20 12 21 20 22 21 23 22 24
REMARK SMILES IDX 23 25 24 27 25 28 26 29 78 30 27 31 77 32 28 33 29 34 30 35
REMARK SMILES IDX 71 36 31 37 76 38 70 39 72 40 32 41 75 42 69 43 68 44 33 46
REMARK SMILES IDX 59 47 42 48 58 49 43 50 46 51 57 52 73 53 44 54 45 55 56 57
REMARK SMILES IDX 74 58 47 59 34 60 35 61 40 62 36 63 37 64 39 65 41 66 38 67
REMARK SMILES IDX 60 68 61 69 66 70 62 71 63 72 65 73 67 74 64 75 48 76 49 77
REMARK SMILES IDX 54 78 50 79 51 80 53 81 55 82 52 83
REMARK H PARENT 17 6 6 14 22 26 72 45 46 56
REMARK Flexibility Score: inf
ROOT
ATOM      1  C   UNL     1      -3.385   4.052   1.541  1.00  0.00     0.023 C 
ENDROOT
BRANCH   1   2
ATOM      2  C   UNL     1      -3.079   2.697   2.166  1.00  0.00     0.116 C 
BRANCH   2   3
ATOM      3  N   UNL     1      -3.663   1.623   1.383  1.00  0.00    -0.354 N 
ATOM      4  C   UNL     1      -3.103   0.460   0.944  1.00  0.00     0.242 C 
ATOM      5  O   UNL     1      -3.749  -0.234   0.154  1.00  0.00    -0.273 OA
ATOM      6  H   UNL     1      -4.605   1.754   1.131  1.00  0.00     0.163 HD
BRANCH   4   7
ATOM      7  C   UNL     1      -1.651   0.087   1.312  1.00  0.00     0.171 C 
BRANCH   7   8
ATOM      8  C   UNL     1      -0.772   0.964   0.381  1.00  0.00     0.038 C 
BRANCH   8   9
ATOM      9  C   UNL     1       0.755   0.902   0.545  1.00  0.00    -0.015 C 
ATOM     10  C   UNL     1       1.325  -0.408   0.013  1.00  0.00     0.007 C 
ATOM     11  C   UNL     1       1.383   2.091  -0.195  1.00  0.00     0.007 C 
ENDBRANCH   8   9
ENDBRANCH   7   8
BRANCH   7  12
ATOM     12  N   UNL     1      -1.313   0.236   2.739  1.00  0.00    -0.340 N 
ATOM     13  C   UNL     1      -1.962  -0.213   3.868  1.00  0.00     0.253 C 
ATOM     14  H   UNL     1      -0.486   0.741   2.915  1.00  0.00     0.164 HD
ATOM     15  O   UNL     1      -1.359  -0.250   4.936  1.00  0.00    -0.269 OA
BRANCH  13  16
ATOM     16  C   UNL     1      -3.409  -0.473   3.866  1.00  0.00     0.058 A 
ATOM     17  C   UNL     1      -4.028  -1.452   3.097  1.00  0.00     0.017 A 
ATOM     18  C   UNL     1      -4.208   0.360   4.642  1.00  0.00     0.124 A 
ATOM     19  C   UNL     1      -5.422  -1.494   3.060  1.00  0.00     0.021 A 
ATOM     20  N   UNL     1      -5.564   0.349   4.616  1.00  0.00    -0.264 NA
ATOM     21  C   UNL     1      -6.138  -0.575   3.815  1.00  0.00     0.111 A 
ENDBRANCH  13  16
ENDBRANCH   7  12
ENDBRANCH   4   7
ENDBRANCH   2   3
ENDBRANCH   1   2
BRANCH   1  22
ATOM     22  C   UNL     1      -4.867   4.432   1.581  1.00  0.00     0.023 C 
BRANCH  22  23
ATOM     23  C   UNL     1      -5.494   4.410   2.971  1.00  0.00     0.116 C 
BRANCH  23  24
ATOM     24  N   UNL     1      -4.830   5.320   3.892  1.00  0.00    -0.352 N 
ATOM     25  C   UNL     1      -5.395   6.257   4.722  1.00  0.00     0.251 C 
ATOM     26  H   UNL     1      -3.848   5.255   3.925  1.00  0.00     0.163 HD
ATOM     27  O   UNL     1      -4.695   7.062   5.327  1.00  0.00    -0.269 OA
BRANCH  25  28
ATOM     28  C   UNL     1      -6.863   6.303   4.850  1.00  0.00     0.039 A 
ATOM     29  C   UNL     1      -7.519   7.520   4.657  1.00  0.00     0.014 A 
ATOM     30  C   UNL     1      -7.586   5.136   5.115  1.00  0.00     0.014 A 
ATOM     31  C   UNL     1      -8.913   7.556   4.665  1.00  0.00     0.010 A 
ATOM     32  C   UNL     1      -8.975   5.163   5.060  1.00  0.00     0.010 A 
ATOM     33  C   UNL     1      -9.650   6.373   4.834  1.00  0.00    -0.014 A 
BRANCH  33  34
ATOM     34  C   UNL     1     -11.132   6.381   4.777  1.00  0.00     0.031 A 
ATOM     35  C   UNL     1     -11.933   6.047   6.003  1.00  0.00     0.074 A 
ATOM     36  C   UNL     1     -11.752   6.626   3.607  1.00  0.00     0.049 A 
ATOM     37  N   UNL     1     -13.230   5.943   6.139  1.00  0.00    -0.248 NA
ATOM     38  C   UNL     1     -11.173   5.769   7.232  1.00  0.00     0.031 C 
ATOM     39  C   UNL     1     -11.083   6.912   2.337  1.00  0.00     0.029 A 
ATOM     40  N   UNL     1     -13.088   6.662   3.296  1.00  0.00    -0.354 N 
ATOM     41  C   UNL     1     -13.441   5.575   7.461  1.00  0.00     0.074 A 
ATOM     42  C   UNL     1     -12.138   5.425   8.072  1.00  0.00     0.031 C 
ATOM     43  C   UNL     1     -12.012   7.112   1.387  1.00  0.00     0.029 A 
ATOM     44  C   UNL     1     -13.337   6.939   1.974  1.00  0.00     0.049 A 
ATOM     45  H   UNL     1     -13.800   6.505   3.957  1.00  0.00     0.167 HD
ATOM     46  C   UNL     1     -14.614   5.401   8.113  1.00  0.00     0.037 A 
ATOM     47  C   UNL     1     -14.504   7.038   1.310  1.00  0.00     0.037 A 
ATOM     48  C   UNL     1     -15.909   5.573   7.509  1.00  0.00     0.049 A 
ATOM     49  C   UNL     1     -15.794   6.848   2.057  1.00  0.00     0.074 A 
ATOM     50  C   UNL     1     -17.156   5.474   8.100  1.00  0.00     0.029 A 
ATOM     51  N   UNL     1     -16.121   5.879   6.174  1.00  0.00    -0.354 N 
ATOM     52  N   UNL     1     -15.980   6.565   3.324  1.00  0.00    -0.248 NA
ATOM     53  C   UNL     1     -17.035   6.998   1.285  1.00  0.00     0.031 C 
ATOM     54  C   UNL     1     -18.125   5.688   7.114  1.00  0.00     0.029 A 
ATOM     55  C   UNL     1     -17.479   5.958   5.917  1.00  0.00     0.049 A 
ATOM     56  H   UNL     1     -15.411   6.020   5.507  1.00  0.00     0.167 HD
ATOM     57  C   UNL     1     -17.356   6.526   3.506  1.00  0.00     0.074 A 
ATOM     58  C   UNL     1     -17.957   6.827   2.223  1.00  0.00     0.031 C 
ATOM     59  C   UNL     1     -18.059   6.264   4.635  1.00  0.00     0.037 A 
BRANCH  46  60
ATOM     60  C   UNL     1     -14.544   5.009   9.559  1.00  0.00     0.057 A 
ATOM     61  C   UNL     1     -14.124   5.911  10.546  1.00  0.00     0.134 A 
ATOM     62  C   UNL     1     -14.919   3.726   9.974  1.00  0.00     0.134 A 
ATOM     63  F   UNL     1     -13.738   7.152  10.212  1.00  0.00    -0.206 F 
ATOM     64  C   UNL     1     -14.052   5.542  11.890  1.00  0.00     0.040 A 
ATOM     65  C   UNL     1     -14.876   3.353  11.318  1.00  0.00     0.040 A 
ATOM     66  F   UNL     1     -15.335   2.815   9.081  1.00  0.00    -0.206 F 
ATOM     67  C   UNL     1     -14.435   4.260  12.280  1.00  0.00     0.006 A 
ENDBRANCH  46  60
BRANCH  47  68
ATOM     68  C   UNL     1     -14.507   7.360  -0.138  1.00  0.00     0.057 A 
ATOM     69  C   UNL     1     -14.922   8.616  -0.596  1.00  0.00     0.134 A 
ATOM     70  C   UNL     1     -14.096   6.426  -1.096  1.00  0.00     0.134 A 
ATOM     71  F   UNL     1     -15.344   9.545   0.274  1.00  0.00    -0.206 F 
ATOM     72  C   UNL     1     -14.944   8.927  -1.956  1.00  0.00     0.040 A 
ATOM     73  C   UNL     1     -14.092   6.731  -2.458  1.00  0.00     0.040 A 
ATOM     74  F   UNL     1     -13.679   5.208  -0.719  1.00  0.00    -0.206 F 
ATOM     75  C   UNL     1     -14.523   7.983  -2.892  1.00  0.00     0.006 A 
ENDBRANCH  47  68
BRANCH  59  76
ATOM     76  C   UNL     1     -19.554   6.320   4.538  1.00  0.00     0.057 A 
ATOM     77  C   UNL     1     -20.290   5.311   3.905  1.00  0.00     0.134 A 
ATOM     78  C   UNL     1     -20.267   7.375   5.121  1.00  0.00     0.134 A 
ATOM     79  F   UNL     1     -19.664   4.281   3.316  1.00  0.00    -0.206 F 
ATOM     80  C   UNL     1     -21.683   5.360   3.838  1.00  0.00     0.040 A 
ATOM     81  C   UNL     1     -21.660   7.423   5.081  1.00  0.00     0.040 A 
ATOM     82  F   UNL     1     -19.621   8.369   5.749  1.00  0.00    -0.206 F 
ATOM     83  C   UNL     1     -22.372   6.415   4.433  1.00  0.00     0.006 A 
ENDBRANCH  59  76
ENDBRANCH  33  34
ENDBRANCH  25  28
ENDBRANCH  23  24
ENDBRANCH  22  23
ENDBRANCH   1  22
TORSDOF 15
