REMARK SMILES CC(C)C[C@@H](NC(=O)Cn1nc(O)ccc1=O)C(=O)NCCCCNC(=O)c1ccc(-c2c3nc(c(-c4c(F)cccc4F)c4ccc([nH]4)c(-c4c(F)cccc4F)c4nc(c(-c5c(F)cccc5F)c5ccc2[nH]5)C=C4)C=C3)cc1
REMARK SMILES IDX 21 1 20 2 18 3 19 4 5 6 4 7 2 8 1 9 3 10 6 11 7 12 8 14 9 15
REMARK SMILES IDX 10 16 11 17 16 18 12 19 15 20 17 21 14 22 13 23 22 25 23 26
REMARK SMILES IDX 24 27 25 28 26 29 27 31 28 32 29 33 81 34 30 35 80 36 31 37
REMARK SMILES IDX 32 38 33 39 74 40 34 41 79 42 73 43 75 44 35 45 78 46 72 47
REMARK SMILES IDX 71 48 36 50 62 51 45 52 61 53 46 54 49 55 60 56 76 57 47 58
REMARK SMILES IDX 48 59 59 61 77 62 50 63 37 64 38 65 43 66 39 67 40 68 42 69
REMARK SMILES IDX 44 70 41 71 63 72 64 73 69 74 65 75 66 76 68 77 70 78 67 79
REMARK SMILES IDX 51 80 52 81 57 82 53 83 54 84 56 85 58 86 55 87
REMARK H PARENT 20 5 6 13 13 24 25 30 75 49 49 60
REMARK Flexibility Score: inf
ROOT
ATOM      1  C   UNL     1      -2.651   3.829  -1.183  1.00  0.00     0.116 C 
ENDROOT
BRANCH   1   2
ATOM      2  N   UNL     1      -3.176   2.474  -1.270  1.00  0.00    -0.354 N 
ATOM      3  C   UNL     1      -2.759   1.329  -0.645  1.00  0.00     0.242 C 
ATOM      4  O   UNL     1      -3.280   0.265  -1.002  1.00  0.00    -0.273 OA
ATOM      5  H   UNL     1      -3.948   2.364  -1.871  1.00  0.00     0.163 HD
BRANCH   3   6
ATOM      6  C   UNL     1      -1.503   1.326   0.251  1.00  0.00     0.171 C 
BRANCH   6   7
ATOM      7  C   UNL     1      -0.383   1.204  -0.818  1.00  0.00     0.038 C 
BRANCH   7   8
ATOM      8  C   UNL     1       1.097   1.242  -0.422  1.00  0.00    -0.015 C 
ATOM      9  C   UNL     1       1.540  -0.036   0.280  1.00  0.00     0.007 C 
ATOM     10  C   UNL     1       1.912   1.429  -1.714  1.00  0.00     0.007 C 
ENDBRANCH   7   8
ENDBRANCH   6   7
BRANCH   6  11
ATOM     11  N   UNL     1      -1.364   2.502   1.112  1.00  0.00    -0.343 N 
ATOM     12  C   UNL     1      -2.080   2.918   2.198  1.00  0.00     0.242 C 
ATOM     13  H   UNL     1      -0.623   3.101   0.863  1.00  0.00     0.164 HD
ATOM     14  O   UNL     1      -1.546   3.802   2.880  1.00  0.00    -0.273 OA
BRANCH  12  15
ATOM     15  C   UNL     1      -3.391   2.271   2.670  1.00  0.00     0.248 C 
BRANCH  15  16
ATOM     16  N   UNL     1      -4.493   2.246   1.715  1.00  0.00    -0.217 N 
ATOM     17  N   UNL     1      -4.890   1.001   1.262  1.00  0.00    -0.131 NA
ATOM     18  C   UNL     1      -5.165   3.423   1.393  1.00  0.00     0.267 A 
ATOM     19  C   UNL     1      -5.853   0.993   0.412  1.00  0.00     0.229 A 
ATOM     20  C   UNL     1      -6.278   3.300   0.415  1.00  0.00     0.079 A 
ATOM     21  O   UNL     1      -4.877   4.540   1.811  1.00  0.00    -0.268 OA
ATOM     22  C   UNL     1      -6.619   2.117  -0.096  1.00  0.00     0.075 A 
BRANCH  19  23
ATOM     23  O   UNL     1      -6.220  -0.154  -0.167  1.00  0.00    -0.492 OA
ATOM     24  H   UNL     1      -5.799  -0.956   0.075  1.00  0.00     0.295 HD
ENDBRANCH  19  23
ENDBRANCH  15  16
ENDBRANCH  12  15
ENDBRANCH   6  11
ENDBRANCH   3   6
ENDBRANCH   1   2
BRANCH   1  25
ATOM     25  C   UNL     1      -2.725   4.565  -2.519  1.00  0.00     0.023 C 
BRANCH  25  26
ATOM     26  C   UNL     1      -4.140   4.802  -3.046  1.00  0.00     0.023 C 
BRANCH  26  27
ATOM     27  C   UNL     1      -4.997   5.721  -2.183  1.00  0.00     0.116 C 
BRANCH  27  28
ATOM     28  N   UNL     1      -4.619   7.118  -2.281  1.00  0.00    -0.352 N 
ATOM     29  C   UNL     1      -5.446   8.219  -2.314  1.00  0.00     0.251 C 
ATOM     30  H   UNL     1      -3.653   7.301  -2.329  1.00  0.00     0.163 HD
ATOM     31  O   UNL     1      -4.990   9.341  -2.481  1.00  0.00    -0.269 OA
BRANCH  29  32
ATOM     32  C   UNL     1      -6.910   8.021  -2.208  1.00  0.00     0.039 A 
ATOM     33  C   UNL     1      -7.466   7.303  -1.146  1.00  0.00     0.014 A 
ATOM     34  C   UNL     1      -7.727   8.532  -3.219  1.00  0.00     0.014 A 
ATOM     35  C   UNL     1      -8.827   6.992  -1.160  1.00  0.00     0.010 A 
ATOM     36  C   UNL     1      -9.098   8.262  -3.204  1.00  0.00     0.010 A 
ATOM     37  C   UNL     1      -9.655   7.456  -2.197  1.00  0.00    -0.014 A 
BRANCH  37  38
ATOM     38  C   UNL     1     -11.095   7.088  -2.242  1.00  0.00     0.031 A 
ATOM     39  C   UNL     1     -11.625   6.205  -3.343  1.00  0.00     0.074 A 
ATOM     40  C   UNL     1     -11.937   7.543  -1.295  1.00  0.00     0.049 A 
ATOM     41  N   UNL     1     -12.859   5.840  -3.591  1.00  0.00    -0.248 NA
ATOM     42  C   UNL     1     -10.639   5.663  -4.290  1.00  0.00     0.031 C 
ATOM     43  C   UNL     1     -11.561   8.396  -0.167  1.00  0.00     0.029 A 
ATOM     44  N   UNL     1     -13.288   7.355  -1.135  1.00  0.00    -0.354 N 
ATOM     45  C   UNL     1     -12.799   5.033  -4.721  1.00  0.00     0.074 A 
ATOM     46  C   UNL     1     -11.411   4.989  -5.131  1.00  0.00     0.031 C 
ATOM     47  C   UNL     1     -12.652   8.651   0.572  1.00  0.00     0.029 A 
ATOM     48  C   UNL     1     -13.811   8.023  -0.055  1.00  0.00     0.049 A 
ATOM     49  H   UNL     1     -13.829   6.796  -1.738  1.00  0.00     0.167 HD
ATOM     50  C   UNL     1     -13.803   4.377  -5.353  1.00  0.00     0.037 A 
ATOM     51  C   UNL     1     -15.083   8.141   0.368  1.00  0.00     0.037 A 
ATOM     52  C   UNL     1     -15.187   4.418  -4.956  1.00  0.00     0.049 A 
ATOM     53  C   UNL     1     -16.187   7.458  -0.392  1.00  0.00     0.074 A 
ATOM     54  C   UNL     1     -16.274   3.792  -5.544  1.00  0.00     0.029 A 
ATOM     55  N   UNL     1     -15.677   5.125  -3.870  1.00  0.00    -0.354 N 
ATOM     56  N   UNL     1     -16.113   6.699  -1.457  1.00  0.00    -0.248 NA
ATOM     57  C   UNL     1     -17.554   7.656   0.111  1.00  0.00     0.031 C 
ATOM     58  C   UNL     1     -17.425   4.144  -4.831  1.00  0.00     0.029 A 
ATOM     59  C   UNL     1     -17.050   4.958  -3.776  1.00  0.00     0.049 A 
ATOM     60  H   UNL     1     -15.131   5.666  -3.255  1.00  0.00     0.167 HD
ATOM     61  C   UNL     1     -17.418   6.315  -1.740  1.00  0.00     0.074 A 
ATOM     62  C   UNL     1     -18.260   6.905  -0.722  1.00  0.00     0.031 C 
ATOM     63  C   UNL     1     -17.878   5.546  -2.756  1.00  0.00     0.037 A 
BRANCH  50  64
ATOM     64  C   UNL     1     -13.440   3.551  -6.553  1.00  0.00     0.057 A 
ATOM     65  C   UNL     1     -13.810   3.953  -7.843  1.00  0.00     0.134 A 
ATOM     66  C   UNL     1     -12.767   2.329  -6.425  1.00  0.00     0.134 A 
ATOM     67  F   UNL     1     -14.464   5.109  -8.034  1.00  0.00    -0.206 F 
ATOM     68  C   UNL     1     -13.529   3.167  -8.961  1.00  0.00     0.040 A 
ATOM     69  C   UNL     1     -12.460   1.545  -7.538  1.00  0.00     0.040 A 
ATOM     70  F   UNL     1     -12.373   1.893  -5.219  1.00  0.00    -0.206 F 
ATOM     71  C   UNL     1     -12.848   1.960  -8.811  1.00  0.00     0.006 A 
ENDBRANCH  50  64
BRANCH  51  72
ATOM     72  C   UNL     1     -15.399   8.966   1.560  1.00  0.00     0.057 A 
ATOM     73  C   UNL     1     -15.293  10.361   1.526  1.00  0.00     0.134 A 
ATOM     74  C   UNL     1     -15.859   8.381   2.745  1.00  0.00     0.134 A 
ATOM     75  F   UNL     1     -14.858  10.981   0.419  1.00  0.00    -0.206 F 
ATOM     76  C   UNL     1     -15.631  11.146   2.628  1.00  0.00     0.040 A 
ATOM     77  C   UNL     1     -16.227   9.156   3.846  1.00  0.00     0.040 A 
ATOM     78  F   UNL     1     -16.006   7.051   2.828  1.00  0.00    -0.206 F 
ATOM     79  C   UNL     1     -16.110  10.543   3.789  1.00  0.00     0.006 A 
ENDBRANCH  51  72
BRANCH  63  80
ATOM     80  C   UNL     1     -19.354   5.278  -2.792  1.00  0.00     0.057 A 
ATOM     81  C   UNL     1     -19.858   4.013  -2.463  1.00  0.00     0.134 A 
ATOM     82  C   UNL     1     -20.276   6.268  -3.155  1.00  0.00     0.134 A 
ATOM     83  F   UNL     1     -19.029   3.019  -2.113  1.00  0.00    -0.206 F 
ATOM     84  C   UNL     1     -21.228   3.745  -2.489  1.00  0.00     0.040 A 
ATOM     85  C   UNL     1     -21.649   6.019  -3.162  1.00  0.00     0.040 A 
ATOM     86  F   UNL     1     -19.858   7.505  -3.466  1.00  0.00    -0.206 F 
ATOM     87  C   UNL     1     -22.128   4.752  -2.831  1.00  0.00     0.006 A 
ENDBRANCH  63  80
ENDBRANCH  37  38
ENDBRANCH  29  32
ENDBRANCH  27  28
ENDBRANCH  26  27
ENDBRANCH  25  26
ENDBRANCH   1  25
TORSDOF 17
