REMARK SMILES O=C(Cc1ccccc1Nc1c(Cl)cccc1C(F)(F)F)NCCCCNC(=O)c1ccc(-c2c3nc(c(-c4c(F)cccc4F)c4ccc([nH]4)c(-c4c(F)cccc4F)c4nc(c(-c5c(F)cccc5F)c5ccc2[nH]5)C=C4)C=C3)cc1
REMARK SMILES IDX 23 1 22 2 1 3 2 4 3 6 4 7 5 8 9 9 6 10 8 11 7 12 10 13 11 15
REMARK SMILES IDX 12 16 17 17 13 18 14 19 16 20 15 21 18 22 19 23 20 24 21 25
REMARK SMILES IDX 24 26 25 27 26 28 27 29 28 30 29 32 30 33 31 34 83 35 32 36
REMARK SMILES IDX 82 37 33 38 34 39 35 40 76 41 36 42 81 43 75 44 77 45 37 46
REMARK SMILES IDX 80 47 74 48 73 49 38 51 64 52 47 53 63 54 48 55 51 56 62 57
REMARK SMILES IDX 78 58 49 59 50 60 61 62 79 63 52 64 39 65 40 66 45 67 41 68
REMARK SMILES IDX 42 69 44 70 46 71 43 72 65 73 66 74 71 75 67 76 68 77 70 78
REMARK SMILES IDX 72 79 69 80 53 81 54 82 59 83 55 84 56 85 58 86 60 87 57 88
REMARK H PARENT 22 5 10 14 27 31 77 50 51 61
REMARK Flexibility Score: inf
ROOT
ATOM      1  C   UNL     1       2.313   0.463   2.322  1.00  0.00     0.116 C 
ENDROOT
BRANCH   1   2
ATOM      2  N   UNL     1       2.953  -0.105   1.154  1.00  0.00    -0.356 N 
ATOM      3  O   UNL     1       1.006  -0.248  -0.052  1.00  0.00    -0.275 OA
ATOM      4  C   UNL     1       2.231  -0.336   0.002  1.00  0.00     0.224 C 
ATOM      5  H   UNL     1       3.911  -0.328   1.182  1.00  0.00     0.163 HD
BRANCH   4   6
ATOM      6  C   UNL     1       3.056  -0.577  -1.240  1.00  0.00     0.137 C 
BRANCH   6   7
ATOM      7  C   UNL     1       3.907   0.602  -1.682  1.00  0.00    -0.015 A 
ATOM      8  C   UNL     1       5.144   0.266  -2.283  1.00  0.00     0.006 A 
ATOM      9  C   UNL     1       3.525   1.966  -1.600  1.00  0.00     0.042 A 
ATOM     10  C   UNL     1       6.016   1.244  -2.751  1.00  0.00     0.000 A 
ATOM     11  C   UNL     1       4.449   2.931  -2.047  1.00  0.00     0.026 A 
ATOM     12  C   UNL     1       5.676   2.580  -2.616  1.00  0.00     0.002 A 
BRANCH   9  13
ATOM     13  N   UNL     1       2.240   2.376  -1.174  1.00  0.00    -0.354 N 
ATOM     14  H   UNL     1       1.728   1.686  -0.695  1.00  0.00     0.167 HD
BRANCH  13  15
ATOM     15  C   UNL     1       1.567   3.615  -1.321  1.00  0.00     0.070 A 
ATOM     16  C   UNL     1       1.071   4.283  -0.174  1.00  0.00     0.065 A 
ATOM     17  C   UNL     1       1.365   4.228  -2.574  1.00  0.00     0.080 A 
ATOM     18  Cl  UNL     1       1.213   3.611   1.408  1.00  0.00    -0.082 Cl
ATOM     19  C   UNL     1       0.449   5.531  -0.253  1.00  0.00     0.023 A 
ATOM     20  C   UNL     1       0.750   5.502  -2.629  1.00  0.00     0.015 A 
ATOM     21  C   UNL     1       0.298   6.149  -1.483  1.00  0.00     0.002 A 
BRANCH  17  22
ATOM     22  C   UNL     1       1.733   3.589  -3.894  1.00  0.00     0.418 C 
ATOM     23  F   UNL     1       0.835   3.911  -4.876  1.00  0.00    -0.166 F 
ATOM     24  F   UNL     1       2.935   4.029  -4.364  1.00  0.00    -0.166 F 
ATOM     25  F   UNL     1       1.779   2.231  -3.906  1.00  0.00    -0.166 F 
ENDBRANCH  17  22
ENDBRANCH  13  15
ENDBRANCH   9  13
ENDBRANCH   6   7
ENDBRANCH   4   6
ENDBRANCH   1   2
BRANCH   1  26
ATOM     26  C   UNL     1       2.767  -0.135   3.644  1.00  0.00     0.023 C 
BRANCH  26  27
ATOM     27  C   UNL     1       4.237   0.110   3.980  1.00  0.00     0.023 C 
BRANCH  27  28
ATOM     28  C   UNL     1       4.677   1.573   4.016  1.00  0.00     0.116 C 
BRANCH  28  29
ATOM     29  N   UNL     1       4.028   2.345   5.066  1.00  0.00    -0.352 N 
ATOM     30  C   UNL     1       4.590   3.064   6.094  1.00  0.00     0.251 C 
ATOM     31  H   UNL     1       3.044   2.353   5.035  1.00  0.00     0.163 HD
ATOM     32  O   UNL     1       3.880   3.544   6.975  1.00  0.00    -0.269 OA
BRANCH  30  33
ATOM     33  C   UNL     1       6.058   3.236   6.164  1.00  0.00     0.039 A 
ATOM     34  C   UNL     1       6.708   3.011   7.380  1.00  0.00     0.014 A 
ATOM     35  C   UNL     1       6.794   3.605   5.035  1.00  0.00     0.014 A 
ATOM     36  C   UNL     1       8.103   3.074   7.443  1.00  0.00     0.010 A 
ATOM     37  C   UNL     1       8.187   3.590   5.080  1.00  0.00     0.010 A 
ATOM     38  C   UNL     1       8.857   3.319   6.283  1.00  0.00    -0.014 A 
BRANCH  38  39
ATOM     39  C   UNL     1      10.344   3.277   6.308  1.00  0.00     0.031 A 
ATOM     40  C   UNL     1      11.146   4.507   5.981  1.00  0.00     0.074 A 
ATOM     41  C   UNL     1      10.975   2.114   6.561  1.00  0.00     0.049 A 
ATOM     42  N   UNL     1      12.445   4.648   5.891  1.00  0.00    -0.248 NA
ATOM     43  C   UNL     1      10.389   5.736   5.694  1.00  0.00     0.031 C 
ATOM     44  C   UNL     1      10.317   0.838   6.850  1.00  0.00     0.029 A 
ATOM     45  N   UNL     1      12.314   1.812   6.609  1.00  0.00    -0.354 N 
ATOM     46  C   UNL     1      12.659   5.971   5.525  1.00  0.00     0.074 A 
ATOM     47  C   UNL     1      11.356   6.577   5.358  1.00  0.00     0.031 C 
ATOM     48  C   UNL     1      11.251  -0.100   7.069  1.00  0.00     0.029 A 
ATOM     49  C   UNL     1      12.573   0.493   6.895  1.00  0.00     0.049 A 
ATOM     50  H   UNL     1      13.022   2.478   6.452  1.00  0.00     0.167 HD
ATOM     51  C   UNL     1      13.833   6.628   5.366  1.00  0.00     0.037 A 
ATOM     52  C   UNL     1      13.743  -0.168   6.996  1.00  0.00     0.037 A 
ATOM     53  C   UNL     1      15.129   6.029   5.550  1.00  0.00     0.049 A 
ATOM     54  C   UNL     1      15.032   0.580   6.791  1.00  0.00     0.074 A 
ATOM     55  C   UNL     1      16.374   6.629   5.470  1.00  0.00     0.029 A 
ATOM     56  N   UNL     1      15.349   4.691   5.844  1.00  0.00    -0.354 N 
ATOM     57  N   UNL     1      15.218   1.848   6.517  1.00  0.00    -0.248 NA
ATOM     58  C   UNL     1      16.274  -0.197   6.913  1.00  0.00     0.031 C 
ATOM     59  C   UNL     1      17.348   5.643   5.659  1.00  0.00     0.029 A 
ATOM     60  C   UNL     1      16.710   4.441   5.919  1.00  0.00     0.049 A 
ATOM     61  H   UNL     1      14.642   4.019   5.980  1.00  0.00     0.167 HD
ATOM     62  C   UNL     1      16.595   2.028   6.468  1.00  0.00     0.074 A 
ATOM     63  C   UNL     1      17.196   0.742   6.753  1.00  0.00     0.031 C 
ATOM     64  C   UNL     1      17.298   3.159   6.211  1.00  0.00     0.037 A 
BRANCH  51  65
ATOM     65  C   UNL     1      13.770   8.075   4.967  1.00  0.00     0.057 A 
ATOM     66  C   UNL     1      13.304   9.066   5.843  1.00  0.00     0.134 A 
ATOM     67  C   UNL     1      14.221   8.490   3.708  1.00  0.00     0.134 A 
ATOM     68  F   UNL     1      12.848   8.737   7.061  1.00  0.00    -0.206 F 
ATOM     69  C   UNL     1      13.261  10.410   5.470  1.00  0.00     0.040 A 
ATOM     70  C   UNL     1      14.213   9.835   3.334  1.00  0.00     0.040 A 
ATOM     71  F   UNL     1      14.689   7.597   2.823  1.00  0.00    -0.206 F 
ATOM     72  C   UNL     1      13.724  10.799   4.214  1.00  0.00     0.006 A 
ENDBRANCH  51  65
BRANCH  52  73
ATOM     73  C   UNL     1      13.755  -1.618   7.324  1.00  0.00     0.057 A 
ATOM     74  C   UNL     1      14.250  -2.076   8.551  1.00  0.00     0.134 A 
ATOM     75  C   UNL     1      13.295  -2.579   6.417  1.00  0.00     0.134 A 
ATOM     76  F   UNL     1      14.725  -1.206   9.455  1.00  0.00    -0.206 F 
ATOM     77  C   UNL     1      14.310  -3.437   8.855  1.00  0.00     0.040 A 
ATOM     78  C   UNL     1      13.322  -3.942   6.718  1.00  0.00     0.040 A 
ATOM     79  F   UNL     1      12.802  -2.207   5.226  1.00  0.00    -0.206 F 
ATOM     80  C   UNL     1      13.839  -4.375   7.938  1.00  0.00     0.006 A 
ENDBRANCH  52  73
BRANCH  64  81
ATOM     81  C   UNL     1      18.796   3.068   6.268  1.00  0.00     0.057 A 
ATOM     82  C   UNL     1      19.538   2.388   5.295  1.00  0.00     0.134 A 
ATOM     83  C   UNL     1      19.508   3.705   7.294  1.00  0.00     0.134 A 
ATOM     84  F   UNL     1      18.918   1.746   4.293  1.00  0.00    -0.206 F 
ATOM     85  C   UNL     1      20.931   2.322   5.353  1.00  0.00     0.040 A 
ATOM     86  C   UNL     1      20.902   3.672   7.346  1.00  0.00     0.040 A 
ATOM     87  F   UNL     1      18.861   4.383   8.254  1.00  0.00    -0.206 F 
ATOM     88  C   UNL     1      21.617   2.973   6.377  1.00  0.00     0.006 A 
ENDBRANCH  64  81
ENDBRANCH  38  39
ENDBRANCH  30  33
ENDBRANCH  28  29
ENDBRANCH  27  28
ENDBRANCH  26  27
ENDBRANCH   1  26
TORSDOF 15
