REMARK SMILES CCc1cccc(CC)c1NC(=O)C[C@@](C)(C(=O)NCCCCNC(=O)c1ccc(-c2c3nc(c(-c4c(F)cccc4F)c4ccc([nH]4)c(-c4c(F)cccc4F)c4nc(c(-c5c(F)cccc5F)c5ccc2[nH]5)C=C4)C=C3)cc1)c1ccccc1
REMARK SMILES IDX 20 1 19 2 17 3 18 4 15 6 16 7 14 8 12 9 11 10 13 12 10 13
REMARK SMILES IDX 3 14 4 15 5 16 7 17 6 18 2 19 1 20 8 21 9 22 81 23 82 24
REMARK SMILES IDX 86 25 83 26 85 27 84 28 21 29 22 30 23 31 24 32 25 33 26 35
REMARK SMILES IDX 27 36 28 37 80 38 29 39 79 40 30 41 31 42 32 43 73 44 33 45
REMARK SMILES IDX 78 46 72 47 74 48 34 49 77 50 71 51 70 52 35 54 61 55 44 56
REMARK SMILES IDX 60 57 45 58 48 59 59 60 75 61 46 62 47 63 58 65 76 66 49 67
REMARK SMILES IDX 36 68 37 69 42 70 38 71 39 72 41 73 43 74 40 75 62 76 63 77
REMARK SMILES IDX 68 78 64 79 65 80 67 81 69 82 66 83 50 84 51 85 56 86 52 87
REMARK SMILES IDX 53 88 55 89 57 90 54 91
REMARK H PARENT 19 5 11 11 24 34 74 53 48 64
REMARK Flexibility Score: inf
ROOT
ATOM      1  C   UNL     1      -0.493   7.644  -1.371  1.00  0.00     0.116 C 
ENDROOT
BRANCH   1   2
ATOM      2  N   UNL     1      -0.700   8.336  -0.090  1.00  0.00    -0.355 N 
ATOM      3  C   UNL     1      -0.046   8.152   1.106  1.00  0.00     0.230 C 
ATOM      4  O   UNL     1       0.639   9.130   1.437  1.00  0.00    -0.274 OA
ATOM      5  H   UNL     1      -1.403   9.026  -0.088  1.00  0.00     0.163 HD
BRANCH   3   6
ATOM      6  C   UNL     1      -0.152   6.859   2.036  1.00  0.00     0.080 C 
ATOM      7  C   UNL     1       1.310   6.435   2.354  1.00  0.00     0.027 C 
BRANCH   6   8
ATOM      8  C   UNL     1      -0.999   5.754   1.329  1.00  0.00     0.121 C 
BRANCH   8   9
ATOM      9  C   UNL     1      -0.788   4.277   1.585  1.00  0.00     0.225 C 
ATOM     10  N   UNL     1      -0.044   3.368   0.924  1.00  0.00    -0.326 N 
ATOM     11  H   UNL     1      -0.187   2.508   1.382  1.00  0.00     0.169 HD
ATOM     12  O   UNL     1      -1.507   3.732   2.444  1.00  0.00    -0.275 OA
BRANCH  10  13
ATOM     13  C   UNL     1       0.856   3.105  -0.145  1.00  0.00     0.047 A 
ATOM     14  C   UNL     1       1.006   1.710  -0.468  1.00  0.00    -0.024 A 
ATOM     15  C   UNL     1       1.765   1.321  -1.589  1.00  0.00     0.006 A 
ATOM     16  C   UNL     1       2.400   2.256  -2.383  1.00  0.00     0.001 A 
ATOM     17  C   UNL     1       1.638   4.024  -0.884  1.00  0.00    -0.024 A 
ATOM     18  C   UNL     1       2.347   3.590  -2.026  1.00  0.00     0.006 A 
BRANCH  14  19
ATOM     19  C   UNL     1       0.364   0.618   0.390  1.00  0.00     0.034 C 
ATOM     20  C   UNL     1       0.813  -0.823   0.173  1.00  0.00     0.009 C 
ENDBRANCH  14  19
BRANCH  17  21
ATOM     21  C   UNL     1       2.000   5.374  -0.352  1.00  0.00     0.034 C 
ATOM     22  C   UNL     1       2.888   6.329  -1.145  1.00  0.00     0.009 C 
ENDBRANCH  17  21
ENDBRANCH  10  13
ENDBRANCH   8   9
ENDBRANCH   6   8
BRANCH   6  23
ATOM     23  C   UNL     1      -0.638   7.186   3.509  1.00  0.00    -0.032 A 
ATOM     24  C   UNL     1      -1.030   6.146   4.377  1.00  0.00     0.005 A 
ATOM     25  C   UNL     1      -0.329   8.416   4.129  1.00  0.00     0.005 A 
ATOM     26  C   UNL     1      -1.001   6.280   5.770  1.00  0.00     0.000 A 
ATOM     27  C   UNL     1      -0.293   8.551   5.525  1.00  0.00     0.000 A 
ATOM     28  C   UNL     1      -0.600   7.474   6.346  1.00  0.00     0.000 A 
ENDBRANCH   6  23
ENDBRANCH   3   6
ENDBRANCH   1   2
BRANCH   1  29
ATOM     29  C   UNL     1      -1.555   7.984  -2.419  1.00  0.00     0.023 C 
BRANCH  29  30
ATOM     30  C   UNL     1      -1.106   9.005  -3.465  1.00  0.00     0.023 C 
BRANCH  30  31
ATOM     31  C   UNL     1       0.076   8.591  -4.343  1.00  0.00     0.116 C 
BRANCH  31  32
ATOM     32  N   UNL     1      -0.172   7.423  -5.177  1.00  0.00    -0.352 N 
ATOM     33  C   UNL     1       0.115   7.242  -6.518  1.00  0.00     0.251 C 
ATOM     34  H   UNL     1      -0.602   6.661  -4.726  1.00  0.00     0.163 HD
ATOM     35  O   UNL     1      -0.188   6.216  -7.094  1.00  0.00    -0.269 OA
BRANCH  33  36
ATOM     36  C   UNL     1       0.759   8.350  -7.259  1.00  0.00     0.039 A 
ATOM     37  C   UNL     1       0.116   8.874  -8.383  1.00  0.00     0.014 A 
ATOM     38  C   UNL     1       1.944   8.919  -6.787  1.00  0.00     0.014 A 
ATOM     39  C   UNL     1       0.603  10.043  -8.972  1.00  0.00     0.010 A 
ATOM     40  C   UNL     1       2.389  10.118  -7.335  1.00  0.00     0.010 A 
ATOM     41  C   UNL     1       1.710  10.705  -8.417  1.00  0.00    -0.014 A 
BRANCH  41  42
ATOM     42  C   UNL     1       2.168  12.025  -8.921  1.00  0.00     0.031 A 
ATOM     43  C   UNL     1       3.543  12.165  -9.507  1.00  0.00     0.074 A 
ATOM     44  C   UNL     1       1.394  13.116  -8.752  1.00  0.00     0.049 A 
ATOM     45  N   UNL     1       4.197  13.249  -9.838  1.00  0.00    -0.248 NA
ATOM     46  C   UNL     1       4.296  10.919  -9.715  1.00  0.00     0.031 C 
ATOM     47  C   UNL     1       0.054  13.126  -8.161  1.00  0.00     0.029 A 
ATOM     48  N   UNL     1       1.637  14.437  -9.041  1.00  0.00    -0.354 N 
ATOM     49  C   UNL     1       5.447  12.819 -10.261  1.00  0.00     0.074 A 
ATOM     50  C   UNL     1       5.473  11.380 -10.111  1.00  0.00     0.031 C 
ATOM     51  C   UNL     1      -0.411  14.386  -8.144  1.00  0.00     0.029 A 
ATOM     52  C   UNL     1       0.611  15.278  -8.683  1.00  0.00     0.049 A 
ATOM     53  H   UNL     1       2.467  14.751  -9.466  1.00  0.00     0.167 HD
ATOM     54  C   UNL     1       6.476  13.555 -10.746  1.00  0.00     0.037 A 
ATOM     55  C   UNL     1       0.512  16.619  -8.765  1.00  0.00     0.037 A 
ATOM     56  C   UNL     1       6.436  14.980 -10.935  1.00  0.00     0.049 A 
ATOM     57  C   UNL     1       1.660  17.412  -9.326  1.00  0.00     0.074 A 
ATOM     58  C   UNL     1       7.410  15.809 -11.464  1.00  0.00     0.029 A 
ATOM     59  N   UNL     1       5.357  15.788 -10.609  1.00  0.00    -0.354 N 
ATOM     60  N   UNL     1       2.823  16.988  -9.757  1.00  0.00    -0.248 NA
ATOM     61  C   UNL     1       1.481  18.869  -9.416  1.00  0.00     0.031 C 
ATOM     62  C   UNL     1       6.928  17.122 -11.438  1.00  0.00     0.029 A 
ATOM     63  C   UNL     1       5.642  17.105 -10.924  1.00  0.00     0.049 A 
ATOM     64  H   UNL     1       4.513  15.471 -10.212  1.00  0.00     0.167 HD
ATOM     65  C   UNL     1       3.499  18.118 -10.199  1.00  0.00     0.074 A 
ATOM     66  C   UNL     1       2.616  19.245  -9.988  1.00  0.00     0.031 C 
ATOM     67  C   UNL     1       4.740  18.211 -10.734  1.00  0.00     0.037 A 
BRANCH  54  68
ATOM     68  C   UNL     1       7.732  12.821 -11.111  1.00  0.00     0.057 A 
ATOM     69  C   UNL     1       7.799  11.991 -12.238  1.00  0.00     0.134 A 
ATOM     70  C   UNL     1       8.891  12.959 -10.339  1.00  0.00     0.134 A 
ATOM     71  F   UNL     1       6.718  11.806 -13.010  1.00  0.00    -0.206 F 
ATOM     72  C   UNL     1       8.966  11.301 -12.566  1.00  0.00     0.040 A 
ATOM     73  C   UNL     1      10.072  12.294 -10.672  1.00  0.00     0.040 A 
ATOM     74  F   UNL     1       8.896  13.743  -9.250  1.00  0.00    -0.206 F 
ATOM     75  C   UNL     1      10.109  11.456 -11.785  1.00  0.00     0.006 A 
ENDBRANCH  54  68
BRANCH  55  76
ATOM     76  C   UNL     1      -0.730  17.304  -8.328  1.00  0.00     0.057 A 
ATOM     77  C   UNL     1      -1.606  17.866  -9.264  1.00  0.00     0.134 A 
ATOM     78  C   UNL     1      -1.064  17.429  -6.975  1.00  0.00     0.134 A 
ATOM     79  F   UNL     1      -1.328  17.795 -10.574  1.00  0.00    -0.206 F 
ATOM     80  C   UNL     1      -2.760  18.546  -8.871  1.00  0.00     0.040 A 
ATOM     81  C   UNL     1      -2.226  18.087  -6.568  1.00  0.00     0.040 A 
ATOM     82  F   UNL     1      -0.270  16.906  -6.029  1.00  0.00    -0.206 F 
ATOM     83  C   UNL     1      -3.074  18.655  -7.518  1.00  0.00     0.006 A 
ENDBRANCH  55  76
BRANCH  67  84
ATOM     84  C   UNL     1       5.197  19.566 -11.183  1.00  0.00     0.057 A 
ATOM     85  C   UNL     1       5.608  20.547 -10.274  1.00  0.00     0.134 A 
ATOM     86  C   UNL     1       5.278  19.869 -12.549  1.00  0.00     0.134 A 
ATOM     87  F   UNL     1       5.541  20.322  -8.954  1.00  0.00    -0.206 F 
ATOM     88  C   UNL     1       6.074  21.790 -10.708  1.00  0.00     0.040 A 
ATOM     89  C   UNL     1       5.761  21.099 -12.994  1.00  0.00     0.040 A 
ATOM     90  F   UNL     1       4.905  18.968 -13.469  1.00  0.00    -0.206 F 
ATOM     91  C   UNL     1       6.159  22.065 -12.072  1.00  0.00     0.006 A 
ENDBRANCH  67  84
ENDBRANCH  41  42
ENDBRANCH  33  36
ENDBRANCH  31  32
ENDBRANCH  30  31
ENDBRANCH  29  30
ENDBRANCH   1  29
TORSDOF 17
