REMARK SMILES C[C@@H]1CC(C)(C)C[C@@](CC(=O)Nc2cccc(C(F)(F)F)c2)(C(=O)NCCCCNC(=O)c2ccc(-c3c4nc(c(-c5c(F)cccc5F)c5ccc([nH]5)c(-c5c(F)cccc5F)c5nc(c(-c6c(F)cccc6F)c6ccc3[nH]6)C=C5)C=C4)cc2)C1
REMARK SMILES IDX 26 1 25 2 23 3 24 4 8 6 1 7 2 8 3 9 87 10 4 11 5 12 6 13
REMARK SMILES IDX 7 14 9 15 10 16 11 17 12 18 13 20 14 21 22 22 15 23 17 24
REMARK SMILES IDX 16 25 18 26 19 27 20 28 21 29 27 30 28 31 29 32 30 33 31 34
REMARK SMILES IDX 32 36 33 37 34 38 86 39 35 40 85 41 36 42 37 43 38 44 79 45
REMARK SMILES IDX 39 46 84 47 78 48 80 49 40 50 83 51 77 52 76 53 41 55 67 56
REMARK SMILES IDX 50 57 66 58 51 59 54 60 65 61 81 62 52 63 53 64 64 66 82 67
REMARK SMILES IDX 55 68 42 69 43 70 48 71 44 72 45 73 47 74 49 75 46 76 68 77
REMARK SMILES IDX 69 78 74 79 70 80 71 81 73 82 75 83 72 84 56 85 57 86 62 87
REMARK SMILES IDX 58 88 59 89 61 90 63 91 60 92
REMARK H PARENT 25 5 12 19 30 35 80 54 54 65
REMARK Flexibility Score: inf
ROOT
ATOM      1  C   UNL     1       0.184  -3.716   2.759  1.00  0.00     0.116 C 
ENDROOT
BRANCH   1   2
ATOM      2  N   UNL     1       0.642  -3.703   1.366  1.00  0.00    -0.356 N 
ATOM      3  C   UNL     1       0.757  -2.721   0.406  1.00  0.00     0.226 C 
ATOM      4  O   UNL     1       1.214  -3.098  -0.676  1.00  0.00    -0.274 OA
ATOM      5  H   UNL     1       0.929  -4.589   1.046  1.00  0.00     0.163 HD
BRANCH   3   6
ATOM      6  C   UNL     1       0.359  -1.207   0.641  1.00  0.00     0.059 C 
ATOM      7  C   UNL     1       0.619   2.166   0.170  1.00  0.00     0.008 C 
ATOM      8  C   UNL     1       0.183   1.049  -0.770  1.00  0.00    -0.013 C 
ATOM      9  C   UNL     1      -1.322   0.930  -0.861  1.00  0.00     0.009 C 
ATOM     10  C   UNL     1       0.782  -0.347  -0.574  1.00  0.00     0.020 C 
ATOM     11  C   UNL     1      -1.990   0.102   0.257  1.00  0.00    -0.034 C 
ATOM     12  C   UNL     1      -2.225   0.936   1.526  1.00  0.00     0.011 C 
ATOM     13  C   UNL     1      -3.390  -0.255  -0.312  1.00  0.00     0.011 C 
ATOM     14  C   UNL     1      -1.216  -1.206   0.637  1.00  0.00     0.024 C 
BRANCH   6  15
ATOM     15  C   UNL     1       1.108  -0.871   1.956  1.00  0.00     0.117 C 
BRANCH  15  16
ATOM     16  C   UNL     1       1.894   0.361   2.323  1.00  0.00     0.225 C 
ATOM     17  O   UNL     1       1.455   1.052   3.258  1.00  0.00    -0.275 OA
ATOM     18  N   UNL     1       3.088   0.777   1.844  1.00  0.00    -0.326 N 
ATOM     19  H   UNL     1       3.451   1.484   2.426  1.00  0.00     0.169 HD
BRANCH  18  20
ATOM     20  C   UNL     1       3.982   0.529   0.785  1.00  0.00     0.041 A 
ATOM     21  C   UNL     1       4.869   1.593   0.536  1.00  0.00     0.026 A 
ATOM     22  C   UNL     1       3.988  -0.548  -0.100  1.00  0.00     0.039 A 
ATOM     23  C   UNL     1       5.633   1.658  -0.627  1.00  0.00     0.003 A 
ATOM     24  C   UNL     1       4.669  -0.441  -1.340  1.00  0.00     0.058 A 
ATOM     25  C   UNL     1       5.505   0.660  -1.580  1.00  0.00     0.013 A 
BRANCH  24  26
ATOM     26  C   UNL     1       4.448  -1.441  -2.457  1.00  0.00     0.416 C 
ATOM     27  F   UNL     1       4.688  -0.907  -3.693  1.00  0.00    -0.166 F 
ATOM     28  F   UNL     1       5.258  -2.528  -2.362  1.00  0.00    -0.166 F 
ATOM     29  F   UNL     1       3.174  -1.908  -2.514  1.00  0.00    -0.166 F 
ENDBRANCH  24  26
ENDBRANCH  18  20
ENDBRANCH  15  16
ENDBRANCH   6  15
ENDBRANCH   3   6
ENDBRANCH   1   2
BRANCH   1  30
ATOM     30  C   UNL     1       0.307  -5.087   3.446  1.00  0.00     0.023 C 
BRANCH  30  31
ATOM     31  C   UNL     1       1.730  -5.590   3.740  1.00  0.00     0.023 C 
BRANCH  31  32
ATOM     32  C   UNL     1       2.604  -4.733   4.662  1.00  0.00     0.116 C 
BRANCH  32  33
ATOM     33  N   UNL     1       2.060  -4.568   6.001  1.00  0.00    -0.352 N 
ATOM     34  C   UNL     1       2.602  -4.817   7.243  1.00  0.00     0.251 C 
ATOM     35  H   UNL     1       1.141  -4.217   6.023  1.00  0.00     0.163 HD
ATOM     36  O   UNL     1       1.892  -4.687   8.234  1.00  0.00    -0.269 OA
BRANCH  34  37
ATOM     37  C   UNL     1       4.009  -5.263   7.418  1.00  0.00     0.039 A 
ATOM     38  C   UNL     1       4.285  -6.211   8.411  1.00  0.00     0.014 A 
ATOM     39  C   UNL     1       5.063  -4.728   6.676  1.00  0.00     0.014 A 
ATOM     40  C   UNL     1       5.595  -6.664   8.614  1.00  0.00     0.010 A 
ATOM     41  C   UNL     1       6.359  -5.234   6.827  1.00  0.00     0.010 A 
ATOM     42  C   UNL     1       6.642  -6.205   7.799  1.00  0.00    -0.014 A 
BRANCH  42  43
ATOM     43  C   UNL     1       8.024  -6.739   7.958  1.00  0.00     0.031 A 
ATOM     44  C   UNL     1       9.159  -5.839   8.368  1.00  0.00     0.074 A 
ATOM     45  C   UNL     1       8.274  -8.036   7.688  1.00  0.00     0.049 A 
ATOM     46  N   UNL     1      10.427  -6.127   8.538  1.00  0.00    -0.248 NA
ATOM     47  C   UNL     1       8.833  -4.423   8.590  1.00  0.00     0.031 C 
ATOM     48  C   UNL     1       7.284  -9.008   7.222  1.00  0.00     0.029 A 
ATOM     49  N   UNL     1       9.441  -8.759   7.755  1.00  0.00    -0.354 N 
ATOM     50  C   UNL     1      11.047  -4.931   8.877  1.00  0.00     0.074 A 
ATOM     51  C   UNL     1      10.028  -3.903   8.826  1.00  0.00     0.031 C 
ATOM     52  C   UNL     1       7.878 -10.201   7.065  1.00  0.00     0.029 A 
ATOM     53  C   UNL     1       9.296 -10.075   7.387  1.00  0.00     0.049 A 
ATOM     54  H   UNL     1      10.299  -8.371   8.041  1.00  0.00     0.167 HD
ATOM     55  C   UNL     1      12.339  -4.707   9.223  1.00  0.00     0.037 A 
ATOM     56  C   UNL     1      10.200 -11.070   7.311  1.00  0.00     0.037 A 
ATOM     57  C   UNL     1      13.353  -5.730   9.283  1.00  0.00     0.049 A 
ATOM     58  C   UNL     1      11.626 -10.805   7.707  1.00  0.00     0.074 A 
ATOM     59  C   UNL     1      14.675  -5.613   9.677  1.00  0.00     0.029 A 
ATOM     60  N   UNL     1      13.160  -7.057   8.928  1.00  0.00    -0.354 N 
ATOM     61  N   UNL     1      12.180  -9.685   8.105  1.00  0.00    -0.248 NA
ATOM     62  C   UNL     1      12.550 -11.947   7.659  1.00  0.00     0.031 C 
ATOM     63  C   UNL     1      15.295  -6.858   9.512  1.00  0.00     0.029 A 
ATOM     64  C   UNL     1      14.344  -7.764   9.072  1.00  0.00     0.049 A 
ATOM     65  H   UNL     1      12.307  -7.441   8.620  1.00  0.00     0.167 HD
ATOM     66  C   UNL     1      13.507  -9.991   8.378  1.00  0.00     0.074 A 
ATOM     67  C   UNL     1      13.670 -11.407   8.118  1.00  0.00     0.031 C 
ATOM     68  C   UNL     1      14.500  -9.173   8.806  1.00  0.00     0.037 A 
BRANCH  55  69
ATOM     69  C   UNL     1      12.726  -3.294   9.562  1.00  0.00     0.057 A 
ATOM     70  C   UNL     1      12.245  -2.648  10.710  1.00  0.00     0.134 A 
ATOM     71  C   UNL     1      13.598  -2.571   8.738  1.00  0.00     0.134 A 
ATOM     72  F   UNL     1      11.400  -3.278  11.541  1.00  0.00    -0.206 F 
ATOM     73  C   UNL     1      12.582  -1.325  11.003  1.00  0.00     0.040 A 
ATOM     74  C   UNL     1      13.968  -1.258   9.037  1.00  0.00     0.040 A 
ATOM     75  F   UNL     1      14.107  -3.128   7.629  1.00  0.00    -0.206 F 
ATOM     76  C   UNL     1      13.450  -0.627  10.166  1.00  0.00     0.006 A 
ENDBRANCH  55  69
BRANCH  56  77
ATOM     77  C   UNL     1       9.774 -12.420   6.862  1.00  0.00     0.057 A 
ATOM     78  C   UNL     1       9.713 -13.498   7.752  1.00  0.00     0.134 A 
ATOM     79  C   UNL     1       9.407 -12.662   5.532  1.00  0.00     0.134 A 
ATOM     80  F   UNL     1      10.070 -13.335   9.035  1.00  0.00    -0.206 F 
ATOM     81  C   UNL     1       9.319 -14.771   7.335  1.00  0.00     0.040 A 
ATOM     82  C   UNL     1       8.986 -13.922   5.106  1.00  0.00     0.040 A 
ATOM     83  F   UNL     1       9.435 -11.669   4.631  1.00  0.00    -0.206 F 
ATOM     84  C   UNL     1       8.947 -14.983   6.009  1.00  0.00     0.006 A 
ENDBRANCH  56  77
BRANCH  68  85
ATOM     85  C   UNL     1      15.845  -9.796   9.052  1.00  0.00     0.057 A 
ATOM     86  C   UNL     1      16.655 -10.256   8.004  1.00  0.00     0.134 A 
ATOM     87  C   UNL     1      16.346  -9.921  10.354  1.00  0.00     0.134 A 
ATOM     88  F   UNL     1      16.233 -10.179   6.733  1.00  0.00    -0.206 F 
ATOM     89  C   UNL     1      17.897 -10.847   8.246  1.00  0.00     0.040 A 
ATOM     90  C   UNL     1      17.599 -10.482  10.607  1.00  0.00     0.040 A 
ATOM     91  F   UNL     1      15.628  -9.493  11.404  1.00  0.00    -0.206 F 
ATOM     92  C   UNL     1      18.375 -10.955   9.551  1.00  0.00     0.006 A 
ENDBRANCH  68  85
ENDBRANCH  42  43
ENDBRANCH  34  37
ENDBRANCH  32  33
ENDBRANCH  31  32
ENDBRANCH  30  31
ENDBRANCH   1  30
TORSDOF 15
