REMARK SMILES CC[C@H](C)[C@H](NC(=O)CN1C(=O)/C(=C/c2ccc(C)cc2)SC1=S)C(=O)NCCCCNC(=O)c1ccc(-c2c3nc(c(-c4c(F)cccc4F)c4ccc([nH]4)c(-c4c(F)cccc4F)c4nc(c(-c5c(F)cccc5F)c5ccc2[nH]5)C=C4)C=C3)cc1
REMARK SMILES IDX 28 1 27 2 25 3 26 4 5 6 3 7 4 8 2 9 1 10 6 11 7 12 8 14 9 15
REMARK SMILES IDX 10 16 11 17 23 18 12 19 13 20 22 21 24 22 14 23 15 24 16 25
REMARK SMILES IDX 21 26 17 27 20 28 18 29 19 30 29 31 30 32 31 33 32 34 33 35
REMARK SMILES IDX 34 37 35 38 36 39 88 40 37 41 87 42 38 43 39 44 40 45 81 46
REMARK SMILES IDX 41 47 86 48 80 49 82 50 42 51 85 52 79 53 78 54 43 56 69 57
REMARK SMILES IDX 52 58 68 59 53 60 56 61 67 62 83 63 54 64 55 65 66 67 84 68
REMARK SMILES IDX 57 69 44 70 45 71 50 72 46 73 47 74 49 75 51 76 48 77 70 78
REMARK SMILES IDX 71 79 76 80 72 81 73 82 75 83 77 84 74 85 58 86 59 87 64 88
REMARK SMILES IDX 60 89 61 90 63 91 65 92 62 93
REMARK H PARENT 27 5 6 13 32 36 82 55 56 66
REMARK Flexibility Score: inf
ROOT
ATOM      1  C   UNL     1       3.965   2.081  -3.023  1.00  0.00     0.116 C 
ENDROOT
BRANCH   1   2
ATOM      2  N   UNL     1       3.127   2.700  -4.029  1.00  0.00    -0.354 N 
ATOM      3  C   UNL     1       1.866   3.200  -3.936  1.00  0.00     0.242 C 
ATOM      4  O   UNL     1       1.492   3.934  -4.854  1.00  0.00    -0.273 OA
ATOM      5  H   UNL     1       3.536   2.769  -4.923  1.00  0.00     0.163 HD
BRANCH   3   6
ATOM      6  C   UNL     1       0.967   2.944  -2.707  1.00  0.00     0.174 C 
BRANCH   6   7
ATOM      7  C   UNL     1       1.029   4.027  -1.580  1.00  0.00     0.018 C 
ATOM      8  C   UNL     1       0.753   3.492  -0.171  1.00  0.00     0.010 C 
BRANCH   7   9
ATOM      9  C   UNL     1       2.216   5.016  -1.625  1.00  0.00     0.002 C 
ATOM     10  C   UNL     1       3.395   4.700  -0.723  1.00  0.00     0.004 C 
ENDBRANCH   7   9
ENDBRANCH   6   7
BRANCH   6  11
ATOM     11  N   UNL     1       0.999   1.542  -2.291  1.00  0.00    -0.342 N 
ATOM     12  C   UNL     1       0.409   0.473  -2.917  1.00  0.00     0.240 C 
ATOM     13  H   UNL     1       1.500   1.343  -1.468  1.00  0.00     0.164 HD
ATOM     14  O   UNL     1       0.382  -0.593  -2.298  1.00  0.00    -0.273 OA
BRANCH  12  15
ATOM     15  C   UNL     1      -0.248   0.615  -4.307  1.00  0.00     0.227 C 
BRANCH  15  16
ATOM     16  N   UNL     1      -1.698   0.741  -4.175  1.00  0.00    -0.283 N 
ATOM     17  C   UNL     1      -2.496  -0.398  -4.162  1.00  0.00     0.266 C 
ATOM     18  C   UNL     1      -2.397   1.927  -4.185  1.00  0.00     0.148 C 
ATOM     19  O   UNL     1      -2.138  -1.547  -4.362  1.00  0.00    -0.268 OA
ATOM     20  C   UNL     1      -3.923   0.018  -4.024  1.00  0.00     0.081 C 
ATOM     21  S   UNL     1      -3.962   1.650  -3.465  1.00  0.00    -0.054 SA
ATOM     22  S   UNL     1      -2.012   3.391  -4.875  1.00  0.00    -0.052 S 
ATOM     23  C   UNL     1      -4.977  -0.683  -4.472  1.00  0.00     0.029 C 
BRANCH  23  24
ATOM     24  C   UNL     1      -6.321  -0.087  -4.505  1.00  0.00    -0.024 A 
ATOM     25  C   UNL     1      -6.591   0.987  -5.369  1.00  0.00     0.008 A 
ATOM     26  C   UNL     1      -7.275  -0.461  -3.559  1.00  0.00     0.008 A 
ATOM     27  C   UNL     1      -7.755   1.740  -5.219  1.00  0.00     0.004 A 
ATOM     28  C   UNL     1      -8.451   0.282  -3.426  1.00  0.00     0.004 A 
ATOM     29  C   UNL     1      -8.682   1.408  -4.228  1.00  0.00    -0.051 A 
ATOM     30  C   UNL     1      -9.895   2.260  -3.996  1.00  0.00     0.044 C 
ENDBRANCH  23  24
ENDBRANCH  15  16
ENDBRANCH  12  15
ENDBRANCH   6  11
ENDBRANCH   3   6
ENDBRANCH   1   2
BRANCH   1  31
ATOM     31  C   UNL     1       4.351   0.632  -3.319  1.00  0.00     0.023 C 
BRANCH  31  32
ATOM     32  C   UNL     1       4.817   0.329  -4.742  1.00  0.00     0.023 C 
BRANCH  32  33
ATOM     33  C   UNL     1       5.970   1.181  -5.250  1.00  0.00     0.116 C 
BRANCH  33  34
ATOM     34  N   UNL     1       7.296   0.738  -4.852  1.00  0.00    -0.352 N 
ATOM     35  C   UNL     1       8.518   1.385  -5.003  1.00  0.00     0.251 C 
ATOM     36  H   UNL     1       7.335  -0.143  -4.415  1.00  0.00     0.163 HD
ATOM     37  O   UNL     1       9.543   0.845  -4.647  1.00  0.00    -0.269 OA
BRANCH  35  38
ATOM     38  C   UNL     1       8.541   2.798  -5.475  1.00  0.00     0.039 A 
ATOM     39  C   UNL     1       9.340   3.704  -4.769  1.00  0.00     0.014 A 
ATOM     40  C   UNL     1       7.653   3.262  -6.442  1.00  0.00     0.014 A 
ATOM     41  C   UNL     1       9.055   5.066  -4.838  1.00  0.00     0.010 A 
ATOM     42  C   UNL     1       7.301   4.598  -6.441  1.00  0.00     0.010 A 
ATOM     43  C   UNL     1       7.953   5.486  -5.582  1.00  0.00    -0.014 A 
BRANCH  43  44
ATOM     44  C   UNL     1       7.340   6.798  -5.410  1.00  0.00     0.031 A 
ATOM     45  C   UNL     1       7.540   7.863  -6.410  1.00  0.00     0.074 A 
ATOM     46  C   UNL     1       6.535   7.012  -4.346  1.00  0.00     0.049 A 
ATOM     47  N   UNL     1       7.479   9.126  -6.150  1.00  0.00    -0.248 NA
ATOM     48  C   UNL     1       7.865   7.576  -7.800  1.00  0.00     0.031 C 
ATOM     49  C   UNL     1       5.661   8.156  -4.110  1.00  0.00     0.029 A 
ATOM     50  N   UNL     1       6.519   6.304  -3.134  1.00  0.00    -0.354 N 
ATOM     51  C   UNL     1       7.472   9.802  -7.350  1.00  0.00     0.074 A 
ATOM     52  C   UNL     1       7.785   8.796  -8.340  1.00  0.00     0.031 C 
ATOM     53  C   UNL     1       5.435   8.259  -2.791  1.00  0.00     0.029 A 
ATOM     54  C   UNL     1       6.263   7.264  -2.132  1.00  0.00     0.049 A 
ATOM     55  H   UNL     1       6.657   5.337  -3.010  1.00  0.00     0.167 HD
ATOM     56  C   UNL     1       7.060  11.104  -7.385  1.00  0.00     0.037 A 
ATOM     57  C   UNL     1       7.170   7.525  -1.148  1.00  0.00     0.037 A 
ATOM     58  C   UNL     1       6.759  11.599  -6.041  1.00  0.00     0.049 A 
ATOM     59  C   UNL     1       7.649   8.956  -1.121  1.00  0.00     0.074 A 
ATOM     60  C   UNL     1       5.571  11.737  -5.342  1.00  0.00     0.029 A 
ATOM     61  N   UNL     1       7.781  11.738  -5.108  1.00  0.00    -0.354 N 
ATOM     62  N   UNL     1       7.506   9.790  -2.114  1.00  0.00    -0.248 NA
ATOM     63  C   UNL     1       8.351   9.554   0.011  1.00  0.00     0.031 C 
ATOM     64  C   UNL     1       5.881  11.903  -3.970  1.00  0.00     0.029 A 
ATOM     65  C   UNL     1       7.258  11.885  -3.837  1.00  0.00     0.049 A 
ATOM     66  H   UNL     1       8.742  11.733  -5.322  1.00  0.00     0.167 HD
ATOM     67  C   UNL     1       8.092  10.988  -1.796  1.00  0.00     0.074 A 
ATOM     68  C   UNL     1       8.584  10.798  -0.444  1.00  0.00     0.031 C 
ATOM     69  C   UNL     1       8.129  12.029  -2.679  1.00  0.00     0.037 A 
BRANCH  56  70
ATOM     70  C   UNL     1       6.619  11.805  -8.655  1.00  0.00     0.057 A 
ATOM     71  C   UNL     1       5.608  12.788  -8.630  1.00  0.00     0.134 A 
ATOM     72  C   UNL     1       7.099  11.513  -9.942  1.00  0.00     0.134 A 
ATOM     73  F   UNL     1       5.136  13.290  -7.482  1.00  0.00    -0.206 F 
ATOM     74  C   UNL     1       5.024  13.316  -9.791  1.00  0.00     0.040 A 
ATOM     75  C   UNL     1       6.489  11.989 -11.114  1.00  0.00     0.040 A 
ATOM     76  F   UNL     1       8.218  10.800 -10.125  1.00  0.00    -0.206 F 
ATOM     77  C   UNL     1       5.431  12.880 -11.041  1.00  0.00     0.006 A 
ENDBRANCH  56  70
BRANCH  57  78
ATOM     78  C   UNL     1       7.976   6.341  -0.754  1.00  0.00     0.057 A 
ATOM     79  C   UNL     1       7.324   5.264  -0.129  1.00  0.00     0.134 A 
ATOM     80  C   UNL     1       9.236   6.089  -1.299  1.00  0.00     0.134 A 
ATOM     81  F   UNL     1       6.123   5.444   0.442  1.00  0.00    -0.206 F 
ATOM     82  C   UNL     1       7.839   3.966  -0.161  1.00  0.00     0.040 A 
ATOM     83  C   UNL     1       9.774   4.796  -1.318  1.00  0.00     0.040 A 
ATOM     84  F   UNL     1       9.918   7.062  -1.920  1.00  0.00    -0.206 F 
ATOM     85  C   UNL     1       9.055   3.724  -0.789  1.00  0.00     0.006 A 
ENDBRANCH  57  78
BRANCH  69  86
ATOM     86  C   UNL     1       8.902  13.315  -2.509  1.00  0.00     0.057 A 
ATOM     87  C   UNL     1      10.099  13.429  -1.789  1.00  0.00     0.134 A 
ATOM     88  C   UNL     1       8.513  14.479  -3.211  1.00  0.00     0.134 A 
ATOM     89  F   UNL     1      10.648  12.377  -1.168  1.00  0.00    -0.206 F 
ATOM     90  C   UNL     1      10.824  14.628  -1.720  1.00  0.00     0.040 A 
ATOM     91  C   UNL     1       9.256  15.663  -3.194  1.00  0.00     0.040 A 
ATOM     92  F   UNL     1       7.403  14.512  -3.963  1.00  0.00    -0.206 F 
ATOM     93  C   UNL     1      10.411  15.746  -2.433  1.00  0.00     0.006 A 
ENDBRANCH  69  86
ENDBRANCH  43  44
ENDBRANCH  35  38
ENDBRANCH  33  34
ENDBRANCH  32  33
ENDBRANCH  31  32
ENDBRANCH   1  31
TORSDOF 17
