REMARK SMILES Nc1ccc([C@H]([NH3+])C(=O)NCCCCNC(=O)c2ccc(-c3c4nc(c(-c5c(F)cccc5F)c5ccc([nH]5)c(-c5c(F)cccc5F)c5nc(c(-c6c(F)cccc6F)c6ccc3[nH]6)C=C5)C=C4)cc2)cc1C(F)(F)F
REMARK SMILES IDX 12 1 11 2 10 3 8 4 9 5 6 7 5 8 2 9 3 10 73 11 4 12 72 13
REMARK SMILES IDX 1 14 74 17 75 18 76 19 77 20 7 21 13 25 14 26 15 27 16 28
REMARK SMILES IDX 17 30 18 31 19 32 71 33 20 34 70 35 21 36 22 37 23 38 64 39
REMARK SMILES IDX 24 40 69 41 63 42 65 43 25 44 68 45 62 46 61 47 26 49 52 50
REMARK SMILES IDX 35 51 51 52 36 53 39 54 50 55 66 56 37 57 38 58 49 60 67 61
REMARK SMILES IDX 40 62 27 63 28 64 33 65 29 66 30 67 32 68 34 69 31 70 53 71
REMARK SMILES IDX 54 72 59 73 55 74 56 75 58 76 60 77 57 78 41 79 42 80 47 81
REMARK SMILES IDX 43 82 44 83 46 84 48 85 45 86
REMARK H PARENT 10 6 1 15 1 16 7 22 7 23 7 24 15 29 65 48 39 59
REMARK Flexibility Score: inf
ROOT
ATOM      1  C   UNL     1      -0.894  -3.195   1.657  1.00  0.00     0.023 C 
ENDROOT
BRANCH   1   2
ATOM      2  C   UNL     1      -2.011  -2.636   0.786  1.00  0.00     0.116 C 
BRANCH   2   3
ATOM      3  N   UNL     1      -3.021  -1.903   1.535  1.00  0.00    -0.351 N 
ATOM      4  C   UNL     1      -3.781  -0.824   1.161  1.00  0.00     0.283 C 
ATOM      5  O   UNL     1      -4.680  -0.479   1.938  1.00  0.00    -0.268 OA
ATOM      6  H   UNL     1      -3.183  -2.231   2.449  1.00  0.00     0.163 HD
BRANCH   4   7
ATOM      7  C   UNL     1      -3.556  -0.058  -0.172  1.00  0.00     0.302 C 
BRANCH   7   8
ATOM      8  C   UNL     1      -4.092  -0.721  -1.433  1.00  0.00     0.020 A 
ATOM      9  C   UNL     1      -4.655  -1.937  -3.947  1.00  0.00     0.044 A 
ATOM     10  C   UNL     1      -4.637  -0.544  -3.799  1.00  0.00     0.026 A 
ATOM     11  C   UNL     1      -4.399  -2.725  -2.822  1.00  0.00     0.079 A 
ATOM     12  C   UNL     1      -4.344   0.058  -2.570  1.00  0.00     0.012 A 
ATOM     13  C   UNL     1      -4.213  -2.103  -1.572  1.00  0.00     0.025 A 
BRANCH   9  14
ATOM     14  N   UNL     1      -4.793  -2.471  -5.218  1.00  0.00    -0.398 N 
ATOM     15  H   UNL     1      -4.973  -1.879  -5.984  1.00  0.00     0.156 HD
ATOM     16  H   UNL     1      -4.712  -3.443  -5.355  1.00  0.00     0.156 HD
ENDBRANCH   9  14
BRANCH  11  17
ATOM     17  C   UNL     1      -4.196  -4.219  -2.866  1.00  0.00     0.418 C 
ATOM     18  F   UNL     1      -2.891  -4.555  -2.642  1.00  0.00    -0.166 F 
ATOM     19  F   UNL     1      -4.903  -4.873  -1.898  1.00  0.00    -0.166 F 
ATOM     20  F   UNL     1      -4.538  -4.818  -4.041  1.00  0.00    -0.166 F 
ENDBRANCH  11  17
ENDBRANCH   7   8
BRANCH   7  21
ATOM     21  N   UNL     1      -2.126   0.288  -0.334  1.00  0.00    -0.343 N 
ATOM     22  H   UNL     1      -1.578  -0.567  -0.429  1.00  0.00     0.345 HD
ATOM     23  H   UNL     1      -1.806   0.807   0.484  1.00  0.00     0.345 HD
ATOM     24  H   UNL     1      -2.007   0.862  -1.169  1.00  0.00     0.345 HD
ENDBRANCH   7  21
ENDBRANCH   4   7
ENDBRANCH   2   3
ENDBRANCH   1   2
BRANCH   1  25
ATOM     25  C   UNL     1      -1.338  -4.228   2.694  1.00  0.00     0.023 C 
BRANCH  25  26
ATOM     26  C   UNL     1      -2.212  -5.367   2.177  1.00  0.00     0.116 C 
BRANCH  26  27
ATOM     27  N   UNL     1      -1.580  -6.153   1.130  1.00  0.00    -0.352 N 
ATOM     28  C   UNL     1      -1.376  -7.511   1.054  1.00  0.00     0.251 C 
ATOM     29  H   UNL     1      -1.249  -5.636   0.360  1.00  0.00     0.163 HD
ATOM     30  O   UNL     1      -0.703  -7.982   0.145  1.00  0.00    -0.269 OA
BRANCH  28  31
ATOM     31  C   UNL     1      -1.942  -8.409   2.087  1.00  0.00     0.039 A 
ATOM     32  C   UNL     1      -1.142  -9.433   2.598  1.00  0.00     0.014 A 
ATOM     33  C   UNL     1      -3.254  -8.255   2.541  1.00  0.00     0.014 A 
ATOM     34  C   UNL     1      -1.640 -10.268   3.601  1.00  0.00     0.010 A 
ATOM     35  C   UNL     1      -3.717  -9.030   3.603  1.00  0.00     0.010 A 
ATOM     36  C   UNL     1      -2.923 -10.057   4.132  1.00  0.00    -0.014 A 
BRANCH  36  37
ATOM     37  C   UNL     1      -3.455 -10.931   5.212  1.00  0.00     0.031 A 
ATOM     38  C   UNL     1      -4.671 -11.785   4.963  1.00  0.00     0.074 A 
ATOM     39  C   UNL     1      -2.866 -10.937   6.424  1.00  0.00     0.049 A 
ATOM     40  N   UNL     1      -5.287 -12.604   5.778  1.00  0.00    -0.248 NA
ATOM     41  C   UNL     1      -5.294 -11.684   3.634  1.00  0.00     0.031 C 
ATOM     42  C   UNL     1      -1.718 -10.116   6.813  1.00  0.00     0.029 A 
ATOM     43  N   UNL     1      -3.155 -11.660   7.555  1.00  0.00    -0.354 N 
ATOM     44  C   UNL     1      -6.371 -13.103   5.065  1.00  0.00     0.074 A 
ATOM     45  C   UNL     1      -6.367 -12.447   3.777  1.00  0.00     0.031 C 
ATOM     46  C   UNL     1      -1.380 -10.405   8.080  1.00  0.00     0.029 A 
ATOM     47  C   UNL     1      -2.304 -11.406   8.604  1.00  0.00     0.049 A 
ATOM     48  H   UNL     1      -3.901 -12.300   7.609  1.00  0.00     0.167 HD
ATOM     49  C   UNL     1      -7.271 -14.045   5.435  1.00  0.00     0.037 A 
ATOM     50  C   UNL     1      -2.270 -11.926   9.846  1.00  0.00     0.037 A 
ATOM     51  C   UNL     1      -7.260 -14.718   6.707  1.00  0.00     0.049 A 
ATOM     52  C   UNL     1      -3.273 -12.982  10.227  1.00  0.00     0.074 A 
ATOM     53  C   UNL     1      -8.098 -15.723   7.159  1.00  0.00     0.029 A 
ATOM     54  N   UNL     1      -6.365 -14.453   7.732  1.00  0.00    -0.354 N 
ATOM     55  N   UNL     1      -4.247 -13.496   9.516  1.00  0.00    -0.248 NA
ATOM     56  C   UNL     1      -3.159 -13.542  11.581  1.00  0.00     0.031 C 
ATOM     57  C   UNL     1      -7.738 -16.034   8.474  1.00  0.00     0.029 A 
ATOM     58  C   UNL     1      -6.638 -15.266   8.820  1.00  0.00     0.049 A 
ATOM     59  H   UNL     1      -5.642 -13.786   7.693  1.00  0.00     0.167 HD
ATOM     60  C   UNL     1      -4.833 -14.467  10.319  1.00  0.00     0.074 A 
ATOM     61  C   UNL     1      -4.095 -14.479  11.564  1.00  0.00     0.031 C 
ATOM     62  C   UNL     1      -5.886 -15.278  10.049  1.00  0.00     0.037 A 
BRANCH  49  63
ATOM     63  C   UNL     1      -8.341 -14.409   4.445  1.00  0.00     0.057 A 
ATOM     64  C   UNL     1      -8.050 -15.102   3.261  1.00  0.00     0.134 A 
ATOM     65  C   UNL     1      -9.683 -14.093   4.692  1.00  0.00     0.134 A 
ATOM     66  F   UNL     1      -6.784 -15.425   2.956  1.00  0.00    -0.206 F 
ATOM     67  C   UNL     1      -9.050 -15.443   2.348  1.00  0.00     0.040 A 
ATOM     68  C   UNL     1     -10.695 -14.455   3.801  1.00  0.00     0.040 A 
ATOM     69  F   UNL     1     -10.035 -13.435   5.807  1.00  0.00    -0.206 F 
ATOM     70  C   UNL     1     -10.379 -15.126   2.622  1.00  0.00     0.006 A 
ENDBRANCH  49  63
BRANCH  50  71
ATOM     71  C   UNL     1      -1.232 -11.487  10.815  1.00  0.00     0.057 A 
ATOM     72  C   UNL     1      -0.216 -12.356  11.232  1.00  0.00     0.134 A 
ATOM     73  C   UNL     1      -1.248 -10.203  11.370  1.00  0.00     0.134 A 
ATOM     74  F   UNL     1      -0.158 -13.607  10.751  1.00  0.00    -0.206 F 
ATOM     75  C   UNL     1       0.726 -11.976  12.189  1.00  0.00     0.040 A 
ATOM     76  C   UNL     1      -0.293  -9.799  12.305  1.00  0.00     0.040 A 
ATOM     77  F   UNL     1      -2.188  -9.318  11.006  1.00  0.00    -0.206 F 
ATOM     78  C   UNL     1       0.691 -10.691  12.726  1.00  0.00     0.006 A 
ENDBRANCH  50  71
BRANCH  62  79
ATOM     79  C   UNL     1      -6.261 -16.287  11.097  1.00  0.00     0.057 A 
ATOM     80  C   UNL     1      -6.830 -15.917  12.322  1.00  0.00     0.134 A 
ATOM     81  C   UNL     1      -6.056 -17.654  10.868  1.00  0.00     0.134 A 
ATOM     82  F   UNL     1      -7.044 -14.624  12.611  1.00  0.00    -0.206 F 
ATOM     83  C   UNL     1      -7.143 -16.866  13.297  1.00  0.00     0.040 A 
ATOM     84  C   UNL     1      -6.396 -18.615  11.821  1.00  0.00     0.040 A 
ATOM     85  F   UNL     1      -5.527 -18.080   9.710  1.00  0.00    -0.206 F 
ATOM     86  C   UNL     1      -6.930 -18.220  13.045  1.00  0.00     0.006 A 
ENDBRANCH  62  79
ENDBRANCH  36  37
ENDBRANCH  28  31
ENDBRANCH  26  27
ENDBRANCH  25  26
ENDBRANCH   1  25
TORSDOF 15
