REMARK SMILES CC(C)CCOc1ccc(/C=C2\SC(=S)N(CC(=O)NCCCCNC(=O)c3ccc(-c4c5nc(c(-c6c(F)cccc6F)c6ccc([nH]6)c(-c6c(F)cccc6F)c6nc(c(-c7c(F)cccc7F)c7ccc4[nH]7)C=C6)C=C5)cc3)C2=O)cc1
REMARK SMILES IDX 18 1 19 2 20 3 17 5 16 6 11 7 12 8 13 9 82 10 14 11 83 12
REMARK SMILES IDX 15 13 10 14 7 15 8 16 85 17 9 18 84 19 6 20 5 21 4 22 2 23
REMARK SMILES IDX 1 24 3 25 21 26 22 27 23 28 24 29 25 30 26 31 27 33 28 34
REMARK SMILES IDX 29 35 81 36 30 37 80 38 31 39 32 40 33 41 74 42 34 43 79 44
REMARK SMILES IDX 73 45 75 46 35 47 78 48 72 49 71 50 36 52 62 53 45 54 61 55
REMARK SMILES IDX 46 56 49 57 60 58 76 59 47 60 48 61 59 63 77 64 50 65 37 66
REMARK SMILES IDX 38 67 43 68 39 69 40 70 42 71 44 72 41 73 63 74 64 75 69 76
REMARK SMILES IDX 65 77 66 78 68 79 70 80 67 81 51 82 52 83 57 84 53 85 54 86
REMARK SMILES IDX 56 87 58 88 55 89
REMARK H PARENT 20 4 25 32 75 51 49 62
REMARK Flexibility Score: inf
ROOT
ATOM      1  C   UNL     1       9.009   2.018   6.342  1.00  0.00     0.240 C 
ATOM      2  O   UNL     1      10.082   1.408   6.395  1.00  0.00    -0.273 OA
ATOM      3  N   UNL     1       8.357   2.215   7.524  1.00  0.00    -0.355 N 
ATOM      4  H   UNL     1       8.677   1.651   8.265  1.00  0.00     0.163 HD
ENDROOT
BRANCH   1   5
ATOM      5  C   UNL     1       8.557   2.672   5.030  1.00  0.00     0.227 C 
BRANCH   5   6
ATOM      6  N   UNL     1       7.123   2.577   4.794  1.00  0.00    -0.283 N 
ATOM      7  C   UNL     1       4.329   0.343   4.195  1.00  0.00     0.029 C 
ATOM      8  C   UNL     1       5.100   1.416   4.445  1.00  0.00     0.081 C 
ATOM      9  S   UNL     1       4.624   3.056   4.668  1.00  0.00    -0.054 SA
ATOM     10  C   UNL     1       6.579   1.319   4.582  1.00  0.00     0.266 C 
ATOM     11  C   UNL     1       6.266   3.645   4.671  1.00  0.00     0.148 C 
ATOM     12  O   UNL     1       7.203   0.269   4.505  1.00  0.00    -0.268 OA
ATOM     13  S   UNL     1       6.618   5.270   4.555  1.00  0.00    -0.052 S 
BRANCH   7  14
ATOM     14  C   UNL     1       2.865   0.307   4.004  1.00  0.00    -0.024 A 
ATOM     15  C   UNL     1       0.121   0.168   3.446  1.00  0.00     0.119 A 
ATOM     16  C   UNL     1       0.767  -0.937   3.991  1.00  0.00     0.047 A 
ATOM     17  C   UNL     1       0.796   1.364   3.287  1.00  0.00     0.047 A 
ATOM     18  C   UNL     1       2.139  -0.862   4.283  1.00  0.00     0.012 A 
ATOM     19  C   UNL     1       2.170   1.397   3.470  1.00  0.00     0.012 A 
BRANCH  15  20
ATOM     20  O   UNL     1      -1.178   0.108   3.032  1.00  0.00    -0.494 OA
BRANCH  20  21
ATOM     21  C   UNL     1      -1.277  -0.257   1.638  1.00  0.00     0.230 C 
BRANCH  21  22
ATOM     22  C   UNL     1      -0.945   0.879   0.645  1.00  0.00     0.044 C 
BRANCH  22  23
ATOM     23  C   UNL     1       0.511   0.901   0.117  1.00  0.00    -0.014 C 
ATOM     24  C   UNL     1       0.827  -0.270  -0.811  1.00  0.00     0.007 C 
ATOM     25  C   UNL     1       0.810   2.229  -0.585  1.00  0.00     0.007 C 
ENDBRANCH  22  23
ENDBRANCH  21  22
ENDBRANCH  20  21
ENDBRANCH  15  20
ENDBRANCH   7  14
ENDBRANCH   5   6
ENDBRANCH   1   5
BRANCH   3  26
ATOM     26  C   UNL     1       7.276   3.112   7.875  1.00  0.00     0.116 C 
BRANCH  26  27
ATOM     27  C   UNL     1       5.973   2.371   8.168  1.00  0.00     0.023 C 
BRANCH  27  28
ATOM     28  C   UNL     1       5.984   1.558   9.462  1.00  0.00     0.023 C 
BRANCH  28  29
ATOM     29  C   UNL     1       6.299   2.354  10.723  1.00  0.00     0.116 C 
BRANCH  29  30
ATOM     30  N   UNL     1       5.343   3.420  10.984  1.00  0.00    -0.352 N 
ATOM     31  C   UNL     1       4.737   3.757  12.172  1.00  0.00     0.251 C 
ATOM     32  H   UNL     1       5.098   3.974  10.207  1.00  0.00     0.163 HD
ATOM     33  O   UNL     1       3.857   4.610  12.205  1.00  0.00    -0.269 OA
BRANCH  31  34
ATOM     34  C   UNL     1       5.129   3.046  13.406  1.00  0.00     0.039 A 
ATOM     35  C   UNL     1       4.133   2.489  14.210  1.00  0.00     0.014 A 
ATOM     36  C   UNL     1       6.478   2.876  13.730  1.00  0.00     0.014 A 
ATOM     37  C   UNL     1       4.493   1.685  15.293  1.00  0.00     0.010 A 
ATOM     38  C   UNL     1       6.834   2.012  14.760  1.00  0.00     0.010 A 
ATOM     39  C   UNL     1       5.845   1.398  15.544  1.00  0.00    -0.014 A 
BRANCH  39  40
ATOM     40  C   UNL     1       6.247   0.435  16.601  1.00  0.00     0.031 A 
ATOM     41  C   UNL     1       7.082   0.890  17.764  1.00  0.00     0.074 A 
ATOM     42  C   UNL     1       5.924  -0.867  16.471  1.00  0.00     0.049 A 
ATOM     43  N   UNL     1       7.601   0.184  18.736  1.00  0.00    -0.248 NA
ATOM     44  C   UNL     1       7.396   2.326  17.830  1.00  0.00     0.031 C 
ATOM     45  C   UNL     1       5.154  -1.444  15.367  1.00  0.00     0.029 A 
ATOM     46  N   UNL     1       6.215  -1.946  17.268  1.00  0.00    -0.354 N 
ATOM     47  C   UNL     1       8.307   1.085  19.521  1.00  0.00     0.074 A 
ATOM     48  C   UNL     1       8.199   2.379  18.883  1.00  0.00     0.031 C 
ATOM     49  C   UNL     1       5.014  -2.763  15.569  1.00  0.00     0.029 A 
ATOM     50  C   UNL     1       5.723  -3.136  16.788  1.00  0.00     0.049 A 
ATOM     51  H   UNL     1       6.728  -1.874  18.106  1.00  0.00     0.167 HD
ATOM     52  C   UNL     1       8.967   0.859  20.682  1.00  0.00     0.037 A 
ATOM     53  C   UNL     1       5.843  -4.389  17.267  1.00  0.00     0.037 A 
ATOM     54  C   UNL     1       9.064  -0.427  21.321  1.00  0.00     0.049 A 
ATOM     55  C   UNL     1       6.615  -4.619  18.538  1.00  0.00     0.074 A 
ATOM     56  C   UNL     1       9.666  -0.748  22.525  1.00  0.00     0.029 A 
ATOM     57  N   UNL     1       8.553  -1.608  20.802  1.00  0.00    -0.354 N 
ATOM     58  N   UNL     1       7.219  -3.747  19.307  1.00  0.00    -0.248 NA
ATOM     59  C   UNL     1       6.722  -6.008  19.006  1.00  0.00     0.031 C 
ATOM     60  C   UNL     1       9.569  -2.131  22.708  1.00  0.00     0.029 A 
ATOM     61  C   UNL     1       8.854  -2.664  21.648  1.00  0.00     0.049 A 
ATOM     62  H   UNL     1       8.051  -1.685  19.959  1.00  0.00     0.167 HD
ATOM     63  C   UNL     1       7.752  -4.475  20.364  1.00  0.00     0.074 A 
ATOM     64  C   UNL     1       7.386  -5.859  20.144  1.00  0.00     0.031 C 
ATOM     65  C   UNL     1       8.478  -4.037  21.421  1.00  0.00     0.037 A 
BRANCH  52  66
ATOM     66  C   UNL     1       9.639   2.032  21.337  1.00  0.00     0.057 A 
ATOM     67  C   UNL     1       8.905   3.074  21.920  1.00  0.00     0.134 A 
ATOM     68  C   UNL     1      11.035   2.102  21.422  1.00  0.00     0.134 A 
ATOM     69  F   UNL     1       7.564   3.075  21.865  1.00  0.00    -0.206 F 
ATOM     70  C   UNL     1       9.535   4.157  22.536  1.00  0.00     0.040 A 
ATOM     71  C   UNL     1      11.676   3.164  22.063  1.00  0.00     0.040 A 
ATOM     72  F   UNL     1      11.800   1.135  20.893  1.00  0.00    -0.206 F 
ATOM     73  C   UNL     1      10.925   4.199  22.616  1.00  0.00     0.006 A 
ENDBRANCH  52  66
BRANCH  53  74
ATOM     74  C   UNL     1       5.209  -5.526  16.551  1.00  0.00     0.057 A 
ATOM     75  C   UNL     1       4.129  -6.220  17.110  1.00  0.00     0.134 A 
ATOM     76  C   UNL     1       5.673  -5.957  15.302  1.00  0.00     0.134 A 
ATOM     77  F   UNL     1       3.651  -5.868  18.313  1.00  0.00    -0.206 F 
ATOM     78  C   UNL     1       3.548  -7.314  16.465  1.00  0.00     0.040 A 
ATOM     79  C   UNL     1       5.083  -7.030  14.633  1.00  0.00     0.040 A 
ATOM     80  F   UNL     1       6.699  -5.331  14.708  1.00  0.00    -0.206 F 
ATOM     81  C   UNL     1       4.023  -7.718  15.220  1.00  0.00     0.006 A 
ENDBRANCH  53  74
BRANCH  65  82
ATOM     82  C   UNL     1       8.897  -5.055  22.441  1.00  0.00     0.057 A 
ATOM     83  C   UNL     1       9.886  -6.010  22.173  1.00  0.00     0.134 A 
ATOM     84  C   UNL     1       8.339  -5.047  23.726  1.00  0.00     0.134 A 
ATOM     85  F   UNL     1      10.452  -6.081  20.959  1.00  0.00    -0.206 F 
ATOM     86  C   UNL     1      10.290  -6.933  23.140  1.00  0.00     0.040 A 
ATOM     87  C   UNL     1       8.756  -5.944  24.710  1.00  0.00     0.040 A 
ATOM     88  F   UNL     1       7.393  -4.153  24.053  1.00  0.00    -0.206 F 
ATOM     89  C   UNL     1       9.731  -6.895  24.416  1.00  0.00     0.006 A 
ENDBRANCH  65  82
ENDBRANCH  39  40
ENDBRANCH  31  34
ENDBRANCH  29  30
ENDBRANCH  28  29
ENDBRANCH  27  28
ENDBRANCH  26  27
ENDBRANCH   3  26
TORSDOF 17
