REMARK SMILES Cc1ccc(C(=O)N2C[C@@H](C(=O)NCCCCNC(=O)c3ccc(-c4c5nc(c(-c6c(F)cccc6F)c6ccc([nH]6)c(-c6c(F)cccc6F)c6nc(c(-c7c(F)cccc7F)c7ccc4[nH]7)C=C6)C=C5)cc3)C[C@H](C(=O)N3CCOCC3)C2)cc1F
REMARK SMILES IDX 15 1 14 2 13 3 11 4 12 5 10 7 8 8 9 9 85 10 76 11 75 12 6 13
REMARK SMILES IDX 7 14 5 15 1 16 2 17 3 18 87 19 4 20 86 21 88 22 77 23 78 24
REMARK SMILES IDX 79 25 80 26 84 27 81 28 83 29 82 30 16 31 17 32 18 33 19 34
REMARK SMILES IDX 20 36 21 37 22 38 74 39 23 40 73 41 24 42 25 43 26 44 67 45
REMARK SMILES IDX 27 46 72 47 66 48 68 49 28 50 71 51 65 52 64 53 29 55 55 56
REMARK SMILES IDX 38 57 54 58 39 59 42 60 53 61 69 62 40 63 41 64 52 66 70 67
REMARK SMILES IDX 43 68 30 69 31 70 36 71 32 72 33 73 35 74 37 75 34 76 56 77
REMARK SMILES IDX 57 78 62 79 58 80 59 81 61 82 63 83 60 84 44 85 45 86 50 87
REMARK SMILES IDX 46 88 47 89 49 90 51 91 48 92
REMARK H PARENT 13 6 18 35 68 54 42 65
REMARK Flexibility Score: inf
ROOT
ATOM      1  C   UNL     1      -9.219   1.104   0.591  1.00  0.00     0.023 C 
ENDROOT
BRANCH   1   2
ATOM      2  C   UNL     1      -8.022   0.739   1.469  1.00  0.00     0.116 C 
BRANCH   2   3
ATOM      3  N   UNL     1      -8.235  -0.529   2.138  1.00  0.00    -0.356 N 
ATOM      4  C   UNL     1      -7.744  -1.762   1.855  1.00  0.00     0.224 C 
ATOM      5  O   UNL     1      -8.236  -2.727   2.444  1.00  0.00    -0.275 OA
ATOM      6  H   UNL     1      -8.831  -0.489   2.921  1.00  0.00     0.163 HD
BRANCH   4   7
ATOM      7  C   UNL     1      -6.606  -1.959   0.871  1.00  0.00     0.099 C 
ATOM      8  N   UNL     1      -4.278  -1.190   0.393  1.00  0.00    -0.337 N 
ATOM      9  C   UNL     1      -5.349  -1.268   1.375  1.00  0.00     0.133 C 
ATOM     10  C   UNL     1      -4.631  -0.744  -0.952  1.00  0.00     0.133 C 
ATOM     11  C   UNL     1      -5.821  -1.512  -1.554  1.00  0.00     0.099 C 
ATOM     12  C   UNL     1      -6.989  -1.690  -0.588  1.00  0.00     0.030 C 
BRANCH   8  13
ATOM     13  C   UNL     1      -2.983  -1.344   0.879  1.00  0.00     0.254 C 
ATOM     14  O   UNL     1      -2.728  -2.032   1.867  1.00  0.00    -0.269 OA
BRANCH  13  15
ATOM     15  C   UNL     1      -1.860  -0.572   0.303  1.00  0.00     0.042 A 
ATOM     16  C   UNL     1       1.697   1.782  -0.237  1.00  0.00     0.047 C 
ATOM     17  C   UNL     1       0.439   0.971  -0.141  1.00  0.00    -0.015 A 
ATOM     18  C   UNL     1      -0.819   1.584  -0.083  1.00  0.00     0.007 A 
ATOM     19  C   UNL     1       0.518  -0.420  -0.026  1.00  0.00     0.126 A 
ATOM     20  C   UNL     1      -1.966   0.816   0.144  1.00  0.00     0.014 A 
ATOM     21  C   UNL     1      -0.613  -1.194   0.201  1.00  0.00     0.053 A 
ATOM     22  F   UNL     1       1.715  -1.023  -0.072  1.00  0.00    -0.207 F 
ENDBRANCH  13  15
ENDBRANCH   8  13
BRANCH  11  23
ATOM     23  C   UNL     1      -5.300  -2.699  -2.374  1.00  0.00     0.227 C 
ATOM     24  O   UNL     1      -5.035  -2.498  -3.566  1.00  0.00    -0.275 OA
ATOM     25  N   UNL     1      -4.885  -3.853  -1.762  1.00  0.00    -0.338 N 
ATOM     26  C   UNL     1      -5.615  -4.693  -0.815  1.00  0.00     0.148 C 
ATOM     27  C   UNL     1      -3.633  -4.470  -2.194  1.00  0.00     0.148 C 
ATOM     28  C   UNL     1      -4.723  -5.013   0.392  1.00  0.00     0.181 C 
ATOM     29  C   UNL     1      -2.785  -4.773  -0.953  1.00  0.00     0.181 C 
ATOM     30  O   UNL     1      -3.497  -5.631  -0.041  1.00  0.00    -0.378 OA
ENDBRANCH  11  23
ENDBRANCH   4   7
ENDBRANCH   2   3
ENDBRANCH   1   2
BRANCH   1  31
ATOM     31  C   UNL     1     -10.529   1.334   1.349  1.00  0.00     0.023 C 
BRANCH  31  32
ATOM     32  C   UNL     1     -10.409   2.367   2.451  1.00  0.00     0.116 C 
BRANCH  32  33
ATOM     33  N   UNL     1      -9.944   3.660   1.952  1.00  0.00    -0.352 N 
ATOM     34  C   UNL     1      -9.794   4.824   2.676  1.00  0.00     0.251 C 
ATOM     35  H   UNL     1      -9.714   3.705   0.996  1.00  0.00     0.163 HD
ATOM     36  O   UNL     1      -9.635   5.911   2.147  1.00  0.00    -0.269 OA
BRANCH  34  37
ATOM     37  C   UNL     1      -9.776   4.693   4.134  1.00  0.00     0.039 A 
ATOM     38  C   UNL     1     -10.582   5.482   4.963  1.00  0.00     0.014 A 
ATOM     39  C   UNL     1      -8.929   3.714   4.643  1.00  0.00     0.014 A 
ATOM     40  C   UNL     1     -10.537   5.267   6.338  1.00  0.00     0.010 A 
ATOM     41  C   UNL     1      -9.020   3.387   5.959  1.00  0.00     0.010 A 
ATOM     42  C   UNL     1      -9.743   4.223   6.816  1.00  0.00    -0.014 A 
BRANCH  42  43
ATOM     43  C   UNL     1      -9.463   3.958   8.213  1.00  0.00     0.031 A 
ATOM     44  C   UNL     1     -10.494   3.433   9.106  1.00  0.00     0.074 A 
ATOM     45  C   UNL     1      -8.156   4.048   8.544  1.00  0.00     0.049 A 
ATOM     46  N   UNL     1     -10.468   3.548  10.385  1.00  0.00    -0.248 NA
ATOM     47  C   UNL     1     -11.681   2.746   8.611  1.00  0.00     0.031 C 
ATOM     48  C   UNL     1      -7.434   3.541   9.694  1.00  0.00     0.029 A 
ATOM     49  N   UNL     1      -7.195   4.779   7.837  1.00  0.00    -0.354 N 
ATOM     50  C   UNL     1     -11.398   2.663  10.889  1.00  0.00     0.074 A 
ATOM     51  C   UNL     1     -12.226   2.321   9.757  1.00  0.00     0.031 C 
ATOM     52  C   UNL     1      -6.255   4.191   9.778  1.00  0.00     0.029 A 
ATOM     53  C   UNL     1      -6.266   5.244   8.769  1.00  0.00     0.049 A 
ATOM     54  H   UNL     1      -7.177   4.935   6.865  1.00  0.00     0.167 HD
ATOM     55  C   UNL     1     -11.211   2.181  12.154  1.00  0.00     0.037 A 
ATOM     56  C   UNL     1      -6.230   6.589   9.014  1.00  0.00     0.037 A 
ATOM     57  C   UNL     1     -10.016   2.798  12.746  1.00  0.00     0.049 A 
ATOM     58  C   UNL     1      -6.676   6.889  10.422  1.00  0.00     0.074 A 
ATOM     59  C   UNL     1      -8.709   2.349  12.854  1.00  0.00     0.029 A 
ATOM     60  N   UNL     1      -9.979   4.172  12.974  1.00  0.00    -0.354 N 
ATOM     61  N   UNL     1      -7.515   6.149  11.096  1.00  0.00    -0.248 NA
ATOM     62  C   UNL     1      -6.152   8.005  11.199  1.00  0.00     0.031 C 
ATOM     63  C   UNL     1      -7.874   3.477  13.061  1.00  0.00     0.029 A 
ATOM     64  C   UNL     1      -8.672   4.608  13.101  1.00  0.00     0.049 A 
ATOM     65  H   UNL     1     -10.772   4.751  13.036  1.00  0.00     0.167 HD
ATOM     66  C   UNL     1      -7.609   6.625  12.375  1.00  0.00     0.074 A 
ATOM     67  C   UNL     1      -6.746   7.794  12.386  1.00  0.00     0.031 C 
ATOM     68  C   UNL     1      -8.364   6.013  13.335  1.00  0.00     0.037 A 
BRANCH  55  69
ATOM     69  C   UNL     1     -11.858   0.928  12.726  1.00  0.00     0.057 A 
ATOM     70  C   UNL     1     -11.252   0.237  13.799  1.00  0.00     0.134 A 
ATOM     71  C   UNL     1     -13.035   0.318  12.258  1.00  0.00     0.134 A 
ATOM     72  F   UNL     1     -10.181   0.725  14.439  1.00  0.00    -0.206 F 
ATOM     73  C   UNL     1     -11.715  -0.994  14.287  1.00  0.00     0.040 A 
ATOM     74  C   UNL     1     -13.493  -0.931  12.713  1.00  0.00     0.040 A 
ATOM     75  F   UNL     1     -13.844   0.917  11.380  1.00  0.00    -0.206 F 
ATOM     76  C   UNL     1     -12.825  -1.599  13.725  1.00  0.00     0.006 A 
ENDBRANCH  55  69
BRANCH  56  77
ATOM     77  C   UNL     1      -6.575   7.394   7.794  1.00  0.00     0.057 A 
ATOM     78  C   UNL     1      -5.735   7.271   6.667  1.00  0.00     0.134 A 
ATOM     79  C   UNL     1      -7.872   7.867   7.560  1.00  0.00     0.134 A 
ATOM     80  F   UNL     1      -4.475   6.828   6.814  1.00  0.00    -0.206 F 
ATOM     81  C   UNL     1      -6.208   7.451   5.363  1.00  0.00     0.040 A 
ATOM     82  C   UNL     1      -8.348   8.070   6.256  1.00  0.00     0.040 A 
ATOM     83  F   UNL     1      -8.737   8.024   8.572  1.00  0.00    -0.206 F 
ATOM     84  C   UNL     1      -7.533   7.813   5.153  1.00  0.00     0.006 A 
ENDBRANCH  56  77
BRANCH  68  85
ATOM     85  C   UNL     1      -8.783   6.643  14.639  1.00  0.00     0.057 A 
ATOM     86  C   UNL     1      -8.893   8.027  14.840  1.00  0.00     0.134 A 
ATOM     87  C   UNL     1      -9.257   5.847  15.707  1.00  0.00     0.134 A 
ATOM     88  F   UNL     1      -8.610   8.906  13.869  1.00  0.00    -0.206 F 
ATOM     89  C   UNL     1      -9.364   8.579  16.037  1.00  0.00     0.040 A 
ATOM     90  C   UNL     1      -9.792   6.386  16.878  1.00  0.00     0.040 A 
ATOM     91  F   UNL     1      -9.252   4.507  15.651  1.00  0.00    -0.206 F 
ATOM     92  C   UNL     1      -9.828   7.759  17.056  1.00  0.00     0.006 A 
ENDBRANCH  68  85
ENDBRANCH  42  43
ENDBRANCH  34  37
ENDBRANCH  32  33
ENDBRANCH  31  32
ENDBRANCH   1  31
TORSDOF 14
