REMARK SMILES O=C(NCCCCNC(=O)c1cccc(NC(=O)c2ccc(N3C(=O)CCC3=O)cc2)c1)c1ccc(-c2c3nc(c(-c4c(F)cccc4F)c4ccc([nH]4)c(-c4c(F)cccc4F)c4nc(c(-c5c(F)cccc5F)c5ccc2[nH]5)C=C4)C=C3)cc1
REMARK SMILES IDX 6 1 5 2 4 3 3 4 1 5 2 6 33 8 34 9 86 10 35 11 85 12 36 13
REMARK SMILES IDX 37 14 38 15 79 16 39 17 84 18 78 19 80 20 40 21 83 22 77 23
REMARK SMILES IDX 76 24 41 26 67 27 50 28 66 29 51 30 54 31 65 32 81 33 52 34
REMARK SMILES IDX 53 35 64 37 82 38 55 39 42 40 43 41 48 42 44 43 45 44 47 45
REMARK SMILES IDX 49 46 46 47 68 48 69 49 74 50 70 51 71 52 73 53 75 54 72 55
REMARK SMILES IDX 56 56 57 57 62 58 58 59 59 60 61 61 63 62 60 63 7 64 8 65
REMARK SMILES IDX 9 66 10 68 11 69 12 70 32 71 13 72 15 73 14 74 16 75 17 76
REMARK SMILES IDX 18 78 19 79 20 80 31 81 21 82 30 83 22 84 23 85 24 86 28 87
REMARK SMILES IDX 25 88 26 89 27 90 29 91
REMARK H PARENT 3 7 80 25 54 36 8 67 16 77
REMARK Flexibility Score: inf
ROOT
ATOM      1  C   UNL     1       4.425   0.411  -3.975  1.00  0.00     0.023 C 
ENDROOT
BRANCH   1   2
ATOM      2  C   UNL     1       4.896  -0.408  -2.777  1.00  0.00     0.023 C 
BRANCH   2   3
ATOM      3  C   UNL     1       4.596   0.197  -1.414  1.00  0.00     0.116 C 
BRANCH   3   4
ATOM      4  N   UNL     1       3.174   0.328  -1.139  1.00  0.00    -0.352 N 
ATOM      5  O   UNL     1       1.246   0.005  -0.007  1.00  0.00    -0.269 OA
ATOM      6  C   UNL     1       2.463  -0.088  -0.033  1.00  0.00     0.251 C 
ATOM      7  H   UNL     1       2.646   0.775  -1.839  1.00  0.00     0.163 HD
BRANCH   6   8
ATOM      8  C   UNL     1       3.190  -0.685   1.111  1.00  0.00     0.039 A 
ATOM      9  C   UNL     1       4.353  -0.090   1.599  1.00  0.00     0.014 A 
ATOM     10  C   UNL     1       2.716  -1.872   1.678  1.00  0.00     0.014 A 
ATOM     11  C   UNL     1       5.132  -0.767   2.527  1.00  0.00     0.010 A 
ATOM     12  C   UNL     1       3.453  -2.502   2.687  1.00  0.00     0.010 A 
ATOM     13  C   UNL     1       4.688  -1.975   3.092  1.00  0.00    -0.014 A 
BRANCH  13  14
ATOM     14  C   UNL     1       5.519  -2.617   4.142  1.00  0.00     0.031 A 
ATOM     15  C   UNL     1       6.158  -3.962   3.931  1.00  0.00     0.074 A 
ATOM     16  C   UNL     1       5.752  -1.930   5.278  1.00  0.00     0.049 A 
ATOM     17  N   UNL     1       6.974  -4.615   4.721  1.00  0.00    -0.248 NA
ATOM     18  C   UNL     1       5.840  -4.670   2.682  1.00  0.00     0.031 C 
ATOM     19  C   UNL     1       5.166  -0.626   5.605  1.00  0.00     0.029 A 
ATOM     20  N   UNL     1       6.564  -2.206   6.346  1.00  0.00    -0.354 N 
ATOM     21  C   UNL     1       7.259  -5.811   4.073  1.00  0.00     0.074 A 
ATOM     22  C   UNL     1       6.504  -5.808   2.837  1.00  0.00     0.031 C 
ATOM     23  C   UNL     1       5.686  -0.188   6.759  1.00  0.00     0.029 A 
ATOM     24  C   UNL     1       6.593  -1.202   7.283  1.00  0.00     0.049 A 
ATOM     25  H   UNL     1       7.075  -3.042   6.434  1.00  0.00     0.167 HD
ATOM     26  C   UNL     1       8.081  -6.813   4.469  1.00  0.00     0.037 A 
ATOM     27  C   UNL     1       7.270  -1.106   8.441  1.00  0.00     0.037 A 
ATOM     28  C   UNL     1       8.838  -6.808   5.696  1.00  0.00     0.049 A 
ATOM     29  C   UNL     1       8.180  -2.225   8.848  1.00  0.00     0.074 A 
ATOM     30  C   UNL     1       9.702  -7.776   6.182  1.00  0.00     0.029 A 
ATOM     31  N   UNL     1       8.826  -5.782   6.628  1.00  0.00    -0.354 N 
ATOM     32  N   UNL     1       8.447  -3.342   8.215  1.00  0.00    -0.248 NA
ATOM     33  C   UNL     1       8.881  -2.074  10.129  1.00  0.00     0.031 C 
ATOM     34  C   UNL     1      10.188  -7.348   7.423  1.00  0.00     0.029 A 
ATOM     35  C   UNL     1       9.659  -6.097   7.691  1.00  0.00     0.049 A 
ATOM     36  H   UNL     1       8.303  -4.952   6.548  1.00  0.00     0.167 HD
ATOM     37  C   UNL     1       9.346  -4.026   9.019  1.00  0.00     0.074 A 
ATOM     38  C   UNL     1       9.607  -3.182  10.167  1.00  0.00     0.031 C 
ATOM     39  C   UNL     1       9.898  -5.249   8.829  1.00  0.00     0.037 A 
BRANCH  26  40
ATOM     40  C   UNL     1       8.208  -8.008   3.568  1.00  0.00     0.057 A 
ATOM     41  C   UNL     1       8.929  -7.953   2.369  1.00  0.00     0.134 A 
ATOM     42  C   UNL     1       7.654  -9.242   3.932  1.00  0.00     0.134 A 
ATOM     43  F   UNL     1       9.475  -6.798   1.957  1.00  0.00    -0.206 F 
ATOM     44  C   UNL     1       9.084  -9.079   1.557  1.00  0.00     0.040 A 
ATOM     45  C   UNL     1       7.821 -10.380   3.140  1.00  0.00     0.040 A 
ATOM     46  F   UNL     1       6.957  -9.367   5.072  1.00  0.00    -0.206 F 
ATOM     47  C   UNL     1       8.536 -10.299   1.947  1.00  0.00     0.006 A 
ENDBRANCH  26  40
BRANCH  27  48
ATOM     48  C   UNL     1       7.101   0.096   9.294  1.00  0.00     0.057 A 
ATOM     49  C   UNL     1       8.136   1.022   9.460  1.00  0.00     0.134 A 
ATOM     50  C   UNL     1       5.892   0.351   9.953  1.00  0.00     0.134 A 
ATOM     51  F   UNL     1       9.322   0.824   8.867  1.00  0.00    -0.206 F 
ATOM     52  C   UNL     1       7.979   2.154  10.263  1.00  0.00     0.040 A 
ATOM     53  C   UNL     1       5.712   1.491  10.735  1.00  0.00     0.040 A 
ATOM     54  F   UNL     1       4.859  -0.495   9.824  1.00  0.00    -0.206 F 
ATOM     55  C   UNL     1       6.761   2.393  10.897  1.00  0.00     0.006 A 
ENDBRANCH  27  48
BRANCH  39  56
ATOM     56  C   UNL     1      10.840  -5.732   9.890  1.00  0.00     0.057 A 
ATOM     57  C   UNL     1      10.379  -6.153  11.145  1.00  0.00     0.134 A 
ATOM     58  C   UNL     1      12.220  -5.777   9.657  1.00  0.00     0.134 A 
ATOM     59  F   UNL     1       9.070  -6.118  11.434  1.00  0.00    -0.206 F 
ATOM     60  C   UNL     1      11.261  -6.574  12.140  1.00  0.00     0.040 A 
ATOM     61  C   UNL     1      13.109  -6.219  10.637  1.00  0.00     0.040 A 
ATOM     62  F   UNL     1      12.724  -5.393   8.474  1.00  0.00    -0.206 F 
ATOM     63  C   UNL     1      12.631  -6.611  11.886  1.00  0.00     0.006 A 
ENDBRANCH  39  56
ENDBRANCH  13  14
ENDBRANCH   6   8
ENDBRANCH   3   4
ENDBRANCH   2   3
ENDBRANCH   1   2
BRANCH   1  64
ATOM     64  C   UNL     1       4.825   1.883  -3.958  1.00  0.00     0.116 C 
BRANCH  64  65
ATOM     65  N   UNL     1       6.260   2.074  -3.816  1.00  0.00    -0.352 N 
ATOM     66  C   UNL     1       7.166   2.651  -4.668  1.00  0.00     0.251 C 
ATOM     67  H   UNL     1       6.642   1.736  -2.974  1.00  0.00     0.163 HD
ATOM     68  O   UNL     1       8.367   2.564  -4.433  1.00  0.00    -0.269 OA
BRANCH  66  69
ATOM     69  C   UNL     1       6.708   3.360  -5.878  1.00  0.00     0.041 A 
ATOM     70  C   UNL     1       7.358   3.102  -7.084  1.00  0.00     0.014 A 
ATOM     71  C   UNL     1       5.665   4.293  -5.820  1.00  0.00     0.040 A 
ATOM     72  C   UNL     1       6.944   3.764  -8.233  1.00  0.00     0.003 A 
ATOM     73  C   UNL     1       5.182   4.896  -6.985  1.00  0.00     0.042 A 
ATOM     74  C   UNL     1       5.867   4.657  -8.179  1.00  0.00     0.026 A 
BRANCH  73  75
ATOM     75  N   UNL     1       4.026   5.690  -6.839  1.00  0.00    -0.322 N 
ATOM     76  C   UNL     1       3.144   6.251  -7.735  1.00  0.00     0.255 C 
ATOM     77  H   UNL     1       3.802   5.883  -5.900  1.00  0.00     0.170 HD
ATOM     78  O   UNL     1       2.231   6.970  -7.338  1.00  0.00    -0.269 OA
BRANCH  76  79
ATOM     79  C   UNL     1       3.261   5.996  -9.174  1.00  0.00     0.040 A 
ATOM     80  C   UNL     1       3.718   7.027  -9.988  1.00  0.00     0.016 A 
ATOM     81  C   UNL     1       2.998   4.733  -9.705  1.00  0.00     0.016 A 
ATOM     82  C   UNL     1       4.035   6.755 -11.319  1.00  0.00     0.027 A 
ATOM     83  C   UNL     1       3.306   4.476 -11.047  1.00  0.00     0.027 A 
ATOM     84  C   UNL     1       3.882   5.466 -11.863  1.00  0.00     0.052 A 
BRANCH  84  85
ATOM     85  N   UNL     1       4.346   5.173 -13.181  1.00  0.00    -0.251 N 
ATOM     86  C   UNL     1       3.925   4.109 -13.946  1.00  0.00     0.234 C 
ATOM     87  C   UNL     1       5.342   5.885 -13.816  1.00  0.00     0.234 C 
ATOM     88  O   UNL     1       3.098   3.247 -13.683  1.00  0.00    -0.274 OA
ATOM     89  C   UNL     1       4.607   4.165 -15.281  1.00  0.00     0.111 C 
ATOM     90  C   UNL     1       5.638   5.253 -15.140  1.00  0.00     0.111 C 
ATOM     91  O   UNL     1       5.998   6.833 -13.402  1.00  0.00    -0.274 OA
ENDBRANCH  84  85
ENDBRANCH  76  79
ENDBRANCH  73  75
ENDBRANCH  66  69
ENDBRANCH  64  65
ENDBRANCH   1  64
TORSDOF 14
