REMARK SMILES Cn1ccc(C(=O)NCc2ccc(C(=O)NCCCCNC(=O)c3ccc(-c4c5nc(c(-c6c(F)cccc6F)c6ccc([nH]6)c(-c6c(F)cccc6F)c6nc(c(-c7c(F)cccc7F)c7ccc4[nH]7)C=C6)C=C5)cc3)cc2)cc1=O
REMARK SMILES IDX 18 1 17 2 16 3 14 4 15 5 13 7 10 8 11 9 79 10 12 11 78 12
REMARK SMILES IDX 9 13 8 14 6 15 7 16 5 18 1 19 2 20 3 21 81 22 4 23 80 24
REMARK SMILES IDX 82 25 19 26 20 27 21 28 22 29 23 31 24 32 25 33 77 34 26 35
REMARK SMILES IDX 76 36 27 37 28 38 29 39 70 40 30 41 75 42 69 43 71 44 31 45
REMARK SMILES IDX 74 46 68 47 67 48 32 50 58 51 41 52 57 53 42 54 45 55 56 56
REMARK SMILES IDX 72 57 43 58 44 59 55 61 73 62 46 63 33 64 34 65 39 66 35 67
REMARK SMILES IDX 36 68 38 69 40 70 37 71 59 72 60 73 65 74 61 75 62 76 64 77
REMARK SMILES IDX 66 78 63 79 47 80 48 81 53 82 49 83 50 84 52 85 54 86 51 87
REMARK H PARENT 16 6 8 17 21 30 71 49 45 60
REMARK Flexibility Score: inf
ROOT
ATOM      1  C   UNL     1       4.958   6.803   5.146  1.00  0.00     0.023 C 
ENDROOT
BRANCH   1   2
ATOM      2  C   UNL     1       3.573   6.251   5.497  1.00  0.00     0.116 C 
BRANCH   2   3
ATOM      3  N   UNL     1       2.529   7.206   5.177  1.00  0.00    -0.352 N 
ATOM      4  C   UNL     1       1.694   7.319   4.092  1.00  0.00     0.251 C 
ATOM      5  O   UNL     1       0.824   8.191   4.131  1.00  0.00    -0.269 OA
ATOM      6  H   UNL     1       2.394   7.900   5.862  1.00  0.00     0.163 HD
BRANCH   4   7
ATOM      7  C   UNL     1       1.772   6.433   2.894  1.00  0.00     0.039 A 
ATOM      8  C   UNL     1       1.783   4.807   0.562  1.00  0.00    -0.029 A 
ATOM      9  C   UNL     1       0.612   5.453   0.977  1.00  0.00     0.006 A 
ATOM     10  C   UNL     1       2.951   5.026   1.304  1.00  0.00     0.006 A 
ATOM     11  C   UNL     1       0.608   6.251   2.132  1.00  0.00     0.014 A 
ATOM     12  C   UNL     1       2.947   5.836   2.442  1.00  0.00     0.014 A 
BRANCH   8  13
ATOM     13  C   UNL     1       1.809   3.974  -0.702  1.00  0.00     0.152 C 
BRANCH  13  14
ATOM     14  N   UNL     1       2.825   2.939  -0.631  1.00  0.00    -0.348 N 
ATOM     15  C   UNL     1       2.830   1.644  -0.237  1.00  0.00     0.251 C 
ATOM     16  O   UNL     1       3.936   1.106  -0.122  1.00  0.00    -0.269 OA
ATOM     17  H   UNL     1       3.708   3.249  -0.937  1.00  0.00     0.164 HD
BRANCH  15  18
ATOM     18  C   UNL     1       1.590   0.823  -0.058  1.00  0.00     0.046 A 
ATOM     19  C   UNL     1      -1.730  -1.824   0.069  1.00  0.00     0.153 C 
ATOM     20  N   UNL     1      -0.597  -0.913   0.077  1.00  0.00    -0.319 N 
ATOM     21  C   UNL     1       0.650  -1.412  -0.237  1.00  0.00     0.089 A 
ATOM     22  C   UNL     1      -0.792   0.423   0.416  1.00  0.00     0.251 A 
ATOM     23  C   UNL     1       1.713  -0.606  -0.309  1.00  0.00     0.032 A 
ATOM     24  C   UNL     1       0.413   1.298   0.375  1.00  0.00     0.085 A 
ATOM     25  O   UNL     1      -1.872   0.922   0.720  1.00  0.00    -0.269 OA
ENDBRANCH  15  18
ENDBRANCH  13  14
ENDBRANCH   8  13
ENDBRANCH   4   7
ENDBRANCH   2   3
ENDBRANCH   1   2
BRANCH   1  26
ATOM     26  C   UNL     1       5.537   7.785   6.165  1.00  0.00     0.023 C 
BRANCH  26  27
ATOM     27  C   UNL     1       5.805   7.197   7.544  1.00  0.00     0.116 C 
BRANCH  27  28
ATOM     28  N   UNL     1       6.714   6.061   7.524  1.00  0.00    -0.352 N 
ATOM     29  C   UNL     1       7.603   5.667   8.494  1.00  0.00     0.251 C 
ATOM     30  H   UNL     1       6.689   5.505   6.713  1.00  0.00     0.163 HD
ATOM     31  O   UNL     1       8.377   4.736   8.291  1.00  0.00    -0.269 OA
BRANCH  29  32
ATOM     32  C   UNL     1       7.652   6.407   9.771  1.00  0.00     0.039 A 
ATOM     33  C   UNL     1       8.888   6.851  10.244  1.00  0.00     0.014 A 
ATOM     34  C   UNL     1       6.478   6.699  10.470  1.00  0.00     0.014 A 
ATOM     35  C   UNL     1       8.941   7.649  11.387  1.00  0.00     0.010 A 
ATOM     36  C   UNL     1       6.524   7.554  11.565  1.00  0.00     0.010 A 
ATOM     37  C   UNL     1       7.756   8.036  12.034  1.00  0.00    -0.014 A 
BRANCH  37  38
ATOM     38  C   UNL     1       7.783   8.953  13.199  1.00  0.00     0.031 A 
ATOM     39  C   UNL     1       7.317   8.477  14.544  1.00  0.00     0.074 A 
ATOM     40  C   UNL     1       8.145  10.238  13.023  1.00  0.00     0.049 A 
ATOM     41  N   UNL     1       7.207   9.145  15.665  1.00  0.00    -0.248 NA
ATOM     42  C   UNL     1       6.882   7.075  14.634  1.00  0.00     0.031 C 
ATOM     43  C   UNL     1       8.543  10.838  11.749  1.00  0.00     0.029 A 
ATOM     44  N   UNL     1       8.216  11.275  13.918  1.00  0.00    -0.354 N 
ATOM     45  C   UNL     1       6.673   8.252  16.583  1.00  0.00     0.074 A 
ATOM     46  C   UNL     1       6.430   7.013  15.877  1.00  0.00     0.031 C 
ATOM     47  C   UNL     1       8.828  12.135  11.946  1.00  0.00     0.029 A 
ATOM     48  C   UNL     1       8.607  12.463  13.351  1.00  0.00     0.049 A 
ATOM     49  H   UNL     1       8.007  11.177  14.875  1.00  0.00     0.167 HD
ATOM     50  C   UNL     1       6.428   8.440  17.902  1.00  0.00     0.037 A 
ATOM     51  C   UNL     1       8.763  13.682  13.900  1.00  0.00     0.037 A 
ATOM     52  C   UNL     1       6.698   9.666  18.605  1.00  0.00     0.049 A 
ATOM     53  C   UNL     1       8.520  13.861  15.371  1.00  0.00     0.074 A 
ATOM     54  C   UNL     1       6.575   9.930  19.958  1.00  0.00     0.029 A 
ATOM     55  N   UNL     1       7.138  10.838  18.007  1.00  0.00    -0.354 N 
ATOM     56  N   UNL     1       8.110  12.982  16.253  1.00  0.00    -0.248 NA
ATOM     57  C   UNL     1       8.773  15.198  15.927  1.00  0.00     0.031 C 
ATOM     58  C   UNL     1       6.898  11.275  20.171  1.00  0.00     0.029 A 
ATOM     59  C   UNL     1       7.265  11.836  18.959  1.00  0.00     0.049 A 
ATOM     60  H   UNL     1       7.331  10.944  17.048  1.00  0.00     0.167 HD
ATOM     61  C   UNL     1       8.070  13.651  17.469  1.00  0.00     0.074 A 
ATOM     62  C   UNL     1       8.514  15.006  17.214  1.00  0.00     0.031 C 
ATOM     63  C   UNL     1       7.699  13.184  18.687  1.00  0.00     0.037 A 
BRANCH  50  64
ATOM     64  C   UNL     1       5.833   7.288  18.659  1.00  0.00     0.057 A 
ATOM     65  C   UNL     1       6.559   6.117  18.919  1.00  0.00     0.134 A 
ATOM     66  C   UNL     1       4.516   7.348  19.131  1.00  0.00     0.134 A 
ATOM     67  F   UNL     1       7.822   5.990  18.484  1.00  0.00    -0.206 F 
ATOM     68  C   UNL     1       5.984   5.033  19.585  1.00  0.00     0.040 A 
ATOM     69  C   UNL     1       3.940   6.282  19.824  1.00  0.00     0.040 A 
ATOM     70  F   UNL     1       3.766   8.440  18.923  1.00  0.00    -0.206 F 
ATOM     71  C   UNL     1       4.671   5.116  20.043  1.00  0.00     0.006 A 
ENDBRANCH  50  64
BRANCH  51  72
ATOM     72  C   UNL     1       9.197  14.816  13.049  1.00  0.00     0.057 A 
ATOM     73  C   UNL     1      10.498  15.324  13.130  1.00  0.00     0.134 A 
ATOM     74  C   UNL     1       8.335  15.392  12.108  1.00  0.00     0.134 A 
ATOM     75  F   UNL     1      11.364  14.821  14.022  1.00  0.00    -0.206 F 
ATOM     76  C   UNL     1      10.926  16.370  12.312  1.00  0.00     0.040 A 
ATOM     77  C   UNL     1       8.755  16.425  11.269  1.00  0.00     0.040 A 
ATOM     78  F   UNL     1       7.079  14.941  11.976  1.00  0.00    -0.206 F 
ATOM     79  C   UNL     1      10.054  16.919  11.372  1.00  0.00     0.006 A 
ENDBRANCH  51  72
BRANCH  63  80
ATOM     80  C   UNL     1       7.769  14.143  19.838  1.00  0.00     0.057 A 
ATOM     81  C   UNL     1       6.841  15.182  19.988  1.00  0.00     0.134 A 
ATOM     82  C   UNL     1       8.749  14.001  20.828  1.00  0.00     0.134 A 
ATOM     83  F   UNL     1       5.886  15.379  19.067  1.00  0.00    -0.206 F 
ATOM     84  C   UNL     1       6.898  16.057  21.074  1.00  0.00     0.040 A 
ATOM     85  C   UNL     1       8.800  14.854  21.931  1.00  0.00     0.040 A 
ATOM     86  F   UNL     1       9.662  13.022  20.747  1.00  0.00    -0.206 F 
ATOM     87  C   UNL     1       7.875  15.889  22.053  1.00  0.00     0.006 A 
ENDBRANCH  63  80
ENDBRANCH  37  38
ENDBRANCH  29  32
ENDBRANCH  27  28
ENDBRANCH  26  27
ENDBRANCH   1  26
TORSDOF 14
