REMARK SMILES CC(C)C(=O)Nc1ccc(C(=O)NCCCCNC(=O)c2ccc(-c3c4nc(c(-c5c(F)cccc5F)c5ccc([nH]5)c(-c5c(F)cccc5F)c5nc(c(-c6c(F)cccc6F)c6ccc3[nH]6)C=C5)C=C4)cc2)cc1NC(=O)C(C)C
REMARK SMILES IDX 15 1 14 2 13 3 11 4 12 5 10 7 7 8 8 9 76 10 9 11 75 12 6 13
REMARK SMILES IDX 4 14 5 15 2 17 1 18 3 19 77 20 78 21 79 23 80 24 81 25 82 26
REMARK SMILES IDX 16 27 17 28 18 29 19 30 20 32 21 33 22 34 74 35 23 36 73 37
REMARK SMILES IDX 24 38 25 39 26 40 67 41 27 42 72 43 66 44 68 45 28 46 71 47
REMARK SMILES IDX 65 48 64 49 29 51 55 52 38 53 54 54 39 55 42 56 53 57 69 58
REMARK SMILES IDX 40 59 41 60 52 62 70 63 43 64 30 65 31 66 36 67 32 68 33 69
REMARK SMILES IDX 35 70 37 71 34 72 56 73 57 74 62 75 58 76 59 77 61 78 63 79
REMARK SMILES IDX 60 80 44 81 45 82 50 83 46 84 47 85 49 86 51 87 48 88
REMARK H PARENT 13 6 6 16 77 22 18 31 68 50 42 61
REMARK Flexibility Score: inf
ROOT
ATOM      1  C   UNL     1       2.645   5.817  -1.496  1.00  0.00     0.023 C 
ENDROOT
BRANCH   1   2
ATOM      2  C   UNL     1       2.618   5.663   0.023  1.00  0.00     0.116 C 
BRANCH   2   3
ATOM      3  N   UNL     1       1.458   6.330   0.573  1.00  0.00    -0.352 N 
ATOM      4  C   UNL     1       0.275   5.863   1.081  1.00  0.00     0.251 C 
ATOM      5  O   UNL     1      -0.501   6.697   1.551  1.00  0.00    -0.269 OA
ATOM      6  H   UNL     1       1.534   7.311   0.585  1.00  0.00     0.163 HD
BRANCH   4   7
ATOM      7  C   UNL     1      -0.107   4.420   1.142  1.00  0.00     0.042 A 
ATOM      8  C   UNL     1      -1.044   1.789   1.409  1.00  0.00     0.065 A 
ATOM      9  C   UNL     1      -1.444   2.767   2.319  1.00  0.00     0.029 A 
ATOM     10  C   UNL     1      -0.242   2.129   0.291  1.00  0.00     0.065 A 
ATOM     11  C   UNL     1      -0.956   4.064   2.201  1.00  0.00     0.016 A 
ATOM     12  C   UNL     1       0.211   3.453   0.170  1.00  0.00     0.042 A 
BRANCH   8  13
ATOM     13  N   UNL     1      -1.602   0.511   1.572  1.00  0.00    -0.324 N 
ATOM     14  C   UNL     1      -1.027  -0.711   1.766  1.00  0.00     0.226 C 
ATOM     15  O   UNL     1      -1.770  -1.694   1.661  1.00  0.00    -0.274 OA
ATOM     16  H   UNL     1      -2.586   0.494   1.540  1.00  0.00     0.170 HD
BRANCH  14  17
ATOM     17  C   UNL     1       0.435  -0.914   2.171  1.00  0.00     0.072 C 
ATOM     18  C   UNL     1       1.420  -0.992   1.017  1.00  0.00     0.018 C 
ATOM     19  C   UNL     1       0.917   0.018   3.276  1.00  0.00     0.018 C 
ENDBRANCH  14  17
ENDBRANCH   8  13
BRANCH  10  20
ATOM     20  N   UNL     1      -0.092   1.116  -0.677  1.00  0.00    -0.324 N 
ATOM     21  C   UNL     1       0.664   0.837  -1.764  1.00  0.00     0.226 C 
ATOM     22  H   UNL     1      -0.735   0.389  -0.512  1.00  0.00     0.170 HD
ATOM     23  O   UNL     1       0.397  -0.225  -2.343  1.00  0.00    -0.274 OA
BRANCH  21  24
ATOM     24  C   UNL     1       1.784   1.688  -2.317  1.00  0.00     0.072 C 
ATOM     25  C   UNL     1       1.210   2.843  -3.128  1.00  0.00     0.018 C 
ATOM     26  C   UNL     1       2.885   2.010  -1.313  1.00  0.00     0.018 C 
ENDBRANCH  21  24
ENDBRANCH  10  20
ENDBRANCH   4   7
ENDBRANCH   2   3
ENDBRANCH   1   2
BRANCH   1  27
ATOM     27  C   UNL     1       3.574   6.907  -2.021  1.00  0.00     0.023 C 
BRANCH  27  28
ATOM     28  C   UNL     1       5.056   6.572  -1.885  1.00  0.00     0.116 C 
BRANCH  28  29
ATOM     29  N   UNL     1       5.467   5.379  -2.623  1.00  0.00    -0.352 N 
ATOM     30  C   UNL     1       6.630   5.152  -3.322  1.00  0.00     0.251 C 
ATOM     31  H   UNL     1       4.822   4.635  -2.618  1.00  0.00     0.163 HD
ATOM     32  O   UNL     1       6.795   4.103  -3.936  1.00  0.00    -0.269 OA
BRANCH  30  33
ATOM     33  C   UNL     1       7.652   6.215  -3.372  1.00  0.00     0.039 A 
ATOM     34  C   UNL     1       8.140   6.625  -4.614  1.00  0.00     0.014 A 
ATOM     35  C   UNL     1       8.038   6.872  -2.203  1.00  0.00     0.014 A 
ATOM     36  C   UNL     1       8.930   7.772  -4.694  1.00  0.00     0.010 A 
ATOM     37  C   UNL     1       8.741   8.065  -2.295  1.00  0.00     0.010 A 
ATOM     38  C   UNL     1       9.182   8.535  -3.542  1.00  0.00    -0.014 A 
BRANCH  38  39
ATOM     39  C   UNL     1       9.881   9.842  -3.611  1.00  0.00     0.031 A 
ATOM     40  C   UNL     1      11.167  10.044  -2.861  1.00  0.00     0.074 A 
ATOM     41  C   UNL     1       9.307  10.874  -4.260  1.00  0.00     0.049 A 
ATOM     42  N   UNL     1      11.864  11.138  -2.693  1.00  0.00    -0.248 NA
ATOM     43  C   UNL     1      11.720   8.866  -2.173  1.00  0.00     0.031 C 
ATOM     44  C   UNL     1       8.027  10.827  -4.971  1.00  0.00     0.029 A 
ATOM     45  N   UNL     1       9.723  12.172  -4.417  1.00  0.00    -0.354 N 
ATOM     46  C   UNL     1      12.916  10.788  -1.858  1.00  0.00     0.074 A 
ATOM     47  C   UNL     1      12.735   9.396  -1.508  1.00  0.00     0.031 C 
ATOM     48  C   UNL     1       7.781  12.029  -5.516  1.00  0.00     0.029 A 
ATOM     49  C   UNL     1       8.863  12.941  -5.162  1.00  0.00     0.049 A 
ATOM     50  H   UNL     1      10.560  12.519  -4.032  1.00  0.00     0.167 HD
ATOM     51  C   UNL     1      13.956  11.548  -1.442  1.00  0.00     0.037 A 
ATOM     52  C   UNL     1       8.939  14.237  -5.519  1.00  0.00     0.037 A 
ATOM     53  C   UNL     1      14.160  12.917  -1.830  1.00  0.00     0.049 A 
ATOM     54  C   UNL     1      10.119  15.053  -5.072  1.00  0.00     0.074 A 
ATOM     55  C   UNL     1      15.220  13.753  -1.525  1.00  0.00     0.029 A 
ATOM     56  N   UNL     1      13.286  13.650  -2.619  1.00  0.00    -0.354 N 
ATOM     57  N   UNL     1      11.140  14.692  -4.333  1.00  0.00    -0.248 NA
ATOM     58  C   UNL     1      10.159  16.455  -5.511  1.00  0.00     0.031 C 
ATOM     59  C   UNL     1      14.973  15.001  -2.107  1.00  0.00     0.029 A 
ATOM     60  C   UNL     1      13.777  14.931  -2.803  1.00  0.00     0.049 A 
ATOM     61  H   UNL     1      12.441  13.309  -2.994  1.00  0.00     0.167 HD
ATOM     62  C   UNL     1      11.955  15.812  -4.239  1.00  0.00     0.074 A 
ATOM     63  C   UNL     1      11.315  16.861  -5.006  1.00  0.00     0.031 C 
ATOM     64  C   UNL     1      13.128  15.958  -3.577  1.00  0.00     0.037 A 
BRANCH  51  65
ATOM     65  C   UNL     1      14.955  10.900  -0.531  1.00  0.00     0.057 A 
ATOM     66  C   UNL     1      15.833   9.907  -0.987  1.00  0.00     0.134 A 
ATOM     67  C   UNL     1      15.043  11.271   0.816  1.00  0.00     0.134 A 
ATOM     68  F   UNL     1      15.787   9.494  -2.263  1.00  0.00    -0.206 F 
ATOM     69  C   UNL     1      16.738   9.281  -0.129  1.00  0.00     0.040 A 
ATOM     70  C   UNL     1      15.963  10.671   1.678  1.00  0.00     0.040 A 
ATOM     71  F   UNL     1      14.235  12.217   1.317  1.00  0.00    -0.206 F 
ATOM     72  C   UNL     1      16.807   9.667   1.208  1.00  0.00     0.006 A 
ENDBRANCH  51  65
BRANCH  52  73
ATOM     73  C   UNL     1       7.889  14.833  -6.380  1.00  0.00     0.057 A 
ATOM     74  C   UNL     1       8.152  15.134  -7.722  1.00  0.00     0.134 A 
ATOM     75  C   UNL     1       6.608  15.116  -5.893  1.00  0.00     0.134 A 
ATOM     76  F   UNL     1       9.367  14.901  -8.240  1.00  0.00    -0.206 F 
ATOM     77  C   UNL     1       7.183  15.710  -8.546  1.00  0.00     0.040 A 
ATOM     78  C   UNL     1       5.623  15.674  -6.711  1.00  0.00     0.040 A 
ATOM     79  F   UNL     1       6.293  14.843  -4.619  1.00  0.00    -0.206 F 
ATOM     80  C   UNL     1       5.912  15.977  -8.041  1.00  0.00     0.006 A 
ENDBRANCH  52  73
BRANCH  64  81
ATOM     81  C   UNL     1      13.809  17.290  -3.679  1.00  0.00     0.057 A 
ATOM     82  C   UNL     1      13.343  18.410  -2.980  1.00  0.00     0.134 A 
ATOM     83  C   UNL     1      14.965  17.441  -4.454  1.00  0.00     0.134 A 
ATOM     84  F   UNL     1      12.232  18.331  -2.233  1.00  0.00    -0.206 F 
ATOM     85  C   UNL     1      13.996  19.640  -3.061  1.00  0.00     0.040 A 
ATOM     86  C   UNL     1      15.640  18.660  -4.525  1.00  0.00     0.040 A 
ATOM     87  F   UNL     1      15.465  16.403  -5.142  1.00  0.00    -0.206 F 
ATOM     88  C   UNL     1      15.152  19.765  -3.830  1.00  0.00     0.006 A 
ENDBRANCH  64  81
ENDBRANCH  38  39
ENDBRANCH  30  33
ENDBRANCH  28  29
ENDBRANCH  27  28
ENDBRANCH   1  27
TORSDOF 15
