REMARK SMILES C[NH2+][C@@]1(C(=O)NCCCCNC(=O)c2ccc(-c3c4nc(c(-c5c(F)cccc5F)c5ccc([nH]5)c(-c5c(F)cccc5F)c5nc(c(-c6c(F)cccc6F)c6ccc3[nH]6)C=C5)C=C4)cc2)CC[C@H]([NH+]2CC[NH+](C)CC2)C1
REMARK SMILES IDX 9 1 8 2 7 3 6 4 4 5 5 6 3 8 68 9 78 10 69 11 70 12 2 13 1 14
REMARK SMILES IDX 71 17 72 18 77 19 73 21 76 22 74 23 75 24 10 26 11 27 12 28
REMARK SMILES IDX 13 30 14 31 15 32 67 33 16 34 66 35 17 36 18 37 19 38 60 39
REMARK SMILES IDX 20 40 65 41 59 42 61 43 21 44 64 45 58 46 57 47 22 49 48 50
REMARK SMILES IDX 31 51 47 52 32 53 35 54 46 55 62 56 33 57 34 58 45 60 63 61
REMARK SMILES IDX 36 62 23 63 24 64 29 65 25 66 26 67 28 68 30 69 27 70 49 71
REMARK SMILES IDX 50 72 55 73 51 74 52 75 54 76 56 77 53 78 37 79 38 80 43 81
REMARK SMILES IDX 39 82 40 83 42 84 44 85 41 86
REMARK H PARENT 6 7 2 15 2 16 71 20 74 25 11 29 61 48 35 59
REMARK Flexibility Score: inf
ROOT
ATOM      1  C   UNL     1      -5.861  -3.037   1.740  1.00  0.00     0.023 C 
ENDROOT
BRANCH   1   2
ATOM      2  C   UNL     1      -5.050  -2.228   0.487  1.00  0.00     0.023 C 
BRANCH   2   3
ATOM      3  C   UNL     1      -3.616  -0.678   0.226  1.00  0.00     0.116 C 
BRANCH   3   4
ATOM      4  N   UNL     1      -2.191  -0.399   0.862  1.00  0.00    -0.351 N 
ATOM      5  C   UNL     1      -0.878  -0.642   0.623  1.00  0.00     0.281 C 
ATOM      6  O   UNL     1      -0.164  -0.361   1.597  1.00  0.00    -0.268 OA
ATOM      7  H   UNL     1      -2.290   0.115   1.696  1.00  0.00     0.163 HD
BRANCH   5   8
ATOM      8  C   UNL     1      -0.306  -1.234  -0.700  1.00  0.00     0.181 C 
ATOM      9  C   UNL     1      -0.884  -0.526  -1.936  1.00  0.00     0.085 C 
ATOM     10  C   UNL     1      -0.704  -2.716  -0.878  1.00  0.00     0.144 C 
ATOM     11  C   UNL     1      -1.735  -1.576  -2.646  1.00  0.00     0.072 C 
ATOM     12  C   UNL     1      -2.043  -2.682  -1.610  1.00  0.00     0.191 C 
BRANCH   8  13
ATOM     13  N   UNL     1       1.189  -1.184  -0.705  1.00  0.00    -0.336 N 
ATOM     14  C   UNL     1       1.770   0.142  -0.512  1.00  0.00     0.331 C 
ATOM     15  H   UNL     1       1.527  -1.788   0.044  1.00  0.00     0.346 HD
ATOM     16  H   UNL     1       1.478  -1.486  -1.635  1.00  0.00     0.346 HD
ENDBRANCH   8  13
BRANCH  12  17
ATOM     17  N   UNL     1      -3.221  -2.508  -0.765  1.00  0.00    -0.323 N 
ATOM     18  C   UNL     1      -4.628  -1.596  -1.529  1.00  0.00     0.324 C 
ATOM     19  C   UNL     1      -3.081  -2.566   1.096  1.00  0.00     0.324 C 
ATOM     20  H   UNL     1      -3.553  -3.473  -0.774  1.00  0.00     0.348 HD
ATOM     21  C   UNL     1      -5.633  -0.301  -0.463  1.00  0.00     0.324 C 
ATOM     22  C   UNL     1      -4.128  -1.269   2.172  1.00  0.00     0.324 C 
ATOM     23  N   UNL     1      -5.507  -0.330   1.373  1.00  0.00    -0.328 N 
ATOM     24  C   UNL     1      -5.676   1.010   1.930  1.00  0.00     0.333 C 
ATOM     25  H   UNL     1      -6.294  -0.925   1.632  1.00  0.00     0.348 HD
ENDBRANCH  12  17
ENDBRANCH   5   8
ENDBRANCH   3   4
ENDBRANCH   2   3
ENDBRANCH   1   2
BRANCH   1  26
ATOM     26  C   UNL     1      -7.082  -2.394   2.415  1.00  0.00     0.116 C 
BRANCH  26  27
ATOM     27  N   UNL     1      -8.094  -1.912   1.484  1.00  0.00    -0.352 N 
ATOM     28  C   UNL     1      -9.277  -1.286   1.772  1.00  0.00     0.251 C 
ATOM     29  H   UNL     1      -7.903  -2.054   0.528  1.00  0.00     0.163 HD
ATOM     30  O   UNL     1     -10.036  -0.899   0.892  1.00  0.00    -0.269 OA
BRANCH  28  31
ATOM     31  C   UNL     1      -9.650  -1.156   3.188  1.00  0.00     0.039 A 
ATOM     32  C   UNL     1     -10.751  -1.879   3.648  1.00  0.00     0.014 A 
ATOM     33  C   UNL     1      -8.854  -0.412   4.060  1.00  0.00     0.014 A 
ATOM     34  C   UNL     1     -11.020  -1.905   5.013  1.00  0.00     0.010 A 
ATOM     35  C   UNL     1      -9.082  -0.496   5.426  1.00  0.00     0.010 A 
ATOM     36  C   UNL     1     -10.167  -1.243   5.910  1.00  0.00    -0.014 A 
BRANCH  36  37
ATOM     37  C   UNL     1     -10.412  -1.318   7.366  1.00  0.00     0.031 A 
ATOM     38  C   UNL     1     -10.830  -0.086   8.111  1.00  0.00     0.074 A 
ATOM     39  C   UNL     1     -10.215  -2.485   8.008  1.00  0.00     0.049 A 
ATOM     40  N   UNL     1     -11.091   0.060   9.383  1.00  0.00    -0.248 NA
ATOM     41  C   UNL     1     -10.941   1.155   7.327  1.00  0.00     0.031 C 
ATOM     42  C   UNL     1      -9.743  -3.724   7.385  1.00  0.00     0.029 A 
ATOM     43  N   UNL     1     -10.386  -2.820   9.325  1.00  0.00    -0.354 N 
ATOM     44  C   UNL     1     -11.383   1.407   9.552  1.00  0.00     0.074 A 
ATOM     45  C   UNL     1     -11.211   2.046   8.268  1.00  0.00     0.031 C 
ATOM     46  C   UNL     1      -9.691  -4.692   8.315  1.00  0.00     0.029 A 
ATOM     47  C   UNL     1     -10.105  -4.137   9.599  1.00  0.00     0.049 A 
ATOM     48  H   UNL     1     -10.682  -2.178  10.011  1.00  0.00     0.167 HD
ATOM     49  C   UNL     1     -11.786   2.044  10.676  1.00  0.00     0.037 A 
ATOM     50  C   UNL     1     -10.186  -4.816  10.758  1.00  0.00     0.037 A 
ATOM     51  C   UNL     1     -11.983   1.386  11.938  1.00  0.00     0.049 A 
ATOM     52  C   UNL     1     -10.676  -4.094  11.982  1.00  0.00     0.074 A 
ATOM     53  C   UNL     1     -12.449   1.917  13.127  1.00  0.00     0.029 A 
ATOM     54  N   UNL     1     -11.724   0.043  12.171  1.00  0.00    -0.354 N 
ATOM     55  N   UNL     1     -11.027  -2.837  12.114  1.00  0.00    -0.248 NA
ATOM     56  C   UNL     1     -10.794  -4.885  13.214  1.00  0.00     0.031 C 
ATOM     57  C   UNL     1     -12.442   0.901  14.088  1.00  0.00     0.029 A 
ATOM     58  C   UNL     1     -12.009  -0.272  13.488  1.00  0.00     0.049 A 
ATOM     59  H   UNL     1     -11.388  -0.593  11.498  1.00  0.00     0.167 HD
ATOM     60  C   UNL     1     -11.429  -2.690  13.434  1.00  0.00     0.074 A 
ATOM     61  C   UNL     1     -11.293  -3.991  14.058  1.00  0.00     0.031 C 
ATOM     62  C   UNL     1     -11.868  -1.580  14.076  1.00  0.00     0.037 A 
BRANCH  49  63
ATOM     63  C   UNL     1     -12.042   3.519  10.575  1.00  0.00     0.057 A 
ATOM     64  C   UNL     1     -13.136   4.031   9.864  1.00  0.00     0.134 A 
ATOM     65  C   UNL     1     -11.190   4.439  11.197  1.00  0.00     0.134 A 
ATOM     66  F   UNL     1     -13.981   3.204   9.229  1.00  0.00    -0.206 F 
ATOM     67  C   UNL     1     -13.356   5.404   9.750  1.00  0.00     0.040 A 
ATOM     68  C   UNL     1     -11.414   5.814  11.113  1.00  0.00     0.040 A 
ATOM     69  F   UNL     1     -10.124   4.017  11.895  1.00  0.00    -0.206 F 
ATOM     70  C   UNL     1     -12.495   6.301  10.380  1.00  0.00     0.006 A 
ENDBRANCH  49  63
BRANCH  50  71
ATOM     71  C   UNL     1      -9.842  -6.259  10.800  1.00  0.00     0.057 A 
ATOM     72  C   UNL     1     -10.834  -7.234  10.956  1.00  0.00     0.134 A 
ATOM     73  C   UNL     1      -8.519  -6.699  10.676  1.00  0.00     0.134 A 
ATOM     74  F   UNL     1     -12.118  -6.874  11.094  1.00  0.00    -0.206 F 
ATOM     75  C   UNL     1     -10.522  -8.594  11.004  1.00  0.00     0.040 A 
ATOM     76  C   UNL     1      -8.195  -8.058  10.700  1.00  0.00     0.040 A 
ATOM     77  F   UNL     1      -7.523  -5.816  10.512  1.00  0.00    -0.206 F 
ATOM     78  C   UNL     1      -9.199  -9.009  10.870  1.00  0.00     0.006 A 
ENDBRANCH  50  71
BRANCH  62  79
ATOM     79  C   UNL     1     -12.252  -1.734  15.516  1.00  0.00     0.057 A 
ATOM     80  C   UNL     1     -11.289  -1.879  16.522  1.00  0.00     0.134 A 
ATOM     81  C   UNL     1     -13.597  -1.686  15.903  1.00  0.00     0.134 A 
ATOM     82  F   UNL     1      -9.986  -1.943  16.211  1.00  0.00    -0.206 F 
ATOM     83  C   UNL     1     -11.653  -1.989  17.864  1.00  0.00     0.040 A 
ATOM     84  C   UNL     1     -13.971  -1.771  17.244  1.00  0.00     0.040 A 
ATOM     85  F   UNL     1     -14.565  -1.540  14.986  1.00  0.00    -0.206 F 
ATOM     86  C   UNL     1     -12.997  -1.927  18.228  1.00  0.00     0.006 A 
ENDBRANCH  62  79
ENDBRANCH  36  37
ENDBRANCH  28  31
ENDBRANCH  26  27
ENDBRANCH   1  26
TORSDOF 13
