REMARK SMILES O=C(NCCCCNC(=O)c1ccccc1C(=O)N1CCOCCOCCOCC1)c1ccc(-c2c3nc(c(-c4c(F)cccc4F)c4ccc([nH]4)c(-c4c(F)cccc4F)c4nc(c(-c5c(F)cccc5F)c5ccc2[nH]5)C=C4)C=C3)cc1
REMARK SMILES IDX 11 1 12 2 13 3 14 4 15 5 16 6 9 7 8 8 10 10 7 11 6 12 5 13
REMARK SMILES IDX 4 14 3 15 1 16 2 17 31 19 32 20 84 21 33 22 83 23 34 24
REMARK SMILES IDX 35 25 36 26 77 27 37 28 82 29 76 30 78 31 38 32 81 33 75 34
REMARK SMILES IDX 74 35 39 37 65 38 48 39 64 40 49 41 52 42 63 43 79 44 50 45
REMARK SMILES IDX 51 46 62 48 80 49 53 50 40 51 41 52 46 53 42 54 43 55 45 56
REMARK SMILES IDX 47 57 44 58 66 59 67 60 72 61 68 62 69 63 71 64 73 65 70 66
REMARK SMILES IDX 54 67 55 68 60 69 56 70 57 71 59 72 61 73 58 74 17 75 18 76
REMARK SMILES IDX 19 77 20 78 21 79 22 80 23 81 30 83 29 84 28 85 27 86 26 87
REMARK SMILES IDX 25 88 24 89
REMARK H PARENT 8 9 3 18 78 36 52 47
REMARK Flexibility Score: 60.00
ROOT
ATOM      1  C   UNL     1       6.235  -4.196  -5.269  1.00  0.00     0.052 A 
ATOM      2  C   UNL     1       6.533  -5.474  -5.763  1.00  0.00     0.014 A 
ATOM      3  C   UNL     1       5.999  -5.898  -6.981  1.00  0.00     0.001 A 
ATOM      4  C   UNL     1       5.176  -5.045  -7.716  1.00  0.00     0.001 A 
ATOM      5  C   UNL     1       4.905  -3.759  -7.245  1.00  0.00     0.014 A 
ATOM      6  C   UNL     1       5.457  -3.317  -6.033  1.00  0.00     0.052 A 
ENDROOT
BRANCH   1   7
ATOM      7  C   UNL     1       6.814  -3.844  -3.961  1.00  0.00     0.252 C 
ATOM      8  N   UNL     1       6.011  -3.603  -2.876  1.00  0.00    -0.352 N 
ATOM      9  H   UNL     1       6.483  -3.405  -2.035  1.00  0.00     0.163 HD
ATOM     10  O   UNL     1       8.036  -3.812  -3.849  1.00  0.00    -0.269 OA
BRANCH   8  11
ATOM     11  C   UNL     1       4.561  -3.599  -2.798  1.00  0.00     0.116 C 
BRANCH  11  12
ATOM     12  C   UNL     1       4.033  -3.993  -1.422  1.00  0.00     0.023 C 
BRANCH  12  13
ATOM     13  C   UNL     1       4.494  -3.117  -0.254  1.00  0.00     0.023 C 
BRANCH  13  14
ATOM     14  C   UNL     1       4.299  -1.613  -0.415  1.00  0.00     0.116 C 
BRANCH  14  15
ATOM     15  N   UNL     1       2.912  -1.209  -0.564  1.00  0.00    -0.352 N 
ATOM     16  O   UNL     1       1.028  -0.043  -0.100  1.00  0.00    -0.269 OA
ATOM     17  C   UNL     1       2.227  -0.207   0.088  1.00  0.00     0.251 C 
ATOM     18  H   UNL     1       2.389  -1.723  -1.222  1.00  0.00     0.163 HD
BRANCH  17  19
ATOM     19  C   UNL     1       2.936   0.633   1.079  1.00  0.00     0.039 A 
ATOM     20  C   UNL     1       4.150   1.249   0.765  1.00  0.00     0.014 A 
ATOM     21  C   UNL     1       2.392   0.764   2.360  1.00  0.00     0.014 A 
ATOM     22  C   UNL     1       4.896   1.853   1.774  1.00  0.00     0.010 A 
ATOM     23  C   UNL     1       3.113   1.428   3.356  1.00  0.00     0.010 A 
ATOM     24  C   UNL     1       4.396   1.930   3.085  1.00  0.00    -0.014 A 
BRANCH  24  25
ATOM     25  C   UNL     1       5.234   2.518   4.162  1.00  0.00     0.031 A 
ATOM     26  C   UNL     1       5.764   1.661   5.282  1.00  0.00     0.074 A 
ATOM     27  C   UNL     1       5.547   3.826   4.116  1.00  0.00     0.049 A 
ATOM     28  N   UNL     1       6.538   1.998   6.284  1.00  0.00    -0.248 NA
ATOM     29  C   UNL     1       5.371   0.244   5.282  1.00  0.00     0.031 C 
ATOM     30  C   UNL     1       5.088   4.767   3.093  1.00  0.00     0.029 A 
ATOM     31  N   UNL     1       6.337   4.587   4.940  1.00  0.00    -0.354 N 
ATOM     32  C   UNL     1       6.703   0.846   7.044  1.00  0.00     0.074 A 
ATOM     33  C   UNL     1       5.933  -0.196   6.399  1.00  0.00     0.031 C 
ATOM     34  C   UNL     1       5.637   5.969   3.327  1.00  0.00     0.029 A 
ATOM     35  C   UNL     1       6.452   5.893   4.535  1.00  0.00     0.049 A 
ATOM     36  H   UNL     1       6.779   4.230   5.744  1.00  0.00     0.167 HD
ATOM     37  C   UNL     1       7.437   0.670   8.170  1.00  0.00     0.037 A 
ATOM     38  C   UNL     1       7.137   6.918   5.076  1.00  0.00     0.037 A 
ATOM     39  C   UNL     1       8.232   1.695   8.796  1.00  0.00     0.049 A 
ATOM     40  C   UNL     1       7.944   6.694   6.321  1.00  0.00     0.074 A 
ATOM     41  C   UNL     1       9.051   1.593   9.908  1.00  0.00     0.029 A 
ATOM     42  N   UNL     1       8.307   3.010   8.364  1.00  0.00    -0.354 N 
ATOM     43  N   UNL     1       8.123   5.589   7.003  1.00  0.00    -0.248 NA
ATOM     44  C   UNL     1       8.646   7.862   6.872  1.00  0.00     0.031 C 
ATOM     45  C   UNL     1       9.595   2.856  10.170  1.00  0.00     0.029 A 
ATOM     46  C   UNL     1       9.143   3.734   9.199  1.00  0.00     0.049 A 
ATOM     47  H   UNL     1       7.835   3.375   7.581  1.00  0.00     0.167 HD
ATOM     48  C   UNL     1       8.971   5.923   8.050  1.00  0.00     0.074 A 
ATOM     49  C   UNL     1       9.283   7.330   7.905  1.00  0.00     0.031 C 
ATOM     50  C   UNL     1       9.448   5.133   9.042  1.00  0.00     0.037 A 
BRANCH  37  51
ATOM     51  C   UNL     1       7.409  -0.686   8.811  1.00  0.00     0.057 A 
ATOM     52  C   UNL     1       8.096  -1.778   8.265  1.00  0.00     0.134 A 
ATOM     53  C   UNL     1       6.727  -0.889  10.018  1.00  0.00     0.134 A 
ATOM     54  F   UNL     1       8.760  -1.653   7.107  1.00  0.00    -0.206 F 
ATOM     55  C   UNL     1       8.090  -3.028   8.888  1.00  0.00     0.040 A 
ATOM     56  C   UNL     1       6.731  -2.128  10.660  1.00  0.00     0.040 A 
ATOM     57  F   UNL     1       6.056   0.117  10.598  1.00  0.00    -0.206 F 
ATOM     58  C   UNL     1       7.411  -3.204  10.092  1.00  0.00     0.006 A 
ENDBRANCH  37  51
BRANCH  38  59
ATOM     59  C   UNL     1       7.104   8.248   4.423  1.00  0.00     0.057 A 
ATOM     60  C   UNL     1       8.222   8.745   3.745  1.00  0.00     0.134 A 
ATOM     61  C   UNL     1       5.955   9.046   4.452  1.00  0.00     0.134 A 
ATOM     62  F   UNL     1       9.357   8.031   3.701  1.00  0.00    -0.206 F 
ATOM     63  C   UNL     1       8.203   9.995   3.126  1.00  0.00     0.040 A 
ATOM     64  C   UNL     1       5.914  10.288   3.818  1.00  0.00     0.040 A 
ATOM     65  F   UNL     1       4.850   8.619   5.081  1.00  0.00    -0.206 F 
ATOM     66  C   UNL     1       7.043  10.767   3.156  1.00  0.00     0.006 A 
ENDBRANCH  38  59
BRANCH  50  67
ATOM     67  C   UNL     1      10.378   5.769  10.030  1.00  0.00     0.057 A 
ATOM     68  C   UNL     1       9.915   6.644  11.021  1.00  0.00     0.134 A 
ATOM     69  C   UNL     1      11.750   5.491   9.999  1.00  0.00     0.134 A 
ATOM     70  F   UNL     1       8.613   6.961  11.093  1.00  0.00    -0.206 F 
ATOM     71  C   UNL     1      10.788   7.238  11.933  1.00  0.00     0.040 A 
ATOM     72  C   UNL     1      12.630   6.064  10.918  1.00  0.00     0.040 A 
ATOM     73  F   UNL     1      12.256   4.657   9.078  1.00  0.00    -0.206 F 
ATOM     74  C   UNL     1      12.150   6.945  11.885  1.00  0.00     0.006 A 
ENDBRANCH  50  67
ENDBRANCH  24  25
ENDBRANCH  17  19
ENDBRANCH  14  15
ENDBRANCH  13  14
ENDBRANCH  12  13
ENDBRANCH  11  12
ENDBRANCH   8  11
ENDBRANCH   1   7
BRANCH   6  75
ATOM     75  C   UNL     1       5.046  -1.986  -5.544  1.00  0.00     0.254 C 
ATOM     76  O   UNL     1       3.831  -1.810  -5.479  1.00  0.00    -0.269 OA
ATOM     77  N   UNL     1       5.994  -1.052  -5.132  1.00  0.00    -0.334 N 
BRANCH  77  78
ATOM     78  C   UNL     1       5.645  -0.099  -4.063  1.00  0.00     0.148 C 
BRANCH  78  79
ATOM     79  C   UNL     1       4.243   0.530  -4.054  1.00  0.00     0.181 C 
BRANCH  79  80
ATOM     80  O   UNL     1       4.115   1.434  -2.942  1.00  0.00    -0.377 OA
BRANCH  80  81
ATOM     81  C   UNL     1       3.999   2.811  -3.320  1.00  0.00     0.188 CG0
ATOM     82  G   UNL     1       5.373   3.443  -3.543  1.00  0.00     0.000 G0
ENDBRANCH  80  81
ENDBRANCH  79  80
ENDBRANCH  78  79
ENDBRANCH  77  78
BRANCH  77  83
ATOM     83  C   UNL     1       7.415  -1.086  -5.551  1.00  0.00     0.148 C 
BRANCH  83  84
ATOM     84  C   UNL     1       7.819   0.134  -6.398  1.00  0.00     0.181 C 
BRANCH  84  85
ATOM     85  O   UNL     1       8.064   1.242  -5.536  1.00  0.00    -0.377 OA
BRANCH  85  86
ATOM     86  C   UNL     1       7.803   2.519  -6.127  1.00  0.00     0.188 C 
BRANCH  86  87
ATOM     87  C   UNL     1       7.236   3.421  -5.029  1.00  0.00     0.188 C 
BRANCH  87  88
ATOM     88  O   UNL     1       5.869   3.042  -4.820  1.00  0.00    -0.377 OA
BRANCH  88  89
ATOM     89  C   UNL     1       5.373   3.443  -3.543  1.00  0.00     0.188 CG0
ATOM     90  G   UNL     1       3.999   2.811  -3.320  1.00  0.00     0.000 G0
ENDBRANCH  88  89
ENDBRANCH  87  88
ENDBRANCH  86  87
ENDBRANCH  85  86
ENDBRANCH  84  85
ENDBRANCH  83  84
ENDBRANCH  77  83
ENDBRANCH   6  75
TORSDOF 12
