REMARK SMILES C[C@@H]1[C@@H](C(=O)NCCCCNC(=O)c2ccc(-c3c4nc(c(-c5c(F)cccc5F)c5ccc([nH]5)c(-c5c(F)cccc5F)c5nc(c(-c6c(F)cccc6F)c6ccc3[nH]6)C=C5)C=C4)cc2)CCN1c1ccc(F)cc1C(N)=O
REMARK SMILES IDX 8 1 7 2 6 3 4 4 5 5 3 7 1 8 2 9 70 10 68 11 69 12 71 13
REMARK SMILES IDX 72 14 77 15 73 16 76 17 74 18 75 19 78 20 79 21 80 22 9 25
REMARK SMILES IDX 10 26 11 27 12 28 13 30 14 31 15 32 67 33 16 34 66 35 17 36
REMARK SMILES IDX 18 37 19 38 60 39 20 40 65 41 59 42 61 43 21 44 64 45 58 46
REMARK SMILES IDX 57 47 22 49 48 50 31 51 47 52 32 53 35 54 46 55 62 56 33 57
REMARK SMILES IDX 34 58 45 60 63 61 36 62 23 63 24 64 29 65 25 66 26 67 28 68
REMARK SMILES IDX 30 69 27 70 49 71 50 72 55 73 51 74 52 75 54 76 56 77 53 78
REMARK SMILES IDX 37 79 38 80 43 81 39 82 40 83 42 84 44 85 41 86
REMARK H PARENT 6 6 79 23 79 24 11 29 61 48 35 59
REMARK Flexibility Score: inf
ROOT
ATOM      1  C   UNL     1      -2.769   4.502  -1.164  1.00  0.00     0.023 C 
ENDROOT
BRANCH   1   2
ATOM      2  C   UNL     1      -2.394   3.086  -0.735  1.00  0.00     0.116 C 
BRANCH   2   3
ATOM      3  N   UNL     1      -1.813   2.285  -1.795  1.00  0.00    -0.356 N 
ATOM      4  C   UNL     1      -0.928   1.248  -1.708  1.00  0.00     0.225 C 
ATOM      5  O   UNL     1      -0.693   0.627  -2.745  1.00  0.00    -0.275 OA
ATOM      6  H   UNL     1      -2.098   2.522  -2.707  1.00  0.00     0.163 HD
BRANCH   4   7
ATOM      7  C   UNL     1      -0.227   0.964  -0.384  1.00  0.00     0.102 C 
ATOM      8  C   UNL     1       2.057   0.089   0.276  1.00  0.00     0.032 C 
ATOM      9  C   UNL     1       0.779  -0.213  -0.506  1.00  0.00     0.091 C 
ATOM     10  N   UNL     1       0.074  -1.351   0.104  1.00  0.00    -0.367 N 
ATOM     11  C   UNL     1      -1.171   0.508   0.734  1.00  0.00     0.037 C 
ATOM     12  C   UNL     1      -1.265  -0.994   0.537  1.00  0.00     0.118 C 
BRANCH  10  13
ATOM     13  C   UNL     1       0.315  -2.662  -0.247  1.00  0.00     0.050 A 
ATOM     14  C   UNL     1      -0.339  -3.219  -1.362  1.00  0.00     0.030 A 
ATOM     15  C   UNL     1       1.162  -3.505   0.503  1.00  0.00     0.065 A 
ATOM     16  C   UNL     1      -0.187  -4.566  -1.698  1.00  0.00     0.041 A 
ATOM     17  C   UNL     1       1.321  -4.857   0.163  1.00  0.00     0.055 A 
ATOM     18  C   UNL     1       0.637  -5.372  -0.927  1.00  0.00     0.124 A 
ATOM     19  F   UNL     1       0.768  -6.669  -1.234  1.00  0.00    -0.207 F 
BRANCH  15  20
ATOM     20  C   UNL     1       1.877  -3.018   1.711  1.00  0.00     0.250 C 
ATOM     21  N   UNL     1       3.221  -3.286   1.744  1.00  0.00    -0.366 N 
ATOM     22  O   UNL     1       1.326  -2.440   2.635  1.00  0.00    -0.269 OA
ATOM     23  H   UNL     1       3.649  -3.752   0.990  1.00  0.00     0.159 HD
ATOM     24  H   UNL     1       3.759  -3.011   2.522  1.00  0.00     0.159 HD
ENDBRANCH  15  20
ENDBRANCH  10  13
ENDBRANCH   4   7
ENDBRANCH   2   3
ENDBRANCH   1   2
BRANCH   1  25
ATOM     25  C   UNL     1      -3.668   4.617  -2.396  1.00  0.00     0.023 C 
BRANCH  25  26
ATOM     26  C   UNL     1      -4.903   3.722  -2.413  1.00  0.00     0.116 C 
BRANCH  26  27
ATOM     27  N   UNL     1      -5.835   4.008  -1.335  1.00  0.00    -0.352 N 
ATOM     28  C   UNL     1      -7.145   4.420  -1.384  1.00  0.00     0.251 C 
ATOM     29  H   UNL     1      -5.471   3.888  -0.428  1.00  0.00     0.163 HD
ATOM     30  O   UNL     1      -7.727   4.724  -0.346  1.00  0.00    -0.269 OA
BRANCH  28  31
ATOM     31  C   UNL     1      -7.852   4.536  -2.679  1.00  0.00     0.039 A 
ATOM     32  C   UNL     1      -8.623   5.677  -2.924  1.00  0.00     0.014 A 
ATOM     33  C   UNL     1      -7.771   3.531  -3.646  1.00  0.00     0.014 A 
ATOM     34  C   UNL     1      -9.245   5.845  -4.164  1.00  0.00     0.010 A 
ATOM     35  C   UNL     1      -8.327   3.734  -4.907  1.00  0.00     0.010 A 
ATOM     36  C   UNL     1      -9.069   4.893  -5.180  1.00  0.00    -0.014 A 
BRANCH  36  37
ATOM     37  C   UNL     1      -9.655   5.085  -6.532  1.00  0.00     0.031 A 
ATOM     38  C   UNL     1     -10.693   4.128  -7.048  1.00  0.00     0.074 A 
ATOM     39  C   UNL     1      -9.200   6.074  -7.326  1.00  0.00     0.049 A 
ATOM     40  N   UNL     1     -11.247   4.066  -8.232  1.00  0.00    -0.248 NA
ATOM     41  C   UNL     1     -11.147   3.083  -6.117  1.00  0.00     0.031 C 
ATOM     42  C   UNL     1      -8.164   7.044  -6.966  1.00  0.00     0.029 A 
ATOM     43  N   UNL     1      -9.546   6.419  -8.609  1.00  0.00    -0.354 N 
ATOM     44  C   UNL     1     -12.091   2.964  -8.197  1.00  0.00     0.074 A 
ATOM     45  C   UNL     1     -11.945   2.361  -6.889  1.00  0.00     0.031 C 
ATOM     46  C   UNL     1      -7.973   7.885  -7.995  1.00  0.00     0.029 A 
ATOM     47  C   UNL     1      -8.846   7.496  -9.098  1.00  0.00     0.049 A 
ATOM     48  H   UNL     1     -10.230   5.940  -9.130  1.00  0.00     0.167 HD
ATOM     49  C   UNL     1     -12.928   2.505  -9.158  1.00  0.00     0.037 A 
ATOM     50  C   UNL     1      -8.899   8.098 -10.301  1.00  0.00     0.037 A 
ATOM     51  C   UNL     1     -13.105   3.125 -10.444  1.00  0.00     0.049 A 
ATOM     52  C   UNL     1      -9.854   7.586 -11.343  1.00  0.00     0.074 A 
ATOM     53  C   UNL     1     -13.970   2.767 -11.464  1.00  0.00     0.029 A 
ATOM     54  N   UNL     1     -12.407   4.239 -10.885  1.00  0.00    -0.354 N 
ATOM     55  N   UNL     1     -10.681   6.572 -11.277  1.00  0.00    -0.248 NA
ATOM     56  C   UNL     1      -9.886   8.307 -12.623  1.00  0.00     0.031 C 
ATOM     57  C   UNL     1     -13.777   3.650 -12.532  1.00  0.00     0.029 A 
ATOM     58  C   UNL     1     -12.817   4.578 -12.164  1.00  0.00     0.049 A 
ATOM     59  H   UNL     1     -11.721   4.718 -10.366  1.00  0.00     0.167 HD
ATOM     60  C   UNL     1     -11.353   6.551 -12.492  1.00  0.00     0.074 A 
ATOM     61  C   UNL     1     -10.841   7.658 -13.274  1.00  0.00     0.031 C 
ATOM     62  C   UNL     1     -12.309   5.692 -12.921  1.00  0.00     0.037 A 
BRANCH  49  63
ATOM     63  C   UNL     1     -13.722   1.271  -8.845  1.00  0.00     0.057 A 
ATOM     64  C   UNL     1     -14.786   1.291  -7.935  1.00  0.00     0.134 A 
ATOM     65  C   UNL     1     -13.431   0.054  -9.474  1.00  0.00     0.134 A 
ATOM     66  F   UNL     1     -15.106   2.422  -7.289  1.00  0.00    -0.206 F 
ATOM     67  C   UNL     1     -15.514   0.138  -7.638  1.00  0.00     0.040 A 
ATOM     68  C   UNL     1     -14.168  -1.100  -9.205  1.00  0.00     0.040 A 
ATOM     69  F   UNL     1     -12.428  -0.033 -10.361  1.00  0.00    -0.206 F 
ATOM     70  C   UNL     1     -15.209  -1.061  -8.278  1.00  0.00     0.006 A 
ENDBRANCH  49  63
BRANCH  50  71
ATOM     71  C   UNL     1      -8.045   9.279 -10.576  1.00  0.00     0.057 A 
ATOM     72  C   UNL     1      -8.599  10.563 -10.649  1.00  0.00     0.134 A 
ATOM     73  C   UNL     1      -6.665   9.157 -10.775  1.00  0.00     0.134 A 
ATOM     74  F   UNL     1      -9.918  10.738 -10.486  1.00  0.00    -0.206 F 
ATOM     75  C   UNL     1      -7.814  11.683 -10.926  1.00  0.00     0.040 A 
ATOM     76  C   UNL     1      -5.865  10.271 -11.032  1.00  0.00     0.040 A 
ATOM     77  F   UNL     1      -6.076   7.955 -10.711  1.00  0.00    -0.206 F 
ATOM     78  C   UNL     1      -6.441  11.538 -11.114  1.00  0.00     0.006 A 
ENDBRANCH  50  71
BRANCH  62  79
ATOM     79  C   UNL     1     -12.895   5.941 -14.278  1.00  0.00     0.057 A 
ATOM     80  C   UNL     1     -12.193   5.643 -15.452  1.00  0.00     0.134 A 
ATOM     81  C   UNL     1     -14.193   6.451 -14.409  1.00  0.00     0.134 A 
ATOM     82  F   UNL     1     -10.941   5.165 -15.393  1.00  0.00    -0.206 F 
ATOM     83  C   UNL     1     -12.755   5.861 -16.711  1.00  0.00     0.040 A 
ATOM     84  C   UNL     1     -14.773   6.654 -15.661  1.00  0.00     0.040 A 
ATOM     85  F   UNL     1     -14.919   6.752 -13.322  1.00  0.00    -0.206 F 
ATOM     86  C   UNL     1     -14.052   6.362 -16.817  1.00  0.00     0.006 A 
ENDBRANCH  62  79
ENDBRANCH  36  37
ENDBRANCH  28  31
ENDBRANCH  26  27
ENDBRANCH  25  26
ENDBRANCH   1  25
TORSDOF 13
