REMARK SMILES O=C(C[NH2+]C1CCCC1)N[C@@H]1CCCCC[C@H]1C(=O)NCCCCNC(=O)c1ccc(-c2c3nc(c(-c4c(F)cccc4F)c4ccc([nH]4)c(-c4c(F)cccc4F)c4nc(c(-c5c(F)cccc5F)c5ccc2[nH]5)C=C4)C=C3)cc1
REMARK SMILES IDX 21 1 20 2 18 3 19 4 17 6 11 7 10 9 1 10 2 11 3 13 4 14 5 17
REMARK SMILES IDX 6 18 9 19 7 20 8 21 16 22 15 23 14 24 13 25 12 26 22 28
REMARK SMILES IDX 23 29 24 30 25 31 26 32 27 34 28 35 29 36 81 37 30 38 80 39
REMARK SMILES IDX 31 40 32 41 33 42 74 43 34 44 79 45 73 46 75 47 35 48 78 49
REMARK SMILES IDX 72 50 71 51 36 53 62 54 45 55 61 56 46 57 49 58 60 59 76 60
REMARK SMILES IDX 47 61 48 62 59 64 77 65 50 66 37 67 38 68 43 69 39 70 40 71
REMARK SMILES IDX 42 72 44 73 41 74 63 75 64 76 69 77 65 78 66 79 68 80 70 81
REMARK SMILES IDX 67 82 51 83 52 84 57 85 53 86 54 87 56 88 58 89 55 90
REMARK H PARENT 20 5 10 12 4 15 4 16 25 33 75 52 49 63
REMARK Flexibility Score: 100.00
ROOT
ATOM      1  C   UNL     1      -0.067   4.858  -0.442  1.00  0.00     0.116 C 
ENDROOT
BRANCH   1   2
ATOM      2  N   UNL     1      -0.494   3.518  -0.737  1.00  0.00    -0.356 N 
ATOM      3  C   UNL     1      -0.299   2.380  -0.016  1.00  0.00     0.225 C 
ATOM      4  O   UNL     1      -1.193   1.530  -0.106  1.00  0.00    -0.275 OA
ATOM      5  H   UNL     1      -0.997   3.407  -1.577  1.00  0.00     0.163 HD
BRANCH   3   6
ATOM      6  C   UNL     1       0.922   2.116   0.892  1.00  0.00     0.101 C 
BRANCH   6   7
ATOM      7  C   UNL     1       2.310   2.261   0.211  1.00  0.00     0.094 CG0
ATOM      8  G   UNL     1       3.366   3.114   0.941  1.00  0.00     0.000 G0
BRANCH   7   9
ATOM      9  N   UNL     1       2.943   0.925   0.082  1.00  0.00    -0.348 N 
ATOM     10  O   UNL     1       1.512  -0.006  -1.455  1.00  0.00    -0.268 OA
ATOM     11  C   UNL     1       2.436  -0.120  -0.657  1.00  0.00     0.275 C 
ATOM     12  H   UNL     1       3.791   0.775   0.560  1.00  0.00     0.163 HD
BRANCH  11  13
ATOM     13  C   UNL     1       3.132  -1.458  -0.373  1.00  0.00     0.362 C 
BRANCH  13  14
ATOM     14  N   UNL     1       4.189  -1.674  -1.368  1.00  0.00    -0.336 N 
ATOM     15  H   UNL     1       4.854  -0.903  -1.312  1.00  0.00     0.346 HD
ATOM     16  H   UNL     1       3.748  -1.720  -2.287  1.00  0.00     0.346 HD
BRANCH  14  17
ATOM     17  C   UNL     1       4.904  -2.929  -1.154  1.00  0.00     0.182 C 
ATOM     18  C   UNL     1       4.066  -4.202  -1.273  1.00  0.00     0.065 C 
ATOM     19  C   UNL     1       5.961  -3.143  -2.238  1.00  0.00     0.065 C 
ATOM     20  C   UNL     1       5.106  -5.300  -1.470  1.00  0.00     0.006 C 
ATOM     21  C   UNL     1       6.289  -4.633  -2.171  1.00  0.00     0.006 C 
ENDBRANCH  14  17
ENDBRANCH  13  14
ENDBRANCH  11  13
ENDBRANCH   7   9
ENDBRANCH   6   7
BRANCH   6  22
ATOM     22  C   UNL     1       0.784   2.544   2.358  1.00  0.00     0.015 C 
BRANCH  22  23
ATOM     23  C   UNL     1       0.867   4.014   2.734  1.00  0.00     0.001 C 
BRANCH  23  24
ATOM     24  C   UNL     1       2.237   4.677   2.623  1.00  0.00     0.000 C 
BRANCH  24  25
ATOM     25  C   UNL     1       3.022   4.540   1.323  1.00  0.00     0.002 C 
BRANCH  25  26
ATOM     26  C   UNL     1       3.366   3.114   0.941  1.00  0.00     0.026 CG0
ATOM     27  G   UNL     1       2.310   2.261   0.211  1.00  0.00     0.000 G0
ENDBRANCH  25  26
ENDBRANCH  24  25
ENDBRANCH  23  24
ENDBRANCH  22  23
ENDBRANCH   6  22
ENDBRANCH   3   6
ENDBRANCH   1   2
BRANCH   1  28
ATOM     28  C   UNL     1       0.537   5.615  -1.618  1.00  0.00     0.023 C 
BRANCH  28  29
ATOM     29  C   UNL     1      -0.341   6.729  -2.186  1.00  0.00     0.023 C 
BRANCH  29  30
ATOM     30  C   UNL     1      -0.883   7.751  -1.188  1.00  0.00     0.116 C 
BRANCH  30  31
ATOM     31  N   UNL     1       0.119   8.428  -0.376  1.00  0.00    -0.352 N 
ATOM     32  C   UNL     1       0.053   9.711   0.134  1.00  0.00     0.251 C 
ATOM     33  H   UNL     1       0.934   7.915  -0.168  1.00  0.00     0.163 HD
ATOM     34  O   UNL     1       0.969  10.184   0.791  1.00  0.00    -0.269 OA
BRANCH  32  35
ATOM     35  C   UNL     1      -1.136  10.527  -0.194  1.00  0.00     0.039 A 
ATOM     36  C   UNL     1      -0.963  11.706  -0.922  1.00  0.00     0.014 A 
ATOM     37  C   UNL     1      -2.416  10.036   0.076  1.00  0.00     0.014 A 
ATOM     38  C   UNL     1      -2.076  12.329  -1.490  1.00  0.00     0.010 A 
ATOM     39  C   UNL     1      -3.512  10.614  -0.555  1.00  0.00     0.010 A 
ATOM     40  C   UNL     1      -3.349  11.748  -1.368  1.00  0.00    -0.014 A 
BRANCH  40  41
ATOM     41  C   UNL     1      -4.515  12.268  -2.128  1.00  0.00     0.031 A 
ATOM     42  C   UNL     1      -5.724  12.782  -1.400  1.00  0.00     0.074 A 
ATOM     43  C   UNL     1      -4.529  12.179  -3.473  1.00  0.00     0.049 A 
ATOM     44  N   UNL     1      -6.877  13.169  -1.883  1.00  0.00    -0.248 NA
ATOM     45  C   UNL     1      -5.638  12.832   0.067  1.00  0.00     0.031 C 
ATOM     46  C   UNL     1      -3.450  11.634  -4.301  1.00  0.00     0.029 A 
ATOM     47  N   UNL     1      -5.494  12.533  -4.383  1.00  0.00    -0.354 N 
ATOM     48  C   UNL     1      -7.662  13.478  -0.780  1.00  0.00     0.074 A 
ATOM     49  C   UNL     1      -6.869  13.192   0.397  1.00  0.00     0.031 C 
ATOM     50  C   UNL     1      -3.801  11.717  -5.595  1.00  0.00     0.029 A 
ATOM     51  C   UNL     1      -5.141  12.287  -5.688  1.00  0.00     0.049 A 
ATOM     52  H   UNL     1      -6.359  12.927  -4.125  1.00  0.00     0.167 HD
ATOM     53  C   UNL     1      -8.920  13.976  -0.749  1.00  0.00     0.037 A 
ATOM     54  C   UNL     1      -5.821  12.495  -6.832  1.00  0.00     0.037 A 
ATOM     55  C   UNL     1      -9.692  14.306  -1.917  1.00  0.00     0.049 A 
ATOM     56  C   UNL     1      -7.200  13.085  -6.773  1.00  0.00     0.074 A 
ATOM     57  C   UNL     1     -10.943  14.893  -1.986  1.00  0.00     0.029 A 
ATOM     58  N   UNL     1      -9.281  14.081  -3.221  1.00  0.00    -0.354 N 
ATOM     59  N   UNL     1      -7.903  13.437  -5.725  1.00  0.00    -0.248 NA
ATOM     60  C   UNL     1      -7.881  13.309  -8.057  1.00  0.00     0.031 C 
ATOM     61  C   UNL     1     -11.300  15.002  -3.335  1.00  0.00     0.029 A 
ATOM     62  C   UNL     1     -10.259  14.508  -4.104  1.00  0.00     0.049 A 
ATOM     63  H   UNL     1      -8.422  13.678  -3.482  1.00  0.00     0.167 HD
ATOM     64  C   UNL     1      -9.098  13.942  -6.220  1.00  0.00     0.074 A 
ATOM     65  C   UNL     1      -9.021  13.862  -7.664  1.00  0.00     0.031 C 
ATOM     66  C   UNL     1     -10.163  14.428  -5.538  1.00  0.00     0.037 A 
BRANCH  53  67
ATOM     67  C   UNL     1      -9.531  14.204   0.601  1.00  0.00     0.057 A 
ATOM     68  C   UNL     1      -9.101  15.243   1.437  1.00  0.00     0.134 A 
ATOM     69  C   UNL     1     -10.562  13.381   1.069  1.00  0.00     0.134 A 
ATOM     70  F   UNL     1      -8.106  16.056   1.052  1.00  0.00    -0.206 F 
ATOM     71  C   UNL     1      -9.654  15.437   2.703  1.00  0.00     0.040 A 
ATOM     72  C   UNL     1     -11.140  13.580   2.324  1.00  0.00     0.040 A 
ATOM     73  F   UNL     1     -11.023  12.370   0.316  1.00  0.00    -0.206 F 
ATOM     74  C   UNL     1     -10.681  14.605   3.148  1.00  0.00     0.006 A 
ENDBRANCH  53  67
BRANCH  54  75
ATOM     75  C   UNL     1      -5.192  12.176  -8.137  1.00  0.00     0.057 A 
ATOM     76  C   UNL     1      -4.737  13.197  -8.979  1.00  0.00     0.134 A 
ATOM     77  C   UNL     1      -5.032  10.857  -8.574  1.00  0.00     0.134 A 
ATOM     78  F   UNL     1      -4.881  14.481  -8.620  1.00  0.00    -0.206 F 
ATOM     79  C   UNL     1      -4.157  12.919 -10.218  1.00  0.00     0.040 A 
ATOM     80  C   UNL     1      -4.438  10.563  -9.803  1.00  0.00     0.040 A 
ATOM     81  F   UNL     1      -5.443   9.835  -7.809  1.00  0.00    -0.206 F 
ATOM     82  C   UNL     1      -4.003  11.597 -10.630  1.00  0.00     0.006 A 
ENDBRANCH  54  75
BRANCH  66  83
ATOM     83  C   UNL     1     -11.319  14.934  -6.346  1.00  0.00     0.057 A 
ATOM     84  C   UNL     1     -12.218  14.060  -6.968  1.00  0.00     0.134 A 
ATOM     85  C   UNL     1     -11.557  16.308  -6.467  1.00  0.00     0.134 A 
ATOM     86  F   UNL     1     -12.034  12.733  -6.900  1.00  0.00    -0.206 F 
ATOM     87  C   UNL     1     -13.310  14.537  -7.694  1.00  0.00     0.040 A 
ATOM     88  C   UNL     1     -12.656  16.796  -7.175  1.00  0.00     0.040 A 
ATOM     89  F   UNL     1     -10.733  17.196  -5.890  1.00  0.00    -0.206 F 
ATOM     90  C   UNL     1     -13.535  15.909  -7.793  1.00  0.00     0.006 A 
ENDBRANCH  66  83
ENDBRANCH  40  41
ENDBRANCH  32  35
ENDBRANCH  30  31
ENDBRANCH  29  30
ENDBRANCH  28  29
ENDBRANCH   1  28
TORSDOF 15
