REMARK SMILES Cc1ccc(O[C@H](C)C(=O)NNC(=O)[C@@H]2[C@@H](C(=O)NCCCCNC(=O)c3ccc(-c4c5nc(c(-c6c(F)cccc6F)c6ccc([nH]6)c(-c6c(F)cccc6F)c6nc(c(-c7c(F)cccc7F)c7ccc4[nH]7)C=C6)C=C5)cc3)[C@@H]3C=C[C@H]2C3)cc1C
REMARK SMILES IDX 20 1 19 2 17 3 18 4 16 6 15 7 84 8 81 9 83 10 85 11 82 12
REMARK SMILES IDX 13 13 12 14 14 16 11 17 9 18 10 19 7 21 8 22 6 23 5 24 1 25
REMARK SMILES IDX 2 26 3 27 87 28 4 29 86 30 88 31 21 32 22 33 23 34 24 35
REMARK SMILES IDX 25 36 26 38 27 39 28 40 80 41 29 42 79 43 30 44 31 45 32 46
REMARK SMILES IDX 73 47 33 48 78 49 72 50 74 51 34 52 77 53 71 54 70 55 35 57
REMARK SMILES IDX 61 58 44 59 60 60 45 61 48 62 59 63 75 64 46 65 47 66 58 68
REMARK SMILES IDX 76 69 49 70 36 71 37 72 42 73 38 74 39 75 41 76 43 77 40 78
REMARK SMILES IDX 62 79 63 80 68 81 64 82 65 83 67 84 69 85 66 86 50 87 51 88
REMARK SMILES IDX 56 89 52 90 53 91 55 92 57 93 54 94
REMARK H PARENT 19 5 12 15 11 20 24 37 74 56 48 67
REMARK Flexibility Score: inf
ROOT
ATOM      1  C   UNL     1       0.676   4.737   0.050  1.00  0.00     0.116 C 
ENDROOT
BRANCH   1   2
ATOM      2  N   UNL     1       0.468   5.466  -1.181  1.00  0.00    -0.356 N 
ATOM      3  C   UNL     1      -0.664   5.600  -1.924  1.00  0.00     0.224 C 
ATOM      4  O   UNL     1      -0.584   6.294  -2.939  1.00  0.00    -0.275 OA
ATOM      5  H   UNL     1       1.260   5.934  -1.532  1.00  0.00     0.163 HD
BRANCH   3   6
ATOM      6  C   UNL     1      -1.966   4.923  -1.491  1.00  0.00     0.098 C 
ATOM      7  C   UNL     1      -2.053   3.388  -1.881  1.00  0.00     0.100 C 
ATOM      8  C   UNL     1      -3.268   3.375  -2.850  1.00  0.00     0.025 C 
ATOM      9  C   UNL     1      -3.161   5.528  -2.281  1.00  0.00     0.025 C 
ATOM     10  C   UNL     1      -4.519   3.679  -2.067  1.00  0.00    -0.027 C 
ATOM     11  C   UNL     1      -3.119   4.714  -3.574  1.00  0.00     0.017 C 
ATOM     12  C   UNL     1      -4.446   4.968  -1.705  1.00  0.00    -0.027 C 
BRANCH   7  13
ATOM     13  C   UNL     1      -2.153   2.508  -0.622  1.00  0.00     0.242 C 
ATOM     14  N   UNL     1      -2.545   1.199  -0.654  1.00  0.00    -0.267 N 
ATOM     15  H   UNL     1      -2.300   0.647   0.124  1.00  0.00     0.191 HD
ATOM     16  O   UNL     1      -1.763   2.916   0.477  1.00  0.00    -0.273 OA
BRANCH  14  17
ATOM     17  N   UNL     1      -3.247   0.571  -1.663  1.00  0.00    -0.264 N 
ATOM     18  C   UNL     1      -4.164  -0.429  -1.437  1.00  0.00     0.279 C 
ATOM     19  O   UNL     1      -4.918  -0.758  -2.358  1.00  0.00    -0.269 OA
ATOM     20  H   UNL     1      -3.083   0.853  -2.591  1.00  0.00     0.191 HD
BRANCH  18  21
ATOM     21  C   UNL     1      -4.138  -1.209  -0.107  1.00  0.00     0.260 C 
ATOM     22  C   UNL     1      -2.846  -2.036  -0.080  1.00  0.00     0.064 C 
BRANCH  21  23
ATOM     23  O   UNL     1      -4.229  -0.348   1.030  1.00  0.00    -0.481 OA
BRANCH  23  24
ATOM     24  C   UNL     1      -4.505  -0.911   2.251  1.00  0.00     0.120 A 
ATOM     25  C   UNL     1      -5.142  -2.407   6.271  1.00  0.00     0.044 C 
ATOM     26  C   UNL     1      -4.938  -1.845   4.891  1.00  0.00    -0.048 A 
ATOM     27  C   UNL     1      -4.995  -2.715   3.793  1.00  0.00     0.007 A 
ATOM     28  C   UNL     1      -4.693  -0.479   4.660  1.00  0.00    -0.045 A 
ATOM     29  C   UNL     1      -4.791  -2.253   2.489  1.00  0.00     0.047 A 
ATOM     30  C   UNL     1      -4.476  -0.032   3.339  1.00  0.00     0.050 A 
ATOM     31  C   UNL     1      -4.660   0.541   5.766  1.00  0.00     0.045 C 
ENDBRANCH  23  24
ENDBRANCH  21  23
ENDBRANCH  18  21
ENDBRANCH  14  17
ENDBRANCH   7  13
ENDBRANCH   3   6
ENDBRANCH   1   2
BRANCH   1  32
ATOM     32  C   UNL     1       1.247   3.347  -0.226  1.00  0.00     0.023 C 
BRANCH  32  33
ATOM     33  C   UNL     1       2.745   3.334  -0.538  1.00  0.00     0.023 C 
BRANCH  33  34
ATOM     34  C   UNL     1       3.638   3.856   0.582  1.00  0.00     0.116 C 
BRANCH  34  35
ATOM     35  N   UNL     1       3.444   3.167   1.849  1.00  0.00    -0.352 N 
ATOM     36  C   UNL     1       4.361   2.956   2.849  1.00  0.00     0.251 C 
ATOM     37  H   UNL     1       2.542   2.806   2.009  1.00  0.00     0.163 HD
ATOM     38  O   UNL     1       4.079   2.271   3.827  1.00  0.00    -0.269 OA
BRANCH  36  39
ATOM     39  C   UNL     1       5.712   3.529   2.709  1.00  0.00     0.039 A 
ATOM     40  C   UNL     1       6.818   2.689   2.857  1.00  0.00     0.014 A 
ATOM     41  C   UNL     1       5.880   4.877   2.381  1.00  0.00     0.014 A 
ATOM     42  C   UNL     1       8.096   3.186   2.603  1.00  0.00     0.010 A 
ATOM     43  C   UNL     1       7.147   5.353   2.064  1.00  0.00     0.010 A 
ATOM     44  C   UNL     1       8.265   4.511   2.169  1.00  0.00    -0.014 A 
BRANCH  44  45
ATOM     45  C   UNL     1       9.604   5.038   1.815  1.00  0.00     0.031 A 
ATOM     46  C   UNL     1      10.213   6.144   2.628  1.00  0.00     0.074 A 
ATOM     47  C   UNL     1      10.233   4.573   0.719  1.00  0.00     0.049 A 
ATOM     48  N   UNL     1      11.332   6.793   2.432  1.00  0.00    -0.248 NA
ATOM     49  C   UNL     1       9.447   6.603   3.798  1.00  0.00     0.031 C 
ATOM     50  C   UNL     1       9.716   3.542  -0.183  1.00  0.00     0.029 A 
ATOM     51  N   UNL     1      11.441   4.919   0.170  1.00  0.00    -0.354 N 
ATOM     52  C   UNL     1      11.393   7.748   3.438  1.00  0.00     0.074 A 
ATOM     53  C   UNL     1      10.178   7.626   4.214  1.00  0.00     0.031 C 
ATOM     54  C   UNL     1      10.610   3.324  -1.160  1.00  0.00     0.029 A 
ATOM     55  C   UNL     1      11.748   4.219  -0.972  1.00  0.00     0.049 A 
ATOM     56  H   UNL     1      12.033   5.604   0.557  1.00  0.00     0.167 HD
ATOM     57  C   UNL     1      12.383   8.632   3.704  1.00  0.00     0.037 A 
ATOM     58  C   UNL     1      12.825   4.294  -1.775  1.00  0.00     0.037 A 
ATOM     59  C   UNL     1      13.607   8.725   2.954  1.00  0.00     0.049 A 
ATOM     60  C   UNL     1      13.924   5.262  -1.440  1.00  0.00     0.074 A 
ATOM     61  C   UNL     1      14.700   9.541   3.183  1.00  0.00     0.029 A 
ATOM     62  N   UNL     1      13.899   7.970   1.828  1.00  0.00    -0.354 N 
ATOM     63  N   UNL     1      13.999   6.115  -0.448  1.00  0.00    -0.248 NA
ATOM     64  C   UNL     1      15.092   5.273  -2.333  1.00  0.00     0.031 C 
ATOM     65  C   UNL     1      15.644   9.299   2.179  1.00  0.00     0.029 A 
ATOM     66  C   UNL     1      15.152   8.308   1.345  1.00  0.00     0.049 A 
ATOM     67  H   UNL     1      13.304   7.293   1.432  1.00  0.00     0.167 HD
ATOM     68  C   UNL     1      15.229   6.744  -0.579  1.00  0.00     0.074 A 
ATOM     69  C   UNL     1      15.872   6.167  -1.742  1.00  0.00     0.031 C 
ATOM     70  C   UNL     1      15.777   7.713   0.193  1.00  0.00     0.037 A 
BRANCH  57  71
ATOM     71  C   UNL     1      12.182   9.560   4.865  1.00  0.00     0.057 A 
ATOM     72  C   UNL     1      12.233   9.106   6.189  1.00  0.00     0.134 A 
ATOM     73  C   UNL     1      11.954  10.926   4.658  1.00  0.00     0.134 A 
ATOM     74  F   UNL     1      12.433   7.806   6.454  1.00  0.00    -0.206 F 
ATOM     75  C   UNL     1      12.038   9.972   7.266  1.00  0.00     0.040 A 
ATOM     76  C   UNL     1      11.781  11.806   5.728  1.00  0.00     0.040 A 
ATOM     77  F   UNL     1      11.896  11.427   3.415  1.00  0.00    -0.206 F 
ATOM     78  C   UNL     1      11.817  11.328   7.036  1.00  0.00     0.006 A 
ENDBRANCH  57  71
BRANCH  58  79
ATOM     79  C   UNL     1      12.934   3.401  -2.954  1.00  0.00     0.057 A 
ATOM     80  C   UNL     1      13.836   2.330  -2.963  1.00  0.00     0.134 A 
ATOM     81  C   UNL     1      12.147   3.593  -4.095  1.00  0.00     0.134 A 
ATOM     82  F   UNL     1      14.628   2.107  -1.904  1.00  0.00    -0.206 F 
ATOM     83  C   UNL     1      13.965   1.492  -4.072  1.00  0.00     0.040 A 
ATOM     84  C   UNL     1      12.251   2.750  -5.203  1.00  0.00     0.040 A 
ATOM     85  F   UNL     1      11.259   4.596  -4.144  1.00  0.00    -0.206 F 
ATOM     86  C   UNL     1      13.167   1.700  -5.195  1.00  0.00     0.006 A 
ENDBRANCH  58  79
BRANCH  70  87
ATOM     87  C   UNL     1      17.152   8.184  -0.175  1.00  0.00     0.057 A 
ATOM     88  C   UNL     1      17.374   9.019  -1.276  1.00  0.00     0.134 A 
ATOM     89  C   UNL     1      18.259   7.828   0.605  1.00  0.00     0.134 A 
ATOM     90  F   UNL     1      16.356   9.384  -2.070  1.00  0.00    -0.206 F 
ATOM     91  C   UNL     1      18.655   9.471  -1.599  1.00  0.00     0.040 A 
ATOM     92  C   UNL     1      19.540   8.290   0.305  1.00  0.00     0.040 A 
ATOM     93  F   UNL     1      18.110   7.035   1.677  1.00  0.00    -0.206 F 
ATOM     94  C   UNL     1      19.741   9.111  -0.803  1.00  0.00     0.006 A 
ENDBRANCH  70  87
ENDBRANCH  44  45
ENDBRANCH  36  39
ENDBRANCH  34  35
ENDBRANCH  33  34
ENDBRANCH  32  33
ENDBRANCH   1  32
TORSDOF 16
