REMARK SMILES Cc1cc(OC(F)(F)F)cc2c1O[C@@H](C(F)(F)F)C(C(=O)NCCCCNC(=O)c1ccc(-c3c4nc(c(-c5c(F)cccc5F)c5ccc([nH]5)c(-c5c(F)cccc5F)c5nc(c(-c6c(F)cccc6F)c6ccc3[nH]6)C=C5)C=C4)cc1)=C2
REMARK SMILES IDX 24 1 23 2 22 3 20 4 21 5 19 7 1 8 2 9 3 10 12 11 4 12 11 13
REMARK SMILES IDX 13 14 10 15 84 16 14 17 5 18 6 19 7 20 8 21 9 22 15 23 16 24
REMARK SMILES IDX 17 25 18 26 25 27 26 28 27 29 28 30 29 32 30 33 31 34 83 35
REMARK SMILES IDX 32 36 82 37 33 38 34 39 35 40 76 41 36 42 81 43 75 44 77 45
REMARK SMILES IDX 37 46 80 47 74 48 73 49 38 51 64 52 47 53 63 54 48 55 51 56
REMARK SMILES IDX 62 57 78 58 49 59 50 60 61 62 79 63 52 64 39 65 40 66 45 67
REMARK SMILES IDX 41 68 42 69 44 70 46 71 43 72 65 73 66 74 71 75 67 76 68 77
REMARK SMILES IDX 70 78 72 79 69 80 53 81 54 82 59 83 55 84 56 85 58 86 60 87
REMARK SMILES IDX 57 88
REMARK H PARENT 22 6 27 31 77 50 51 61
REMARK Flexibility Score: inf
ROOT
ATOM      1  C   UNL     1       4.124  -5.956  -2.366  1.00  0.00     0.023 C 
ENDROOT
BRANCH   1   2
ATOM      2  C   UNL     1       2.637  -6.256  -2.181  1.00  0.00     0.116 C 
BRANCH   2   3
ATOM      3  N   UNL     1       2.350  -6.685  -0.827  1.00  0.00    -0.352 N 
ATOM      4  C   UNL     1       1.851  -6.114   0.293  1.00  0.00     0.251 C 
ATOM      5  O   UNL     1       1.695  -6.883   1.247  1.00  0.00    -0.270 OA
ATOM      6  H   UNL     1       2.575  -7.633  -0.686  1.00  0.00     0.163 HD
BRANCH   4   7
ATOM      7  C   UNL     1       1.498  -4.671   0.443  1.00  0.00     0.067 C 
ATOM      8  C   UNL     1       0.730   0.393   0.087  1.00  0.00     0.048 C 
ATOM      9  C   UNL     1       0.414  -0.665   1.107  1.00  0.00    -0.005 A 
ATOM     10  C   UNL     1      -0.150  -0.310   2.344  1.00  0.00     0.054 A 
ATOM     11  C   UNL     1       0.711  -2.010   0.856  1.00  0.00     0.131 A 
ATOM     12  C   UNL     1      -0.434  -1.284   3.305  1.00  0.00     0.130 A 
ATOM     13  C   UNL     1       0.431  -2.991   1.808  1.00  0.00     0.021 A 
ATOM     14  O   UNL     1       1.244  -2.327  -0.364  1.00  0.00    -0.475 OA
ATOM     15  C   UNL     1      -0.141  -2.623   3.028  1.00  0.00     0.058 A 
ATOM     16  C   UNL     1       0.729  -4.386   1.510  1.00  0.00     0.025 C 
ATOM     17  C   UNL     1       2.024  -3.555  -0.418  1.00  0.00     0.314 C 
BRANCH  12  18
ATOM     18  O   UNL     1      -0.983  -1.073   4.537  1.00  0.00    -0.406 OA
BRANCH  18  19
ATOM     19  C   UNL     1      -1.388   0.245   4.865  1.00  0.00     0.573 C 
ATOM     20  F   UNL     1      -0.332   1.086   4.893  1.00  0.00    -0.132 F 
ATOM     21  F   UNL     1      -2.308   0.704   3.990  1.00  0.00    -0.132 F 
ATOM     22  F   UNL     1      -1.947   0.233   6.095  1.00  0.00    -0.132 F 
ENDBRANCH  18  19
ENDBRANCH  12  18
BRANCH  17  23
ATOM     23  C   UNL     1       3.513  -3.239  -0.196  1.00  0.00     0.429 C 
ATOM     24  F   UNL     1       4.112  -2.966  -1.384  1.00  0.00    -0.167 F 
ATOM     25  F   UNL     1       3.713  -2.168   0.605  1.00  0.00    -0.167 F 
ATOM     26  F   UNL     1       4.190  -4.272   0.354  1.00  0.00    -0.167 F 
ENDBRANCH  17  23
ENDBRANCH   4   7
ENDBRANCH   2   3
ENDBRANCH   1   2
BRANCH   1  27
ATOM     27  C   UNL     1       4.968  -7.172  -2.752  1.00  0.00     0.023 C 
BRANCH  27  28
ATOM     28  C   UNL     1       4.616  -7.795  -4.096  1.00  0.00     0.116 C 
BRANCH  28  29
ATOM     29  N   UNL     1       4.682  -6.857  -5.206  1.00  0.00    -0.352 N 
ATOM     30  C   UNL     1       5.042  -7.122  -6.510  1.00  0.00     0.251 C 
ATOM     31  H   UNL     1       4.441  -5.924  -5.003  1.00  0.00     0.163 HD
ATOM     32  O   UNL     1       5.114  -6.242  -7.344  1.00  0.00    -0.269 OA
BRANCH  30  33
ATOM     33  C   UNL     1       5.381  -8.516  -6.848  1.00  0.00     0.039 A 
ATOM     34  C   UNL     1       6.680  -8.804  -7.272  1.00  0.00     0.014 A 
ATOM     35  C   UNL     1       4.447  -9.531  -6.628  1.00  0.00     0.014 A 
ATOM     36  C   UNL     1       7.067 -10.135  -7.414  1.00  0.00     0.010 A 
ATOM     37  C   UNL     1       4.851 -10.857  -6.721  1.00  0.00     0.010 A 
ATOM     38  C   UNL     1       6.165 -11.166  -7.109  1.00  0.00    -0.014 A 
BRANCH  38  39
ATOM     39  C   UNL     1       6.567 -12.585  -7.212  1.00  0.00     0.031 A 
ATOM     40  C   UNL     1       5.988 -13.436  -8.302  1.00  0.00     0.074 A 
ATOM     41  C   UNL     1       7.395 -13.115  -6.293  1.00  0.00     0.049 A 
ATOM     42  N   UNL     1       6.152 -14.713  -8.529  1.00  0.00    -0.248 NA
ATOM     43  C   UNL     1       5.083 -12.763  -9.248  1.00  0.00     0.031 C 
ATOM     44  C   UNL     1       7.989 -12.393  -5.167  1.00  0.00     0.029 A 
ATOM     45  N   UNL     1       7.870 -14.394  -6.158  1.00  0.00    -0.354 N 
ATOM     46  C   UNL     1       5.366 -14.998  -9.637  1.00  0.00     0.074 A 
ATOM     47  C   UNL     1       4.687 -13.774 -10.005  1.00  0.00     0.031 C 
ATOM     48  C   UNL     1       8.761 -13.239  -4.462  1.00  0.00     0.029 A 
ATOM     49  C   UNL     1       8.697 -14.562  -5.075  1.00  0.00     0.049 A 
ATOM     50  H   UNL     1       7.641 -15.123  -6.779  1.00  0.00     0.167 HD
ATOM     51  C   UNL     1       5.240 -16.169 -10.302  1.00  0.00     0.037 A 
ATOM     52  C   UNL     1       9.328 -15.665  -4.631  1.00  0.00     0.037 A 
ATOM     53  C   UNL     1       5.930 -17.378  -9.946  1.00  0.00     0.049 A 
ATOM     54  C   UNL     1       9.165 -16.956  -5.383  1.00  0.00     0.074 A 
ATOM     55  C   UNL     1       5.907 -18.607 -10.582  1.00  0.00     0.029 A 
ATOM     56  N   UNL     1       6.773 -17.506  -8.853  1.00  0.00    -0.354 N 
ATOM     57  N   UNL     1       8.463 -17.201  -6.463  1.00  0.00    -0.248 NA
ATOM     58  C   UNL     1       9.886 -18.123  -4.856  1.00  0.00     0.031 C 
ATOM     59  C   UNL     1       6.721 -19.486  -9.858  1.00  0.00     0.029 A 
ATOM     60  C   UNL     1       7.269 -18.797  -8.788  1.00  0.00     0.049 A 
ATOM     61  H   UNL     1       6.987 -16.786  -8.217  1.00  0.00     0.167 HD
ATOM     62  C   UNL     1       8.678 -18.539  -6.761  1.00  0.00     0.074 A 
ATOM     63  C   UNL     1       9.582 -19.053  -5.751  1.00  0.00     0.031 C 
ATOM     64  C   UNL     1       8.176 -19.279  -7.779  1.00  0.00     0.037 A 
BRANCH  51  65
ATOM     65  C   UNL     1       4.324 -16.178 -11.486  1.00  0.00     0.057 A 
ATOM     66  C   UNL     1       3.074 -16.805 -11.423  1.00  0.00     0.134 A 
ATOM     67  C   UNL     1       4.676 -15.551 -12.689  1.00  0.00     0.134 A 
ATOM     68  F   UNL     1       2.677 -17.420 -10.299  1.00  0.00    -0.206 F 
ATOM     69  C   UNL     1       2.203 -16.801 -12.513  1.00  0.00     0.040 A 
ATOM     70  C   UNL     1       3.805 -15.522 -13.778  1.00  0.00     0.040 A 
ATOM     71  F   UNL     1       5.852 -14.915 -12.804  1.00  0.00    -0.206 F 
ATOM     72  C   UNL     1       2.565 -16.151 -13.692  1.00  0.00     0.006 A 
ENDBRANCH  51  65
BRANCH  52  73
ATOM     73  C   UNL     1      10.197 -15.597  -3.432  1.00  0.00     0.057 A 
ATOM     74  C   UNL     1       9.662 -15.502  -2.143  1.00  0.00     0.134 A 
ATOM     75  C   UNL     1      11.590 -15.651  -3.554  1.00  0.00     0.134 A 
ATOM     76  F   UNL     1       8.335 -15.443  -1.964  1.00  0.00    -0.206 F 
ATOM     77  C   UNL     1      10.483 -15.465  -1.015  1.00  0.00     0.040 A 
ATOM     78  C   UNL     1      12.422 -15.632  -2.434  1.00  0.00     0.040 A 
ATOM     79  F   UNL     1      12.158 -15.761  -4.764  1.00  0.00    -0.206 F 
ATOM     80  C   UNL     1      11.868 -15.537  -1.159  1.00  0.00     0.006 A 
ENDBRANCH  52  73
BRANCH  64  81
ATOM     81  C   UNL     1       8.621 -20.706  -7.864  1.00  0.00     0.057 A 
ATOM     82  C   UNL     1       9.554 -21.104  -8.828  1.00  0.00     0.134 A 
ATOM     83  C   UNL     1       8.104 -21.688  -7.011  1.00  0.00     0.134 A 
ATOM     84  F   UNL     1      10.082 -20.208  -9.676  1.00  0.00    -0.206 F 
ATOM     85  C   UNL     1       9.958 -22.434  -8.943  1.00  0.00     0.040 A 
ATOM     86  C   UNL     1       8.514 -23.019  -7.104  1.00  0.00     0.040 A 
ATOM     87  F   UNL     1       7.219 -21.363  -6.057  1.00  0.00    -0.206 F 
ATOM     88  C   UNL     1       9.440 -23.395  -8.077  1.00  0.00     0.006 A 
ENDBRANCH  64  81
ENDBRANCH  38  39
ENDBRANCH  30  33
ENDBRANCH  28  29
ENDBRANCH  27  28
ENDBRANCH   1  27
TORSDOF 14
