REMARK SMILES CCC(C)(C)NC(=O)[C@@H](C)Oc1ccc(C)nc1C(=O)NCCCCNC(=O)c1ccc(-c2c3nc(c(-c4c(F)cccc4F)c4ccc([nH]4)c(-c4c(F)cccc4F)c4nc(c(-c5c(F)cccc5F)c5ccc2[nH]5)C=C4)C=C3)cc1
REMARK SMILES IDX 22 1 21 2 19 3 20 4 18 6 12 7 13 8 14 9 17 10 15 11 16 12
REMARK SMILES IDX 11 13 9 14 10 15 7 16 6 17 8 19 3 20 4 21 5 22 2 23 1 24
REMARK SMILES IDX 23 25 24 26 25 27 26 28 27 29 28 31 29 32 30 33 82 34 31 35
REMARK SMILES IDX 81 36 32 37 33 38 34 39 75 40 35 41 80 42 74 43 76 44 36 45
REMARK SMILES IDX 79 46 73 47 72 48 37 50 63 51 46 52 62 53 47 54 50 55 61 56
REMARK SMILES IDX 77 57 48 58 49 59 60 61 78 62 51 63 38 64 39 65 44 66 40 67
REMARK SMILES IDX 41 68 43 69 45 70 42 71 64 72 65 73 70 74 66 75 67 76 69 77
REMARK SMILES IDX 71 78 68 79 52 80 53 81 58 82 54 83 55 84 57 85 59 86 56 87
REMARK H PARENT 21 5 6 18 26 30 76 49 50 60
REMARK Flexibility Score: inf
ROOT
ATOM      1  C   UNL     1       1.061  -2.091   2.176  1.00  0.00     0.116 C 
ENDROOT
BRANCH   1   2
ATOM      2  N   UNL     1      -0.337  -2.041   1.837  1.00  0.00    -0.351 N 
ATOM      3  C   UNL     1      -1.025  -1.468   0.795  1.00  0.00     0.273 C 
ATOM      4  O   UNL     1      -2.253  -1.456   0.951  1.00  0.00    -0.267 OA
ATOM      5  H   UNL     1      -0.915  -2.513   2.479  1.00  0.00     0.163 HD
BRANCH   3   6
ATOM      6  C   UNL     1      -0.443  -0.977  -0.517  1.00  0.00     0.170 A 
ATOM      7  C   UNL     1       0.846  -0.506  -0.800  1.00  0.00     0.151 A 
ATOM      8  C   UNL     1       1.192  -0.398  -2.152  1.00  0.00     0.051 A 
ATOM      9  C   UNL     1       0.200  -0.412  -3.133  1.00  0.00     0.027 A 
ATOM     10  N   UNL     1      -1.414  -0.962  -1.483  1.00  0.00    -0.244 NA
ATOM     11  C   UNL     1      -1.110  -0.573  -2.733  1.00  0.00     0.038 A 
ATOM     12  C   UNL     1      -2.259  -0.248  -3.637  1.00  0.00     0.067 C 
BRANCH   7  13
ATOM     13  O   UNL     1       1.620   0.018   0.200  1.00  0.00    -0.478 OA
BRANCH  13  14
ATOM     14  C   UNL     1       2.715   0.881  -0.093  1.00  0.00     0.259 C 
ATOM     15  C   UNL     1       3.118   1.679   1.169  1.00  0.00     0.064 C 
BRANCH  14  16
ATOM     16  C   UNL     1       2.787   1.935  -1.230  1.00  0.00     0.261 C 
ATOM     17  N   UNL     1       2.087   3.103  -1.190  1.00  0.00    -0.348 N 
ATOM     18  H   UNL     1       2.650   3.895  -1.033  1.00  0.00     0.164 HD
ATOM     19  O   UNL     1       3.665   1.842  -2.096  1.00  0.00    -0.271 OA
BRANCH  17  20
ATOM     20  C   UNL     1       0.646   3.419  -1.334  1.00  0.00     0.034 C 
ATOM     21  C   UNL     1       0.279   3.203  -2.822  1.00  0.00     0.034 C 
ATOM     22  C   UNL     1       0.508   4.928  -1.037  1.00  0.00     0.034 C 
BRANCH  20  23
ATOM     23  C   UNL     1      -0.399   2.669  -0.474  1.00  0.00     0.024 C 
ATOM     24  C   UNL     1      -0.201   2.575   1.028  1.00  0.00     0.006 C 
ENDBRANCH  20  23
ENDBRANCH  17  20
ENDBRANCH  14  16
ENDBRANCH  13  14
ENDBRANCH   7  13
ENDBRANCH   3   6
ENDBRANCH   1   2
BRANCH   1  25
ATOM     25  C   UNL     1       1.423  -0.852   2.989  1.00  0.00     0.023 C 
BRANCH  25  26
ATOM     26  C   UNL     1       1.418  -1.004   4.507  1.00  0.00     0.023 C 
BRANCH  26  27
ATOM     27  C   UNL     1       2.592  -1.825   5.017  1.00  0.00     0.116 C 
BRANCH  27  28
ATOM     28  N   UNL     1       3.899  -1.290   4.643  1.00  0.00    -0.352 N 
ATOM     29  C   UNL     1       5.123  -1.592   5.188  1.00  0.00     0.251 C 
ATOM     30  H   UNL     1       3.903  -0.632   3.911  1.00  0.00     0.163 HD
ATOM     31  O   UNL     1       6.142  -1.025   4.805  1.00  0.00    -0.269 OA
BRANCH  29  32
ATOM     32  C   UNL     1       5.173  -2.556   6.301  1.00  0.00     0.039 A 
ATOM     33  C   UNL     1       5.804  -2.179   7.487  1.00  0.00     0.014 A 
ATOM     34  C   UNL     1       4.493  -3.771   6.208  1.00  0.00     0.014 A 
ATOM     35  C   UNL     1       5.682  -2.995   8.610  1.00  0.00     0.010 A 
ATOM     36  C   UNL     1       4.276  -4.519   7.354  1.00  0.00     0.010 A 
ATOM     37  C   UNL     1       4.880  -4.147   8.563  1.00  0.00    -0.014 A 
BRANCH  37  38
ATOM     38  C   UNL     1       4.694  -5.002   9.759  1.00  0.00     0.031 A 
ATOM     39  C   UNL     1       5.163  -6.431   9.728  1.00  0.00     0.074 A 
ATOM     40  C   UNL     1       4.070  -4.509  10.847  1.00  0.00     0.049 A 
ATOM     41  N   UNL     1       5.062  -7.354  10.649  1.00  0.00    -0.248 NA
ATOM     42  C   UNL     1       5.796  -6.897   8.482  1.00  0.00     0.031 C 
ATOM     43  C   UNL     1       3.512  -3.160  10.971  1.00  0.00     0.029 A 
ATOM     44  N   UNL     1       3.803  -5.089  12.060  1.00  0.00    -0.354 N 
ATOM     45  C   UNL     1       5.609  -8.501  10.091  1.00  0.00     0.074 A 
ATOM     46  C   UNL     1       5.963  -8.187   8.726  1.00  0.00     0.031 C 
ATOM     47  C   UNL     1       3.011  -3.003  12.207  1.00  0.00     0.029 A 
ATOM     48  C   UNL     1       3.184  -4.246  12.951  1.00  0.00     0.049 A 
ATOM     49  H   UNL     1       4.034  -6.023  12.273  1.00  0.00     0.167 HD
ATOM     50  C   UNL     1       5.843  -9.698  10.675  1.00  0.00     0.037 A 
ATOM     51  C   UNL     1       2.813  -4.455  14.228  1.00  0.00     0.037 A 
ATOM     52  C   UNL     1       5.529  -9.997  12.045  1.00  0.00     0.049 A 
ATOM     53  C   UNL     1       3.091  -5.794  14.856  1.00  0.00     0.074 A 
ATOM     54  C   UNL     1       5.758 -11.165  12.749  1.00  0.00     0.029 A 
ATOM     55  N   UNL     1       4.928  -9.107  12.923  1.00  0.00    -0.354 N 
ATOM     56  N   UNL     1       3.671  -6.849  14.335  1.00  0.00    -0.248 NA
ATOM     57  C   UNL     1       2.674  -5.967  16.255  1.00  0.00     0.031 C 
ATOM     58  C   UNL     1       5.274 -10.990  14.049  1.00  0.00     0.029 A 
ATOM     59  C   UNL     1       4.776  -9.701  14.162  1.00  0.00     0.049 A 
ATOM     60  H   UNL     1       4.652  -8.190  12.697  1.00  0.00     0.167 HD
ATOM     61  C   UNL     1       3.717  -7.796  15.349  1.00  0.00     0.074 A 
ATOM     62  C   UNL     1       3.122  -7.186  16.520  1.00  0.00     0.031 C 
ATOM     63  C   UNL     1       4.202  -9.061  15.317  1.00  0.00     0.037 A 
BRANCH  50  64
ATOM     64  C   UNL     1       6.504 -10.754   9.839  1.00  0.00     0.057 A 
ATOM     65  C   UNL     1       7.848 -10.646   9.455  1.00  0.00     0.134 A 
ATOM     66  C   UNL     1       5.803 -11.893   9.428  1.00  0.00     0.134 A 
ATOM     67  F   UNL     1       8.569  -9.569   9.801  1.00  0.00    -0.206 F 
ATOM     68  C   UNL     1       8.464 -11.621   8.670  1.00  0.00     0.040 A 
ATOM     69  C   UNL     1       6.417 -12.888   8.665  1.00  0.00     0.040 A 
ATOM     70  F   UNL     1       4.514 -12.059   9.761  1.00  0.00    -0.206 F 
ATOM     71  C   UNL     1       7.749 -12.750   8.279  1.00  0.00     0.006 A 
ENDBRANCH  50  64
BRANCH  51  72
ATOM     72  C   UNL     1       2.178  -3.370  15.019  1.00  0.00     0.057 A 
ATOM     73  C   UNL     1       2.855  -2.771  16.089  1.00  0.00     0.134 A 
ATOM     74  C   UNL     1       0.874  -2.936  14.758  1.00  0.00     0.134 A 
ATOM     75  F   UNL     1       4.101  -3.157  16.399  1.00  0.00    -0.206 F 
ATOM     76  C   UNL     1       2.247  -1.804  16.891  1.00  0.00     0.040 A 
ATOM     77  C   UNL     1       0.263  -1.951  15.536  1.00  0.00     0.040 A 
ATOM     78  F   UNL     1       0.175  -3.462  13.742  1.00  0.00    -0.206 F 
ATOM     79  C   UNL     1       0.946  -1.391  16.614  1.00  0.00     0.006 A 
ENDBRANCH  51  72
BRANCH  63  80
ATOM     80  C   UNL     1       4.149  -9.846  16.592  1.00  0.00     0.057 A 
ATOM     81  C   UNL     1       2.947 -10.359  17.093  1.00  0.00     0.134 A 
ATOM     82  C   UNL     1       5.322 -10.125  17.304  1.00  0.00     0.134 A 
ATOM     83  F   UNL     1       1.788 -10.115  16.462  1.00  0.00    -0.206 F 
ATOM     84  C   UNL     1       2.909 -11.104  18.272  1.00  0.00     0.040 A 
ATOM     85  C   UNL     1       5.301 -10.890  18.470  1.00  0.00     0.040 A 
ATOM     86  F   UNL     1       6.508  -9.670  16.871  1.00  0.00    -0.206 F 
ATOM     87  C   UNL     1       4.090 -11.377  18.960  1.00  0.00     0.006 A 
ENDBRANCH  63  80
ENDBRANCH  37  38
ENDBRANCH  29  32
ENDBRANCH  27  28
ENDBRANCH  26  27
ENDBRANCH  25  26
ENDBRANCH   1  25
TORSDOF 16
