REMARK SMILES C[C@H]1[C@H](C(=O)NCCCCNC(=O)c2ccc(-c3c4nc(c(-c5c(F)cccc5F)c5ccc([nH]5)c(-c5c(F)cccc5F)c5nc(c(-c6c(F)cccc6F)c6ccc3[nH]6)C=C5)C=C4)cc2)CCN1C(=O)COc1ccccc1F
REMARK SMILES IDX 7 1 6 2 4 3 5 4 3 6 1 7 2 8 70 9 68 10 69 11 71 12 72 13
REMARK SMILES IDX 73 14 74 15 75 16 76 17 80 18 77 19 79 20 81 21 78 22 8 23
REMARK SMILES IDX 9 24 10 25 11 26 12 27 13 29 14 30 15 31 67 32 16 33 66 34
REMARK SMILES IDX 17 35 18 36 19 37 60 38 20 39 65 40 59 41 61 42 21 43 64 44
REMARK SMILES IDX 58 45 57 46 22 48 48 49 31 50 47 51 32 52 35 53 46 54 62 55
REMARK SMILES IDX 33 56 34 57 45 59 63 60 36 61 23 62 24 63 29 64 25 65 26 66
REMARK SMILES IDX 28 67 30 68 27 69 49 70 50 71 55 72 51 73 52 74 54 75 56 76
REMARK SMILES IDX 53 77 37 78 38 79 43 80 39 81 40 82 42 83 44 84 41 85
REMARK H PARENT 6 5 11 28 61 47 35 58
REMARK Flexibility Score: inf
ROOT
ATOM      1  C   UNL     1      -0.985   0.561   2.949  1.00  0.00     0.116 C 
ENDROOT
BRANCH   1   2
ATOM      2  N   UNL     1      -0.515   1.852   2.482  1.00  0.00    -0.356 N 
ATOM      3  C   UNL     1      -0.081   2.254   1.259  1.00  0.00     0.225 C 
ATOM      4  O   UNL     1       0.303   3.422   1.150  1.00  0.00    -0.275 OA
ATOM      5  H   UNL     1      -0.509   2.557   3.169  1.00  0.00     0.163 HD
BRANCH   3   6
ATOM      6  C   UNL     1      -0.064   1.333   0.050  1.00  0.00     0.102 C 
ATOM      7  C   UNL     1       1.986   0.191  -0.822  1.00  0.00     0.032 C 
ATOM      8  C   UNL     1       0.874   0.121   0.225  1.00  0.00     0.094 C 
ATOM      9  N   UNL     1      -0.009  -1.039   0.081  1.00  0.00    -0.336 N 
ATOM     10  C   UNL     1      -1.445   0.796  -0.328  1.00  0.00     0.037 C 
ATOM     11  C   UNL     1      -1.238  -0.680  -0.599  1.00  0.00     0.121 C 
BRANCH   9  12
ATOM     12  C   UNL     1       0.106  -2.292   0.650  1.00  0.00     0.260 C 
ATOM     13  O   UNL     1      -0.892  -2.992   0.859  1.00  0.00    -0.271 OA
BRANCH  12  14
ATOM     14  C   UNL     1       1.484  -2.823   1.065  1.00  0.00     0.329 C 
BRANCH  14  15
ATOM     15  O   UNL     1       2.643  -2.654   0.279  1.00  0.00    -0.481 OA
BRANCH  15  16
ATOM     16  C   UNL     1       2.754  -3.295  -0.924  1.00  0.00     0.155 A 
ATOM     17  C   UNL     1       4.076  -3.541  -1.314  1.00  0.00     0.049 A 
ATOM     18  C   UNL     1       1.735  -3.609  -1.824  1.00  0.00     0.165 A 
ATOM     19  C   UNL     1       4.367  -4.081  -2.571  1.00  0.00     0.004 A 
ATOM     20  C   UNL     1       2.020  -4.132  -3.086  1.00  0.00     0.043 A 
ATOM     21  F   UNL     1       0.448  -3.381  -1.554  1.00  0.00    -0.203 F 
ATOM     22  C   UNL     1       3.338  -4.367  -3.463  1.00  0.00     0.003 A 
ENDBRANCH  15  16
ENDBRANCH  14  15
ENDBRANCH  12  14
ENDBRANCH   9  12
ENDBRANCH   3   6
ENDBRANCH   1   2
BRANCH   1  23
ATOM     23  C   UNL     1       0.004  -0.085   3.914  1.00  0.00     0.023 C 
BRANCH  23  24
ATOM     24  C   UNL     1       0.114   0.621   5.266  1.00  0.00     0.023 C 
BRANCH  24  25
ATOM     25  C   UNL     1      -1.204   0.787   6.012  1.00  0.00     0.116 C 
BRANCH  25  26
ATOM     26  N   UNL     1      -1.889  -0.474   6.254  1.00  0.00    -0.352 N 
ATOM     27  C   UNL     1      -2.536  -0.892   7.391  1.00  0.00     0.251 C 
ATOM     28  H   UNL     1      -1.889  -1.111   5.503  1.00  0.00     0.163 HD
ATOM     29  O   UNL     1      -2.962  -2.038   7.483  1.00  0.00    -0.269 OA
BRANCH  27  30
ATOM     30  C   UNL     1      -2.679   0.045   8.522  1.00  0.00     0.039 A 
ATOM     31  C   UNL     1      -2.308  -0.378   9.800  1.00  0.00     0.014 A 
ATOM     32  C   UNL     1      -3.134   1.350   8.311  1.00  0.00     0.014 A 
ATOM     33  C   UNL     1      -2.324   0.532  10.857  1.00  0.00     0.010 A 
ATOM     34  C   UNL     1      -3.076   2.275   9.348  1.00  0.00     0.010 A 
ATOM     35  C   UNL     1      -2.669   1.875  10.630  1.00  0.00    -0.014 A 
BRANCH  35  36
ATOM     36  C   UNL     1      -2.605   2.879  11.721  1.00  0.00     0.031 A 
ATOM     37  C   UNL     1      -3.857   3.567  12.186  1.00  0.00     0.074 A 
ATOM     38  C   UNL     1      -1.411   3.220  12.242  1.00  0.00     0.049 A 
ATOM     39  N   UNL     1      -3.997   4.517  13.076  1.00  0.00    -0.248 NA
ATOM     40  C   UNL     1      -5.117   3.153  11.547  1.00  0.00     0.031 C 
ATOM     41  C   UNL     1      -0.118   2.664  11.838  1.00  0.00     0.029 A 
ATOM     42  N   UNL     1      -1.089   4.127  13.221  1.00  0.00    -0.354 N 
ATOM     43  C   UNL     1      -5.351   4.822  13.091  1.00  0.00     0.074 A 
ATOM     44  C   UNL     1      -5.983   3.998  12.085  1.00  0.00     0.031 C 
ATOM     45  C   UNL     1       0.852   3.223  12.578  1.00  0.00     0.029 A 
ATOM     46  C   UNL     1       0.257   4.202  13.482  1.00  0.00     0.049 A 
ATOM     47  H   UNL     1      -1.760   4.672  13.691  1.00  0.00     0.167 HD
ATOM     48  C   UNL     1      -6.012   5.693  13.890  1.00  0.00     0.037 A 
ATOM     49  C   UNL     1       0.936   4.976  14.349  1.00  0.00     0.037 A 
ATOM     50  C   UNL     1      -5.385   6.493  14.908  1.00  0.00     0.049 A 
ATOM     51  C   UNL     1       0.178   5.936  15.224  1.00  0.00     0.074 A 
ATOM     52  C   UNL     1      -5.976   7.358  15.812  1.00  0.00     0.029 A 
ATOM     53  N   UNL     1      -4.021   6.526  15.156  1.00  0.00    -0.354 N 
ATOM     54  N   UNL     1      -1.112   6.162  15.279  1.00  0.00    -0.248 NA
ATOM     55  C   UNL     1       0.970   6.742  16.163  1.00  0.00     0.031 C 
ATOM     56  C   UNL     1      -4.966   7.946  16.579  1.00  0.00     0.029 A 
ATOM     57  C   UNL     1      -3.749   7.412  16.185  1.00  0.00     0.049 A 
ATOM     58  H   UNL     1      -3.345   5.997  14.673  1.00  0.00     0.167 HD
ATOM     59  C   UNL     1      -1.289   7.115  16.273  1.00  0.00     0.074 A 
ATOM     60  C   UNL     1       0.025   7.413  16.805  1.00  0.00     0.031 C 
ATOM     61  C   UNL     1      -2.436   7.692  16.707  1.00  0.00     0.037 A 
BRANCH  48  62
ATOM     62  C   UNL     1      -7.495   5.820  13.695  1.00  0.00     0.057 A 
ATOM     63  C   UNL     1      -8.377   4.792  14.054  1.00  0.00     0.134 A 
ATOM     64  C   UNL     1      -8.051   6.993  13.169  1.00  0.00     0.134 A 
ATOM     65  F   UNL     1      -7.909   3.636  14.551  1.00  0.00    -0.206 F 
ATOM     66  C   UNL     1      -9.756   4.915  13.872  1.00  0.00     0.040 A 
ATOM     67  C   UNL     1      -9.430   7.139  13.009  1.00  0.00     0.040 A 
ATOM     68  F   UNL     1      -7.264   8.018  12.809  1.00  0.00    -0.206 F 
ATOM     69  C   UNL     1     -10.286   6.095  13.354  1.00  0.00     0.006 A 
ENDBRANCH  48  62
BRANCH  49  70
ATOM     70  C   UNL     1       2.412   4.860  14.453  1.00  0.00     0.057 A 
ATOM     71  C   UNL     1       3.013   4.299  15.585  1.00  0.00     0.134 A 
ATOM     72  C   UNL     1       3.256   5.313  13.432  1.00  0.00     0.134 A 
ATOM     73  F   UNL     1       2.258   3.865  16.605  1.00  0.00    -0.206 F 
ATOM     74  C   UNL     1       4.401   4.210  15.709  1.00  0.00     0.040 A 
ATOM     75  C   UNL     1       4.644   5.207  13.531  1.00  0.00     0.040 A 
ATOM     76  F   UNL     1       2.742   5.853  12.317  1.00  0.00    -0.206 F 
ATOM     77  C   UNL     1       5.220   4.661  14.677  1.00  0.00     0.006 A 
ENDBRANCH  49  70
BRANCH  61  78
ATOM     78  C   UNL     1      -2.325   8.678  17.833  1.00  0.00     0.057 A 
ATOM     79  C   UNL     1      -1.784   9.956  17.647  1.00  0.00     0.134 A 
ATOM     80  C   UNL     1      -2.803   8.356  19.110  1.00  0.00     0.134 A 
ATOM     81  F   UNL     1      -1.297  10.320  16.451  1.00  0.00    -0.206 F 
ATOM     82  C   UNL     1      -1.701  10.871  18.697  1.00  0.00     0.040 A 
ATOM     83  C   UNL     1      -2.749   9.272  20.161  1.00  0.00     0.040 A 
ATOM     84  F   UNL     1      -3.341   7.151  19.353  1.00  0.00    -0.206 F 
ATOM     85  C   UNL     1      -2.191  10.533  19.957  1.00  0.00     0.006 A 
ENDBRANCH  61  78
ENDBRANCH  35  36
ENDBRANCH  27  30
ENDBRANCH  25  26
ENDBRANCH  24  25
ENDBRANCH  23  24
ENDBRANCH   1  23
TORSDOF 15
