REMARK SMILES C[C@H]1[C@H](C(=O)NCCCCNC(=O)c2ccc(-c3c4nc(c(-c5c(F)cccc5F)c5ccc([nH]5)c(-c5c(F)cccc5F)c5nc(c(-c6c(F)cccc6F)c6ccc3[nH]6)C=C5)C=C4)cc2)CC[N@@H+]1Cc1cnn(-c2ccccc2)c1
REMARK SMILES IDX 8 1 7 2 6 3 4 4 5 5 3 7 1 8 2 9 70 10 68 11 69 12 71 14
REMARK SMILES IDX 72 15 73 16 82 17 74 18 75 19 76 20 77 21 81 22 78 23 80 24
REMARK SMILES IDX 79 25 9 26 10 27 11 28 12 29 13 31 14 32 15 33 67 34 16 35
REMARK SMILES IDX 66 36 17 37 18 38 19 39 60 40 20 41 65 42 59 43 61 44 21 45
REMARK SMILES IDX 64 46 58 47 57 48 22 50 48 51 31 52 47 53 32 54 35 55 46 56
REMARK SMILES IDX 62 57 33 58 34 59 45 61 63 62 36 63 23 64 24 65 29 66 25 67
REMARK SMILES IDX 26 68 28 69 30 70 27 71 49 72 50 73 55 74 51 75 52 76 54 77
REMARK SMILES IDX 56 78 53 79 37 80 38 81 43 82 39 83 40 84 42 85 44 86 41 87
REMARK H PARENT 6 6 70 13 11 30 61 49 35 60
REMARK Flexibility Score: inf
ROOT
ATOM      1  C   UNL     1       1.647  -0.206   4.512  1.00  0.00     0.023 C 
ENDROOT
BRANCH   1   2
ATOM      2  C   UNL     1       0.834   0.575   3.483  1.00  0.00     0.116 C 
BRANCH   2   3
ATOM      3  N   UNL     1       1.479   1.549   2.634  1.00  0.00    -0.356 N 
ATOM      4  C   UNL     1       1.055   1.980   1.403  1.00  0.00     0.229 C 
ATOM      5  O   UNL     1       1.216   3.184   1.165  1.00  0.00    -0.275 OA
ATOM      6  H   UNL     1       2.313   1.946   2.975  1.00  0.00     0.163 HD
BRANCH   4   7
ATOM      7  C   UNL     1       0.466   1.083   0.307  1.00  0.00     0.142 C 
ATOM      8  C   UNL     1       1.506  -0.933  -0.751  1.00  0.00     0.076 C 
ATOM      9  C   UNL     1       0.602  -0.442   0.404  1.00  0.00     0.193 C 
ATOM     10  N   UNL     1      -0.764  -0.993   0.243  1.00  0.00    -0.328 N 
ATOM     11  C   UNL     1      -1.003   1.336  -0.041  1.00  0.00     0.081 C 
ATOM     12  C   UNL     1      -1.490  -0.012  -0.562  1.00  0.00     0.263 C 
ATOM     13  H   UNL     1      -0.693  -1.896  -0.226  1.00  0.00     0.348 HD
BRANCH  10  14
ATOM     14  C   UNL     1      -1.480  -1.486   1.445  1.00  0.00     0.302 C 
BRANCH  14  15
ATOM     15  C   UNL     1      -2.321  -0.500   2.232  1.00  0.00     0.045 A 
ATOM     16  C   UNL     1      -3.607   0.019   1.927  1.00  0.00     0.145 A 
ATOM     17  C   UNL     1      -2.143  -0.007   3.513  1.00  0.00     0.124 A 
ATOM     18  N   UNL     1      -4.091   0.858   2.851  1.00  0.00    -0.176 NA
ATOM     19  N   UNL     1      -3.076   0.988   3.733  1.00  0.00    -0.240 N 
BRANCH  19  20
ATOM     20  C   UNL     1      -3.067   1.993   4.745  1.00  0.00     0.065 A 
ATOM     21  C   UNL     1      -4.256   2.370   5.368  1.00  0.00     0.028 A 
ATOM     22  C   UNL     1      -1.880   2.633   5.131  1.00  0.00     0.028 A 
ATOM     23  C   UNL     1      -4.228   3.292   6.425  1.00  0.00     0.002 A 
ATOM     24  C   UNL     1      -1.845   3.534   6.199  1.00  0.00     0.002 A 
ATOM     25  C   UNL     1      -3.024   3.857   6.852  1.00  0.00     0.000 A 
ENDBRANCH  19  20
ENDBRANCH  14  15
ENDBRANCH  10  14
ENDBRANCH   4   7
ENDBRANCH   2   3
ENDBRANCH   1   2
BRANCH   1  26
ATOM     26  C   UNL     1       1.442   0.162   6.004  1.00  0.00     0.023 C 
BRANCH  26  27
ATOM     27  C   UNL     1       0.055   0.101   6.684  1.00  0.00     0.116 C 
BRANCH  27  28
ATOM     28  N   UNL     1      -0.570  -1.198   6.856  1.00  0.00    -0.352 N 
ATOM     29  C   UNL     1      -1.563  -1.538   7.768  1.00  0.00     0.251 C 
ATOM     30  H   UNL     1      -0.257  -1.917   6.261  1.00  0.00     0.163 HD
ATOM     31  O   UNL     1      -2.072  -2.652   7.745  1.00  0.00    -0.269 OA
BRANCH  29  32
ATOM     32  C   UNL     1      -1.986  -0.570   8.816  1.00  0.00     0.039 A 
ATOM     33  C   UNL     1      -1.609  -0.786  10.142  1.00  0.00     0.014 A 
ATOM     34  C   UNL     1      -2.767   0.543   8.508  1.00  0.00     0.014 A 
ATOM     35  C   UNL     1      -1.910   0.172  11.127  1.00  0.00     0.010 A 
ATOM     36  C   UNL     1      -3.025   1.522   9.488  1.00  0.00     0.010 A 
ATOM     37  C   UNL     1      -2.552   1.385  10.801  1.00  0.00    -0.014 A 
BRANCH  37  38
ATOM     38  C   UNL     1      -2.569   2.533  11.777  1.00  0.00     0.031 A 
ATOM     39  C   UNL     1      -3.826   3.254  12.217  1.00  0.00     0.074 A 
ATOM     40  C   UNL     1      -1.389   3.018  12.229  1.00  0.00     0.049 A 
ATOM     41  N   UNL     1      -3.951   4.246  13.072  1.00  0.00    -0.248 NA
ATOM     42  C   UNL     1      -5.093   2.847  11.598  1.00  0.00     0.031 C 
ATOM     43  C   UNL     1      -0.067   2.546  11.811  1.00  0.00     0.029 A 
ATOM     44  N   UNL     1      -1.105   4.009  13.143  1.00  0.00    -0.354 N 
ATOM     45  C   UNL     1      -5.297   4.598  13.073  1.00  0.00     0.074 A 
ATOM     46  C   UNL     1      -5.941   3.737  12.100  1.00  0.00     0.031 C 
ATOM     47  C   UNL     1       0.877   3.190  12.513  1.00  0.00     0.029 A 
ATOM     48  C   UNL     1       0.238   4.152  13.404  1.00  0.00     0.049 A 
ATOM     49  H   UNL     1      -1.798   4.563  13.569  1.00  0.00     0.167 HD
ATOM     50  C   UNL     1      -5.947   5.527  13.823  1.00  0.00     0.037 A 
ATOM     51  C   UNL     1       0.900   4.949  14.267  1.00  0.00     0.037 A 
ATOM     52  C   UNL     1      -5.340   6.358  14.837  1.00  0.00     0.049 A 
ATOM     53  C   UNL     1       0.152   5.902  15.153  1.00  0.00     0.074 A 
ATOM     54  C   UNL     1      -5.960   7.232  15.719  1.00  0.00     0.029 A 
ATOM     55  N   UNL     1      -3.984   6.428  15.107  1.00  0.00    -0.354 N 
ATOM     56  N   UNL     1      -1.135   6.123  15.226  1.00  0.00    -0.248 NA
ATOM     57  C   UNL     1       0.954   6.712  16.085  1.00  0.00     0.031 C 
ATOM     58  C   UNL     1      -4.977   7.854  16.497  1.00  0.00     0.029 A 
ATOM     59  C   UNL     1      -3.748   7.338  16.129  1.00  0.00     0.049 A 
ATOM     60  H   UNL     1      -3.288   5.908  14.643  1.00  0.00     0.167 HD
ATOM     61  C   UNL     1      -1.299   7.077  16.224  1.00  0.00     0.074 A 
ATOM     62  C   UNL     1       0.016   7.380  16.741  1.00  0.00     0.031 C 
ATOM     63  C   UNL     1      -2.447   7.646  16.663  1.00  0.00     0.037 A 
BRANCH  50  64
ATOM     64  C   UNL     1      -7.428   5.692  13.608  1.00  0.00     0.057 A 
ATOM     65  C   UNL     1      -8.343   4.717  14.024  1.00  0.00     0.134 A 
ATOM     66  C   UNL     1      -7.950   6.874  13.064  1.00  0.00     0.134 A 
ATOM     67  F   UNL     1      -7.912   3.566  14.562  1.00  0.00    -0.206 F 
ATOM     68  C   UNL     1      -9.720   4.896  13.880  1.00  0.00     0.040 A 
ATOM     69  C   UNL     1      -9.326   7.077  12.940  1.00  0.00     0.040 A 
ATOM     70  F   UNL     1      -7.133   7.862  12.668  1.00  0.00    -0.206 F 
ATOM     71  C   UNL     1     -10.216   6.083  13.342  1.00  0.00     0.006 A 
ENDBRANCH  50  64
BRANCH  51  72
ATOM     72  C   UNL     1       2.377   4.841  14.380  1.00  0.00     0.057 A 
ATOM     73  C   UNL     1       2.965   4.251  15.505  1.00  0.00     0.134 A 
ATOM     74  C   UNL     1       3.228   5.330  13.384  1.00  0.00     0.134 A 
ATOM     75  F   UNL     1       2.198   3.784  16.501  1.00  0.00    -0.206 F 
ATOM     76  C   UNL     1       4.350   4.169  15.646  1.00  0.00     0.040 A 
ATOM     77  C   UNL     1       4.615   5.232  13.500  1.00  0.00     0.040 A 
ATOM     78  F   UNL     1       2.722   5.895  12.278  1.00  0.00    -0.206 F 
ATOM     79  C   UNL     1       5.179   4.657  14.638  1.00  0.00     0.006 A 
ENDBRANCH  51  72
BRANCH  63  80
ATOM     80  C   UNL     1      -2.344   8.638  17.786  1.00  0.00     0.057 A 
ATOM     81  C   UNL     1      -1.810   9.920  17.597  1.00  0.00     0.134 A 
ATOM     82  C   UNL     1      -2.807   8.316  19.068  1.00  0.00     0.134 A 
ATOM     83  F   UNL     1      -1.333  10.288  16.398  1.00  0.00    -0.206 F 
ATOM     84  C   UNL     1      -1.720  10.837  18.647  1.00  0.00     0.040 A 
ATOM     85  C   UNL     1      -2.744   9.233  20.121  1.00  0.00     0.040 A 
ATOM     86  F   UNL     1      -3.333   7.108  19.319  1.00  0.00    -0.206 F 
ATOM     87  C   UNL     1      -2.194  10.496  19.913  1.00  0.00     0.006 A 
ENDBRANCH  63  80
ENDBRANCH  37  38
ENDBRANCH  29  32
ENDBRANCH  27  28
ENDBRANCH  26  27
ENDBRANCH   1  26
TORSDOF 14
