REMARK SMILES C[N@H+]1CC[C@H](C[N@@H+](CC(=O)NCCCCNC(=O)c2ccc(-c3c4nc(c(-c5c(F)cccc5F)c5ccc([nH]5)c(-c5c(F)cccc5F)c5nc(c(-c6c(F)cccc6F)c6ccc3[nH]6)C=C5)C=C4)cc2)C2CC2)C1
REMARK SMILES IDX 13 1 12 2 11 3 9 4 10 5 8 7 7 8 6 10 5 11 1 12 2 13 3 14
REMARK SMILES IDX 76 15 4 17 73 18 74 19 75 20 14 21 15 22 16 23 17 24 18 26
REMARK SMILES IDX 19 27 20 28 72 29 21 30 71 31 22 32 23 33 24 34 65 35 25 36
REMARK SMILES IDX 70 37 64 38 66 39 26 40 69 41 63 42 62 43 27 45 53 46 36 47
REMARK SMILES IDX 52 48 37 49 40 50 51 51 67 52 38 53 39 54 50 56 68 57 41 58
REMARK SMILES IDX 28 59 29 60 34 61 30 62 31 63 33 64 35 65 32 66 54 67 55 68
REMARK SMILES IDX 60 69 56 70 57 71 59 72 61 73 58 74 42 75 43 76 48 77 44 78
REMARK SMILES IDX 45 79 47 80 49 81 46 82
REMARK H PARENT 11 6 7 9 2 16 16 25 66 44 40 55
REMARK Flexibility Score: inf
ROOT
ATOM      1  C   UNL     1       3.296   0.632  -2.531  1.00  0.00     0.023 C 
ENDROOT
BRANCH   1   2
ATOM      2  C   UNL     1       3.043  -0.425  -3.605  1.00  0.00     0.116 C 
BRANCH   2   3
ATOM      3  N   UNL     1       3.916  -1.567  -3.420  1.00  0.00    -0.351 N 
ATOM      4  C   UNL     1       3.700  -2.758  -2.786  1.00  0.00     0.275 C 
ATOM      5  O   UNL     1       4.672  -3.519  -2.703  1.00  0.00    -0.269 OA
ATOM      6  H   UNL     1       4.812  -1.468  -3.816  1.00  0.00     0.163 HD
BRANCH   4   7
ATOM      7  C   UNL     1       2.319  -3.164  -2.229  1.00  0.00     0.363 C 
BRANCH   7   8
ATOM      8  N   UNL     1       2.082  -2.854  -0.780  1.00  0.00    -0.324 N 
ATOM      9  H   UNL     1       1.254  -3.367  -0.477  1.00  0.00     0.348 HD
BRANCH   8  10
ATOM     10  C   UNL     1       1.816  -1.422  -0.594  1.00  0.00     0.272 C 
BRANCH  10  11
ATOM     11  C   UNL     1       1.029  -0.957   0.640  1.00  0.00     0.105 C 
ATOM     12  C   UNL     1      -2.507  -0.100   0.130  1.00  0.00     0.332 C 
ATOM     13  N   UNL     1      -1.062  -0.144  -0.057  1.00  0.00    -0.337 N 
ATOM     14  C   UNL     1      -0.410   1.020   0.540  1.00  0.00     0.262 C 
ATOM     15  C   UNL     1      -0.454  -1.311   0.596  1.00  0.00     0.271 C 
ATOM     16  H   UNL     1      -0.926  -0.178  -1.067  1.00  0.00     0.347 HD
ATOM     17  C   UNL     1       1.038   0.586   0.694  1.00  0.00     0.076 C 
ENDBRANCH  10  11
ENDBRANCH   8  10
BRANCH   8  18
ATOM     18  C   UNL     1       3.212  -3.315   0.063  1.00  0.00     0.184 C 
ATOM     19  C   UNL     1       3.029  -3.563   1.533  1.00  0.00     0.071 C 
ATOM     20  C   UNL     1       3.218  -4.719   0.598  1.00  0.00     0.071 C 
ENDBRANCH   8  18
ENDBRANCH   7   8
ENDBRANCH   4   7
ENDBRANCH   2   3
ENDBRANCH   1   2
BRANCH   1  21
ATOM     21  C   UNL     1       4.317   1.704  -2.849  1.00  0.00     0.023 C 
BRANCH  21  22
ATOM     22  C   UNL     1       3.888   2.678  -3.922  1.00  0.00     0.116 C 
BRANCH  22  23
ATOM     23  N   UNL     1       2.664   3.405  -3.613  1.00  0.00    -0.352 N 
ATOM     24  C   UNL     1       2.395   4.749  -3.757  1.00  0.00     0.251 C 
ATOM     25  H   UNL     1       1.927   2.861  -3.251  1.00  0.00     0.163 HD
ATOM     26  O   UNL     1       1.333   5.217  -3.373  1.00  0.00    -0.269 OA
BRANCH  24  27
ATOM     27  C   UNL     1       3.434   5.628  -4.336  1.00  0.00     0.039 A 
ATOM     28  C   UNL     1       3.710   6.851  -3.722  1.00  0.00     0.014 A 
ATOM     29  C   UNL     1       4.191   5.202  -5.429  1.00  0.00     0.014 A 
ATOM     30  C   UNL     1       4.804   7.601  -4.154  1.00  0.00     0.010 A 
ATOM     31  C   UNL     1       5.356   5.875  -5.758  1.00  0.00     0.010 A 
ATOM     32  C   UNL     1       5.664   7.095  -5.143  1.00  0.00    -0.014 A 
BRANCH  32  33
ATOM     33  C   UNL     1       6.869   7.840  -5.579  1.00  0.00     0.031 A 
ATOM     34  C   UNL     1       7.006   8.255  -7.020  1.00  0.00     0.074 A 
ATOM     35  C   UNL     1       7.862   8.084  -4.702  1.00  0.00     0.049 A 
ATOM     36  N   UNL     1       7.995   8.874  -7.612  1.00  0.00    -0.248 NA
ATOM     37  C   UNL     1       5.907   7.885  -7.928  1.00  0.00     0.031 C 
ATOM     38  C   UNL     1       7.885   7.654  -3.301  1.00  0.00     0.029 A 
ATOM     39  N   UNL     1       9.046   8.756  -4.860  1.00  0.00    -0.354 N 
ATOM     40  C   UNL     1       7.646   8.941  -8.955  1.00  0.00     0.074 A 
ATOM     41  C   UNL     1       6.397   8.231  -9.107  1.00  0.00     0.031 C 
ATOM     42  C   UNL     1       9.003   8.116  -2.717  1.00  0.00     0.029 A 
ATOM     43  C   UNL     1       9.786   8.848  -3.706  1.00  0.00     0.049 A 
ATOM     44  H   UNL     1       9.338   9.138  -5.719  1.00  0.00     0.167 HD
ATOM     45  C   UNL     1       8.285   9.573  -9.966  1.00  0.00     0.037 A 
ATOM     46  C   UNL     1      10.958   9.468  -3.474  1.00  0.00     0.037 A 
ATOM     47  C   UNL     1       9.499  10.324  -9.799  1.00  0.00     0.049 A 
ATOM     48  C   UNL     1      11.619  10.216  -4.598  1.00  0.00     0.074 A 
ATOM     49  C   UNL     1      10.196  11.061 -10.738  1.00  0.00     0.029 A 
ATOM     50  N   UNL     1      10.190  10.439  -8.602  1.00  0.00    -0.354 N 
ATOM     51  N   UNL     1      11.237  10.339  -5.847  1.00  0.00    -0.248 NA
ATOM     52  C   UNL     1      12.864  10.926  -4.277  1.00  0.00     0.031 C 
ATOM     53  C   UNL     1      11.327  11.600 -10.115  1.00  0.00     0.029 A 
ATOM     54  C   UNL     1      11.310  11.231  -8.779  1.00  0.00     0.049 A 
ATOM     55  H   UNL     1       9.923  10.019  -7.752  1.00  0.00     0.167 HD
ATOM     56  C   UNL     1      12.177  11.162  -6.453  1.00  0.00     0.074 A 
ATOM     57  C   UNL     1      13.136  11.523  -5.428  1.00  0.00     0.031 C 
ATOM     58  C   UNL     1      12.243  11.583  -7.740  1.00  0.00     0.037 A 
BRANCH  45  59
ATOM     59  C   UNL     1       7.661   9.494 -11.329  1.00  0.00     0.057 A 
ATOM     60  C   UNL     1       6.452  10.140 -11.627  1.00  0.00     0.134 A 
ATOM     61  C   UNL     1       8.273   8.768 -12.357  1.00  0.00     0.134 A 
ATOM     62  F   UNL     1       5.803  10.837 -10.682  1.00  0.00    -0.206 F 
ATOM     63  C   UNL     1       5.859  10.039 -12.887  1.00  0.00     0.040 A 
ATOM     64  C   UNL     1       7.705   8.684 -13.630  1.00  0.00     0.040 A 
ATOM     65  F   UNL     1       9.431   8.126 -12.142  1.00  0.00    -0.206 F 
ATOM     66  C   UNL     1       6.490   9.313 -13.895  1.00  0.00     0.006 A 
ENDBRANCH  45  59
BRANCH  46  67
ATOM     67  C   UNL     1      11.547   9.464  -2.111  1.00  0.00     0.057 A 
ATOM     68  C   UNL     1      11.566  10.628  -1.332  1.00  0.00     0.134 A 
ATOM     69  C   UNL     1      12.107   8.308  -1.556  1.00  0.00     0.134 A 
ATOM     70  F   UNL     1      11.058  11.771  -1.815  1.00  0.00    -0.206 F 
ATOM     71  C   UNL     1      12.141  10.649  -0.060  1.00  0.00     0.040 A 
ATOM     72  C   UNL     1      12.664   8.309  -0.276  1.00  0.00     0.040 A 
ATOM     73  F   UNL     1      12.110   7.158  -2.246  1.00  0.00    -0.206 F 
ATOM     74  C   UNL     1      12.689   9.484   0.473  1.00  0.00     0.006 A 
ENDBRANCH  46  67
BRANCH  58  75
ATOM     75  C   UNL     1      13.368  12.508  -8.095  1.00  0.00     0.057 A 
ATOM     76  C   UNL     1      14.692  12.061  -8.187  1.00  0.00     0.134 A 
ATOM     77  C   UNL     1      13.117  13.858  -8.370  1.00  0.00     0.134 A 
ATOM     78  F   UNL     1      14.998  10.782  -7.924  1.00  0.00    -0.206 F 
ATOM     79  C   UNL     1      15.733  12.933  -8.510  1.00  0.00     0.040 A 
ATOM     80  C   UNL     1      14.145  14.733  -8.720  1.00  0.00     0.040 A 
ATOM     81  F   UNL     1      11.869  14.346  -8.310  1.00  0.00    -0.206 F 
ATOM     82  C   UNL     1      15.459  14.272  -8.783  1.00  0.00     0.006 A 
ENDBRANCH  58  75
ENDBRANCH  32  33
ENDBRANCH  24  27
ENDBRANCH  22  23
ENDBRANCH  21  22
ENDBRANCH   1  21
TORSDOF 15
