REMARK SMILES O=C(C[C@@H](C(=O)NCCCCNC(=O)c1ccc(-c2c3nc(c(-c4c(F)cccc4F)c4ccc([nH]4)c(-c4c(F)cccc4F)c4nc(c(-c5c(F)cccc5F)c5ccc2[nH]5)C=C4)C=C3)cc1)c1ccccc1)Nc1cc(C(F)(F)F)ccc1-n1cncn1
REMARK SMILES IDX 8 1 7 2 5 3 6 4 4 6 3 7 2 8 1 9 75 10 76 12 77 13 85 14
REMARK SMILES IDX 78 15 84 16 83 17 86 18 87 19 90 20 88 21 89 22 79 23 80 24
REMARK SMILES IDX 81 25 82 26 69 27 70 28 74 29 71 30 73 31 72 32 9 33 10 34
REMARK SMILES IDX 11 35 12 36 13 37 14 39 15 40 16 41 68 42 17 43 67 44 18 45
REMARK SMILES IDX 19 46 20 47 61 48 21 49 66 50 60 51 62 52 22 53 65 54 59 55
REMARK SMILES IDX 58 56 23 58 49 59 32 60 48 61 33 62 36 63 47 64 63 65 34 66
REMARK SMILES IDX 35 67 46 69 64 70 37 71 24 72 25 73 30 74 26 75 27 76 29 77
REMARK SMILES IDX 31 78 28 79 50 80 51 81 56 82 52 83 53 84 55 85 57 86 54 87
REMARK SMILES IDX 38 88 39 89 44 90 40 91 41 92 43 93 45 94 42 95
REMARK H PARENT 7 5 75 11 12 38 62 57 36 68
REMARK Flexibility Score: inf
ROOT
ATOM      1  C   UNL     1       4.186  -2.723  -1.048  1.00  0.00     0.116 C 
ENDROOT
BRANCH   1   2
ATOM      2  N   UNL     1       5.168  -2.146  -0.155  1.00  0.00    -0.356 N 
ATOM      3  C   UNL     1       4.977  -0.980   0.536  1.00  0.00     0.228 C 
ATOM      4  O   UNL     1       5.858  -0.122   0.465  1.00  0.00    -0.274 OA
ATOM      5  H   UNL     1       6.023  -2.619  -0.037  1.00  0.00     0.163 HD
BRANCH   3   6
ATOM      6  C   UNL     1       3.719  -0.806   1.406  1.00  0.00     0.118 C 
BRANCH   6   7
ATOM      7  C   UNL     1       2.939   0.445   0.955  1.00  0.00     0.118 C 
BRANCH   7   8
ATOM      8  C   UNL     1       1.979   0.240  -0.211  1.00  0.00     0.225 C 
ATOM      9  O   UNL     1       0.978  -0.456  -0.122  1.00  0.00    -0.275 OA
ATOM     10  N   UNL     1       2.367   0.922  -1.359  1.00  0.00    -0.324 N 
ATOM     11  H   UNL     1       3.270   1.316  -1.371  1.00  0.00     0.170 HD
BRANCH  10  12
ATOM     12  C   UNL     1       1.564   1.095  -2.516  1.00  0.00     0.067 A 
ATOM     13  C   UNL     1       2.176   0.777  -3.730  1.00  0.00     0.041 A 
ATOM     14  C   UNL     1       0.255   1.604  -2.548  1.00  0.00     0.090 A 
ATOM     15  C   UNL     1       1.500   0.875  -4.955  1.00  0.00     0.058 A 
ATOM     16  C   UNL     1      -0.464   1.636  -3.763  1.00  0.00     0.031 A 
ATOM     17  C   UNL     1       0.162   1.275  -4.962  1.00  0.00     0.015 A 
BRANCH  14  18
ATOM     18  N   UNL     1      -0.273   2.344  -1.462  1.00  0.00    -0.219 N 
ATOM     19  C   UNL     1       0.436   3.126  -0.577  1.00  0.00     0.226 A 
ATOM     20  N   UNL     1      -1.597   2.589  -1.296  1.00  0.00    -0.155 NA
ATOM     21  N   UNL     1      -0.373   3.743   0.250  1.00  0.00    -0.223 NA
ATOM     22  C   UNL     1      -1.598   3.365  -0.210  1.00  0.00     0.246 A 
ENDBRANCH  14  18
BRANCH  15  23
ATOM     23  C   UNL     1       2.285   0.624  -6.215  1.00  0.00     0.416 C 
ATOM     24  F   UNL     1       3.219   1.596  -6.420  1.00  0.00    -0.166 F 
ATOM     25  F   UNL     1       2.993  -0.535  -6.164  1.00  0.00    -0.166 F 
ATOM     26  F   UNL     1       1.537   0.579  -7.348  1.00  0.00    -0.166 F 
ENDBRANCH  15  23
ENDBRANCH  10  12
ENDBRANCH   7   8
ENDBRANCH   6   7
BRANCH   6  27
ATOM     27  C   UNL     1       4.245  -0.696   2.852  1.00  0.00    -0.035 A 
ATOM     28  C   UNL     1       4.593  -1.864   3.553  1.00  0.00     0.004 A 
ATOM     29  C   UNL     1       4.565   0.544   3.436  1.00  0.00     0.004 A 
ATOM     30  C   UNL     1       5.253  -1.791   4.785  1.00  0.00     0.000 A 
ATOM     31  C   UNL     1       5.217   0.614   4.669  1.00  0.00     0.000 A 
ATOM     32  C   UNL     1       5.569  -0.553   5.339  1.00  0.00     0.000 A 
ENDBRANCH   6  27
ENDBRANCH   3   6
ENDBRANCH   1   2
BRANCH   1  33
ATOM     33  C   UNL     1       4.001  -1.793  -2.253  1.00  0.00     0.023 C 
BRANCH  33  34
ATOM     34  C   UNL     1       4.340  -2.390  -3.610  1.00  0.00     0.023 C 
BRANCH  34  35
ATOM     35  C   UNL     1       3.437  -3.550  -4.000  1.00  0.00     0.116 C 
BRANCH  35  36
ATOM     36  N   UNL     1       2.079  -3.179  -4.387  1.00  0.00    -0.352 N 
ATOM     37  C   UNL     1       1.423  -3.067  -5.597  1.00  0.00     0.251 C 
ATOM     38  H   UNL     1       1.506  -2.959  -3.618  1.00  0.00     0.163 HD
ATOM     39  O   UNL     1       0.227  -2.785  -5.585  1.00  0.00    -0.269 OA
BRANCH  37  40
ATOM     40  C   UNL     1       2.122  -3.160  -6.906  1.00  0.00     0.039 A 
ATOM     41  C   UNL     1       1.662  -2.373  -7.976  1.00  0.00     0.014 A 
ATOM     42  C   UNL     1       3.258  -3.930  -7.094  1.00  0.00     0.014 A 
ATOM     43  C   UNL     1       2.421  -2.243  -9.147  1.00  0.00     0.010 A 
ATOM     44  C   UNL     1       4.081  -3.702  -8.186  1.00  0.00     0.010 A 
ATOM     45  C   UNL     1       3.667  -2.869  -9.236  1.00  0.00    -0.014 A 
BRANCH  45  46
ATOM     46  C   UNL     1       4.532  -2.822 -10.442  1.00  0.00     0.031 A 
ATOM     47  C   UNL     1       4.863  -4.125 -11.120  1.00  0.00     0.074 A 
ATOM     48  C   UNL     1       5.128  -1.682 -10.839  1.00  0.00     0.049 A 
ATOM     49  N   UNL     1       5.803  -4.403 -11.984  1.00  0.00    -0.248 NA
ATOM     50  C   UNL     1       4.064  -5.292 -10.704  1.00  0.00     0.031 C 
ATOM     51  C   UNL     1       4.920  -0.356 -10.257  1.00  0.00     0.029 A 
ATOM     52  N   UNL     1       6.068  -1.472 -11.819  1.00  0.00    -0.354 N 
ATOM     53  C   UNL     1       5.739  -5.778 -12.170  1.00  0.00     0.074 A 
ATOM     54  C   UNL     1       4.728  -6.285 -11.271  1.00  0.00     0.031 C 
ATOM     55  C   UNL     1       5.702   0.531 -10.898  1.00  0.00     0.029 A 
ATOM     56  C   UNL     1       6.499  -0.169 -11.902  1.00  0.00     0.049 A 
ATOM     57  H   UNL     1       6.401  -2.187 -12.407  1.00  0.00     0.167 HD
ATOM     58  C   UNL     1       6.434  -6.550 -13.037  1.00  0.00     0.037 A 
ATOM     59  C   UNL     1       7.441   0.384 -12.691  1.00  0.00     0.037 A 
ATOM     60  C   UNL     1       7.394  -6.033 -13.972  1.00  0.00     0.049 A 
ATOM     61  C   UNL     1       8.200  -0.491 -13.657  1.00  0.00     0.074 A 
ATOM     62  C   UNL     1       8.109  -6.714 -14.939  1.00  0.00     0.029 A 
ATOM     63  N   UNL     1       7.758  -4.698 -14.064  1.00  0.00    -0.354 N 
ATOM     64  N   UNL     1       8.107  -1.784 -13.856  1.00  0.00    -0.248 NA
ATOM     65  C   UNL     1       9.195   0.174 -14.512  1.00  0.00     0.031 C 
ATOM     66  C   UNL     1       8.934  -5.795 -15.596  1.00  0.00     0.029 A 
ATOM     67  C   UNL     1       8.695  -4.535 -15.069  1.00  0.00     0.049 A 
ATOM     68  H   UNL     1       7.403  -3.974 -13.499  1.00  0.00     0.167 HD
ATOM     69  C   UNL     1       8.998  -2.079 -14.882  1.00  0.00     0.074 A 
ATOM     70  C   UNL     1       9.617  -0.829 -15.269  1.00  0.00     0.031 C 
ATOM     71  C   UNL     1       9.279  -3.276 -15.455  1.00  0.00     0.037 A 
BRANCH  58  72
ATOM     72  C   UNL     1       6.158  -8.025 -13.016  1.00  0.00     0.057 A 
ATOM     73  C   UNL     1       4.922  -8.552 -13.419  1.00  0.00     0.134 A 
ATOM     74  C   UNL     1       7.132  -8.931 -12.580  1.00  0.00     0.134 A 
ATOM     75  F   UNL     1       3.938  -7.738 -13.831  1.00  0.00    -0.206 F 
ATOM     76  C   UNL     1       4.651  -9.919 -13.348  1.00  0.00     0.040 A 
ATOM     77  C   UNL     1       6.886 -10.304 -12.539  1.00  0.00     0.040 A 
ATOM     78  F   UNL     1       8.338  -8.497 -12.183  1.00  0.00    -0.206 F 
ATOM     79  C   UNL     1       5.638 -10.800 -12.912  1.00  0.00     0.006 A 
ENDBRANCH  58  72
BRANCH  59  80
ATOM     80  C   UNL     1       7.707   1.845 -12.635  1.00  0.00     0.057 A 
ATOM     81  C   UNL     1       7.351   2.677 -13.705  1.00  0.00     0.134 A 
ATOM     82  C   UNL     1       8.343   2.443 -11.541  1.00  0.00     0.134 A 
ATOM     83  F   UNL     1       6.760   2.160 -14.792  1.00  0.00    -0.206 F 
ATOM     84  C   UNL     1       7.640   4.043 -13.701  1.00  0.00     0.040 A 
ATOM     85  C   UNL     1       8.615   3.813 -11.512  1.00  0.00     0.040 A 
ATOM     86  F   UNL     1       8.708   1.705 -10.483  1.00  0.00    -0.206 F 
ATOM     87  C   UNL     1       8.271   4.616 -12.599  1.00  0.00     0.006 A 
ENDBRANCH  59  80
BRANCH  71  88
ATOM     88  C   UNL     1      10.253  -3.288 -16.597  1.00  0.00     0.057 A 
ATOM     89  C   UNL     1      11.626  -3.097 -16.406  1.00  0.00     0.134 A 
ATOM     90  C   UNL     1       9.812  -3.562 -17.899  1.00  0.00     0.134 A 
ATOM     91  F   UNL     1      12.111  -2.822 -15.185  1.00  0.00    -0.206 F 
ATOM     92  C   UNL     1      12.525  -3.159 -17.472  1.00  0.00     0.040 A 
ATOM     93  C   UNL     1      10.704  -3.654 -18.968  1.00  0.00     0.040 A 
ATOM     94  F   UNL     1       8.510  -3.767 -18.149  1.00  0.00    -0.206 F 
ATOM     95  C   UNL     1      12.065  -3.447 -18.756  1.00  0.00     0.006 A 
ENDBRANCH  71  88
ENDBRANCH  45  46
ENDBRANCH  37  40
ENDBRANCH  35  36
ENDBRANCH  34  35
ENDBRANCH  33  34
ENDBRANCH   1  33
TORSDOF 17
