REMARK SMILES COc1ccc(/C=C2/C(=O)N(c3ccccc3)C(=O)[NH+]=C2NCCCCNC(=O)c2ccc(-c3c4nc(c(-c5c(F)cccc5F)c5ccc([nH]5)c(-c5c(F)cccc5F)c5nc(c(-c6c(F)cccc6F)c6ccc3[nH]6)C=C5)C=C4)cc2)cc1C(=O)[O-]
REMARK SMILES IDX 25 1 24 2 23 3 22 4 7 5 8 6 9 7 21 8 10 9 11 10 20 11 18 12
REMARK SMILES IDX 19 15 6 16 3 17 4 18 85 19 5 20 84 21 2 22 1 23 86 24 87 25
REMARK SMILES IDX 88 26 12 27 13 28 17 29 14 30 16 31 15 32 26 33 27 34 28 35
REMARK SMILES IDX 29 37 30 38 31 39 83 40 32 41 82 42 33 43 34 44 35 45 76 46
REMARK SMILES IDX 36 47 81 48 75 49 77 50 37 51 80 52 74 53 73 54 38 56 64 57
REMARK SMILES IDX 47 58 63 59 48 60 51 61 62 62 78 63 49 64 50 65 61 67 79 68
REMARK SMILES IDX 52 69 39 70 40 71 45 72 41 73 42 74 44 75 46 76 43 77 65 78
REMARK SMILES IDX 66 79 71 80 67 81 68 82 70 83 72 84 69 85 53 86 54 87 59 88
REMARK SMILES IDX 55 89 56 90 58 91 60 92 57 93
REMARK H PARENT 20 13 22 14 27 36 77 55 51 66
REMARK Flexibility Score: inf
ROOT
ATOM      1  C   UNL     1      -0.725   0.969   2.406  1.00  0.00     0.024 C 
ENDROOT
BRANCH   1   2
ATOM      2  C   UNL     1       0.797   1.471   3.249  1.00  0.00     0.039 C 
BRANCH   2   3
ATOM      3  C   UNL     1       1.909   3.346   3.464  1.00  0.00     0.194 C 
BRANCH   3   4
ATOM      4  N   UNL     1       1.382   4.815   3.970  1.00  0.00    -0.305 N 
ATOM      5  C   UNL     1       1.131   3.078   6.439  1.00  0.00     0.030 C 
ATOM      6  C   UNL     1       1.355   4.398   6.458  1.00  0.00     0.129 C 
ATOM      7  C   UNL     1       1.746   5.134   7.673  1.00  0.00     0.328 C 
ATOM      8  C   UNL     1       1.110   5.232   5.261  1.00  0.00     0.236 C 
ATOM      9  O   UNL     1       2.484   4.624   8.509  1.00  0.00    -0.249 OA
ATOM     10  N   UNL     1       1.160   6.386   7.723  1.00  0.00    -0.155 N 
ATOM     11  N   UNL     1       0.553   6.397   5.443  1.00  0.00    -0.209 N 
ATOM     12  C   UNL     1       0.241   6.761   6.745  1.00  0.00     0.448 C 
ATOM     13  H   UNL     1       0.362   6.996   4.686  1.00  0.00     0.270 HD
ATOM     14  H   UNL     1       1.241   5.487   3.264  1.00  0.00     0.256 HD
ATOM     15  O   UNL     1      -0.801   7.359   7.001  1.00  0.00    -0.212 OA
BRANCH   5  16
ATOM     16  C   UNL     1       0.965   2.472   5.120  1.00  0.00    -0.024 A 
ATOM     17  C   UNL     1       1.911   2.201   1.662  1.00  0.00     0.127 A 
ATOM     18  C   UNL     1       0.401   3.123   2.110  1.00  0.00     0.048 A 
ATOM     19  C   UNL     1       2.963   1.529   2.931  1.00  0.00     0.040 A 
ATOM     20  C   UNL     1      -0.143   3.162   3.853  1.00  0.00     0.012 A 
ATOM     21  C   UNL     1       2.457   1.604   4.630  1.00  0.00     0.022 A 
BRANCH  17  22
ATOM     22  O   UNL     1       2.115   1.841   0.353  1.00  0.00    -0.496 OA
ATOM     23  C   UNL     1       2.227   0.400   0.190  1.00  0.00     0.278 C 
ENDBRANCH  17  22
BRANCH  19  24
ATOM     24  C   UNL     1       4.272   0.930   2.634  1.00  0.00     0.075 C 
ATOM     25  O   UNL     1       4.910   0.233   3.395  1.00  0.00    -0.545 OA
ATOM     26  O   UNL     1       4.697   1.248   1.403  1.00  0.00    -0.545 OA
ENDBRANCH  19  24
ENDBRANCH   5  16
BRANCH  10  27
ATOM     27  C   UNL     1       1.288   7.136   8.913  1.00  0.00     0.111 A 
ATOM     28  C   UNL     1       0.299   7.115   9.900  1.00  0.00     0.044 A 
ATOM     29  C   UNL     1       2.460   7.876   9.110  1.00  0.00     0.044 A 
ATOM     30  C   UNL     1       0.492   7.826  11.086  1.00  0.00     0.004 A 
ATOM     31  C   UNL     1       2.637   8.604  10.286  1.00  0.00     0.004 A 
ATOM     32  C   UNL     1       1.656   8.573  11.276  1.00  0.00     0.000 A 
ENDBRANCH  10  27
ENDBRANCH   3   4
ENDBRANCH   2   3
ENDBRANCH   1   2
BRANCH   1  33
ATOM     33  C   UNL     1      -1.370   1.391   1.034  1.00  0.00     0.116 C 
BRANCH  33  34
ATOM     34  N   UNL     1      -0.460   1.510  -0.094  1.00  0.00    -0.352 N 
ATOM     35  C   UNL     1      -0.567   1.246  -1.420  1.00  0.00     0.251 C 
ATOM     36  H   UNL     1       0.426   1.857   0.160  1.00  0.00     0.163 HD
ATOM     37  O   UNL     1       0.405   1.133  -2.156  1.00  0.00    -0.269 OA
BRANCH  35  38
ATOM     38  C   UNL     1      -1.887   1.241  -1.988  1.00  0.00     0.039 A 
ATOM     39  C   UNL     1      -2.331   0.123  -2.687  1.00  0.00     0.014 A 
ATOM     40  C   UNL     1      -2.611   2.428  -1.870  1.00  0.00     0.014 A 
ATOM     41  C   UNL     1      -3.579   0.186  -3.269  1.00  0.00     0.010 A 
ATOM     42  C   UNL     1      -3.866   2.475  -2.415  1.00  0.00     0.010 A 
ATOM     43  C   UNL     1      -4.336   1.358  -3.119  1.00  0.00    -0.014 A 
BRANCH  43  44
ATOM     44  C   UNL     1      -5.662   1.468  -3.717  1.00  0.00     0.031 A 
ATOM     45  C   UNL     1      -5.835   2.396  -4.871  1.00  0.00     0.074 A 
ATOM     46  C   UNL     1      -6.664   0.836  -3.089  1.00  0.00     0.049 A 
ATOM     47  N   UNL     1      -6.935   2.785  -5.447  1.00  0.00    -0.248 NA
ATOM     48  C   UNL     1      -4.612   3.017  -5.416  1.00  0.00     0.031 C 
ATOM     49  C   UNL     1      -6.518  -0.008  -1.896  1.00  0.00     0.029 A 
ATOM     50  N   UNL     1      -8.002   0.832  -3.339  1.00  0.00    -0.354 N 
ATOM     51  C   UNL     1      -6.543   3.717  -6.397  1.00  0.00     0.074 A 
ATOM     52  C   UNL     1      -5.112   3.872  -6.295  1.00  0.00     0.031 C 
ATOM     53  C   UNL     1      -7.728  -0.450  -1.521  1.00  0.00     0.029 A 
ATOM     54  C   UNL     1      -8.723   0.105  -2.427  1.00  0.00     0.049 A 
ATOM     55  H   UNL     1      -8.412   1.305  -4.100  1.00  0.00     0.167 HD
ATOM     56  C   UNL     1      -7.333   4.364  -7.281  1.00  0.00     0.037 A 
ATOM     57  C   UNL     1     -10.051  -0.069  -2.348  1.00  0.00     0.037 A 
ATOM     58  C   UNL     1      -8.749   4.129  -7.358  1.00  0.00     0.049 A 
ATOM     59  C   UNL     1     -10.888   0.592  -3.405  1.00  0.00     0.074 A 
ATOM     60  C   UNL     1      -9.664   4.633  -8.260  1.00  0.00     0.029 A 
ATOM     61  N   UNL     1      -9.449   3.301  -6.487  1.00  0.00    -0.354 N 
ATOM     62  N   UNL     1     -10.509   1.404  -4.366  1.00  0.00    -0.248 NA
ATOM     63  C   UNL     1     -12.324   0.305  -3.386  1.00  0.00     0.031 C 
ATOM     64  C   UNL     1     -10.923   4.132  -7.916  1.00  0.00     0.029 A 
ATOM     65  C   UNL     1     -10.787   3.283  -6.826  1.00  0.00     0.049 A 
ATOM     66  H   UNL     1      -9.049   2.801  -5.739  1.00  0.00     0.167 HD
ATOM     67  C   UNL     1     -11.653   1.706  -5.084  1.00  0.00     0.074 A 
ATOM     68  C   UNL     1     -12.736   0.971  -4.455  1.00  0.00     0.031 C 
ATOM     69  C   UNL     1     -11.811   2.517  -6.160  1.00  0.00     0.037 A 
BRANCH  56  70
ATOM     70  C   UNL     1      -6.693   5.348  -8.212  1.00  0.00     0.057 A 
ATOM     71  C   UNL     1      -5.826   4.945  -9.237  1.00  0.00     0.134 A 
ATOM     72  C   UNL     1      -6.967   6.717  -8.103  1.00  0.00     0.134 A 
ATOM     73  F   UNL     1      -5.503   3.652  -9.385  1.00  0.00    -0.206 F 
ATOM     74  C   UNL     1      -5.245   5.868 -10.110  1.00  0.00     0.040 A 
ATOM     75  C   UNL     1      -6.413   7.647  -8.986  1.00  0.00     0.040 A 
ATOM     76  F   UNL     1      -7.781   7.175  -7.140  1.00  0.00    -0.206 F 
ATOM     77  C   UNL     1      -5.546   7.223  -9.991  1.00  0.00     0.006 A 
ENDBRANCH  56  70
BRANCH  57  78
ATOM     78  C   UNL     1     -10.636  -0.917  -1.283  1.00  0.00     0.057 A 
ATOM     79  C   UNL     1     -11.213  -2.156  -1.583  1.00  0.00     0.134 A 
ATOM     80  C   UNL     1     -10.613  -0.527   0.062  1.00  0.00     0.134 A 
ATOM     81  F   UNL     1     -11.259  -2.589  -2.851  1.00  0.00    -0.206 F 
ATOM     82  C   UNL     1     -11.779  -2.960  -0.592  1.00  0.00     0.040 A 
ATOM     83  C   UNL     1     -11.153  -1.333   1.067  1.00  0.00     0.040 A 
ATOM     84  F   UNL     1     -10.047   0.634   0.422  1.00  0.00    -0.206 F 
ATOM     85  C   UNL     1     -11.748  -2.549   0.739  1.00  0.00     0.006 A 
ENDBRANCH  57  78
BRANCH  69  86
ATOM     86  C   UNL     1     -13.194   2.611  -6.720  1.00  0.00     0.057 A 
ATOM     87  C   UNL     1     -14.201   3.331  -6.067  1.00  0.00     0.134 A 
ATOM     88  C   UNL     1     -13.502   2.013  -7.947  1.00  0.00     0.134 A 
ATOM     89  F   UNL     1     -13.962   3.912  -4.882  1.00  0.00    -0.206 F 
ATOM     90  C   UNL     1     -15.481   3.433  -6.607  1.00  0.00     0.040 A 
ATOM     91  C   UNL     1     -14.770   2.133  -8.511  1.00  0.00     0.040 A 
ATOM     92  F   UNL     1     -12.572   1.320  -8.622  1.00  0.00    -0.206 F 
ATOM     93  C   UNL     1     -15.765   2.840  -7.837  1.00  0.00     0.006 A 
ENDBRANCH  69  86
ENDBRANCH  43  44
ENDBRANCH  35  38
ENDBRANCH  33  34
ENDBRANCH   1  33
TORSDOF 14
