REMARK SMILES CC(C)[NH2+][C@]1(C(=O)NCCCCNC(=O)c2ccc(-c3c4nc(c(-c5c(F)cccc5F)c5ccc([nH]5)c(-c5c(F)cccc5F)c5nc(c(-c6c(F)cccc6F)c6ccc3[nH]6)C=C5)C=C4)cc2)CC[C@H]([N@H+](C)C2CCCC2)C1
REMARK SMILES IDX 10 1 9 2 8 3 6 4 7 5 5 7 70 8 80 9 71 10 72 11 4 12 2 15
REMARK SMILES IDX 1 16 3 17 73 18 74 19 75 21 76 22 79 23 77 24 78 25 11 26
REMARK SMILES IDX 12 27 13 28 14 29 15 31 16 32 17 33 69 34 18 35 68 36 19 37
REMARK SMILES IDX 20 38 21 39 62 40 22 41 67 42 61 43 63 44 23 45 66 46 60 47
REMARK SMILES IDX 59 48 24 50 50 51 33 52 49 53 34 54 37 55 48 56 64 57 35 58
REMARK SMILES IDX 36 59 47 61 65 62 38 63 25 64 26 65 31 66 27 67 28 68 30 69
REMARK SMILES IDX 32 70 29 71 51 72 52 73 57 74 53 75 54 76 56 77 58 78 55 79
REMARK SMILES IDX 39 80 40 81 45 82 41 83 42 84 44 85 46 86 43 87
REMARK H PARENT 8 6 4 13 4 14 73 20 13 30 63 49 37 60
REMARK Flexibility Score: inf
ROOT
ATOM      1  C   UNL     1      -1.811  -1.025  -2.879  1.00  0.00     0.023 C 
ENDROOT
BRANCH   1   2
ATOM      2  C   UNL     1      -1.805  -0.815  -1.366  1.00  0.00     0.116 C 
BRANCH   2   3
ATOM      3  N   UNL     1      -0.763   0.069  -0.869  1.00  0.00    -0.351 N 
ATOM      4  C   UNL     1      -0.568   1.303  -0.359  1.00  0.00     0.281 C 
ATOM      5  O   UNL     1       0.515   1.325   0.261  1.00  0.00    -0.268 OA
ATOM      6  H   UNL     1       0.104  -0.396  -0.924  1.00  0.00     0.163 HD
BRANCH   4   7
ATOM      7  C   UNL     1      -1.326   2.654  -0.595  1.00  0.00     0.181 C 
ATOM      8  C   UNL     1      -0.765   3.696   0.452  1.00  0.00     0.085 C 
ATOM      9  C   UNL     1      -0.846   3.362  -1.885  1.00  0.00     0.144 C 
ATOM     10  C   UNL     1      -0.728   5.075  -0.215  1.00  0.00     0.072 C 
ATOM     11  C   UNL     1      -1.123   4.882  -1.680  1.00  0.00     0.191 C 
BRANCH   7  12
ATOM     12  N   UNL     1      -2.781   2.750  -0.337  1.00  0.00    -0.331 N 
ATOM     13  H   UNL     1      -2.883   2.696   0.677  1.00  0.00     0.347 HD
ATOM     14  H   UNL     1      -3.006   3.602  -0.850  1.00  0.00     0.347 HD
BRANCH  12  15
ATOM     15  C   UNL     1      -3.773   1.845  -0.875  1.00  0.00     0.176 C 
ATOM     16  C   UNL     1      -5.166   2.269  -0.385  1.00  0.00     0.075 C 
ATOM     17  C   UNL     1      -3.803   1.796  -2.396  1.00  0.00     0.075 C 
ENDBRANCH  12  15
ENDBRANCH   7  12
BRANCH  11  18
ATOM     18  N   UNL     1      -2.510   5.181  -2.142  1.00  0.00    -0.332 N 
ATOM     19  C   UNL     1      -2.414   5.460  -3.595  1.00  0.00     0.333 C 
ATOM     20  H   UNL     1      -3.062   4.358  -1.899  1.00  0.00     0.348 HD
BRANCH  18  21
ATOM     21  C   UNL     1      -3.277   6.253  -1.458  1.00  0.00     0.184 C 
ATOM     22  C   UNL     1      -4.555   6.670  -2.231  1.00  0.00     0.065 C 
ATOM     23  C   UNL     1      -3.934   5.865  -0.117  1.00  0.00     0.065 C 
ATOM     24  C   UNL     1      -5.475   7.356  -1.225  1.00  0.00     0.006 C 
ATOM     25  C   UNL     1      -4.968   6.948   0.149  1.00  0.00     0.006 C 
ENDBRANCH  18  21
ENDBRANCH  11  18
ENDBRANCH   4   7
ENDBRANCH   2   3
ENDBRANCH   1   2
BRANCH   1  26
ATOM     26  C   UNL     1      -2.018  -2.486  -3.287  1.00  0.00     0.023 C 
BRANCH  26  27
ATOM     27  C   UNL     1      -3.223  -3.188  -2.670  1.00  0.00     0.116 C 
BRANCH  27  28
ATOM     28  N   UNL     1      -4.516  -2.726  -3.147  1.00  0.00    -0.352 N 
ATOM     29  C   UNL     1      -5.671  -3.485  -3.258  1.00  0.00     0.251 C 
ATOM     30  H   UNL     1      -4.578  -1.781  -3.419  1.00  0.00     0.163 HD
ATOM     31  O   UNL     1      -6.702  -3.028  -3.707  1.00  0.00    -0.269 OA
BRANCH  29  32
ATOM     32  C   UNL     1      -5.585  -4.908  -2.853  1.00  0.00     0.039 A 
ATOM     33  C   UNL     1      -5.741  -5.897  -3.826  1.00  0.00     0.014 A 
ATOM     34  C   UNL     1      -5.176  -5.234  -1.558  1.00  0.00     0.014 A 
ATOM     35  C   UNL     1      -5.388  -7.214  -3.523  1.00  0.00     0.010 A 
ATOM     36  C   UNL     1      -4.757  -6.532  -1.284  1.00  0.00     0.010 A 
ATOM     37  C   UNL     1      -4.843  -7.531  -2.268  1.00  0.00    -0.014 A 
BRANCH  37  38
ATOM     38  C   UNL     1      -4.337  -8.895  -1.966  1.00  0.00     0.031 A 
ATOM     39  C   UNL     1      -4.979  -9.708  -0.877  1.00  0.00     0.074 A 
ATOM     40  C   UNL     1      -3.249  -9.368  -2.607  1.00  0.00     0.049 A 
ATOM     41  N   UNL     1      -4.633 -10.877  -0.403  1.00  0.00    -0.248 NA
ATOM     42  C   UNL     1      -6.142  -9.107  -0.206  1.00  0.00     0.031 C 
ATOM     43  C   UNL     1      -2.492  -8.654  -3.638  1.00  0.00     0.029 A 
ATOM     44  N   UNL     1      -2.583 -10.562  -2.478  1.00  0.00    -0.354 N 
ATOM     45  C   UNL     1      -5.518 -11.138   0.635  1.00  0.00     0.074 A 
ATOM     46  C   UNL     1      -6.381  -9.983   0.757  1.00  0.00     0.031 C 
ATOM     47  C   UNL     1      -1.484  -9.434  -4.064  1.00  0.00     0.029 A 
ATOM     48  C   UNL     1      -1.504 -10.689  -3.320  1.00  0.00     0.049 A 
ATOM     49  H   UNL     1      -2.853 -11.262  -1.840  1.00  0.00     0.167 HD
ATOM     50  C   UNL     1      -5.623 -12.250   1.401  1.00  0.00     0.037 A 
ATOM     51  C   UNL     1      -0.632 -11.704  -3.475  1.00  0.00     0.037 A 
ATOM     52  C   UNL     1      -4.795 -13.416   1.249  1.00  0.00     0.049 A 
ATOM     53  C   UNL     1      -0.790 -12.943  -2.638  1.00  0.00     0.074 A 
ATOM     54  C   UNL     1      -4.870 -14.621   1.924  1.00  0.00     0.029 A 
ATOM     55  N   UNL     1      -3.741 -13.522   0.354  1.00  0.00    -0.354 N 
ATOM     56  N   UNL     1      -1.680 -13.206  -1.712  1.00  0.00    -0.248 NA
ATOM     57  C   UNL     1       0.172 -14.030  -2.872  1.00  0.00     0.031 C 
ATOM     58  C   UNL     1      -3.842 -15.448   1.456  1.00  0.00     0.029 A 
ATOM     59  C   UNL     1      -3.151 -14.769   0.466  1.00  0.00     0.049 A 
ATOM     60  H   UNL     1      -3.455 -12.815  -0.269  1.00  0.00     0.167 HD
ATOM     61  C   UNL     1      -1.404 -14.495  -1.274  1.00  0.00     0.074 A 
ATOM     62  C   UNL     1      -0.271 -14.965  -2.043  1.00  0.00     0.031 C 
ATOM     63  C   UNL     1      -2.032 -15.224  -0.319  1.00  0.00     0.037 A 
BRANCH  50  64
ATOM     64  C   UNL     1      -6.683 -12.255   2.462  1.00  0.00     0.057 A 
ATOM     65  C   UNL     1      -8.046 -12.326   2.141  1.00  0.00     0.134 A 
ATOM     66  C   UNL     1      -6.340 -12.198   3.818  1.00  0.00     0.134 A 
ATOM     67  F   UNL     1      -8.441 -12.368   0.860  1.00  0.00    -0.206 F 
ATOM     68  C   UNL     1      -9.030 -12.305   3.130  1.00  0.00     0.040 A 
ATOM     69  C   UNL     1      -7.315 -12.204   4.817  1.00  0.00     0.040 A 
ATOM     70  F   UNL     1      -5.054 -12.134   4.194  1.00  0.00    -0.206 F 
ATOM     71  C   UNL     1      -8.665 -12.249   4.473  1.00  0.00     0.006 A 
ENDBRANCH  50  64
BRANCH  51  72
ATOM     72  C   UNL     1       0.446 -11.615  -4.492  1.00  0.00     0.057 A 
ATOM     73  C   UNL     1       0.395 -12.386  -5.660  1.00  0.00     0.134 A 
ATOM     74  C   UNL     1       1.553 -10.777  -4.321  1.00  0.00     0.134 A 
ATOM     75  F   UNL     1      -0.631 -13.223  -5.871  1.00  0.00    -0.206 F 
ATOM     76  C   UNL     1       1.415 -12.342  -6.612  1.00  0.00     0.040 A 
ATOM     77  C   UNL     1       2.570 -10.706  -5.275  1.00  0.00     0.040 A 
ATOM     78  F   UNL     1       1.657 -10.008  -3.227  1.00  0.00    -0.206 F 
ATOM     79  C   UNL     1       2.506 -11.496  -6.421  1.00  0.00     0.006 A 
ENDBRANCH  51  72
BRANCH  63  80
ATOM     80  C   UNL     1      -1.533 -16.617  -0.080  1.00  0.00     0.057 A 
ATOM     81  C   UNL     1      -0.336 -16.864   0.602  1.00  0.00     0.134 A 
ATOM     82  C   UNL     1      -2.285 -17.723  -0.494  1.00  0.00     0.134 A 
ATOM     83  F   UNL     1       0.435 -15.845   1.013  1.00  0.00    -0.206 F 
ATOM     84  C   UNL     1       0.105 -18.165   0.850  1.00  0.00     0.040 A 
ATOM     85  C   UNL     1      -1.866 -19.028  -0.233  1.00  0.00     0.040 A 
ATOM     86  F   UNL     1      -3.445 -17.553  -1.146  1.00  0.00    -0.206 F 
ATOM     87  C   UNL     1      -0.665 -19.251   0.438  1.00  0.00     0.006 A 
ENDBRANCH  63  80
ENDBRANCH  37  38
ENDBRANCH  29  32
ENDBRANCH  27  28
ENDBRANCH  26  27
ENDBRANCH   1  26
TORSDOF 15
