REMARK SMILES Cc1ccc(F)c(NC(=O)[C@H]2[C@@H](C(=O)NCCCCNC(=O)c3ccc(-c4c5nc(c(-c6c(F)cccc6F)c6ccc([nH]6)c(-c6c(F)cccc6F)c6nc(c(-c7c(F)cccc7F)c7ccc4[nH]7)C=C6)C=C5)cc3)[C@@H]3CC[C@H]2O3)c1
REMARK SMILES IDX 17 1 16 2 15 3 13 4 14 5 12 7 11 8 80 9 77 10 79 11 81 12
REMARK SMILES IDX 78 13 9 14 8 15 10 17 7 18 1 19 2 20 3 21 82 22 4 23 5 24
REMARK SMILES IDX 6 25 18 26 19 27 20 28 21 29 22 31 23 32 24 33 76 34 25 35
REMARK SMILES IDX 75 36 26 37 27 38 28 39 69 40 29 41 74 42 68 43 70 44 30 45
REMARK SMILES IDX 73 46 67 47 66 48 31 50 57 51 40 52 56 53 41 54 44 55 55 56
REMARK SMILES IDX 71 57 42 58 43 59 54 61 72 62 45 63 32 64 33 65 38 66 34 67
REMARK SMILES IDX 35 68 37 69 39 70 36 71 58 72 59 73 64 74 60 75 61 76 63 77
REMARK SMILES IDX 65 78 62 79 46 80 47 81 52 82 48 83 49 84 51 85 53 86 50 87
REMARK H PARENT 15 6 8 16 20 30 70 49 44 60
REMARK Flexibility Score: inf
ROOT
ATOM      1  C   UNL     1      -5.627   2.528   3.849  1.00  0.00     0.023 C 
ENDROOT
BRANCH   1   2
ATOM      2  C   UNL     1      -6.215   1.346   3.090  1.00  0.00     0.116 C 
BRANCH   2   3
ATOM      3  N   UNL     1      -6.137   1.508   1.650  1.00  0.00    -0.356 N 
ATOM      4  C   UNL     1      -5.458   0.755   0.735  1.00  0.00     0.226 C 
ATOM      5  O   UNL     1      -5.610   1.026  -0.453  1.00  0.00    -0.275 OA
ATOM      6  H   UNL     1      -6.644   2.268   1.282  1.00  0.00     0.163 HD
BRANCH   4   7
ATOM      7  C   UNL     1      -4.561  -0.352   1.265  1.00  0.00     0.122 C 
ATOM      8  C   UNL     1      -3.541  -0.979   0.300  1.00  0.00     0.123 C 
ATOM      9  C   UNL     1      -4.179  -2.361   0.036  1.00  0.00     0.132 C 
ATOM     10  C   UNL     1      -5.435  -1.555   1.611  1.00  0.00     0.132 C 
ATOM     11  C   UNL     1      -3.852  -3.287   1.217  1.00  0.00     0.035 C 
ATOM     12  O   UNL     1      -5.586  -2.159   0.312  1.00  0.00    -0.373 OA
ATOM     13  C   UNL     1      -4.602  -2.599   2.364  1.00  0.00     0.035 C 
BRANCH   8  14
ATOM     14  C   UNL     1      -3.145  -0.179  -0.928  1.00  0.00     0.231 C 
ATOM     15  N   UNL     1      -2.708   1.120  -0.795  1.00  0.00    -0.323 N 
ATOM     16  H   UNL     1      -2.554   1.590  -1.646  1.00  0.00     0.170 HD
ATOM     17  O   UNL     1      -3.181  -0.669  -2.059  1.00  0.00    -0.274 OA
BRANCH  15  18
ATOM     18  C   UNL     1      -2.443   1.890   0.358  1.00  0.00     0.077 A 
ATOM     19  C   UNL     1      -3.310   5.428   1.484  1.00  0.00     0.044 C 
ATOM     20  C   UNL     1      -2.768   4.029   1.494  1.00  0.00    -0.049 A 
ATOM     21  C   UNL     1      -2.228   3.486   2.665  1.00  0.00     0.006 A 
ATOM     22  C   UNL     1      -2.857   3.229   0.340  1.00  0.00     0.032 A 
ATOM     23  C   UNL     1      -1.744   2.181   2.671  1.00  0.00     0.042 A 
ATOM     24  C   UNL     1      -1.831   1.406   1.518  1.00  0.00     0.146 A 
ATOM     25  F   UNL     1      -1.276   0.188   1.556  1.00  0.00    -0.205 F 
ENDBRANCH  15  18
ENDBRANCH   8  14
ENDBRANCH   4   7
ENDBRANCH   2   3
ENDBRANCH   1   2
BRANCH   1  26
ATOM     26  C   UNL     1      -6.225   3.875   3.463  1.00  0.00     0.023 C 
BRANCH  26  27
ATOM     27  C   UNL     1      -7.737   3.925   3.577  1.00  0.00     0.116 C 
BRANCH  27  28
ATOM     28  N   UNL     1      -8.189   3.696   4.943  1.00  0.00    -0.352 N 
ATOM     29  C   UNL     1      -8.862   4.545   5.782  1.00  0.00     0.251 C 
ATOM     30  H   UNL     1      -7.981   2.808   5.314  1.00  0.00     0.163 HD
ATOM     31  O   UNL     1      -8.951   4.290   6.982  1.00  0.00    -0.269 OA
BRANCH  29  32
ATOM     32  C   UNL     1      -9.464   5.775   5.234  1.00  0.00     0.039 A 
ATOM     33  C   UNL     1      -9.382   6.966   5.957  1.00  0.00     0.014 A 
ATOM     34  C   UNL     1     -10.089   5.749   3.986  1.00  0.00     0.014 A 
ATOM     35  C   UNL     1      -9.885   8.140   5.397  1.00  0.00     0.010 A 
ATOM     36  C   UNL     1     -10.453   6.936   3.374  1.00  0.00     0.010 A 
ATOM     37  C   UNL     1     -10.396   8.140   4.088  1.00  0.00    -0.014 A 
BRANCH  37  38
ATOM     38  C   UNL     1     -10.945   9.367   3.463  1.00  0.00     0.031 A 
ATOM     39  C   UNL     1     -12.380   9.383   3.002  1.00  0.00     0.074 A 
ATOM     40  C   UNL     1     -10.147  10.431   3.255  1.00  0.00     0.049 A 
ATOM     41  N   UNL     1     -13.035  10.319   2.364  1.00  0.00    -0.248 NA
ATOM     42  C   UNL     1     -13.174   8.167   3.251  1.00  0.00     0.031 C 
ATOM     43  C   UNL     1      -8.725  10.508   3.600  1.00  0.00     0.029 A 
ATOM     44  N   UNL     1     -10.419  11.655   2.700  1.00  0.00    -0.354 N 
ATOM     45  C   UNL     1     -14.296   9.791   2.115  1.00  0.00     0.074 A 
ATOM     46  C   UNL     1     -14.291   8.429   2.593  1.00  0.00     0.031 C 
ATOM     47  C   UNL     1      -8.263  11.729   3.288  1.00  0.00     0.029 A 
ATOM     48  C   UNL     1      -9.340  12.505   2.683  1.00  0.00     0.049 A 
ATOM     49  H   UNL     1     -11.305  11.901   2.346  1.00  0.00     0.167 HD
ATOM     50  C   UNL     1     -15.377  10.398   1.573  1.00  0.00     0.037 A 
ATOM     51  C   UNL     1      -9.237  13.768   2.228  1.00  0.00     0.037 A 
ATOM     52  C   UNL     1     -15.385  11.770   1.143  1.00  0.00     0.049 A 
ATOM     53  C   UNL     1     -10.456  14.428   1.645  1.00  0.00     0.074 A 
ATOM     54  C   UNL     1     -16.440  12.511   0.643  1.00  0.00     0.029 A 
ATOM     55  N   UNL     1     -14.280  12.607   1.170  1.00  0.00    -0.354 N 
ATOM     56  N   UNL     1     -11.663  13.942   1.482  1.00  0.00    -0.248 NA
ATOM     57  C   UNL     1     -10.301  15.816   1.189  1.00  0.00     0.031 C 
ATOM     58  C   UNL     1     -15.960  13.784   0.320  1.00  0.00     0.029 A 
ATOM     59  C   UNL     1     -14.622  13.853   0.675  1.00  0.00     0.049 A 
ATOM     60  H   UNL     1     -13.385  12.353   1.493  1.00  0.00     0.167 HD
ATOM     61  C   UNL     1     -12.419  14.972   0.937  1.00  0.00     0.074 A 
ATOM     62  C   UNL     1     -11.536  16.114   0.812  1.00  0.00     0.031 C 
ATOM     63  C   UNL     1     -13.725  14.976   0.572  1.00  0.00     0.037 A 
BRANCH  50  64
ATOM     64  C   UNL     1     -16.633   9.585   1.432  1.00  0.00     0.057 A 
ATOM     65  C   UNL     1     -17.362   9.145   2.546  1.00  0.00     0.134 A 
ATOM     66  C   UNL     1     -17.129   9.249   0.166  1.00  0.00     0.134 A 
ATOM     67  F   UNL     1     -16.936   9.416   3.789  1.00  0.00    -0.206 F 
ATOM     68  C   UNL     1     -18.516   8.371   2.407  1.00  0.00     0.040 A 
ATOM     69  C   UNL     1     -18.300   8.505   0.014  1.00  0.00     0.040 A 
ATOM     70  F   UNL     1     -16.485   9.640  -0.944  1.00  0.00    -0.206 F 
ATOM     71  C   UNL     1     -18.992   8.056   1.137  1.00  0.00     0.006 A 
ENDBRANCH  50  64
BRANCH  51  72
ATOM     72  C   UNL     1      -7.949  14.499   2.340  1.00  0.00     0.057 A 
ATOM     73  C   UNL     1      -7.808  15.586   3.212  1.00  0.00     0.134 A 
ATOM     74  C   UNL     1      -6.831  14.138   1.579  1.00  0.00     0.134 A 
ATOM     75  F   UNL     1      -8.846  15.990   3.959  1.00  0.00    -0.206 F 
ATOM     76  C   UNL     1      -6.613  16.301   3.305  1.00  0.00     0.040 A 
ATOM     77  C   UNL     1      -5.621  14.826   1.683  1.00  0.00     0.040 A 
ATOM     78  F   UNL     1      -6.894  13.098   0.734  1.00  0.00    -0.206 F 
ATOM     79  C   UNL     1      -5.513  15.918   2.541  1.00  0.00     0.006 A 
ENDBRANCH  51  72
BRANCH  63  80
ATOM     80  C   UNL     1     -14.285  16.265   0.044  1.00  0.00     0.057 A 
ATOM     81  C   UNL     1     -13.933  16.767  -1.214  1.00  0.00     0.134 A 
ATOM     82  C   UNL     1     -15.223  16.988   0.792  1.00  0.00     0.134 A 
ATOM     83  F   UNL     1     -13.031  16.127  -1.975  1.00  0.00    -0.206 F 
ATOM     84  C   UNL     1     -14.473  17.958  -1.700  1.00  0.00     0.040 A 
ATOM     85  C   UNL     1     -15.795  18.163   0.304  1.00  0.00     0.040 A 
ATOM     86  F   UNL     1     -15.613  16.555   2.000  1.00  0.00    -0.206 F 
ATOM     87  C   UNL     1     -15.414  18.655  -0.942  1.00  0.00     0.006 A 
ENDBRANCH  63  80
ENDBRANCH  37  38
ENDBRANCH  29  32
ENDBRANCH  27  28
ENDBRANCH  26  27
ENDBRANCH   1  26
TORSDOF 13
