REMARK SMILES O=C(NCCCCNC(=O)c1cc(NC(=O)c2ccccc2Cl)ccc1N1CCC[C@H](C[NH+]2CCCC2)C1)c1ccc(-c2c3nc(c(-c4c(F)cccc4F)c4ccc([nH]4)c(-c4c(F)cccc4F)c4nc(c(-c5c(F)cccc5F)c5ccc2[nH]5)C=C4)C=C3)cc1
REMARK SMILES IDX 6 1 5 2 4 3 3 4 1 5 2 6 39 8 40 9 92 10 41 11 91 12 42 13
REMARK SMILES IDX 43 14 44 15 85 16 45 17 90 18 84 19 86 20 46 21 89 22 83 23
REMARK SMILES IDX 82 24 47 26 73 27 56 28 72 29 57 30 60 31 71 32 87 33 58 34
REMARK SMILES IDX 59 35 70 37 88 38 61 39 48 40 49 41 54 42 50 43 51 44 53 45
REMARK SMILES IDX 55 46 52 47 74 48 75 49 80 50 76 51 77 52 79 53 81 54 78 55
REMARK SMILES IDX 62 56 63 57 68 58 64 59 65 60 67 61 69 62 66 63 7 64 8 65
REMARK SMILES IDX 9 66 10 68 11 69 12 70 26 71 13 72 25 73 24 74 27 75 28 76
REMARK SMILES IDX 38 77 29 78 31 79 30 80 32 81 33 82 34 83 37 84 35 86 36 87
REMARK SMILES IDX 14 88 15 89 16 91 17 92 18 93 22 94 19 95 21 96 23 97 20 98
REMARK H PARENT 3 7 86 25 60 36 8 67 33 85 14 90
REMARK Flexibility Score: inf
ROOT
ATOM      1  C   UNL     1       4.975   3.838   0.364  1.00  0.00     0.023 C 
ENDROOT
BRANCH   1   2
ATOM      2  C   UNL     1       5.306   2.488  -0.272  1.00  0.00     0.023 C 
BRANCH   2   3
ATOM      3  C   UNL     1       4.823   1.248   0.475  1.00  0.00     0.116 C 
BRANCH   3   4
ATOM      4  N   UNL     1       3.378   1.083   0.459  1.00  0.00    -0.352 N 
ATOM      5  O   UNL     1       1.387   0.214  -0.147  1.00  0.00    -0.269 OA
ATOM      6  C   UNL     1       2.607   0.121  -0.157  1.00  0.00     0.251 C 
ATOM      7  H   UNL     1       2.875   1.761   0.965  1.00  0.00     0.163 HD
BRANCH   6   8
ATOM      8  C   UNL     1       3.253  -1.015  -0.856  1.00  0.00     0.039 A 
ATOM      9  C   UNL     1       4.284  -1.737  -0.251  1.00  0.00     0.014 A 
ATOM     10  C   UNL     1       2.803  -1.376  -2.130  1.00  0.00     0.014 A 
ATOM     11  C   UNL     1       4.962  -2.714  -0.972  1.00  0.00     0.010 A 
ATOM     12  C   UNL     1       3.429  -2.421  -2.821  1.00  0.00     0.010 A 
ATOM     13  C   UNL     1       4.530  -3.082  -2.257  1.00  0.00    -0.014 A 
BRANCH  13  14
ATOM     14  C   UNL     1       5.179  -4.230  -2.940  1.00  0.00     0.031 A 
ATOM     15  C   UNL     1       5.960  -4.054  -4.212  1.00  0.00     0.074 A 
ATOM     16  C   UNL     1       5.062  -5.452  -2.382  1.00  0.00     0.049 A 
ATOM     17  N   UNL     1       6.581  -4.960  -4.925  1.00  0.00    -0.248 NA
ATOM     18  C   UNL     1       6.053  -2.693  -4.763  1.00  0.00     0.031 C 
ATOM     19  C   UNL     1       4.309  -5.748  -1.159  1.00  0.00     0.029 A 
ATOM     20  N   UNL     1       5.571  -6.667  -2.759  1.00  0.00    -0.354 N 
ATOM     21  C   UNL     1       7.122  -4.288  -6.014  1.00  0.00     0.074 A 
ATOM     22  C   UNL     1       6.745  -2.897  -5.878  1.00  0.00     0.031 C 
ATOM     23  C   UNL     1       4.430  -7.052  -0.872  1.00  0.00     0.029 A 
ATOM     24  C   UNL     1       5.213  -7.695  -1.921  1.00  0.00     0.049 A 
ATOM     25  H   UNL     1       6.139  -6.792  -3.554  1.00  0.00     0.167 HD
ATOM     26  C   UNL     1       7.866  -4.790  -7.029  1.00  0.00     0.037 A 
ATOM     27  C   UNL     1       5.457  -9.016  -2.000  1.00  0.00     0.037 A 
ATOM     28  C   UNL     1       8.260  -6.171  -7.143  1.00  0.00     0.049 A 
ATOM     29  C   UNL     1       6.261  -9.541  -3.152  1.00  0.00     0.074 A 
ATOM     30  C   UNL     1       9.083  -6.755  -8.092  1.00  0.00     0.029 A 
ATOM     31  N   UNL     1       7.851  -7.186  -6.292  1.00  0.00    -0.354 N 
ATOM     32  N   UNL     1       6.821  -8.880  -4.135  1.00  0.00    -0.248 NA
ATOM     33  C   UNL     1       6.458 -10.995  -3.212  1.00  0.00     0.031 C 
ATOM     34  C   UNL     1       9.129  -8.131  -7.846  1.00  0.00     0.029 A 
ATOM     35  C   UNL     1       8.370  -8.398  -6.718  1.00  0.00     0.049 A 
ATOM     36  H   UNL     1       7.277  -7.063  -5.502  1.00  0.00     0.167 HD
ATOM     37  C   UNL     1       7.439  -9.835  -4.928  1.00  0.00     0.074 A 
ATOM     38  C   UNL     1       7.213 -11.118  -4.295  1.00  0.00     0.031 C 
ATOM     39  C   UNL     1       8.125  -9.666  -6.084  1.00  0.00     0.037 A 
BRANCH  26  40
ATOM     40  C   UNL     1       8.306  -3.855  -8.117  1.00  0.00     0.057 A 
ATOM     41  C   UNL     1       9.352  -2.944  -7.933  1.00  0.00     0.134 A 
ATOM     42  C   UNL     1       7.747  -3.948  -9.399  1.00  0.00     0.134 A 
ATOM     43  F   UNL     1       9.927  -2.803  -6.729  1.00  0.00    -0.206 F 
ATOM     44  C   UNL     1       9.826  -2.155  -8.984  1.00  0.00     0.040 A 
ATOM     45  C   UNL     1       8.224  -3.179 -10.462  1.00  0.00     0.040 A 
ATOM     46  F   UNL     1       6.748  -4.809  -9.645  1.00  0.00    -0.206 F 
ATOM     47  C   UNL     1       9.268  -2.280 -10.256  1.00  0.00     0.006 A 
ENDBRANCH  26  40
BRANCH  27  48
ATOM     48  C   UNL     1       4.894  -9.935  -0.980  1.00  0.00     0.057 A 
ATOM     49  C   UNL     1       5.718 -10.615  -0.078  1.00  0.00     0.134 A 
ATOM     50  C   UNL     1       3.514 -10.163  -0.894  1.00  0.00     0.134 A 
ATOM     51  F   UNL     1       7.049 -10.452  -0.124  1.00  0.00    -0.206 F 
ATOM     52  C   UNL     1       5.194 -11.503   0.862  1.00  0.00     0.040 A 
ATOM     53  C   UNL     1       2.974 -11.024   0.060  1.00  0.00     0.040 A 
ATOM     54  F   UNL     1       2.670  -9.535  -1.726  1.00  0.00    -0.206 F 
ATOM     55  C   UNL     1       3.816 -11.705   0.936  1.00  0.00     0.006 A 
ENDBRANCH  27  48
BRANCH  39  56
ATOM     56  C   UNL     1       8.674 -10.901  -6.732  1.00  0.00     0.057 A 
ATOM     57  C   UNL     1       7.840 -11.813  -7.391  1.00  0.00     0.134 A 
ATOM     58  C   UNL     1      10.048 -11.170  -6.716  1.00  0.00     0.134 A 
ATOM     59  F   UNL     1       6.513 -11.619  -7.425  1.00  0.00    -0.206 F 
ATOM     60  C   UNL     1       8.352 -12.963  -7.994  1.00  0.00     0.040 A 
ATOM     61  C   UNL     1      10.574 -12.304  -7.337  1.00  0.00     0.040 A 
ATOM     62  F   UNL     1      10.900 -10.333  -6.107  1.00  0.00    -0.206 F 
ATOM     63  C   UNL     1       9.724 -13.207  -7.973  1.00  0.00     0.006 A 
ENDBRANCH  39  56
ENDBRANCH  13  14
ENDBRANCH   6   8
ENDBRANCH   3   4
ENDBRANCH   2   3
ENDBRANCH   1   2
BRANCH   1  64
ATOM     64  C   UNL     1       5.232   3.946   1.862  1.00  0.00     0.116 C 
BRANCH  64  65
ATOM     65  N   UNL     1       6.569   3.622   2.297  1.00  0.00    -0.352 N 
ATOM     66  C   UNL     1       7.130   3.890   3.528  1.00  0.00     0.253 C 
ATOM     67  H   UNL     1       7.144   3.160   1.645  1.00  0.00     0.163 HD
ATOM     68  O   UNL     1       8.218   3.391   3.809  1.00  0.00    -0.269 OA
BRANCH  66  69
ATOM     69  C   UNL     1       6.518   4.879   4.455  1.00  0.00     0.065 A 
ATOM     70  C   UNL     1       7.326   6.019   4.648  1.00  0.00     0.042 A 
ATOM     71  C   UNL     1       5.262   4.780   5.081  1.00  0.00     0.050 A 
ATOM     72  C   UNL     1       6.874   7.127   5.357  1.00  0.00     0.042 A 
ATOM     73  C   UNL     1       4.872   5.874   5.880  1.00  0.00     0.029 A 
ATOM     74  C   UNL     1       5.653   7.026   6.013  1.00  0.00     0.028 A 
BRANCH  71  75
ATOM     75  N   UNL     1       4.393   3.693   5.030  1.00  0.00    -0.370 N 
ATOM     76  C   UNL     1       3.043   3.928   4.501  1.00  0.00     0.116 C 
ATOM     77  C   UNL     1       4.932   2.334   5.121  1.00  0.00     0.126 C 
ATOM     78  C   UNL     1       2.040   2.907   5.007  1.00  0.00     0.022 C 
ATOM     79  C   UNL     1       3.909   1.381   5.769  1.00  0.00     0.064 C 
ATOM     80  C   UNL     1       2.601   1.492   4.973  1.00  0.00     0.013 C 
BRANCH  79  81
ATOM     81  C   UNL     1       3.805   1.680   7.290  1.00  0.00     0.267 C 
BRANCH  81  82
ATOM     82  N   UNL     1       3.046   0.787   8.170  1.00  0.00    -0.335 N 
ATOM     83  C   UNL     1       3.434  -0.619   8.139  1.00  0.00     0.262 C 
ATOM     84  C   UNL     1       1.591   0.855   8.082  1.00  0.00     0.262 C 
ATOM     85  H   UNL     1       3.327   1.191   9.063  1.00  0.00     0.348 HD
ATOM     86  C   UNL     1       2.365  -1.306   7.313  1.00  0.00     0.067 C 
ATOM     87  C   UNL     1       1.107  -0.512   7.613  1.00  0.00     0.067 C 
ENDBRANCH  81  82
ENDBRANCH  79  81
ENDBRANCH  71  75
BRANCH  72  88
ATOM     88  N   UNL     1       7.549   8.360   5.449  1.00  0.00    -0.322 N 
ATOM     89  C   UNL     1       8.569   8.913   4.705  1.00  0.00     0.257 C 
ATOM     90  H   UNL     1       7.233   8.935   6.183  1.00  0.00     0.170 HD
ATOM     91  O   UNL     1       9.065   9.990   5.034  1.00  0.00    -0.269 OA
BRANCH  89  92
ATOM     92  C   UNL     1       9.091   8.243   3.506  1.00  0.00     0.058 A 
ATOM     93  C   UNL     1      10.395   7.732   3.585  1.00  0.00     0.015 A 
ATOM     94  C   UNL     1       8.319   8.042   2.355  1.00  0.00     0.053 A 
ATOM     95  C   UNL     1      10.893   6.947   2.546  1.00  0.00     0.001 A 
ATOM     96  C   UNL     1       8.825   7.247   1.323  1.00  0.00     0.021 A 
ATOM     97  Cl  UNL     1       6.734   8.702   2.165  1.00  0.00    -0.083 Cl
ATOM     98  C   UNL     1      10.102   6.689   1.427  1.00  0.00     0.002 A 
ENDBRANCH  89  92
ENDBRANCH  72  88
ENDBRANCH  66  69
ENDBRANCH  64  65
ENDBRANCH   1  64
TORSDOF 16
