REMARK SMILES O=C(NCCCCNC(=O)c1ccc(-c2c3nc(c(-c4c(F)cccc4F)c4ccc([nH]4)c(-c4c(F)cccc4F)c4nc(c(-c5c(F)cccc5F)c5ccc2[nH]5)C=C4)C=C3)cc1)C1=Cc2c(ccc(Cl)c2Sc2ccccc2)O[C@H]1C(F)(F)F
REMARK SMILES IDX 5 1 4 2 3 3 1 4 2 5 65 7 66 8 82 9 67 10 81 11 68 12 73 13
REMARK SMILES IDX 69 14 71 15 70 16 72 17 83 18 84 19 85 20 86 21 74 22 75 23
REMARK SMILES IDX 76 24 80 25 77 26 79 27 78 28 6 29 7 30 8 31 9 32 10 34
REMARK SMILES IDX 11 35 12 36 64 37 13 38 63 39 14 40 15 41 16 42 57 43 17 44
REMARK SMILES IDX 62 45 56 46 58 47 18 48 61 49 55 50 54 51 19 53 45 54 28 55
REMARK SMILES IDX 44 56 29 57 32 58 43 59 59 60 30 61 31 62 42 64 60 65 33 66
REMARK SMILES IDX 20 67 21 68 26 69 22 70 23 71 25 72 27 73 24 74 46 75 47 76
REMARK SMILES IDX 52 77 48 78 49 79 51 80 53 81 50 82 34 83 35 84 40 85 36 86
REMARK SMILES IDX 37 87 39 88 41 89 38 90
REMARK H PARENT 3 6 8 33 58 52 32 63
REMARK Flexibility Score: inf
ROOT
ATOM      1  C   UNL     1       4.318  -0.438   3.268  1.00  0.00     0.023 C 
ENDROOT
BRANCH   1   2
ATOM      2  C   UNL     1       3.800  -0.350   1.834  1.00  0.00     0.116 C 
BRANCH   2   3
ATOM      3  N   UNL     1       2.749   0.638   1.659  1.00  0.00    -0.352 N 
ATOM      4  O   UNL     1       1.663   2.392   0.771  1.00  0.00    -0.270 OA
ATOM      5  C   UNL     1       2.575   1.574   0.681  1.00  0.00     0.251 C 
ATOM      6  H   UNL     1       2.054   0.631   2.356  1.00  0.00     0.163 HD
BRANCH   5   7
ATOM      7  C   UNL     1       3.486   1.639  -0.479  1.00  0.00     0.067 C 
ATOM      8  C   UNL     1       3.503   0.656  -1.388  1.00  0.00     0.026 C 
ATOM      9  C   UNL     1       4.630   2.598  -0.445  1.00  0.00     0.314 C 
ATOM     10  C   UNL     1       4.735  -0.155  -1.279  1.00  0.00     0.033 A 
ATOM     11  O   UNL     1       5.911   1.914  -0.626  1.00  0.00    -0.475 OA
ATOM     12  C   UNL     1       5.889   0.554  -0.855  1.00  0.00     0.129 A 
ATOM     13  C   UNL     1       4.739  -1.567  -1.416  1.00  0.00     0.042 A 
ATOM     14  C   UNL     1       7.053  -0.129  -0.531  1.00  0.00     0.049 A 
ATOM     15  C   UNL     1       5.928  -2.230  -1.021  1.00  0.00     0.055 A 
ATOM     16  C   UNL     1       7.060  -1.519  -0.584  1.00  0.00     0.025 A 
ATOM     17  Cl  UNL     1       6.069  -3.962  -0.963  1.00  0.00    -0.083 Cl
BRANCH   9  18
ATOM     18  C   UNL     1       4.462   3.705  -1.499  1.00  0.00     0.429 C 
ATOM     19  F   UNL     1       4.528   3.218  -2.762  1.00  0.00    -0.167 F 
ATOM     20  F   UNL     1       3.278   4.347  -1.379  1.00  0.00    -0.167 F 
ATOM     21  F   UNL     1       5.433   4.642  -1.382  1.00  0.00    -0.167 F 
ENDBRANCH   9  18
BRANCH  13  22
ATOM     22  S   UNL     1       3.343  -2.593  -1.980  1.00  0.00    -0.088 SA
BRANCH  22  23
ATOM     23  C   UNL     1       1.978  -1.517  -2.348  1.00  0.00     0.012 A 
ATOM     24  C   UNL     1       1.018  -1.248  -1.363  1.00  0.00     0.015 A 
ATOM     25  C   UNL     1       1.891  -0.867  -3.587  1.00  0.00     0.015 A 
ATOM     26  C   UNL     1       0.052  -0.262  -1.574  1.00  0.00     0.001 A 
ATOM     27  C   UNL     1       0.926   0.124  -3.792  1.00  0.00     0.001 A 
ATOM     28  C   UNL     1       0.021   0.439  -2.778  1.00  0.00     0.000 A 
ENDBRANCH  22  23
ENDBRANCH  13  22
ENDBRANCH   5   7
ENDBRANCH   2   3
ENDBRANCH   1   2
BRANCH   1  29
ATOM     29  C   UNL     1       4.008  -1.752   3.981  1.00  0.00     0.023 C 
BRANCH  29  30
ATOM     30  C   UNL     1       4.538  -3.026   3.324  1.00  0.00     0.116 C 
BRANCH  30  31
ATOM     31  N   UNL     1       5.984  -3.067   3.165  1.00  0.00    -0.352 N 
ATOM     32  C   UNL     1       6.857  -4.098   3.431  1.00  0.00     0.251 C 
ATOM     33  H   UNL     1       6.395  -2.242   2.818  1.00  0.00     0.163 HD
ATOM     34  O   UNL     1       8.065  -3.939   3.271  1.00  0.00    -0.269 OA
BRANCH  32  35
ATOM     35  C   UNL     1       6.346  -5.381   3.966  1.00  0.00     0.039 A 
ATOM     36  C   UNL     1       6.949  -5.926   5.104  1.00  0.00     0.014 A 
ATOM     37  C   UNL     1       5.253  -6.024   3.380  1.00  0.00     0.014 A 
ATOM     38  C   UNL     1       6.399  -7.062   5.706  1.00  0.00     0.010 A 
ATOM     39  C   UNL     1       4.662  -7.111   4.023  1.00  0.00     0.010 A 
ATOM     40  C   UNL     1       5.224  -7.638   5.197  1.00  0.00    -0.014 A 
BRANCH  40  41
ATOM     41  C   UNL     1       4.574  -8.793   5.873  1.00  0.00     0.031 A 
ATOM     42  C   UNL     1       4.468 -10.118   5.167  1.00  0.00     0.074 A 
ATOM     43  C   UNL     1       4.026  -8.640   7.096  1.00  0.00     0.049 A 
ATOM     44  N   UNL     1       3.871 -11.218   5.554  1.00  0.00    -0.248 NA
ATOM     45  C   UNL     1       5.093 -10.211   3.838  1.00  0.00     0.031 C 
ATOM     46  C   UNL     1       4.012  -7.398   7.871  1.00  0.00     0.029 A 
ATOM     47  N   UNL     1       3.362  -9.537   7.898  1.00  0.00    -0.354 N 
ATOM     48  C   UNL     1       4.040 -12.125   4.515  1.00  0.00     0.074 A 
ATOM     49  C   UNL     1       4.744 -11.431   3.459  1.00  0.00     0.031 C 
ATOM     50  C   UNL     1       3.389  -7.616   9.042  1.00  0.00     0.029 A 
ATOM     51  C   UNL     1       2.934  -9.002   9.090  1.00  0.00     0.049 A 
ATOM     52  H   UNL     1       3.208 -10.475   7.643  1.00  0.00     0.167 HD
ATOM     53  C   UNL     1       3.670 -13.426   4.455  1.00  0.00     0.037 A 
ATOM     54  C   UNL     1       2.251  -9.566  10.105  1.00  0.00     0.037 A 
ATOM     55  C   UNL     1       2.991 -14.128   5.512  1.00  0.00     0.049 A 
ATOM     56  C   UNL     1       1.870 -11.019  10.021  1.00  0.00     0.074 A 
ATOM     57  C   UNL     1       2.586 -15.451   5.549  1.00  0.00     0.029 A 
ATOM     58  N   UNL     1       2.630 -13.565   6.725  1.00  0.00    -0.354 N 
ATOM     59  N   UNL     1       2.077 -11.874   9.049  1.00  0.00    -0.248 NA
ATOM     60  C   UNL     1       1.175 -11.592  11.184  1.00  0.00     0.031 C 
ATOM     61  C   UNL     1       1.963 -15.684   6.780  1.00  0.00     0.029 A 
ATOM     62  C   UNL     1       2.015 -14.516   7.522  1.00  0.00     0.049 A 
ATOM     63  H   UNL     1       2.788 -12.628   6.983  1.00  0.00     0.167 HD
ATOM     64  C   UNL     1       1.577 -13.089   9.498  1.00  0.00     0.074 A 
ATOM     65  C   UNL     1       1.065 -12.865  10.833  1.00  0.00     0.031 C 
ATOM     66  C   UNL     1       1.542 -14.285   8.861  1.00  0.00     0.037 A 
BRANCH  53  67
ATOM     67  C   UNL     1       4.017 -14.183   3.207  1.00  0.00     0.057 A 
ATOM     68  C   UNL     1       5.339 -14.543   2.915  1.00  0.00     0.134 A 
ATOM     69  C   UNL     1       3.023 -14.585   2.307  1.00  0.00     0.134 A 
ATOM     70  F   UNL     1       6.339 -14.176   3.730  1.00  0.00    -0.206 F 
ATOM     71  C   UNL     1       5.663 -15.257   1.760  1.00  0.00     0.040 A 
ATOM     72  C   UNL     1       3.332 -15.322   1.161  1.00  0.00     0.040 A 
ATOM     73  F   UNL     1       1.736 -14.278   2.529  1.00  0.00    -0.206 F 
ATOM     74  C   UNL     1       4.656 -15.654   0.883  1.00  0.00     0.006 A 
ENDBRANCH  53  67
BRANCH  54  75
ATOM     75  C   UNL     1       1.901  -8.771  11.311  1.00  0.00     0.057 A 
ATOM     76  C   UNL     1       2.513  -9.024  12.545  1.00  0.00     0.134 A 
ATOM     77  C   UNL     1       0.919  -7.775  11.271  1.00  0.00     0.134 A 
ATOM     78  F   UNL     1       3.447  -9.980  12.652  1.00  0.00    -0.206 F 
ATOM     79  C   UNL     1       2.137  -8.340  13.703  1.00  0.00     0.040 A 
ATOM     80  C   UNL     1       0.551  -7.065  12.416  1.00  0.00     0.040 A 
ATOM     81  F   UNL     1       0.301  -7.479  10.119  1.00  0.00    -0.206 F 
ATOM     82  C   UNL     1       1.153  -7.356  13.639  1.00  0.00     0.006 A 
ENDBRANCH  54  75
BRANCH  66  83
ATOM     83  C   UNL     1       0.996 -15.454   9.624  1.00  0.00     0.057 A 
ATOM     84  C   UNL     1      -0.372 -15.599   9.885  1.00  0.00     0.134 A 
ATOM     85  C   UNL     1       1.853 -16.466  10.077  1.00  0.00     0.134 A 
ATOM     86  F   UNL     1      -1.243 -14.658   9.489  1.00  0.00    -0.206 F 
ATOM     87  C   UNL     1      -0.866 -16.696  10.592  1.00  0.00     0.040 A 
ATOM     88  C   UNL     1       1.368 -17.580  10.763  1.00  0.00     0.040 A 
ATOM     89  F   UNL     1       3.174 -16.392   9.852  1.00  0.00    -0.206 F 
ATOM     90  C   UNL     1       0.005 -17.693  11.029  1.00  0.00     0.006 A 
ENDBRANCH  66  83
ENDBRANCH  40  41
ENDBRANCH  32  35
ENDBRANCH  30  31
ENDBRANCH  29  30
ENDBRANCH   1  29
TORSDOF 14
