REMARK SMILES CCCCOC(=O)c1ccc(N2C[C@H](C(=O)NCCCCNC(=O)c3ccc(-c4c5nc(c(-c6c(F)cccc6F)c6ccc([nH]6)c(-c6c(F)cccc6F)c6nc(c(-c7c(F)cccc7F)c7ccc4[nH]7)C=C6)C=C5)cc3)CC2=O)cc1
REMARK SMILES IDX 15 1 16 2 17 3 14 5 12 6 13 7 80 8 79 9 81 10 11 11 8 12
REMARK SMILES IDX 9 13 83 14 10 15 82 16 6 17 7 18 5 19 4 20 3 21 2 22 1 23
REMARK SMILES IDX 18 24 19 25 20 26 21 27 22 28 23 29 24 31 25 32 26 33 78 34
REMARK SMILES IDX 27 35 77 36 28 37 29 38 30 39 71 40 31 41 76 42 70 43 72 44
REMARK SMILES IDX 32 45 75 46 69 47 68 48 33 50 59 51 42 52 58 53 43 54 46 55
REMARK SMILES IDX 57 56 73 57 44 58 45 59 56 61 74 62 47 63 34 64 35 65 40 66
REMARK SMILES IDX 36 67 37 68 39 69 41 70 38 71 60 72 61 73 66 74 62 75 63 76
REMARK SMILES IDX 65 77 67 78 64 79 48 80 49 81 54 82 50 83 51 84 53 85 55 86
REMARK SMILES IDX 52 87
REMARK H PARENT 17 4 22 30 72 49 46 60
REMARK Flexibility Score: inf
ROOT
ATOM      1  C   UNL     1      -9.713  -0.580  -0.830  1.00  0.00     0.225 C 
ATOM      2  O   UNL     1      -8.855   0.062  -1.433  1.00  0.00    -0.275 OA
ATOM      3  N   UNL     1     -11.001  -0.493  -1.266  1.00  0.00    -0.356 N 
ATOM      4  H   UNL     1     -11.152   0.154  -1.993  1.00  0.00     0.163 HD
ENDROOT
BRANCH   1   5
ATOM      5  C   UNL     1      -9.393  -1.437   0.379  1.00  0.00     0.107 C 
ATOM      6  N   UNL     1      -7.256  -1.008   1.285  1.00  0.00    -0.312 N 
ATOM      7  C   UNL     1      -7.942  -1.880   0.366  1.00  0.00     0.139 C 
ATOM      8  C   UNL     1      -8.148  -0.302   2.092  1.00  0.00     0.227 C 
ATOM      9  C   UNL     1      -9.556  -0.641   1.665  1.00  0.00     0.116 C 
ATOM     10  O   UNL     1      -7.906   0.468   3.010  1.00  0.00    -0.274 OA
BRANCH   6  11
ATOM     11  C   UNL     1      -5.844  -0.974   1.386  1.00  0.00     0.044 A 
ATOM     12  C   UNL     1      -3.045  -0.854   1.568  1.00  0.00     0.060 A 
ATOM     13  C   UNL     1      -3.642  -1.164   0.347  1.00  0.00     0.018 A 
ATOM     14  C   UNL     1      -3.825  -0.614   2.698  1.00  0.00     0.018 A 
ATOM     15  C   UNL     1      -5.037  -1.235   0.265  1.00  0.00     0.027 A 
ATOM     16  C   UNL     1      -5.217  -0.668   2.602  1.00  0.00     0.027 A 
BRANCH  12  17
ATOM     17  C   UNL     1      -1.592  -0.698   1.675  1.00  0.00     0.338 C 
ATOM     18  O   UNL     1      -1.046   0.381   1.851  1.00  0.00    -0.246 OA
BRANCH  17  19
ATOM     19  O   UNL     1      -1.020  -1.921   1.619  1.00  0.00    -0.462 OA
BRANCH  19  20
ATOM     20  C   UNL     1       0.398  -1.959   1.846  1.00  0.00     0.233 C 
BRANCH  20  21
ATOM     21  C   UNL     1       1.125  -2.346   0.561  1.00  0.00     0.041 C 
BRANCH  21  22
ATOM     22  C   UNL     1       0.936  -1.361  -0.596  1.00  0.00     0.000 C 
ATOM     23  C   UNL     1       1.626  -0.025  -0.369  1.00  0.00     0.004 C 
ENDBRANCH  21  22
ENDBRANCH  20  21
ENDBRANCH  19  20
ENDBRANCH  17  19
ENDBRANCH  12  17
ENDBRANCH   6  11
ENDBRANCH   1   5
BRANCH   3  24
ATOM     24  C   UNL     1     -12.182  -1.209  -0.823  1.00  0.00     0.116 C 
BRANCH  24  25
ATOM     25  C   UNL     1     -13.392  -0.291  -0.662  1.00  0.00     0.023 C 
BRANCH  25  26
ATOM     26  C   UNL     1     -13.795   0.501  -1.908  1.00  0.00     0.023 C 
BRANCH  26  27
ATOM     27  C   UNL     1     -14.024  -0.320  -3.174  1.00  0.00     0.116 C 
BRANCH  27  28
ATOM     28  N   UNL     1     -15.098  -1.288  -3.037  1.00  0.00    -0.352 N 
ATOM     29  C   UNL     1     -16.175  -1.523  -3.859  1.00  0.00     0.251 C 
ATOM     30  H   UNL     1     -15.048  -1.861  -2.238  1.00  0.00     0.163 HD
ATOM     31  O   UNL     1     -17.050  -2.309  -3.508  1.00  0.00    -0.269 OA
BRANCH  29  32
ATOM     32  C   UNL     1     -16.304  -0.808  -5.149  1.00  0.00     0.039 A 
ATOM     33  C   UNL     1     -17.542  -0.251  -5.485  1.00  0.00     0.014 A 
ATOM     34  C   UNL     1     -15.224  -0.693  -6.029  1.00  0.00     0.014 A 
ATOM     35  C   UNL     1     -17.678   0.482  -6.666  1.00  0.00     0.010 A 
ATOM     36  C   UNL     1     -15.345   0.087  -7.178  1.00  0.00     0.010 A 
ATOM     37  C   UNL     1     -16.571   0.688  -7.504  1.00  0.00    -0.014 A 
BRANCH  37  38
ATOM     38  C   UNL     1     -16.672   1.536  -8.719  1.00  0.00     0.031 A 
ATOM     39  C   UNL     1     -16.513   0.928 -10.085  1.00  0.00     0.074 A 
ATOM     40  C   UNL     1     -16.845   2.865  -8.591  1.00  0.00     0.049 A 
ATOM     41  N   UNL     1     -16.483   1.518 -11.253  1.00  0.00    -0.248 NA
ATOM     42  C   UNL     1     -16.342  -0.532 -10.142  1.00  0.00     0.031 C 
ATOM     43  C   UNL     1     -16.979   3.585  -7.324  1.00  0.00     0.029 A 
ATOM     44  N   UNL     1     -16.926   3.851  -9.543  1.00  0.00    -0.354 N 
ATOM     45  C   UNL     1     -16.275   0.506 -12.181  1.00  0.00     0.074 A 
ATOM     46  C   UNL     1     -16.147  -0.729 -11.438  1.00  0.00     0.031 C 
ATOM     47  C   UNL     1     -17.143   4.894  -7.577  1.00  0.00     0.029 A 
ATOM     48  C   UNL     1     -17.093   5.110  -9.019  1.00  0.00     0.049 A 
ATOM     49  H   UNL     1     -16.870   3.673 -10.510  1.00  0.00     0.167 HD
ATOM     50  C   UNL     1     -16.216   0.595 -13.532  1.00  0.00     0.037 A 
ATOM     51  C   UNL     1     -17.188   6.305  -9.632  1.00  0.00     0.037 A 
ATOM     52  C   UNL     1     -16.370   1.816 -14.276  1.00  0.00     0.049 A 
ATOM     53  C   UNL     1     -17.116   6.376 -11.131  1.00  0.00     0.074 A 
ATOM     54  C   UNL     1     -16.372   1.996 -15.649  1.00  0.00     0.029 A 
ATOM     55  N   UNL     1     -16.555   3.067 -13.709  1.00  0.00    -0.354 N 
ATOM     56  N   UNL     1     -16.963   5.405 -11.997  1.00  0.00    -0.248 NA
ATOM     57  C   UNL     1     -17.230   7.710 -11.737  1.00  0.00     0.031 C 
ATOM     58  C   UNL     1     -16.533   3.361 -15.912  1.00  0.00     0.029 A 
ATOM     59  C   UNL     1     -16.662   4.026 -14.703  1.00  0.00     0.049 A 
ATOM     60  H   UNL     1     -16.604   3.248 -12.742  1.00  0.00     0.167 HD
ATOM     61  C   UNL     1     -16.989   6.005 -13.249  1.00  0.00     0.074 A 
ATOM     62  C   UNL     1     -17.181   7.424 -13.031  1.00  0.00     0.031 C 
ATOM     63  C   UNL     1     -16.864   5.432 -14.470  1.00  0.00     0.037 A 
BRANCH  50  64
ATOM     64  C   UNL     1     -15.980  -0.675 -14.293  1.00  0.00     0.057 A 
ATOM     65  C   UNL     1     -16.981  -1.644 -14.432  1.00  0.00     0.134 A 
ATOM     66  C   UNL     1     -14.752  -0.917 -14.921  1.00  0.00     0.134 A 
ATOM     67  F   UNL     1     -18.175  -1.477 -13.843  1.00  0.00    -0.206 F 
ATOM     68  C   UNL     1     -16.763  -2.821 -15.151  1.00  0.00     0.040 A 
ATOM     69  C   UNL     1     -14.529  -2.079 -15.661  1.00  0.00     0.040 A 
ATOM     70  F   UNL     1     -13.753  -0.026 -14.831  1.00  0.00    -0.206 F 
ATOM     71  C   UNL     1     -15.535  -3.038 -15.773  1.00  0.00     0.006 A 
ENDBRANCH  50  64
BRANCH  51  72
ATOM     72  C   UNL     1     -17.386   7.537  -8.831  1.00  0.00     0.057 A 
ATOM     73  C   UNL     1     -18.620   8.197  -8.824  1.00  0.00     0.134 A 
ATOM     74  C   UNL     1     -16.352   8.088  -8.066  1.00  0.00     0.134 A 
ATOM     75  F   UNL     1     -19.641   7.725  -9.554  1.00  0.00    -0.206 F 
ATOM     76  C   UNL     1     -18.815   9.373  -8.099  1.00  0.00     0.040 A 
ATOM     77  C   UNL     1     -16.538   9.253  -7.320  1.00  0.00     0.040 A 
ATOM     78  F   UNL     1     -15.148   7.498  -8.029  1.00  0.00    -0.206 F 
ATOM     79  C   UNL     1     -17.772   9.902  -7.341  1.00  0.00     0.006 A 
ENDBRANCH  51  72
BRANCH  63  80
ATOM     80  C   UNL     1     -16.968   6.334 -15.662  1.00  0.00     0.057 A 
ATOM     81  C   UNL     1     -15.919   7.184 -16.035  1.00  0.00     0.134 A 
ATOM     82  C   UNL     1     -18.116   6.328 -16.463  1.00  0.00     0.134 A 
ATOM     83  F   UNL     1     -14.799   7.244 -15.299  1.00  0.00    -0.206 F 
ATOM     84  C   UNL     1     -16.017   8.010 -17.155  1.00  0.00     0.040 A 
ATOM     85  C   UNL     1     -18.218   7.135 -17.596  1.00  0.00     0.040 A 
ATOM     86  F   UNL     1     -19.153   5.532 -16.160  1.00  0.00    -0.206 F 
ATOM     87  C   UNL     1     -17.167   7.983 -17.942  1.00  0.00     0.006 A 
ENDBRANCH  63  80
ENDBRANCH  37  38
ENDBRANCH  29  32
ENDBRANCH  27  28
ENDBRANCH  26  27
ENDBRANCH  25  26
ENDBRANCH  24  25
ENDBRANCH   3  24
TORSDOF 17
