REMARK SMILES CSCC[C@H](NC(=O)Nc1cccc(-c2nc3ccccc3o2)c1)C(=O)NCCCCNC(=O)c1ccc(-c2c3nc(c(-c4c(F)cccc4F)c4ccc([nH]4)c(-c4c(F)cccc4F)c4nc(c(-c5c(F)cccc5F)c5ccc2[nH]5)C=C4)C=C3)cc1
REMARK SMILES IDX 29 1 28 2 27 3 25 4 26 5 5 7 4 8 3 9 2 10 1 11 6 12 7 13
REMARK SMILES IDX 8 15 9 16 10 18 11 19 24 20 12 21 14 22 13 23 15 24 16 25
REMARK SMILES IDX 23 26 17 27 22 28 18 29 21 30 19 31 20 32 30 33 31 34 32 35
REMARK SMILES IDX 33 36 34 38 35 39 36 40 88 41 37 42 87 43 38 44 39 45 40 46
REMARK SMILES IDX 81 47 41 48 86 49 80 50 82 51 42 52 85 53 79 54 78 55 43 57
REMARK SMILES IDX 69 58 52 59 68 60 53 61 56 62 67 63 83 64 54 65 55 66 66 68
REMARK SMILES IDX 84 69 57 70 44 71 45 72 50 73 46 74 47 75 49 76 51 77 48 78
REMARK SMILES IDX 70 79 71 80 76 81 72 82 73 83 75 84 77 85 74 86 58 87 59 88
REMARK SMILES IDX 64 89 60 90 61 91 63 92 65 93 62 94
REMARK H PARENT 27 6 6 14 9 17 32 37 82 56 56 67
REMARK Flexibility Score: inf
ROOT
ATOM      1  C   UNL     1       0.731   6.378  -3.625  1.00  0.00     0.023 C 
ENDROOT
BRANCH   1   2
ATOM      2  C   UNL     1       1.337   5.320  -2.701  1.00  0.00     0.116 C 
BRANCH   2   3
ATOM      3  N   UNL     1       0.518   5.122  -1.528  1.00  0.00    -0.354 N 
ATOM      4  C   UNL     1       0.444   4.134  -0.608  1.00  0.00     0.242 C 
ATOM      5  O   UNL     1      -0.427   4.299   0.252  1.00  0.00    -0.273 OA
ATOM      6  H   UNL     1      -0.116   5.857  -1.364  1.00  0.00     0.163 HD
BRANCH   4   7
ATOM      7  C   UNL     1       1.281   2.848  -0.650  1.00  0.00     0.174 C 
BRANCH   7   8
ATOM      8  C   UNL     1       2.811   2.923  -0.724  1.00  0.00     0.046 C 
BRANCH   8   9
ATOM      9  C   UNL     1       3.551   4.135  -0.155  1.00  0.00     0.072 C 
BRANCH   9  10
ATOM     10  S   UNL     1       3.548   4.343   1.650  1.00  0.00    -0.165 SA
ATOM     11  C   UNL     1       2.054   5.336   1.868  1.00  0.00     0.085 C 
ENDBRANCH   9  10
ENDBRANCH   8   9
ENDBRANCH   7   8
BRANCH   7  12
ATOM     12  N   UNL     1       0.723   2.065  -1.767  1.00  0.00    -0.326 N 
ATOM     13  C   UNL     1      -0.004   0.949  -1.918  1.00  0.00     0.319 C 
ATOM     14  H   UNL     1       0.944   2.470  -2.637  1.00  0.00     0.166 HD
ATOM     15  O   UNL     1      -0.289   0.635  -3.078  1.00  0.00    -0.248 OA
ATOM     16  N   UNL     1      -0.318   0.094  -0.929  1.00  0.00    -0.308 N 
ATOM     17  H   UNL     1      -0.657  -0.776  -1.241  1.00  0.00     0.171 HD
BRANCH  16  18
ATOM     18  C   UNL     1      -0.252   0.215   0.456  1.00  0.00     0.043 A 
ATOM     19  C   UNL     1       0.479  -0.736   1.164  1.00  0.00     0.026 A 
ATOM     20  C   UNL     1      -0.877   1.262   1.130  1.00  0.00     0.040 A 
ATOM     21  C   UNL     1       0.715  -0.549   2.525  1.00  0.00     0.003 A 
ATOM     22  C   UNL     1      -0.630   1.474   2.495  1.00  0.00     0.039 A 
ATOM     23  C   UNL     1       0.187   0.567   3.183  1.00  0.00     0.014 A 
BRANCH  22  24
ATOM     24  C   UNL     1      -1.123   2.705   3.100  1.00  0.00     0.227 A 
ATOM     25  N   UNL     1      -2.177   3.422   2.754  1.00  0.00    -0.209 NA
ATOM     26  O   UNL     1      -0.265   3.331   3.973  1.00  0.00    -0.436 OA
ATOM     27  C   UNL     1      -1.932   4.646   3.316  1.00  0.00     0.110 A 
ATOM     28  C   UNL     1      -0.774   4.594   4.075  1.00  0.00     0.155 A 
ATOM     29  C   UNL     1      -2.610   5.865   3.193  1.00  0.00     0.032 A 
ATOM     30  C   UNL     1      -0.220   5.678   4.746  1.00  0.00     0.049 A 
ATOM     31  C   UNL     1      -2.067   6.990   3.830  1.00  0.00     0.003 A 
ATOM     32  C   UNL     1      -0.894   6.896   4.591  1.00  0.00     0.004 A 
ENDBRANCH  22  24
ENDBRANCH  16  18
ENDBRANCH   7  12
ENDBRANCH   4   7
ENDBRANCH   2   3
ENDBRANCH   1   2
BRANCH   1  33
ATOM     33  C   UNL     1       0.446   7.741  -2.972  1.00  0.00     0.023 C 
BRANCH  33  34
ATOM     34  C   UNL     1       1.594   8.341  -2.164  1.00  0.00     0.116 C 
BRANCH  34  35
ATOM     35  N   UNL     1       2.778   8.554  -2.981  1.00  0.00    -0.352 N 
ATOM     36  C   UNL     1       3.358   9.720  -3.395  1.00  0.00     0.251 C 
ATOM     37  H   UNL     1       3.230   7.733  -3.282  1.00  0.00     0.163 HD
ATOM     38  O   UNL     1       4.219   9.686  -4.283  1.00  0.00    -0.269 OA
BRANCH  36  39
ATOM     39  C   UNL     1       2.970  11.018  -2.810  1.00  0.00     0.039 A 
ATOM     40  C   UNL     1       2.799  12.114  -3.660  1.00  0.00     0.014 A 
ATOM     41  C   UNL     1       2.823  11.178  -1.427  1.00  0.00     0.014 A 
ATOM     42  C   UNL     1       2.437  13.354  -3.132  1.00  0.00     0.010 A 
ATOM     43  C   UNL     1       2.397  12.401  -0.908  1.00  0.00     0.010 A 
ATOM     44  C   UNL     1       2.207  13.503  -1.754  1.00  0.00    -0.014 A 
BRANCH  44  45
ATOM     45  C   UNL     1       1.758  14.808  -1.206  1.00  0.00     0.031 A 
ATOM     46  C   UNL     1       2.643  15.605  -0.288  1.00  0.00     0.074 A 
ATOM     47  C   UNL     1       0.532  15.268  -1.523  1.00  0.00     0.049 A 
ATOM     48  N   UNL     1       2.429  16.781   0.248  1.00  0.00    -0.248 NA
ATOM     49  C   UNL     1       3.925  14.995   0.096  1.00  0.00     0.031 C 
ATOM     50  C   UNL     1      -0.447  14.561  -2.352  1.00  0.00     0.029 A 
ATOM     51  N   UNL     1      -0.100  16.440  -1.191  1.00  0.00    -0.354 N 
ATOM     52  C   UNL     1       3.543  17.049   1.033  1.00  0.00     0.074 A 
ATOM     53  C   UNL     1       4.406  15.890   0.947  1.00  0.00     0.031 C 
ATOM     54  C   UNL     1      -1.538  15.328  -2.494  1.00  0.00     0.029 A 
ATOM     55  C   UNL     1      -1.348  16.569  -1.749  1.00  0.00     0.049 A 
ATOM     56  H   UNL     1       0.304  17.123  -0.608  1.00  0.00     0.167 HD
ATOM     57  C   UNL     1       3.834  18.167   1.741  1.00  0.00     0.037 A 
ATOM     58  C   UNL     1      -2.236  17.578  -1.678  1.00  0.00     0.037 A 
ATOM     59  C   UNL     1       2.983  19.327   1.810  1.00  0.00     0.049 A 
ATOM     60  C   UNL     1      -1.881  18.816  -0.904  1.00  0.00     0.074 A 
ATOM     61  C   UNL     1       3.217  20.532   2.450  1.00  0.00     0.029 A 
ATOM     62  N   UNL     1       1.732  19.425   1.221  1.00  0.00    -0.354 N 
ATOM     63  N   UNL     1      -0.787  19.088  -0.235  1.00  0.00    -0.248 NA
ATOM     64  C   UNL     1      -2.881  19.894  -0.888  1.00  0.00     0.031 C 
ATOM     65  C   UNL     1       2.091  21.345   2.281  1.00  0.00     0.029 A 
ATOM     66  C   UNL     1       1.173  20.663   1.499  1.00  0.00     0.049 A 
ATOM     67  H   UNL     1       1.304  18.720   0.684  1.00  0.00     0.167 HD
ATOM     68  C   UNL     1      -0.956  20.373   0.263  1.00  0.00     0.074 A 
ATOM     69  C   UNL     1      -2.249  20.834  -0.199  1.00  0.00     0.031 C 
ATOM     70  C   UNL     1      -0.117  21.106   1.035  1.00  0.00     0.037 A 
BRANCH  57  71
ATOM     71  C   UNL     1       5.133  18.192   2.492  1.00  0.00     0.057 A 
ATOM     72  C   UNL     1       6.365  18.282   1.830  1.00  0.00     0.134 A 
ATOM     73  C   UNL     1       5.154  18.162   3.892  1.00  0.00     0.134 A 
ATOM     74  F   UNL     1       6.417  18.304   0.489  1.00  0.00    -0.206 F 
ATOM     75  C   UNL     1       7.572  18.316   2.532  1.00  0.00     0.040 A 
ATOM     76  C   UNL     1       6.353  18.221   4.606  1.00  0.00     0.040 A 
ATOM     77  F   UNL     1       4.011  18.082   4.589  1.00  0.00    -0.206 F 
ATOM     78  C   UNL     1       7.567  18.292   3.925  1.00  0.00     0.006 A 
ENDBRANCH  57  71
BRANCH  58  79
ATOM     79  C   UNL     1      -3.530  17.477  -2.397  1.00  0.00     0.057 A 
ATOM     80  C   UNL     1      -3.787  18.254  -3.532  1.00  0.00     0.134 A 
ATOM     81  C   UNL     1      -4.539  16.607  -1.967  1.00  0.00     0.134 A 
ATOM     82  F   UNL     1      -2.864  19.119  -3.981  1.00  0.00    -0.206 F 
ATOM     83  C   UNL     1      -5.007  18.183  -4.206  1.00  0.00     0.040 A 
ATOM     84  C   UNL     1      -5.755  16.509  -2.645  1.00  0.00     0.040 A 
ATOM     85  F   UNL     1      -4.350  15.830  -0.891  1.00  0.00    -0.206 F 
ATOM     86  C   UNL     1      -5.994  17.304  -3.764  1.00  0.00     0.006 A 
ENDBRANCH  58  79
BRANCH  70  87
ATOM     87  C   UNL     1      -0.567  22.488   1.408  1.00  0.00     0.057 A 
ATOM     88  C   UNL     1      -1.595  22.704   2.335  1.00  0.00     0.134 A 
ATOM     89  C   UNL     1       0.044  23.615   0.844  1.00  0.00     0.134 A 
ATOM     90  F   UNL     1      -2.229  21.666   2.901  1.00  0.00    -0.206 F 
ATOM     91  C   UNL     1      -2.019  23.992   2.666  1.00  0.00     0.040 A 
ATOM     92  C   UNL     1      -0.353  24.908   1.186  1.00  0.00     0.040 A 
ATOM     93  F   UNL     1       1.040  23.477  -0.044  1.00  0.00    -0.206 F 
ATOM     94  C   UNL     1      -1.394  25.099   2.094  1.00  0.00     0.006 A 
ENDBRANCH  70  87
ENDBRANCH  44  45
ENDBRANCH  36  39
ENDBRANCH  34  35
ENDBRANCH  33  34
ENDBRANCH   1  33
TORSDOF 17
