REMARK SMILES C[N@H+]([C@@H]1CCOC2(CCCC2)C1)C(C)(C)C(=O)NCCCCNC(=O)c1ccc(-c2c3nc(c(-c4c(F)cccc4F)c4ccc([nH]4)c(-c4c(F)cccc4F)c4nc(c(-c5c(F)cccc5F)c5ccc2[nH]5)C=C4)C=C3)cc1
REMARK SMILES IDX 20 1 19 2 18 3 16 4 17 5 13 7 14 8 15 9 2 10 1 11 3 13 4 14
REMARK SMILES IDX 12 15 5 16 7 17 6 18 8 19 11 20 9 21 10 22 21 23 22 24 23 25
REMARK SMILES IDX 24 26 25 28 26 29 27 30 79 31 28 32 78 33 29 34 30 35 31 36
REMARK SMILES IDX 72 37 32 38 77 39 71 40 73 41 33 42 76 43 70 44 69 45 34 47
REMARK SMILES IDX 60 48 43 49 59 50 44 51 47 52 58 53 74 54 45 55 46 56 57 58
REMARK SMILES IDX 75 59 48 60 35 61 36 62 41 63 37 64 38 65 40 66 42 67 39 68
REMARK SMILES IDX 61 69 62 70 67 71 63 72 64 73 66 74 68 75 65 76 49 77 50 78
REMARK SMILES IDX 55 79 51 80 52 81 54 82 56 83 53 84
REMARK H PARENT 18 6 2 12 23 27 73 46 47 57
REMARK Flexibility Score: inf
ROOT
ATOM      1  C   UNL     1       3.185   4.556  -4.146  1.00  0.00     0.023 C 
ENDROOT
BRANCH   1   2
ATOM      2  C   UNL     1       1.960   4.485  -3.236  1.00  0.00     0.116 C 
BRANCH   2   3
ATOM      3  N   UNL     1       1.076   3.391  -3.583  1.00  0.00    -0.351 N 
ATOM      4  C   UNL     1       0.801   2.200  -2.968  1.00  0.00     0.280 C 
ATOM      5  O   UNL     1       0.053   1.454  -3.610  1.00  0.00    -0.268 OA
ATOM      6  H   UNL     1       0.579   3.530  -4.421  1.00  0.00     0.163 HD
BRANCH   4   7
ATOM      7  C   UNL     1       1.444   1.790  -1.588  1.00  0.00     0.171 C 
ATOM      8  C   UNL     1       1.348   2.889  -0.509  1.00  0.00     0.090 C 
ATOM      9  C   UNL     1       2.960   1.586  -1.871  1.00  0.00     0.090 C 
BRANCH   7  10
ATOM     10  N   UNL     1       0.807   0.540  -0.985  1.00  0.00    -0.323 N 
ATOM     11  C   UNL     1       1.479  -0.690  -1.435  1.00  0.00     0.333 C 
ATOM     12  H   UNL     1       0.973   0.713   0.006  1.00  0.00     0.349 HD
BRANCH  10  13
ATOM     13  C   UNL     1      -0.681   0.377  -1.020  1.00  0.00     0.189 C 
ATOM     14  C   UNL     1      -1.566   1.603  -0.712  1.00  0.00     0.093 C 
ATOM     15  C   UNL     1      -1.201  -0.725  -0.049  1.00  0.00     0.100 C 
ATOM     16  C   UNL     1      -1.618   1.965   0.769  1.00  0.00     0.167 C 
ATOM     17  C   UNL     1      -1.146  -0.308   1.427  1.00  0.00     0.074 C 
ATOM     18  O   UNL     1      -1.956   0.863   1.606  1.00  0.00    -0.375 OA
ATOM     19  C   UNL     1      -1.770  -1.402   2.332  1.00  0.00     0.036 C 
ATOM     20  C   UNL     1       0.285  -0.127   1.979  1.00  0.00     0.036 C 
ATOM     21  C   UNL     1      -0.639  -1.924   3.210  1.00  0.00     0.003 C 
ATOM     22  C   UNL     1       0.260  -0.717   3.380  1.00  0.00     0.003 C 
ENDBRANCH  10  13
ENDBRANCH   7  10
ENDBRANCH   4   7
ENDBRANCH   2   3
ENDBRANCH   1   2
BRANCH   1  23
ATOM     23  C   UNL     1       2.920   5.124  -5.537  1.00  0.00     0.023 C 
BRANCH  23  24
ATOM     24  C   UNL     1       2.185   6.458  -5.563  1.00  0.00     0.116 C 
BRANCH  24  25
ATOM     25  N   UNL     1       2.797   7.482  -4.724  1.00  0.00    -0.352 N 
ATOM     26  C   UNL     1       2.983   8.815  -5.004  1.00  0.00     0.251 C 
ATOM     27  H   UNL     1       3.117   7.180  -3.843  1.00  0.00     0.163 HD
ATOM     28  O   UNL     1       3.583   9.548  -4.227  1.00  0.00    -0.269 OA
BRANCH  26  29
ATOM     29  C   UNL     1       2.484   9.333  -6.290  1.00  0.00     0.039 A 
ATOM     30  C   UNL     1       3.381   9.952  -7.162  1.00  0.00     0.014 A 
ATOM     31  C   UNL     1       1.161   9.095  -6.669  1.00  0.00     0.014 A 
ATOM     32  C   UNL     1       2.971  10.252  -8.461  1.00  0.00     0.010 A 
ATOM     33  C   UNL     1       0.781   9.319  -7.986  1.00  0.00     0.010 A 
ATOM     34  C   UNL     1       1.685   9.890  -8.895  1.00  0.00    -0.014 A 
BRANCH  34  35
ATOM     35  C   UNL     1       1.261  10.090 -10.301  1.00  0.00     0.031 A 
ATOM     36  C   UNL     1       0.120  11.017 -10.610  1.00  0.00     0.074 A 
ATOM     37  C   UNL     1       1.844   9.377 -11.284  1.00  0.00     0.049 A 
ATOM     38  N   UNL     1      -0.467  11.252 -11.754  1.00  0.00    -0.248 NA
ATOM     39  C   UNL     1      -0.458  11.750  -9.473  1.00  0.00     0.031 C 
ATOM     40  C   UNL     1       2.927   8.407 -11.103  1.00  0.00     0.029 A 
ATOM     41  N   UNL     1       1.596   9.348 -12.633  1.00  0.00    -0.354 N 
ATOM     42  C   UNL     1      -1.492  12.145 -11.472  1.00  0.00     0.074 A 
ATOM     43  C   UNL     1      -1.485  12.362 -10.042  1.00  0.00     0.031 C 
ATOM     44  C   UNL     1       3.268   7.901 -12.300  1.00  0.00     0.029 A 
ATOM     45  C   UNL     1       2.405   8.479 -13.324  1.00  0.00     0.049 A 
ATOM     46  H   UNL     1       0.905   9.899 -13.066  1.00  0.00     0.167 HD
ATOM     47  C   UNL     1      -2.346  12.751 -12.330  1.00  0.00     0.037 A 
ATOM     48  C   UNL     1       2.441   8.179 -14.636  1.00  0.00     0.037 A 
ATOM     49  C   UNL     1      -2.330  12.554 -13.754  1.00  0.00     0.049 A 
ATOM     50  C   UNL     1       1.478   8.860 -15.569  1.00  0.00     0.074 A 
ATOM     51  C   UNL     1      -3.113  13.164 -14.718  1.00  0.00     0.029 A 
ATOM     52  N   UNL     1      -1.485  11.678 -14.419  1.00  0.00    -0.354 N 
ATOM     53  N   UNL     1       0.554   9.749 -15.298  1.00  0.00    -0.248 NA
ATOM     54  C   UNL     1       1.563   8.495 -16.990  1.00  0.00     0.031 C 
ATOM     55  C   UNL     1      -2.765  12.630 -15.964  1.00  0.00     0.029 A 
ATOM     56  C   UNL     1      -1.738  11.718 -15.779  1.00  0.00     0.049 A 
ATOM     57  H   UNL     1      -0.805  11.111 -13.987  1.00  0.00     0.167 HD
ATOM     58  C   UNL     1      -0.033  10.072 -16.514  1.00  0.00     0.074 A 
ATOM     59  C   UNL     1       0.647   9.290 -17.526  1.00  0.00     0.031 C 
ATOM     60  C   UNL     1      -1.043  10.938 -16.771  1.00  0.00     0.037 A 
BRANCH  47  61
ATOM     61  C   UNL     1      -3.358  13.689 -11.742  1.00  0.00     0.057 A 
ATOM     62  C   UNL     1      -2.986  14.926 -11.198  1.00  0.00     0.134 A 
ATOM     63  C   UNL     1      -4.718  13.359 -11.728  1.00  0.00     0.134 A 
ATOM     64  F   UNL     1      -1.696  15.294 -11.166  1.00  0.00    -0.206 F 
ATOM     65  C   UNL     1      -3.927  15.787 -10.632  1.00  0.00     0.040 A 
ATOM     66  C   UNL     1      -5.672  14.225 -11.190  1.00  0.00     0.040 A 
ATOM     67  F   UNL     1      -5.142  12.192 -12.235  1.00  0.00    -0.206 F 
ATOM     68  C   UNL     1      -5.276  15.439 -10.632  1.00  0.00     0.006 A 
ENDBRANCH  47  61
BRANCH  48  69
ATOM     69  C   UNL     1       3.442   7.213 -15.153  1.00  0.00     0.057 A 
ATOM     70  C   UNL     1       4.519   7.646 -15.935  1.00  0.00     0.134 A 
ATOM     71  C   UNL     1       3.346   5.842 -14.889  1.00  0.00     0.134 A 
ATOM     72  F   UNL     1       4.653   8.946 -16.237  1.00  0.00    -0.206 F 
ATOM     73  C   UNL     1       5.457   6.750 -16.449  1.00  0.00     0.040 A 
ATOM     74  C   UNL     1       4.290   4.937 -15.378  1.00  0.00     0.040 A 
ATOM     75  F   UNL     1       2.341   5.365 -14.140  1.00  0.00    -0.206 F 
ATOM     76  C   UNL     1       5.346   5.390 -16.167  1.00  0.00     0.006 A 
ENDBRANCH  48  69
BRANCH  60  77
ATOM     77  C   UNL     1      -1.450  11.111 -18.203  1.00  0.00     0.057 A 
ATOM     78  C   UNL     1      -2.181  10.132 -18.886  1.00  0.00     0.134 A 
ATOM     79  C   UNL     1      -1.145  12.292 -18.892  1.00  0.00     0.134 A 
ATOM     80  F   UNL     1      -2.492   8.973 -18.285  1.00  0.00    -0.206 F 
ATOM     81  C   UNL     1      -2.581  10.314 -20.210  1.00  0.00     0.040 A 
ATOM     82  C   UNL     1      -1.561  12.496 -20.208  1.00  0.00     0.040 A 
ATOM     83  F   UNL     1      -0.453  13.272 -18.291  1.00  0.00    -0.206 F 
ATOM     84  C   UNL     1      -2.277  11.502 -20.872  1.00  0.00     0.006 A 
ENDBRANCH  60  77
ENDBRANCH  34  35
ENDBRANCH  26  29
ENDBRANCH  24  25
ENDBRANCH  23  24
ENDBRANCH   1  23
TORSDOF 13
