REMARK SMILES Nc1cc(C(=O)NCCCCNC(=O)c2ccc(-c3c4nc(c(-c5c(F)cccc5F)c5ccc([nH]5)c(-c5c(F)cccc5F)c5nc(c(-c6c(F)cccc6F)c6ccc3[nH]6)C=C5)C=C4)cc2)c(-c2ccc(F)cc2O)cn1
REMARK SMILES IDX 9 1 8 2 7 3 5 4 6 5 4 7 2 8 3 9 79 10 78 11 69 12 1 13 70 16
REMARK SMILES IDX 71 17 76 18 72 19 75 20 73 21 74 22 77 23 10 25 11 26 12 27
REMARK SMILES IDX 13 28 14 30 15 31 16 32 68 33 17 34 67 35 18 36 19 37 20 38
REMARK SMILES IDX 61 39 21 40 66 41 60 42 62 43 22 44 65 45 59 46 58 47 23 49
REMARK SMILES IDX 49 50 32 51 48 52 33 53 36 54 47 55 63 56 34 57 35 58 46 60
REMARK SMILES IDX 64 61 37 62 24 63 25 64 30 65 26 66 27 67 29 68 31 69 28 70
REMARK SMILES IDX 50 71 51 72 56 73 52 74 53 75 55 76 57 77 54 78 38 79 39 80
REMARK SMILES IDX 44 81 40 82 41 83 43 84 45 85 42 86
REMARK H PARENT 7 6 1 14 1 15 77 24 12 29 62 48 36 59
REMARK Flexibility Score: inf
ROOT
ATOM      1  C   UNL     1       0.624  -4.444   0.983  1.00  0.00     0.023 C 
ENDROOT
BRANCH   1   2
ATOM      2  C   UNL     1       0.111  -3.994  -0.390  1.00  0.00     0.116 C 
BRANCH   2   3
ATOM      3  N   UNL     1      -1.259  -3.538  -0.273  1.00  0.00    -0.352 N 
ATOM      4  C   UNL     1      -1.842  -2.347   0.078  1.00  0.00     0.252 C 
ATOM      5  O   UNL     1      -3.035  -2.437   0.372  1.00  0.00    -0.269 OA
ATOM      6  H   UNL     1      -1.916  -4.236  -0.495  1.00  0.00     0.163 HD
BRANCH   4   7
ATOM      7  C   UNL     1      -1.149  -1.015   0.124  1.00  0.00     0.052 A 
ATOM      8  C   UNL     1       0.878   0.304   0.248  1.00  0.00     0.124 A 
ATOM      9  C   UNL     1       0.236  -0.922   0.312  1.00  0.00     0.061 A 
ATOM     10  N   UNL     1       0.215   1.449   0.090  1.00  0.00    -0.239 NA
ATOM     11  C   UNL     1      -1.131   1.370  -0.002  1.00  0.00     0.123 A 
ATOM     12  C   UNL     1      -1.884   0.189   0.003  1.00  0.00     0.017 A 
BRANCH   8  13
ATOM     13  N   UNL     1       2.246   0.396   0.407  1.00  0.00    -0.384 N 
ATOM     14  H   UNL     1       2.783  -0.420   0.528  1.00  0.00     0.158 HD
ATOM     15  H   UNL     1       2.684   1.278   0.400  1.00  0.00     0.158 HD
ENDBRANCH   8  13
BRANCH  12  16
ATOM     16  C   UNL     1      -3.355   0.332  -0.077  1.00  0.00     0.026 A 
ATOM     17  C   UNL     1      -3.956   0.886  -1.224  1.00  0.00     0.015 A 
ATOM     18  C   UNL     1      -4.205   0.028   1.006  1.00  0.00     0.126 A 
ATOM     19  C   UNL     1      -5.337   1.109  -1.276  1.00  0.00     0.040 A 
ATOM     20  C   UNL     1      -5.577   0.250   0.967  1.00  0.00     0.086 A 
ATOM     21  C   UNL     1      -6.132   0.788  -0.182  1.00  0.00     0.126 A 
ATOM     22  F   UNL     1      -7.454   0.995  -0.243  1.00  0.00    -0.207 F 
BRANCH  18  23
ATOM     23  O   UNL     1      -3.716  -0.581   2.131  1.00  0.00    -0.507 OA
ATOM     24  H   UNL     1      -2.798  -0.754   2.209  1.00  0.00     0.293 HD
ENDBRANCH  18  23
ENDBRANCH  12  16
ENDBRANCH   4   7
ENDBRANCH   2   3
ENDBRANCH   1   2
BRANCH   1  25
ATOM     25  C   UNL     1       0.059  -5.790   1.456  1.00  0.00     0.023 C 
BRANCH  25  26
ATOM     26  C   UNL     1       0.366  -6.977   0.548  1.00  0.00     0.116 C 
BRANCH  26  27
ATOM     27  N   UNL     1       1.786  -7.140   0.281  1.00  0.00    -0.352 N 
ATOM     28  C   UNL     1       2.482  -8.292   0.008  1.00  0.00     0.251 C 
ATOM     29  H   UNL     1       2.320  -6.313   0.298  1.00  0.00     0.163 HD
ATOM     30  O   UNL     1       3.701  -8.268  -0.097  1.00  0.00    -0.269 OA
BRANCH  28  31
ATOM     31  C   UNL     1       1.749  -9.568  -0.113  1.00  0.00     0.039 A 
ATOM     32  C   UNL     1       2.200 -10.668   0.620  1.00  0.00     0.014 A 
ATOM     33  C   UNL     1       0.616  -9.670  -0.923  1.00  0.00     0.014 A 
ATOM     34  C   UNL     1       1.473 -11.858   0.592  1.00  0.00     0.010 A 
ATOM     35  C   UNL     1      -0.140 -10.838  -0.903  1.00  0.00     0.010 A 
ATOM     36  C   UNL     1       0.280 -11.941  -0.143  1.00  0.00    -0.014 A 
BRANCH  36  37
ATOM     37  C   UNL     1      -0.549 -13.170  -0.122  1.00  0.00     0.031 A 
ATOM     38  C   UNL     1      -0.728 -13.981  -1.373  1.00  0.00     0.074 A 
ATOM     39  C   UNL     1      -1.193 -13.516   1.010  1.00  0.00     0.049 A 
ATOM     40  N   UNL     1      -1.470 -15.041  -1.571  1.00  0.00    -0.248 NA
ATOM     41  C   UNL     1       0.002 -13.526  -2.567  1.00  0.00     0.031 C 
ATOM     42  C   UNL     1      -1.136 -12.781   2.275  1.00  0.00     0.029 A 
ATOM     43  N   UNL     1      -2.032 -14.568   1.274  1.00  0.00    -0.354 N 
ATOM     44  C   UNL     1      -1.306 -15.370  -2.910  1.00  0.00     0.074 A 
ATOM     45  C   UNL     1      -0.435 -14.371  -3.489  1.00  0.00     0.031 C 
ATOM     46  C   UNL     1      -1.893 -13.415   3.186  1.00  0.00     0.029 A 
ATOM     47  C   UNL     1      -2.512 -14.580   2.561  1.00  0.00     0.049 A 
ATOM     48  H   UNL     1      -2.267 -15.251   0.605  1.00  0.00     0.167 HD
ATOM     49  C   UNL     1      -1.819 -16.423  -3.590  1.00  0.00     0.037 A 
ATOM     50  C   UNL     1      -3.361 -15.431   3.166  1.00  0.00     0.037 A 
ATOM     51  C   UNL     1      -2.663 -17.431  -3.005  1.00  0.00     0.049 A 
ATOM     52  C   UNL     1      -3.913 -16.594   2.389  1.00  0.00     0.074 A 
ATOM     53  C   UNL     1      -3.186 -18.568  -3.596  1.00  0.00     0.029 A 
ATOM     54  N   UNL     1      -3.107 -17.422  -1.691  1.00  0.00    -0.354 N 
ATOM     55  N   UNL     1      -3.698 -16.929   1.140  1.00  0.00    -0.248 NA
ATOM     56  C   UNL     1      -4.819 -17.500   3.108  1.00  0.00     0.031 C 
ATOM     57  C   UNL     1      -3.974 -19.230  -2.649  1.00  0.00     0.029 A 
ATOM     58  C   UNL     1      -3.910 -18.526  -1.457  1.00  0.00     0.049 A 
ATOM     59  H   UNL     1      -2.885 -16.733  -1.024  1.00  0.00     0.167 HD
ATOM     60  C   UNL     1      -4.420 -18.097   0.931  1.00  0.00     0.074 A 
ATOM     61  C   UNL     1      -5.067 -18.419   2.186  1.00  0.00     0.031 C 
ATOM     62  C   UNL     1      -4.537 -18.836  -0.199  1.00  0.00     0.037 A 
BRANCH  49  63
ATOM     63  C   UNL     1      -1.470 -16.543  -5.044  1.00  0.00     0.057 A 
ATOM     64  C   UNL     1      -0.183 -16.904  -5.464  1.00  0.00     0.134 A 
ATOM     65  C   UNL     1      -2.438 -16.332  -6.033  1.00  0.00     0.134 A 
ATOM     66  F   UNL     1       0.793 -17.107  -4.566  1.00  0.00    -0.206 F 
ATOM     67  C   UNL     1       0.134 -17.029  -6.817  1.00  0.00     0.040 A 
ATOM     68  C   UNL     1      -2.139 -16.478  -7.389  1.00  0.00     0.040 A 
ATOM     69  F   UNL     1      -3.691 -15.988  -5.699  1.00  0.00    -0.206 F 
ATOM     70  C   UNL     1      -0.848 -16.823  -7.784  1.00  0.00     0.006 A 
ENDBRANCH  49  63
BRANCH  50  71
ATOM     71  C   UNL     1      -3.727 -15.232   4.590  1.00  0.00     0.057 A 
ATOM     72  C   UNL     1      -3.262 -16.103   5.582  1.00  0.00     0.134 A 
ATOM     73  C   UNL     1      -4.559 -14.180   4.993  1.00  0.00     0.134 A 
ATOM     74  F   UNL     1      -2.477 -17.140   5.254  1.00  0.00    -0.206 F 
ATOM     75  C   UNL     1      -3.628 -15.950   6.920  1.00  0.00     0.040 A 
ATOM     76  C   UNL     1      -4.914 -14.001   6.331  1.00  0.00     0.040 A 
ATOM     77  F   UNL     1      -5.031 -13.307   4.091  1.00  0.00    -0.206 F 
ATOM     78  C   UNL     1      -4.454 -14.893   7.298  1.00  0.00     0.006 A 
ENDBRANCH  50  71
BRANCH  62  79
ATOM     79  C   UNL     1      -5.369 -20.081  -0.119  1.00  0.00     0.057 A 
ATOM     80  C   UNL     1      -6.767 -20.032  -0.056  1.00  0.00     0.134 A 
ATOM     81  C   UNL     1      -4.764 -21.344  -0.142  1.00  0.00     0.134 A 
ATOM     82  F   UNL     1      -7.405 -18.852  -0.017  1.00  0.00    -0.206 F 
ATOM     83  C   UNL     1      -7.534 -21.196   0.000  1.00  0.00     0.040 A 
ATOM     84  C   UNL     1      -5.521 -22.515  -0.111  1.00  0.00     0.040 A 
ATOM     85  F   UNL     1      -3.429 -21.459  -0.209  1.00  0.00    -0.206 F 
ATOM     86  C   UNL     1      -6.911 -22.442  -0.034  1.00  0.00     0.006 A 
ENDBRANCH  62  79
ENDBRANCH  36  37
ENDBRANCH  28  31
ENDBRANCH  26  27
ENDBRANCH  25  26
ENDBRANCH   1  25
TORSDOF 14
