REMARK SMILES O=C(NCCCCNC(=O)c1sccc1Oc1ccc(NS(=O)(=O)Cc2ccccc2)cc1)c1ccc(-c2c3nc(c(-c4c(F)cccc4F)c4ccc([nH]4)c(-c4c(F)cccc4F)c4nc(c(-c5c(F)cccc5F)c5ccc2[nH]5)C=C4)C=C3)cc1
REMARK SMILES IDX 8 1 9 2 10 3 7 5 6 6 5 7 4 8 3 9 1 10 2 11 34 13 35 14 87 15
REMARK SMILES IDX 36 16 86 17 37 18 38 19 39 20 80 21 40 22 85 23 79 24 81 25
REMARK SMILES IDX 41 26 84 27 78 28 77 29 42 31 68 32 51 33 67 34 52 35 55 36
REMARK SMILES IDX 66 37 82 38 53 39 54 40 65 42 83 43 56 44 43 45 44 46 49 47
REMARK SMILES IDX 45 48 46 49 48 50 50 51 47 52 69 53 70 54 75 55 71 56 72 57
REMARK SMILES IDX 74 58 76 59 73 60 57 61 58 62 63 63 59 64 60 65 62 66 64 67
REMARK SMILES IDX 61 68 11 69 12 70 15 71 13 72 14 73 16 74 17 75 18 76 33 77
REMARK SMILES IDX 19 78 32 79 20 80 21 81 22 83 23 84 24 85 25 86 26 87 27 88
REMARK SMILES IDX 31 89 28 90 30 91 29 92
REMARK H PARENT 8 4 3 12 81 30 55 41 21 82
REMARK Flexibility Score: inf
ROOT
ATOM      1  N   UNL     1       6.229   4.526  -0.704  1.00  0.00    -0.351 N 
ATOM      2  C   UNL     1       6.973   5.532  -0.120  1.00  0.00     0.265 C 
ATOM      3  O   UNL     1       8.176   5.341   0.053  1.00  0.00    -0.268 OA
ATOM      4  H   UNL     1       6.741   3.760  -1.052  1.00  0.00     0.163 HD
ENDROOT
BRANCH   1   5
ATOM      5  C   UNL     1       4.789   4.454  -0.871  1.00  0.00     0.116 C 
BRANCH   5   6
ATOM      6  C   UNL     1       4.354   3.815  -2.184  1.00  0.00     0.023 C 
BRANCH   6   7
ATOM      7  C   UNL     1       4.834   2.381  -2.418  1.00  0.00     0.023 C 
BRANCH   7   8
ATOM      8  C   UNL     1       4.552   1.365  -1.313  1.00  0.00     0.116 C 
BRANCH   8   9
ATOM      9  N   UNL     1       3.135   1.167  -1.037  1.00  0.00    -0.352 N 
ATOM     10  O   UNL     1       1.188   0.103  -0.708  1.00  0.00    -0.269 OA
ATOM     11  C   UNL     1       2.406   0.013  -0.853  1.00  0.00     0.251 C 
ATOM     12  H   UNL     1       2.611   1.998  -0.970  1.00  0.00     0.163 HD
BRANCH  11  13
ATOM     13  C   UNL     1       3.040  -1.332  -0.814  1.00  0.00     0.039 A 
ATOM     14  C   UNL     1       4.300  -1.528  -0.254  1.00  0.00     0.014 A 
ATOM     15  C   UNL     1       2.333  -2.447  -1.284  1.00  0.00     0.014 A 
ATOM     16  C   UNL     1       4.897  -2.782  -0.231  1.00  0.00     0.010 A 
ATOM     17  C   UNL     1       2.918  -3.721  -1.250  1.00  0.00     0.010 A 
ATOM     18  C   UNL     1       4.215  -3.887  -0.743  1.00  0.00    -0.014 A 
BRANCH  18  19
ATOM     19  C   UNL     1       4.922  -5.185  -0.779  1.00  0.00     0.031 A 
ATOM     20  C   UNL     1       5.603  -5.619  -2.042  1.00  0.00     0.074 A 
ATOM     21  C   UNL     1       5.059  -5.898   0.354  1.00  0.00     0.049 A 
ATOM     22  N   UNL     1       6.340  -6.677  -2.264  1.00  0.00    -0.248 NA
ATOM     23  C   UNL     1       5.452  -4.733  -3.208  1.00  0.00     0.031 C 
ATOM     24  C   UNL     1       4.510  -5.521   1.657  1.00  0.00     0.029 A 
ATOM     25  N   UNL     1       5.724  -7.072   0.597  1.00  0.00    -0.354 N 
ATOM     26  C   UNL     1       6.748  -6.581  -3.587  1.00  0.00     0.074 A 
ATOM     27  C   UNL     1       6.160  -5.374  -4.127  1.00  0.00     0.031 C 
ATOM     28  C   UNL     1       4.872  -6.441   2.566  1.00  0.00     0.029 A 
ATOM     29  C   UNL     1       5.644  -7.488   1.903  1.00  0.00     0.049 A 
ATOM     30  H   UNL     1       6.213  -7.569  -0.099  1.00  0.00     0.167 HD
ATOM     31  C   UNL     1       7.546  -7.423  -4.284  1.00  0.00     0.037 A 
ATOM     32  C   UNL     1       6.127  -8.599   2.490  1.00  0.00     0.037 A 
ATOM     33  C   UNL     1       8.113  -8.630  -3.744  1.00  0.00     0.049 A 
ATOM     34  C   UNL     1       6.922  -9.572   1.662  1.00  0.00     0.074 A 
ATOM     35  C   UNL     1       8.903  -9.573  -4.377  1.00  0.00     0.029 A 
ATOM     36  N   UNL     1       7.941  -9.064  -2.437  1.00  0.00    -0.354 N 
ATOM     37  N   UNL     1       7.292  -9.480   0.407  1.00  0.00    -0.248 NA
ATOM     38  C   UNL     1       7.362 -10.806   2.328  1.00  0.00     0.031 C 
ATOM     39  C   UNL     1       9.171 -10.600  -3.466  1.00  0.00     0.029 A 
ATOM     40  C   UNL     1       8.587 -10.274  -2.252  1.00  0.00     0.049 A 
ATOM     41  H   UNL     1       7.434  -8.582  -1.744  1.00  0.00     0.167 HD
ATOM     42  C   UNL     1       8.025 -10.628   0.140  1.00  0.00     0.074 A 
ATOM     43  C   UNL     1       8.061 -11.395   1.369  1.00  0.00     0.031 C 
ATOM     44  C   UNL     1       8.614 -11.016  -1.018  1.00  0.00     0.037 A 
BRANCH  31  45
ATOM     45  C   UNL     1       7.813  -7.087  -5.720  1.00  0.00     0.057 A 
ATOM     46  C   UNL     1       8.688  -6.058  -6.090  1.00  0.00     0.134 A 
ATOM     47  C   UNL     1       7.202  -7.818  -6.747  1.00  0.00     0.134 A 
ATOM     48  F   UNL     1       9.291  -5.309  -5.154  1.00  0.00    -0.206 F 
ATOM     49  C   UNL     1       8.934  -5.758  -7.431  1.00  0.00     0.040 A 
ATOM     50  C   UNL     1       7.455  -7.540  -8.091  1.00  0.00     0.040 A 
ATOM     51  F   UNL     1       6.353  -8.816  -6.459  1.00  0.00    -0.206 F 
ATOM     52  C   UNL     1       8.320  -6.504  -8.436  1.00  0.00     0.006 A 
ENDBRANCH  31  45
BRANCH  32  53
ATOM     53  C   UNL     1       5.846  -8.871   3.923  1.00  0.00     0.057 A 
ATOM     54  C   UNL     1       6.867  -8.887   4.880  1.00  0.00     0.134 A 
ATOM     55  C   UNL     1       4.546  -9.154   4.364  1.00  0.00     0.134 A 
ATOM     56  F   UNL     1       8.136  -8.649   4.518  1.00  0.00    -0.206 F 
ATOM     57  C   UNL     1       6.609  -9.191   6.219  1.00  0.00     0.040 A 
ATOM     58  C   UNL     1       4.271  -9.434   5.703  1.00  0.00     0.040 A 
ATOM     59  F   UNL     1       3.523  -9.159   3.497  1.00  0.00    -0.206 F 
ATOM     60  C   UNL     1       5.306  -9.461   6.634  1.00  0.00     0.006 A 
ENDBRANCH  32  53
BRANCH  44  61
ATOM     61  C   UNL     1       9.367 -12.313  -1.000  1.00  0.00     0.057 A 
ATOM     62  C   UNL     1       8.706 -13.547  -0.969  1.00  0.00     0.134 A 
ATOM     63  C   UNL     1      10.766 -12.326  -1.058  1.00  0.00     0.134 A 
ATOM     64  F   UNL     1       7.367 -13.601  -0.900  1.00  0.00    -0.206 F 
ATOM     65  C   UNL     1       9.413 -14.751  -0.977  1.00  0.00     0.040 A 
ATOM     66  C   UNL     1      11.482 -13.523  -1.091  1.00  0.00     0.040 A 
ATOM     67  F   UNL     1      11.457 -11.177  -1.098  1.00  0.00    -0.206 F 
ATOM     68  C   UNL     1      10.805 -14.740  -1.045  1.00  0.00     0.006 A 
ENDBRANCH  44  61
ENDBRANCH  18  19
ENDBRANCH  11  13
ENDBRANCH   8   9
ENDBRANCH   7   8
ENDBRANCH   6   7
ENDBRANCH   5   6
ENDBRANCH   1   5
BRANCH   2  69
ATOM     69  C   UNL     1       6.302   6.756   0.253  1.00  0.00     0.135 A 
ATOM     70  S   UNL     1       6.106   7.949  -0.970  1.00  0.00    -0.135 S 
ATOM     71  C   UNL     1       5.839   7.206   1.478  1.00  0.00     0.151 A 
ATOM     72  C   UNL     1       5.342   9.028   0.110  1.00  0.00     0.069 A 
ATOM     73  C   UNL     1       5.257   8.506   1.380  1.00  0.00     0.059 A 
BRANCH  71  74
ATOM     74  O   UNL     1       5.923   6.587   2.685  1.00  0.00    -0.456 OA
BRANCH  74  75
ATOM     75  C   UNL     1       6.144   5.245   2.808  1.00  0.00     0.127 A 
ATOM     76  C   UNL     1       5.160   4.335   2.452  1.00  0.00     0.049 A 
ATOM     77  C   UNL     1       7.331   4.803   3.381  1.00  0.00     0.049 A 
ATOM     78  C   UNL     1       5.398   2.969   2.600  1.00  0.00     0.030 A 
ATOM     79  C   UNL     1       7.519   3.438   3.620  1.00  0.00     0.030 A 
ATOM     80  C   UNL     1       6.545   2.510   3.241  1.00  0.00     0.049 A 
BRANCH  80  81
ATOM     81  N   UNL     1       6.637   1.184   3.764  1.00  0.00    -0.283 N 
ATOM     82  H   UNL     1       7.014   1.067   4.666  1.00  0.00     0.180 HD
BRANCH  81  83
ATOM     83  S   UNL     1       6.145  -0.171   2.937  1.00  0.00     0.236 S 
ATOM     84  O   UNL     1       6.535   0.005   1.552  1.00  0.00    -0.206 OA
ATOM     85  O   UNL     1       6.687  -1.283   3.695  1.00  0.00    -0.206 OA
BRANCH  83  86
ATOM     86  C   UNL     1       4.335  -0.289   3.027  1.00  0.00     0.195 C 
BRANCH  86  87
ATOM     87  C   UNL     1       3.742   0.350   4.252  1.00  0.00    -0.031 A 
ATOM     88  C   UNL     1       2.920   1.484   4.126  1.00  0.00     0.005 A 
ATOM     89  C   UNL     1       3.949  -0.186   5.526  1.00  0.00     0.005 A 
ATOM     90  C   UNL     1       2.414   2.135   5.249  1.00  0.00     0.000 A 
ATOM     91  C   UNL     1       3.406   0.442   6.649  1.00  0.00     0.000 A 
ATOM     92  C   UNL     1       2.662   1.614   6.513  1.00  0.00     0.000 A 
ENDBRANCH  86  87
ENDBRANCH  83  86
ENDBRANCH  81  83
ENDBRANCH  80  81
ENDBRANCH  74  75
ENDBRANCH  71  74
ENDBRANCH   2  69
TORSDOF 17
