REMARK SMILES O=C(NCCCCNC(=O)c1cc(Cl)ncc1-c1cccc(C(F)(F)F)c1)c1ccc(-c2c3nc(c(-c4c(F)cccc4F)c4ccc([nH]4)c(-c4c(F)cccc4F)c4nc(c(-c5c(F)cccc5F)c5ccc2[nH]5)C=C4)C=C3)cc1
REMARK SMILES IDX 5 1 4 2 3 3 1 4 2 5 28 7 29 8 81 9 30 10 80 11 31 12 32 13
REMARK SMILES IDX 33 14 74 15 34 16 79 17 73 18 75 19 35 20 78 21 72 22 71 23
REMARK SMILES IDX 36 25 62 26 45 27 61 28 46 29 49 30 60 31 76 32 47 33 48 34
REMARK SMILES IDX 59 36 77 37 50 38 37 39 38 40 43 41 39 42 40 43 42 44 44 45
REMARK SMILES IDX 41 46 63 47 64 48 69 49 65 50 66 51 68 52 70 53 67 54 51 55
REMARK SMILES IDX 52 56 57 57 53 58 54 59 56 60 58 61 55 62 6 63 7 64 8 65
REMARK SMILES IDX 9 66 10 68 11 69 12 70 17 71 13 72 16 73 14 74 15 75 18 76
REMARK SMILES IDX 19 77 27 78 20 79 22 80 21 81 23 82 24 83 25 84 26 85
REMARK H PARENT 3 6 75 24 49 35 8 67
REMARK Flexibility Score: inf
ROOT
ATOM      1  C   UNL     1       5.010  -1.744  -2.097  1.00  0.00     0.023 C 
ENDROOT
BRANCH   1   2
ATOM      2  C   UNL     1       4.657  -0.463  -1.352  1.00  0.00     0.116 C 
BRANCH   2   3
ATOM      3  N   UNL     1       3.224  -0.255  -1.213  1.00  0.00    -0.352 N 
ATOM      4  O   UNL     1       1.251  -0.021  -0.143  1.00  0.00    -0.269 OA
ATOM      5  C   UNL     1       2.476  -0.059  -0.076  1.00  0.00     0.251 C 
ATOM      6  H   UNL     1       2.715  -0.254  -2.057  1.00  0.00     0.163 HD
BRANCH   5   7
ATOM      7  C   UNL     1       3.147   0.073   1.236  1.00  0.00     0.039 A 
ATOM      8  C   UNL     1       4.272   0.885   1.383  1.00  0.00     0.014 A 
ATOM      9  C   UNL     1       2.643  -0.632   2.333  1.00  0.00     0.014 A 
ATOM     10  C   UNL     1       4.984   0.869   2.577  1.00  0.00     0.010 A 
ATOM     11  C   UNL     1       3.309  -0.576   3.561  1.00  0.00     0.010 A 
ATOM     12  C   UNL     1       4.505   0.148   3.683  1.00  0.00    -0.014 A 
BRANCH  12  13
ATOM     13  C   UNL     1       5.241   0.223   4.971  1.00  0.00     0.031 A 
ATOM     14  C   UNL     1       5.891  -0.991   5.574  1.00  0.00     0.074 A 
ATOM     15  C   UNL     1       5.342   1.418   5.584  1.00  0.00     0.049 A 
ATOM     16  N   UNL     1       6.585  -1.087   6.680  1.00  0.00    -0.248 NA
ATOM     17  C   UNL     1       5.738  -2.262   4.850  1.00  0.00     0.031 C 
ATOM     18  C   UNL     1       4.739   2.664   5.103  1.00  0.00     0.029 A 
ATOM     19  N   UNL     1       5.997   1.788   6.730  1.00  0.00    -0.354 N 
ATOM     20  C   UNL     1       6.934  -2.427   6.797  1.00  0.00     0.074 A 
ATOM     21  C   UNL     1       6.357  -3.111   5.660  1.00  0.00     0.031 C 
ATOM     22  C   UNL     1       5.087   3.666   5.922  1.00  0.00     0.029 A 
ATOM     23  C   UNL     1       5.886   3.126   7.016  1.00  0.00     0.049 A 
ATOM     24  H   UNL     1       6.500   1.155   7.293  1.00  0.00     0.167 HD
ATOM     25  C   UNL     1       7.673  -3.026   7.762  1.00  0.00     0.037 A 
ATOM     26  C   UNL     1       6.357   3.841   8.053  1.00  0.00     0.037 A 
ATOM     27  C   UNL     1       8.262  -2.335   8.882  1.00  0.00     0.049 A 
ATOM     28  C   UNL     1       7.162   3.150   9.111  1.00  0.00     0.074 A 
ATOM     29  C   UNL     1       9.066  -2.849   9.886  1.00  0.00     0.029 A 
ATOM     30  N   UNL     1       8.107  -0.983   9.150  1.00  0.00    -0.354 N 
ATOM     31  N   UNL     1       7.515   1.890   9.187  1.00  0.00    -0.248 NA
ATOM     32  C   UNL     1       7.633   3.977  10.230  1.00  0.00     0.031 C 
ATOM     33  C   UNL     1       9.359  -1.818  10.784  1.00  0.00     0.029 A 
ATOM     34  C   UNL     1       8.778  -0.651  10.316  1.00  0.00     0.049 A 
ATOM     35  H   UNL     1       7.595  -0.353   8.593  1.00  0.00     0.167 HD
ATOM     36  C   UNL     1       8.258   1.774  10.353  1.00  0.00     0.074 A 
ATOM     37  C   UNL     1       8.323   3.097  10.940  1.00  0.00     0.031 C 
ATOM     38  C   UNL     1       8.830   0.669  10.890  1.00  0.00     0.037 A 
BRANCH  25  39
ATOM     39  C   UNL     1       7.879  -4.510   7.664  1.00  0.00     0.057 A 
ATOM     40  C   UNL     1       8.732  -5.080   6.712  1.00  0.00     0.134 A 
ATOM     41  C   UNL     1       7.258  -5.376   8.575  1.00  0.00     0.134 A 
ATOM     42  F   UNL     1       9.351  -4.309   5.805  1.00  0.00    -0.206 F 
ATOM     43  C   UNL     1       8.948  -6.459   6.657  1.00  0.00     0.040 A 
ATOM     44  C   UNL     1       7.484  -6.753   8.545  1.00  0.00     0.040 A 
ATOM     45  F   UNL     1       6.435  -4.895   9.519  1.00  0.00    -0.206 F 
ATOM     46  C   UNL     1       8.329  -7.299   7.581  1.00  0.00     0.006 A 
ENDBRANCH  25  39
BRANCH  26  47
ATOM     47  C   UNL     1       6.066   5.293   8.134  1.00  0.00     0.057 A 
ATOM     48  C   UNL     1       7.071   6.246   7.943  1.00  0.00     0.134 A 
ATOM     49  C   UNL     1       4.768   5.761   8.379  1.00  0.00     0.134 A 
ATOM     50  F   UNL     1       8.336   5.859   7.721  1.00  0.00    -0.206 F 
ATOM     51  C   UNL     1       6.800   7.614   8.003  1.00  0.00     0.040 A 
ATOM     52  C   UNL     1       4.478   7.124   8.414  1.00  0.00     0.040 A 
ATOM     53  F   UNL     1       3.760   4.895   8.559  1.00  0.00    -0.206 F 
ATOM     54  C   UNL     1       5.498   8.056   8.232  1.00  0.00     0.006 A 
ENDBRANCH  26  47
BRANCH  38  55
ATOM     55  C   UNL     1       9.593   0.854  12.168  1.00  0.00     0.057 A 
ATOM     56  C   UNL     1       8.944   1.079  13.388  1.00  0.00     0.134 A 
ATOM     57  C   UNL     1      10.992   0.783  12.181  1.00  0.00     0.134 A 
ATOM     58  F   UNL     1       7.606   1.173  13.440  1.00  0.00    -0.206 F 
ATOM     59  C   UNL     1       9.660   1.250  14.574  1.00  0.00     0.040 A 
ATOM     60  C   UNL     1      11.718   0.928  13.364  1.00  0.00     0.040 A 
ATOM     61  F   UNL     1      11.674   0.564  11.047  1.00  0.00    -0.206 F 
ATOM     62  C   UNL     1      11.052   1.169  14.564  1.00  0.00     0.006 A 
ENDBRANCH  38  55
ENDBRANCH  12  13
ENDBRANCH   5   7
ENDBRANCH   2   3
ENDBRANCH   1   2
BRANCH   1  63
ATOM     63  C   UNL     1       4.526  -1.818  -3.543  1.00  0.00     0.023 C 
BRANCH  63  64
ATOM     64  C   UNL     1       4.891  -0.625  -4.420  1.00  0.00     0.116 C 
BRANCH  64  65
ATOM     65  N   UNL     1       6.326  -0.398  -4.508  1.00  0.00    -0.352 N 
ATOM     66  C   UNL     1       7.128  -0.304  -5.620  1.00  0.00     0.252 C 
ATOM     67  H   UNL     1       6.790  -0.298  -3.646  1.00  0.00     0.163 HD
ATOM     68  O   UNL     1       8.332  -0.106  -5.504  1.00  0.00    -0.269 OA
BRANCH  66  69
ATOM     69  C   UNL     1       6.521  -0.430  -6.958  1.00  0.00     0.052 A 
ATOM     70  C   UNL     1       5.559   0.519  -7.319  1.00  0.00     0.055 A 
ATOM     71  C   UNL     1       6.910  -1.444  -7.847  1.00  0.00     0.013 A 
ATOM     72  C   UNL     1       4.945   0.369  -8.541  1.00  0.00     0.129 A 
ATOM     73  C   UNL     1       6.211  -1.476  -9.055  1.00  0.00     0.122 A 
ATOM     74  Cl  UNL     1       3.698   1.435  -9.035  1.00  0.00    -0.062 Cl
ATOM     75  N   UNL     1       5.232  -0.611  -9.414  1.00  0.00    -0.244 NA
BRANCH  71  76
ATOM     76  C   UNL     1       7.982  -2.420  -7.595  1.00  0.00    -0.015 A 
ATOM     77  C   UNL     1       9.104  -2.465  -8.442  1.00  0.00     0.009 A 
ATOM     78  C   UNL     1       7.921  -3.336  -6.532  1.00  0.00     0.021 A 
ATOM     79  C   UNL     1      10.128  -3.391  -8.241  1.00  0.00     0.001 A 
ATOM     80  C   UNL     1       8.951  -4.270  -6.311  1.00  0.00     0.056 A 
ATOM     81  C   UNL     1      10.051  -4.290  -7.181  1.00  0.00     0.013 A 
BRANCH  80  82
ATOM     82  C   UNL     1       8.890  -5.248  -5.164  1.00  0.00     0.416 C 
ATOM     83  F   UNL     1       8.828  -6.540  -5.589  1.00  0.00    -0.166 F 
ATOM     84  F   UNL     1       9.979  -5.174  -4.351  1.00  0.00    -0.166 F 
ATOM     85  F   UNL     1       7.807  -5.072  -4.355  1.00  0.00    -0.166 F 
ENDBRANCH  80  82
ENDBRANCH  71  76
ENDBRANCH  66  69
ENDBRANCH  64  65
ENDBRANCH  63  64
ENDBRANCH   1  63
TORSDOF 13
