REMARK SMILES CS(=O)(=O)c1ccc(-c2cc(Cl)cnc2-c2ccc(C(=O)NCCCCNC(=O)c3ccc(-c4c5nc(c(-c6c(F)cccc6F)c6ccc([nH]6)c(-c6c(F)cccc6F)c6nc(c(-c7c(F)cccc7F)c7ccc4[nH]7)C=C6)C=C5)cc3)nc2)cc1
REMARK SMILES IDX 24 1 23 2 22 3 20 4 21 5 19 7 16 8 17 9 85 10 18 11 84 12
REMARK SMILES IDX 15 13 9 14 10 15 11 16 14 17 12 18 13 19 8 20 5 21 6 22
REMARK SMILES IDX 87 23 7 24 86 25 2 26 1 27 3 28 4 29 25 30 26 31 27 32 28 33
REMARK SMILES IDX 29 35 30 36 31 37 83 38 32 39 82 40 33 41 34 42 35 43 76 44
REMARK SMILES IDX 36 45 81 46 75 47 77 48 37 49 80 50 74 51 73 52 38 54 64 55
REMARK SMILES IDX 47 56 63 57 48 58 51 59 62 60 78 61 49 62 50 63 61 65 79 66
REMARK SMILES IDX 52 67 39 68 40 69 45 70 41 71 42 72 44 73 46 74 43 75 65 76
REMARK SMILES IDX 66 77 71 78 67 79 68 80 70 81 72 82 69 83 53 84 54 85 59 86
REMARK SMILES IDX 55 87 56 88 58 89 60 90 57 91
REMARK H PARENT 22 6 27 34 77 53 51 64
REMARK Flexibility Score: inf
ROOT
ATOM      1  C   UNL     1       6.229  -3.034  -2.341  1.00  0.00     0.023 C 
ENDROOT
BRANCH   1   2
ATOM      2  C   UNL     1       4.708  -2.873  -2.387  1.00  0.00     0.116 C 
BRANCH   2   3
ATOM      3  N   UNL     1       4.106  -3.884  -3.232  1.00  0.00    -0.351 N 
ATOM      4  C   UNL     1       3.540  -5.110  -2.949  1.00  0.00     0.269 C 
ATOM      5  O   UNL     1       3.076  -5.731  -3.906  1.00  0.00    -0.268 OA
ATOM      6  H   UNL     1       4.101  -3.653  -4.189  1.00  0.00     0.163 HD
BRANCH   4   7
ATOM      7  C   UNL     1       3.430  -5.673  -1.555  1.00  0.00     0.128 A 
ATOM      8  C   UNL     1       2.962  -6.685   0.982  1.00  0.00     0.019 A 
ATOM      9  C   UNL     1       4.072  -5.873   0.748  1.00  0.00     0.014 A 
ATOM     10  C   UNL     1       2.184  -7.013  -0.121  1.00  0.00     0.122 A 
ATOM     11  C   UNL     1       4.324  -5.385  -0.532  1.00  0.00     0.035 A 
ATOM     12  N   UNL     1       2.374  -6.508  -1.364  1.00  0.00    -0.250 NA
BRANCH   8  13
ATOM     13  C   UNL     1       2.610  -7.108   2.336  1.00  0.00     0.080 A 
ATOM     14  C   UNL     1       2.009  -6.232   3.266  1.00  0.00     0.010 A 
ATOM     15  C   UNL     1       1.819  -6.718   4.569  1.00  0.00     0.033 A 
ATOM     16  C   UNL     1       2.208  -8.013   4.894  1.00  0.00     0.060 A 
ATOM     17  N   UNL     1       2.980  -8.380   2.637  1.00  0.00    -0.254 NA
ATOM     18  Cl  UNL     1       2.001  -8.612   6.488  1.00  0.00    -0.083 Cl
ATOM     19  C   UNL     1       2.771  -8.802   3.906  1.00  0.00     0.132 A 
BRANCH  14  20
ATOM     20  C   UNL     1       1.597  -4.857   2.920  1.00  0.00    -0.016 A 
ATOM     21  C   UNL     1       0.854  -2.238   2.217  1.00  0.00     0.067 A 
ATOM     22  C   UNL     1       0.228  -3.322   1.602  1.00  0.00     0.021 A 
ATOM     23  C   UNL     1       1.828  -2.442   3.196  1.00  0.00     0.021 A 
ATOM     24  C   UNL     1       0.598  -4.621   1.957  1.00  0.00     0.010 A 
ATOM     25  C   UNL     1       2.197  -3.747   3.540  1.00  0.00     0.010 A 
BRANCH  21  26
ATOM     26  S   UNL     1       0.353  -0.587   1.788  1.00  0.00     0.175 S 
ATOM     27  C   UNL     1       1.078  -0.327   0.190  1.00  0.00     0.163 C 
ATOM     28  O   UNL     1       0.991   0.322   2.716  1.00  0.00    -0.224 OA
ATOM     29  O   UNL     1      -1.092  -0.608   1.634  1.00  0.00    -0.224 OA
ENDBRANCH  21  26
ENDBRANCH  14  20
ENDBRANCH   8  13
ENDBRANCH   4   7
ENDBRANCH   2   3
ENDBRANCH   1   2
BRANCH   1  30
ATOM     30  C   UNL     1       6.963  -2.502  -3.573  1.00  0.00     0.023 C 
BRANCH  30  31
ATOM     31  C   UNL     1       6.829  -1.002  -3.803  1.00  0.00     0.116 C 
BRANCH  31  32
ATOM     32  N   UNL     1       7.281  -0.198  -2.677  1.00  0.00    -0.352 N 
ATOM     33  C   UNL     1       7.810   1.071  -2.706  1.00  0.00     0.251 C 
ATOM     34  H   UNL     1       7.198  -0.612  -1.787  1.00  0.00     0.163 HD
ATOM     35  O   UNL     1       8.228   1.602  -1.684  1.00  0.00    -0.269 OA
BRANCH  33  36
ATOM     36  C   UNL     1       7.912   1.761  -4.005  1.00  0.00     0.039 A 
ATOM     37  C   UNL     1       9.161   2.220  -4.429  1.00  0.00     0.014 A 
ATOM     38  C   UNL     1       6.792   1.870  -4.833  1.00  0.00     0.014 A 
ATOM     39  C   UNL     1       9.305   2.717  -5.724  1.00  0.00     0.010 A 
ATOM     40  C   UNL     1       6.951   2.304  -6.143  1.00  0.00     0.010 A 
ATOM     41  C   UNL     1       8.210   2.720  -6.604  1.00  0.00    -0.014 A 
BRANCH  41  42
ATOM     42  C   UNL     1       8.353   3.137  -8.019  1.00  0.00     0.031 A 
ATOM     43  C   UNL     1       7.624   4.350  -8.519  1.00  0.00     0.074 A 
ATOM     44  C   UNL     1       9.061   2.371  -8.872  1.00  0.00     0.049 A 
ATOM     45  N   UNL     1       7.514   4.805  -9.740  1.00  0.00    -0.248 NA
ATOM     46  C   UNL     1       6.894   5.139  -7.513  1.00  0.00     0.031 C 
ATOM     47  C   UNL     1       9.778   1.145  -8.516  1.00  0.00     0.029 A 
ATOM     48  N   UNL     1       9.276   2.502 -10.220  1.00  0.00    -0.354 N 
ATOM     49  C   UNL     1       6.688   5.917  -9.654  1.00  0.00     0.074 A 
ATOM     50  C   UNL     1       6.288   6.043  -8.269  1.00  0.00     0.031 C 
ATOM     51  C   UNL     1      10.366   0.645  -9.615  1.00  0.00     0.029 A 
ATOM     52  C   UNL     1      10.037   1.492 -10.757  1.00  0.00     0.049 A 
ATOM     53  H   UNL     1       8.920   3.249 -10.753  1.00  0.00     0.167 HD
ATOM     54  C   UNL     1       6.313   6.769 -10.637  1.00  0.00     0.037 A 
ATOM     55  C   UNL     1      10.416   1.269 -12.030  1.00  0.00     0.037 A 
ATOM     56  C   UNL     1       6.737   6.658 -12.008  1.00  0.00     0.049 A 
ATOM     57  C   UNL     1       9.989   2.231 -13.103  1.00  0.00     0.074 A 
ATOM     58  C   UNL     1       6.457   7.503 -13.068  1.00  0.00     0.029 A 
ATOM     59  N   UNL     1       7.534   5.639 -12.506  1.00  0.00    -0.354 N 
ATOM     60  N   UNL     1       9.251   3.309 -12.999  1.00  0.00    -0.248 NA
ATOM     61  C   UNL     1      10.447   1.945 -14.470  1.00  0.00     0.031 C 
ATOM     62  C   UNL     1       7.060   6.977 -14.215  1.00  0.00     0.029 A 
ATOM     63  C   UNL     1       7.747   5.827 -13.861  1.00  0.00     0.049 A 
ATOM     64  H   UNL     1       7.895   4.893 -11.975  1.00  0.00     0.167 HD
ATOM     65  C   UNL     1       9.182   3.847 -14.277  1.00  0.00     0.074 A 
ATOM     66  C   UNL     1       9.959   2.980 -15.139  1.00  0.00     0.031 C 
ATOM     67  C   UNL     1       8.536   4.961 -14.699  1.00  0.00     0.037 A 
BRANCH  54  68
ATOM     68  C   UNL     1       5.402   7.898 -10.258  1.00  0.00     0.057 A 
ATOM     69  C   UNL     1       5.849   8.978  -9.486  1.00  0.00     0.134 A 
ATOM     70  C   UNL     1       4.068   7.916 -10.685  1.00  0.00     0.134 A 
ATOM     71  F   UNL     1       7.111   9.013  -9.033  1.00  0.00    -0.206 F 
ATOM     72  C   UNL     1       4.995  10.023  -9.130  1.00  0.00     0.040 A 
ATOM     73  C   UNL     1       3.212   8.969 -10.357  1.00  0.00     0.040 A 
ATOM     74  F   UNL     1       3.577   6.915 -11.430  1.00  0.00    -0.206 F 
ATOM     75  C   UNL     1       3.674  10.023  -9.571  1.00  0.00     0.006 A 
ENDBRANCH  54  68
BRANCH  55  76
ATOM     76  C   UNL     1      11.268   0.100 -12.358  1.00  0.00     0.057 A 
ATOM     77  C   UNL     1      12.612   0.268 -12.711  1.00  0.00     0.134 A 
ATOM     78  C   UNL     1      10.765  -1.206 -12.333  1.00  0.00     0.134 A 
ATOM     79  F   UNL     1      13.145   1.497 -12.770  1.00  0.00    -0.206 F 
ATOM     80  C   UNL     1      13.421  -0.819 -13.046  1.00  0.00     0.040 A 
ATOM     81  C   UNL     1      11.569  -2.304 -12.645  1.00  0.00     0.040 A 
ATOM     82  F   UNL     1       9.487  -1.433 -11.995  1.00  0.00    -0.206 F 
ATOM     83  C   UNL     1      12.900  -2.110 -13.009  1.00  0.00     0.006 A 
ENDBRANCH  55  76
BRANCH  67  84
ATOM     84  C   UNL     1       8.675   5.328 -16.146  1.00  0.00     0.057 A 
ATOM     85  C   UNL     1       8.000   4.630 -17.154  1.00  0.00     0.134 A 
ATOM     86  C   UNL     1       9.458   6.425 -16.527  1.00  0.00     0.134 A 
ATOM     87  F   UNL     1       7.246   3.562 -16.853  1.00  0.00    -0.206 F 
ATOM     88  C   UNL     1       8.113   5.000 -18.495  1.00  0.00     0.040 A 
ATOM     89  C   UNL     1       9.560   6.818 -17.862  1.00  0.00     0.040 A 
ATOM     90  F   UNL     1      10.124   7.139 -15.608  1.00  0.00    -0.206 F 
ATOM     91  C   UNL     1       8.889   6.102 -18.851  1.00  0.00     0.006 A 
ENDBRANCH  67  84
ENDBRANCH  41  42
ENDBRANCH  33  36
ENDBRANCH  31  32
ENDBRANCH  30  31
ENDBRANCH   1  30
TORSDOF 14
