REMARK SMILES CCN(Cc1cn(CC)nc1C)C(=O)c1ccn([C@@H](C)C(=O)NCCCCNC(=O)c2ccc(-c3c4nc(c(-c5c(F)cccc5F)c5ccc([nH]5)c(-c5c(F)cccc5F)c5nc(c(-c6c(F)cccc6F)c6ccc3[nH]6)C=C5)C=C4)cc2)n1
REMARK SMILES IDX 21 1 22 2 23 3 19 5 20 6 18 7 15 8 16 9 85 10 17 11 13 12
REMARK SMILES IDX 14 13 3 14 2 15 1 16 4 17 5 18 6 19 11 20 7 21 10 22 12 23
REMARK SMILES IDX 8 24 9 25 24 26 25 27 26 28 27 29 28 30 29 31 30 33 31 34
REMARK SMILES IDX 32 35 84 36 33 37 83 38 34 39 35 40 36 41 77 42 37 43 82 44
REMARK SMILES IDX 76 45 78 46 38 47 81 48 75 49 74 50 39 52 65 53 48 54 64 55
REMARK SMILES IDX 49 56 52 57 63 58 79 59 50 60 51 61 62 63 80 64 53 65 40 66
REMARK SMILES IDX 41 67 46 68 42 69 43 70 45 71 47 72 44 73 66 74 67 75 72 76
REMARK SMILES IDX 68 77 69 78 71 79 73 80 70 81 54 82 55 83 60 84 56 85 57 86
REMARK SMILES IDX 59 87 61 88 58 89
REMARK H PARENT 23 4 28 32 78 51 52 62
REMARK Flexibility Score: inf
ROOT
ATOM      1  C   UNL     1       5.563   5.164  -5.101  1.00  0.00     0.244 C 
ATOM      2  O   UNL     1       6.782   4.944  -5.046  1.00  0.00    -0.273 OA
ATOM      3  N   UNL     1       5.229   6.483  -4.981  1.00  0.00    -0.354 N 
ATOM      4  H   UNL     1       6.015   7.056  -4.829  1.00  0.00     0.163 HD
ENDROOT
BRANCH   1   5
ATOM      5  C   UNL     1       4.606   3.987  -5.373  1.00  0.00     0.193 C 
ATOM      6  C   UNL     1       3.950   4.048  -6.747  1.00  0.00     0.044 C 
BRANCH   5   7
ATOM      7  N   UNL     1       3.643   3.783  -4.300  1.00  0.00    -0.260 N 
ATOM      8  C   UNL     1       2.882   3.132  -2.416  1.00  0.00     0.150 A 
ATOM      9  C   UNL     1       2.424   4.433  -2.702  1.00  0.00     0.056 A 
ATOM     10  N   UNL     1       3.720   2.754  -3.415  1.00  0.00    -0.167 NA
ATOM     11  C   UNL     1       2.567   4.567  -4.051  1.00  0.00     0.110 A 
BRANCH   8  12
ATOM     12  C   UNL     1       2.539   2.292  -1.239  1.00  0.00     0.274 C 
ATOM     13  O   UNL     1       3.394   1.609  -0.673  1.00  0.00    -0.267 OA
BRANCH  12  14
ATOM     14  N   UNL     1       1.192   2.283  -0.783  1.00  0.00    -0.333 N 
BRANCH  14  15
ATOM     15  C   UNL     1       0.836   1.416   0.345  1.00  0.00     0.117 C 
ATOM     16  C   UNL     1       0.919  -0.071   0.031  1.00  0.00     0.027 C 
ENDBRANCH  14  15
BRANCH  14  17
ATOM     17  C   UNL     1       0.084   3.009  -1.405  1.00  0.00     0.159 C 
BRANCH  17  18
ATOM     18  C   UNL     1      -0.046   4.442  -0.949  1.00  0.00     0.012 A 
ATOM     19  C   UNL     1      -0.815   5.395  -1.609  1.00  0.00     0.114 A 
ATOM     20  C   UNL     1       0.673   5.218   0.025  1.00  0.00     0.064 A 
ATOM     21  N   UNL     1      -0.467   6.613  -1.103  1.00  0.00    -0.272 N 
ATOM     22  N   UNL     1       0.411   6.527  -0.097  1.00  0.00    -0.178 NA
ATOM     23  C   UNL     1       1.772   4.843   0.954  1.00  0.00     0.069 C 
BRANCH  21  24
ATOM     24  C   UNL     1      -0.773   7.913  -1.675  1.00  0.00     0.141 C 
ATOM     25  C   UNL     1      -1.112   8.969  -0.638  1.00  0.00     0.029 C 
ENDBRANCH  21  24
ENDBRANCH  17  18
ENDBRANCH  14  17
ENDBRANCH  12  14
ENDBRANCH   8  12
ENDBRANCH   5   7
ENDBRANCH   1   5
BRANCH   3  26
ATOM     26  C   UNL     1       3.989   7.246  -5.025  1.00  0.00     0.116 C 
BRANCH  26  27
ATOM     27  C   UNL     1       3.455   7.616  -3.629  1.00  0.00     0.023 C 
BRANCH  27  28
ATOM     28  C   UNL     1       4.029   8.879  -2.973  1.00  0.00     0.023 C 
BRANCH  28  29
ATOM     29  C   UNL     1       3.677  10.192  -3.658  1.00  0.00     0.116 C 
BRANCH  29  30
ATOM     30  N   UNL     1       2.241  10.488  -3.667  1.00  0.00    -0.352 N 
ATOM     31  C   UNL     1       1.583  11.457  -4.411  1.00  0.00     0.251 C 
ATOM     32  H   UNL     1       1.679   9.935  -3.077  1.00  0.00     0.163 HD
ATOM     33  O   UNL     1       0.490  11.887  -4.084  1.00  0.00    -0.269 OA
BRANCH  31  34
ATOM     34  C   UNL     1       2.237  11.927  -5.644  1.00  0.00     0.039 A 
ATOM     35  C   UNL     1       2.342  13.281  -5.974  1.00  0.00     0.014 A 
ATOM     36  C   UNL     1       2.829  10.945  -6.431  1.00  0.00     0.014 A 
ATOM     37  C   UNL     1       3.130  13.639  -7.067  1.00  0.00     0.010 A 
ATOM     38  C   UNL     1       3.748  11.309  -7.373  1.00  0.00     0.010 A 
ATOM     39  C   UNL     1       3.847  12.643  -7.750  1.00  0.00    -0.014 A 
BRANCH  39  40
ATOM     40  C   UNL     1       4.802  12.967  -8.801  1.00  0.00     0.031 A 
ATOM     41  C   UNL     1       5.871  13.920  -8.396  1.00  0.00     0.074 A 
ATOM     42  C   UNL     1       4.862  12.263  -9.955  1.00  0.00     0.049 A 
ATOM     43  N   UNL     1       6.056  15.125  -8.822  1.00  0.00    -0.248 NA
ATOM     44  C   UNL     1       6.755  13.545  -7.279  1.00  0.00     0.031 C 
ATOM     45  C   UNL     1       4.088  11.077 -10.347  1.00  0.00     0.029 A 
ATOM     46  N   UNL     1       5.726  12.401 -10.995  1.00  0.00    -0.354 N 
ATOM     47  C   UNL     1       7.217  15.578  -8.197  1.00  0.00     0.074 A 
ATOM     48  C   UNL     1       7.479  14.656  -7.124  1.00  0.00     0.031 C 
ATOM     49  C   UNL     1       4.678  10.473 -11.401  1.00  0.00     0.029 A 
ATOM     50  C   UNL     1       5.753  11.321 -11.873  1.00  0.00     0.049 A 
ATOM     51  H   UNL     1       6.287  13.200 -11.118  1.00  0.00     0.167 HD
ATOM     52  C   UNL     1       8.006  16.519  -8.787  1.00  0.00     0.037 A 
ATOM     53  C   UNL     1       6.623  11.137 -12.897  1.00  0.00     0.037 A 
ATOM     54  C   UNL     1       7.294  17.199  -9.842  1.00  0.00     0.049 A 
ATOM     55  C   UNL     1       7.212  12.464 -13.210  1.00  0.00     0.074 A 
ATOM     56  C   UNL     1       6.124  17.933  -9.909  1.00  0.00     0.029 A 
ATOM     57  N   UNL     1       7.573  16.837 -11.139  1.00  0.00    -0.354 N 
ATOM     58  N   UNL     1       6.527  13.459 -13.705  1.00  0.00    -0.248 NA
ATOM     59  C   UNL     1       8.431  12.832 -12.505  1.00  0.00     0.031 C 
ATOM     60  C   UNL     1       5.507  17.526 -11.129  1.00  0.00     0.029 A 
ATOM     61  C   UNL     1       6.374  16.642 -11.774  1.00  0.00     0.049 A 
ATOM     62  H   UNL     1       8.468  16.736 -11.537  1.00  0.00     0.167 HD
ATOM     63  C   UNL     1       6.976  14.575 -13.015  1.00  0.00     0.074 A 
ATOM     64  C   UNL     1       8.195  14.136 -12.335  1.00  0.00     0.031 C 
ATOM     65  C   UNL     1       6.168  15.657 -12.811  1.00  0.00     0.037 A 
BRANCH  52  66
ATOM     66  C   UNL     1       9.516  16.550  -8.699  1.00  0.00     0.057 A 
ATOM     67  C   UNL     1      10.209  17.625  -9.290  1.00  0.00     0.134 A 
ATOM     68  C   UNL     1      10.322  15.449  -8.344  1.00  0.00     0.134 A 
ATOM     69  F   UNL     1       9.560  18.734  -9.676  1.00  0.00    -0.206 F 
ATOM     70  C   UNL     1      11.575  17.565  -9.592  1.00  0.00     0.040 A 
ATOM     71  C   UNL     1      11.696  15.401  -8.594  1.00  0.00     0.040 A 
ATOM     72  F   UNL     1       9.820  14.321  -7.831  1.00  0.00    -0.206 F 
ATOM     73  C   UNL     1      12.322  16.445  -9.255  1.00  0.00     0.006 A 
ENDBRANCH  52  66
BRANCH  53  74
ATOM     74  C   UNL     1       7.219   9.868 -13.380  1.00  0.00     0.057 A 
ATOM     75  C   UNL     1       7.882   9.800 -14.614  1.00  0.00     0.134 A 
ATOM     76  C   UNL     1       7.400   8.768 -12.523  1.00  0.00     0.134 A 
ATOM     77  F   UNL     1       7.805  10.818 -15.483  1.00  0.00    -0.206 F 
ATOM     78  C   UNL     1       8.698   8.714 -14.964  1.00  0.00     0.040 A 
ATOM     79  C   UNL     1       8.208   7.676 -12.862  1.00  0.00     0.040 A 
ATOM     80  F   UNL     1       6.872   8.755 -11.290  1.00  0.00    -0.206 F 
ATOM     81  C   UNL     1       8.873   7.653 -14.081  1.00  0.00     0.006 A 
ENDBRANCH  53  74
BRANCH  65  82
ATOM     82  C   UNL     1       4.853  15.716 -13.543  1.00  0.00     0.057 A 
ATOM     83  C   UNL     1       3.802  14.803 -13.363  1.00  0.00     0.134 A 
ATOM     84  C   UNL     1       4.579  16.840 -14.331  1.00  0.00     0.134 A 
ATOM     85  F   UNL     1       3.930  13.748 -12.551  1.00  0.00    -0.206 F 
ATOM     86  C   UNL     1       2.552  14.984 -13.965  1.00  0.00     0.040 A 
ATOM     87  C   UNL     1       3.326  17.049 -14.912  1.00  0.00     0.040 A 
ATOM     88  F   UNL     1       5.516  17.785 -14.506  1.00  0.00    -0.206 F 
ATOM     89  C   UNL     1       2.309  16.115 -14.737  1.00  0.00     0.006 A 
ENDBRANCH  65  82
ENDBRANCH  39  40
ENDBRANCH  31  34
ENDBRANCH  29  30
ENDBRANCH  28  29
ENDBRANCH  27  28
ENDBRANCH  26  27
ENDBRANCH   3  26
TORSDOF 18
