REMARK SMILES O=C(NCCCCNC(=O)c1ccc(-c2c3nc(c(-c4c(F)cccc4F)c4ccc([nH]4)c(-c4c(F)cccc4F)c4nc(c(-c5c(F)cccc5F)c5ccc2[nH]5)C=C4)C=C3)cc1)c1ccc(N[C@H]2OC[C@@H](O)[C@@H](O)[C@H]2O)cc1
REMARK SMILES IDX 5 1 4 2 3 3 1 4 2 5 65 7 66 8 80 9 67 10 79 11 68 12 69 13
REMARK SMILES IDX 70 15 71 16 77 17 72 18 75 19 73 20 78 21 76 23 74 25 6 27
REMARK SMILES IDX 7 28 8 29 9 30 10 32 11 33 12 34 64 35 13 36 63 37 14 38
REMARK SMILES IDX 15 39 16 40 57 41 17 42 62 43 56 44 58 45 18 46 61 47 55 48
REMARK SMILES IDX 54 49 19 51 45 52 28 53 44 54 29 55 32 56 43 57 59 58 30 59
REMARK SMILES IDX 31 60 42 62 60 63 33 64 20 65 21 66 26 67 22 68 23 69 25 70
REMARK SMILES IDX 27 71 24 72 46 73 47 74 52 75 48 76 49 77 51 78 53 79 50 80
REMARK SMILES IDX 34 81 35 82 40 83 36 84 37 85 39 86 41 87 38 88
REMARK H PARENT 3 6 69 14 78 22 76 24 74 26 8 31 58 50 32 61
REMARK Flexibility Score: inf
ROOT
ATOM      1  C   UNL     1       0.570   7.032  -8.102  1.00  0.00     0.023 C 
ENDROOT
BRANCH   1   2
ATOM      2  C   UNL     1       0.975   5.589  -8.386  1.00  0.00     0.116 C 
BRANCH   2   3
ATOM      3  N   UNL     1       1.560   5.430  -9.708  1.00  0.00    -0.352 N 
ATOM      4  O   UNL     1       3.225   5.163 -11.211  1.00  0.00    -0.269 OA
ATOM      5  C   UNL     1       2.840   5.068 -10.047  1.00  0.00     0.251 C 
ATOM      6  H   UNL     1       0.955   5.607 -10.464  1.00  0.00     0.163 HD
BRANCH   5   7
ATOM      7  C   UNL     1       3.759   4.579  -9.003  1.00  0.00     0.039 A 
ATOM      8  C   UNL     1       3.376   3.545  -8.151  1.00  0.00     0.016 A 
ATOM      9  C   UNL     1       5.023   5.151  -8.881  1.00  0.00     0.016 A 
ATOM     10  C   UNL     1       4.221   3.155  -7.112  1.00  0.00     0.026 A 
ATOM     11  C   UNL     1       5.870   4.734  -7.849  1.00  0.00     0.026 A 
ATOM     12  C   UNL     1       5.472   3.755  -6.925  1.00  0.00     0.036 A 
BRANCH  12  13
ATOM     13  N   UNL     1       6.358   3.375  -5.931  1.00  0.00    -0.358 N 
ATOM     14  H   UNL     1       7.258   3.775  -5.939  1.00  0.00     0.163 HD
BRANCH  13  15
ATOM     15  C   UNL     1       6.045   2.424  -4.875  1.00  0.00     0.244 C 
ATOM     16  O   UNL     1       5.710   1.168  -5.470  1.00  0.00    -0.353 OA
ATOM     17  C   UNL     1       7.310   2.225  -4.007  1.00  0.00     0.195 C 
ATOM     18  C   UNL     1       5.341   0.174  -4.508  1.00  0.00     0.197 C 
ATOM     19  C   UNL     1       7.030   1.157  -2.943  1.00  0.00     0.178 C 
ATOM     20  C   UNL     1       6.512  -0.143  -3.577  1.00  0.00     0.171 C 
BRANCH  17  21
ATOM     21  O   UNL     1       8.405   1.784  -4.850  1.00  0.00    -0.386 OA
ATOM     22  H   UNL     1       8.166   0.947  -5.279  1.00  0.00     0.211 HD
ENDBRANCH  17  21
BRANCH  19  23
ATOM     23  O   UNL     1       8.216   0.899  -2.189  1.00  0.00    -0.387 OA
ATOM     24  H   UNL     1       8.908   0.562  -2.779  1.00  0.00     0.211 HD
ENDBRANCH  19  23
BRANCH  20  25
ATOM     25  O   UNL     1       7.557  -0.785  -4.322  1.00  0.00    -0.388 OA
ATOM     26  H   UNL     1       7.859  -0.194  -5.030  1.00  0.00     0.211 HD
ENDBRANCH  20  25
ENDBRANCH  13  15
ENDBRANCH  12  13
ENDBRANCH   5   7
ENDBRANCH   2   3
ENDBRANCH   1   2
BRANCH   1  27
ATOM     27  C   UNL     1      -0.499   7.598  -9.034  1.00  0.00     0.023 C 
BRANCH  27  28
ATOM     28  C   UNL     1      -1.768   6.763  -9.152  1.00  0.00     0.116 C 
BRANCH  28  29
ATOM     29  N   UNL     1      -2.450   6.582  -7.881  1.00  0.00    -0.352 N 
ATOM     30  C   UNL     1      -3.778   6.751  -7.573  1.00  0.00     0.251 C 
ATOM     31  H   UNL     1      -1.878   6.296  -7.132  1.00  0.00     0.163 HD
ATOM     32  O   UNL     1      -4.148   6.679  -6.404  1.00  0.00    -0.269 OA
BRANCH  30  33
ATOM     33  C   UNL     1      -4.760   7.045  -8.640  1.00  0.00     0.039 A 
ATOM     34  C   UNL     1      -5.746   8.006  -8.400  1.00  0.00     0.014 A 
ATOM     35  C   UNL     1      -4.726   6.373  -9.865  1.00  0.00     0.014 A 
ATOM     36  C   UNL     1      -6.667   8.322  -9.401  1.00  0.00     0.010 A 
ATOM     37  C   UNL     1      -5.586   6.753 -10.892  1.00  0.00     0.010 A 
ATOM     38  C   UNL     1      -6.581   7.716 -10.665  1.00  0.00    -0.014 A 
BRANCH  38  39
ATOM     39  C   UNL     1      -7.556   8.040 -11.740  1.00  0.00     0.031 A 
ATOM     40  C   UNL     1      -8.472   6.968 -12.272  1.00  0.00     0.074 A 
ATOM     41  C   UNL     1      -7.602   9.283 -12.257  1.00  0.00     0.049 A 
ATOM     42  N   UNL     1      -9.360   7.039 -13.232  1.00  0.00    -0.248 NA
ATOM     43  C   UNL     1      -8.356   5.633 -11.663  1.00  0.00     0.031 C 
ATOM     44  C   UNL     1      -6.738  10.399 -11.866  1.00  0.00     0.029 A 
ATOM     45  N   UNL     1      -8.409   9.816 -13.231  1.00  0.00    -0.354 N 
ATOM     46  C   UNL     1      -9.904   5.765 -13.337  1.00  0.00     0.074 A 
ATOM     47  C   UNL     1      -9.195   4.922 -12.400  1.00  0.00     0.031 C 
ATOM     48  C   UNL     1      -7.077  11.488 -12.576  1.00  0.00     0.029 A 
ATOM     49  C   UNL     1      -8.156  11.141 -13.495  1.00  0.00     0.049 A 
ATOM     50  H   UNL     1      -9.104   9.298 -13.698  1.00  0.00     0.167 HD
ATOM     51  C   UNL     1     -10.928   5.339 -14.116  1.00  0.00     0.037 A 
ATOM     52  C   UNL     1      -8.729  11.979 -14.380  1.00  0.00     0.037 A 
ATOM     53  C   UNL     1     -11.645   6.178 -15.039  1.00  0.00     0.049 A 
ATOM     54  C   UNL     1      -9.859  11.477 -15.240  1.00  0.00     0.074 A 
ATOM     55  C   UNL     1     -12.704   5.845 -15.866  1.00  0.00     0.029 A 
ATOM     56  N   UNL     1     -11.380   7.522 -15.251  1.00  0.00    -0.354 N 
ATOM     57  N   UNL     1     -10.394  10.281 -15.293  1.00  0.00    -0.248 NA
ATOM     58  C   UNL     1     -10.478  12.450 -16.150  1.00  0.00     0.031 C 
ATOM     59  C   UNL     1     -13.058   6.980 -16.603  1.00  0.00     0.029 A 
ATOM     60  C   UNL     1     -12.257   8.033 -16.195  1.00  0.00     0.049 A 
ATOM     61  H   UNL     1     -10.674   8.038 -14.799  1.00  0.00     0.167 HD
ATOM     62  C   UNL     1     -11.437  10.371 -16.206  1.00  0.00     0.074 A 
ATOM     63  C   UNL     1     -11.470  11.742 -16.669  1.00  0.00     0.031 C 
ATOM     64  C   UNL     1     -12.292   9.406 -16.626  1.00  0.00     0.037 A 
BRANCH  51  65
ATOM     65  C   UNL     1     -11.349   3.904 -13.980  1.00  0.00     0.057 A 
ATOM     66  C   UNL     1     -11.986   3.433 -12.823  1.00  0.00     0.134 A 
ATOM     67  C   UNL     1     -11.154   2.992 -15.024  1.00  0.00     0.134 A 
ATOM     68  F   UNL     1     -12.189   4.251 -11.779  1.00  0.00    -0.206 F 
ATOM     69  C   UNL     1     -12.393   2.104 -12.701  1.00  0.00     0.040 A 
ATOM     70  C   UNL     1     -11.584   1.667 -14.926  1.00  0.00     0.040 A 
ATOM     71  F   UNL     1     -10.555   3.375 -16.162  1.00  0.00    -0.206 F 
ATOM     72  C   UNL     1     -12.200   1.218 -13.759  1.00  0.00     0.006 A 
ENDBRANCH  51  65
BRANCH  52  73
ATOM     73  C   UNL     1      -8.265  13.386 -14.496  1.00  0.00     0.057 A 
ATOM     74  C   UNL     1      -9.089  14.457 -14.129  1.00  0.00     0.134 A 
ATOM     75  C   UNL     1      -7.007  13.697 -15.026  1.00  0.00     0.134 A 
ATOM     76  F   UNL     1     -10.313  14.227 -13.630  1.00  0.00    -0.206 F 
ATOM     77  C   UNL     1      -8.698  15.784 -14.324  1.00  0.00     0.040 A 
ATOM     78  C   UNL     1      -6.590  15.018 -15.197  1.00  0.00     0.040 A 
ATOM     79  F   UNL     1      -6.164  12.718 -15.388  1.00  0.00    -0.206 F 
ATOM     80  C   UNL     1      -7.443  16.066 -14.859  1.00  0.00     0.006 A 
ENDBRANCH  52  73
BRANCH  64  81
ATOM     81  C   UNL     1     -13.378   9.819 -17.579  1.00  0.00     0.057 A 
ATOM     82  C   UNL     1     -13.111  10.188 -18.904  1.00  0.00     0.134 A 
ATOM     83  C   UNL     1     -14.715   9.838 -17.161  1.00  0.00     0.134 A 
ATOM     84  F   UNL     1     -11.851  10.201 -19.366  1.00  0.00    -0.206 F 
ATOM     85  C   UNL     1     -14.129  10.603 -19.765  1.00  0.00     0.040 A 
ATOM     86  C   UNL     1     -15.745  10.219 -18.022  1.00  0.00     0.040 A 
ATOM     87  F   UNL     1     -15.044   9.484 -15.909  1.00  0.00    -0.206 F 
ATOM     88  C   UNL     1     -15.451  10.615 -19.325  1.00  0.00     0.006 A 
ENDBRANCH  64  81
ENDBRANCH  38  39
ENDBRANCH  30  33
ENDBRANCH  28  29
ENDBRANCH  27  28
ENDBRANCH   1  27
TORSDOF 16
