REMARK SMILES O=C(NCCCCNC(=O)[C@H](c1cnn(Cc2ccccc2)c1)[NH+]1CCOCC1)c1ccc(-c2c3nc(c(-c4c(F)cccc4F)c4ccc([nH]4)c(-c4c(F)cccc4F)c4nc(c(-c5c(F)cccc5F)c5ccc2[nH]5)C=C4)C=C3)cc1
REMARK SMILES IDX 6 1 5 2 4 3 3 4 1 5 2 6 30 8 31 9 83 10 32 11 82 12 33 13
REMARK SMILES IDX 34 14 35 15 76 16 36 17 81 18 75 19 77 20 37 21 80 22 74 23
REMARK SMILES IDX 73 24 38 26 64 27 47 28 63 29 48 30 51 31 62 32 78 33 49 34
REMARK SMILES IDX 50 35 61 37 79 38 52 39 39 40 40 41 45 42 41 43 42 44 44 45
REMARK SMILES IDX 46 46 43 47 65 48 66 49 71 50 67 51 68 52 70 53 72 54 69 55
REMARK SMILES IDX 53 56 54 57 59 58 55 59 56 60 58 61 60 62 57 63 7 64 8 65
REMARK SMILES IDX 9 66 10 68 11 69 24 70 25 71 29 72 26 74 28 75 27 76 12 77
REMARK SMILES IDX 13 78 23 79 14 80 15 81 16 82 17 83 18 84 22 85 19 86 21 87
REMARK SMILES IDX 20 88
REMARK H PARENT 3 7 77 25 51 36 8 67 24 73
REMARK Flexibility Score: inf
ROOT
ATOM      1  C   UNL     1       5.591   7.860  -7.626  1.00  0.00     0.023 C 
ENDROOT
BRANCH   1   2
ATOM      2  C   UNL     1       4.368   7.609  -8.508  1.00  0.00     0.023 C 
BRANCH   2   3
ATOM      3  C   UNL     1       2.990   7.924  -7.906  1.00  0.00     0.116 C 
BRANCH   3   4
ATOM      4  N   UNL     1       2.775   9.284  -7.453  1.00  0.00    -0.352 N 
ATOM      5  O   UNL     1       1.976  11.348  -7.341  1.00  0.00    -0.269 OA
ATOM      6  C   UNL     1       2.350  10.441  -8.067  1.00  0.00     0.251 C 
ATOM      7  H   UNL     1       2.977   9.408  -6.497  1.00  0.00     0.163 HD
BRANCH   6   8
ATOM      8  C   UNL     1       2.416  10.680  -9.537  1.00  0.00     0.039 A 
ATOM      9  C   UNL     1       2.675   9.707 -10.498  1.00  0.00     0.014 A 
ATOM     10  C   UNL     1       2.282  12.018  -9.956  1.00  0.00     0.014 A 
ATOM     11  C   UNL     1       2.968  10.069 -11.805  1.00  0.00     0.010 A 
ATOM     12  C   UNL     1       2.520  12.382 -11.277  1.00  0.00     0.010 A 
ATOM     13  C   UNL     1       2.926  11.410 -12.185  1.00  0.00    -0.014 A 
BRANCH  13  14
ATOM     14  C   UNL     1       3.206  11.713 -13.585  1.00  0.00     0.031 A 
ATOM     15  C   UNL     1       2.265  11.095 -14.567  1.00  0.00     0.074 A 
ATOM     16  C   UNL     1       4.163  12.575 -13.978  1.00  0.00     0.049 A 
ATOM     17  N   UNL     1       2.529  10.315 -15.566  1.00  0.00    -0.248 NA
ATOM     18  C   UNL     1       0.827  11.313 -14.342  1.00  0.00     0.031 C 
ATOM     19  C   UNL     1       4.964  13.478 -13.149  1.00  0.00     0.029 A 
ATOM     20  N   UNL     1       4.545  12.898 -15.245  1.00  0.00    -0.354 N 
ATOM     21  C   UNL     1       1.308  10.076 -16.200  1.00  0.00     0.074 A 
ATOM     22  C   UNL     1       0.288  10.611 -15.338  1.00  0.00     0.031 C 
ATOM     23  C   UNL     1       5.560  14.396 -13.943  1.00  0.00     0.029 A 
ATOM     24  C   UNL     1       5.288  14.065 -15.332  1.00  0.00     0.049 A 
ATOM     25  H   UNL     1       4.314  12.351 -16.031  1.00  0.00     0.167 HD
ATOM     26  C   UNL     1       1.233   9.624 -17.483  1.00  0.00     0.037 A 
ATOM     27  C   UNL     1       5.585  14.751 -16.462  1.00  0.00     0.037 A 
ATOM     28  C   UNL     1       2.449   8.973 -17.889  1.00  0.00     0.049 A 
ATOM     29  C   UNL     1       5.393  13.840 -17.616  1.00  0.00     0.074 A 
ATOM     30  C   UNL     1       3.156   7.867 -17.456  1.00  0.00     0.029 A 
ATOM     31  N   UNL     1       3.300   9.644 -18.728  1.00  0.00    -0.354 N 
ATOM     32  N   UNL     1       6.155  12.817 -17.879  1.00  0.00    -0.248 NA
ATOM     33  C   UNL     1       4.087  13.827 -18.257  1.00  0.00     0.031 C 
ATOM     34  C   UNL     1       4.526   8.208 -17.650  1.00  0.00     0.029 A 
ATOM     35  C   UNL     1       4.561   9.481 -18.219  1.00  0.00     0.049 A 
ATOM     36  H   UNL     1       3.054  10.145 -19.539  1.00  0.00     0.167 HD
ATOM     37  C   UNL     1       5.291  11.847 -18.364  1.00  0.00     0.074 A 
ATOM     38  C   UNL     1       4.051  12.556 -18.665  1.00  0.00     0.031 C 
ATOM     39  C   UNL     1       5.564  10.517 -18.218  1.00  0.00     0.037 A 
BRANCH  26  40
ATOM     40  C   UNL     1       0.195  10.084 -18.482  1.00  0.00     0.057 A 
ATOM     41  C   UNL     1       0.164   9.500 -19.763  1.00  0.00     0.134 A 
ATOM     42  C   UNL     1      -0.556  11.270 -18.352  1.00  0.00     0.134 A 
ATOM     43  F   UNL     1       0.836   8.367 -20.021  1.00  0.00    -0.206 F 
ATOM     44  C   UNL     1      -0.479  10.103 -20.851  1.00  0.00     0.040 A 
ATOM     45  C   UNL     1      -1.244  11.854 -19.420  1.00  0.00     0.040 A 
ATOM     46  F   UNL     1      -0.588  11.982 -17.220  1.00  0.00    -0.206 F 
ATOM     47  C   UNL     1      -1.175  11.293 -20.684  1.00  0.00     0.006 A 
ENDBRANCH  26  40
BRANCH  27  48
ATOM     48  C   UNL     1       5.713  16.216 -16.627  1.00  0.00     0.057 A 
ATOM     49  C   UNL     1       6.353  16.773 -17.742  1.00  0.00     0.134 A 
ATOM     50  C   UNL     1       4.979  17.110 -15.826  1.00  0.00     0.134 A 
ATOM     51  F   UNL     1       7.036  15.994 -18.593  1.00  0.00    -0.206 F 
ATOM     52  C   UNL     1       6.259  18.137 -18.050  1.00  0.00     0.040 A 
ATOM     53  C   UNL     1       4.885  18.474 -16.115  1.00  0.00     0.040 A 
ATOM     54  F   UNL     1       4.256  16.674 -14.784  1.00  0.00    -0.206 F 
ATOM     55  C   UNL     1       5.516  18.991 -17.239  1.00  0.00     0.006 A 
ENDBRANCH  27  48
BRANCH  39  56
ATOM     56  C   UNL     1       6.934  10.126 -17.744  1.00  0.00     0.057 A 
ATOM     57  C   UNL     1       7.438  10.449 -16.476  1.00  0.00     0.134 A 
ATOM     58  C   UNL     1       7.697   9.254 -18.528  1.00  0.00     0.134 A 
ATOM     59  F   UNL     1       6.729  11.191 -15.616  1.00  0.00    -0.206 F 
ATOM     60  C   UNL     1       8.667   9.959 -16.026  1.00  0.00     0.040 A 
ATOM     61  C   UNL     1       8.911   8.731 -18.077  1.00  0.00     0.040 A 
ATOM     62  F   UNL     1       7.247   8.852 -19.727  1.00  0.00    -0.206 F 
ATOM     63  C   UNL     1       9.405   9.091 -16.825  1.00  0.00     0.006 A 
ENDBRANCH  39  56
ENDBRANCH  13  14
ENDBRANCH   6   8
ENDBRANCH   3   4
ENDBRANCH   2   3
ENDBRANCH   1   2
BRANCH   1  64
ATOM     64  C   UNL     1       5.523   7.268  -6.232  1.00  0.00     0.116 C 
BRANCH  64  65
ATOM     65  N   UNL     1       5.527   5.828  -6.160  1.00  0.00    -0.351 N 
ATOM     66  C   UNL     1       5.726   5.074  -5.024  1.00  0.00     0.283 C 
ATOM     67  H   UNL     1       5.372   5.338  -7.000  1.00  0.00     0.163 HD
ATOM     68  O   UNL     1       5.327   3.906  -5.061  1.00  0.00    -0.268 OA
BRANCH  66  69
ATOM     69  C   UNL     1       6.427   5.713  -3.782  1.00  0.00     0.308 C 
BRANCH  69  70
ATOM     70  N   UNL     1       5.519   6.297  -2.784  1.00  0.00    -0.317 N 
ATOM     71  C   UNL     1       4.157   5.793  -2.647  1.00  0.00     0.292 C 
ATOM     72  C   UNL     1       5.603   7.733  -2.532  1.00  0.00     0.292 C 
ATOM     73  H   UNL     1       6.004   5.846  -2.008  1.00  0.00     0.349 HD
ATOM     74  C   UNL     1       3.139   6.623  -3.437  1.00  0.00     0.221 C 
ATOM     75  C   UNL     1       4.502   8.578  -3.193  1.00  0.00     0.221 C 
ATOM     76  O   UNL     1       3.193   8.012  -3.087  1.00  0.00    -0.370 OA
ENDBRANCH  69  70
BRANCH  69  77
ATOM     77  C   UNL     1       7.302   4.717  -3.061  1.00  0.00     0.057 A 
ATOM     78  C   UNL     1       6.939   3.466  -2.504  1.00  0.00     0.145 A 
ATOM     79  C   UNL     1       8.655   4.813  -2.781  1.00  0.00     0.119 A 
ATOM     80  N   UNL     1       7.969   2.819  -1.955  1.00  0.00    -0.181 NA
ATOM     81  N   UNL     1       8.997   3.681  -2.089  1.00  0.00    -0.268 N 
BRANCH  81  82
ATOM     82  C   UNL     1      10.332   3.308  -1.631  1.00  0.00     0.179 C 
BRANCH  82  83
ATOM     83  C   UNL     1      10.486   3.407  -0.132  1.00  0.00    -0.027 A 
ATOM     84  C   UNL     1      11.324   4.372   0.446  1.00  0.00     0.005 A 
ATOM     85  C   UNL     1       9.811   2.511   0.713  1.00  0.00     0.005 A 
ATOM     86  C   UNL     1      11.476   4.441   1.833  1.00  0.00     0.000 A 
ATOM     87  C   UNL     1       9.960   2.584   2.098  1.00  0.00     0.000 A 
ATOM     88  C   UNL     1      10.794   3.548   2.658  1.00  0.00     0.000 A 
ENDBRANCH  82  83
ENDBRANCH  81  82
ENDBRANCH  69  77
ENDBRANCH  66  69
ENDBRANCH  64  65
ENDBRANCH   1  64
TORSDOF 15
