REMARK SMILES Cc1nc(Nc2ccc(F)cc2)nc(OCC(=O)NCCCCNC(=O)c2ccc(-c3c4nc(c(-c5c(F)cccc5F)c5ccc([nH]5)c(-c5c(F)cccc5F)c5nc(c(-c6c(F)cccc6F)c6ccc3[nH]6)C=C5)C=C4)cc2)c1CCO
REMARK SMILES IDX 20 1 19 2 17 3 18 4 16 6 15 7 14 8 1 9 2 10 3 11 81 12 4 13
REMARK SMILES IDX 13 14 82 15 83 16 84 17 5 19 6 21 7 22 12 23 8 24 11 25 9 26
REMARK SMILES IDX 10 27 21 28 22 29 23 30 24 31 25 32 26 34 27 35 28 36 80 37
REMARK SMILES IDX 29 38 79 39 30 40 31 41 32 42 73 43 33 44 78 45 72 46 74 47
REMARK SMILES IDX 34 48 77 49 71 50 70 51 35 53 61 54 44 55 60 56 45 57 48 58
REMARK SMILES IDX 59 59 75 60 46 61 47 62 58 64 76 65 49 66 36 67 37 68 42 69
REMARK SMILES IDX 38 70 39 71 41 72 43 73 40 74 62 75 63 76 68 77 64 78 65 79
REMARK SMILES IDX 67 80 69 81 66 82 50 83 51 84 56 85 52 86 53 87 55 88 57 89
REMARK SMILES IDX 54 90
REMARK H PARENT 19 5 84 18 5 20 24 33 74 52 48 63
REMARK Flexibility Score: inf
ROOT
ATOM      1  C   UNL     1       2.964  -3.134   2.792  1.00  0.00     0.116 C 
ENDROOT
BRANCH   1   2
ATOM      2  N   UNL     1       1.656  -3.740   2.679  1.00  0.00    -0.353 N 
ATOM      3  C   UNL     1       0.937  -4.003   1.557  1.00  0.00     0.258 C 
ATOM      4  O   UNL     1      -0.150  -4.567   1.694  1.00  0.00    -0.271 OA
ATOM      5  H   UNL     1       1.230  -3.997   3.529  1.00  0.00     0.163 HD
BRANCH   3   6
ATOM      6  C   UNL     1       1.518  -3.664   0.177  1.00  0.00     0.331 C 
BRANCH   6   7
ATOM      7  O   UNL     1       1.767  -2.334  -0.223  1.00  0.00    -0.467 OA
BRANCH   7   8
ATOM      8  C   UNL     1       0.848  -1.342  -0.086  1.00  0.00     0.222 A 
ATOM      9  C   UNL     1      -2.703  -0.087  -0.052  1.00  0.00     0.067 C 
ATOM     10  C   UNL     1      -1.211  -0.239   0.006  1.00  0.00     0.050 A 
ATOM     11  N   UNL     1      -0.575   0.926   0.221  1.00  0.00    -0.218 NA
ATOM     12  C   UNL     1      -0.531  -1.431  -0.242  1.00  0.00     0.038 A 
ATOM     13  C   UNL     1       0.755   0.952   0.176  1.00  0.00     0.230 A 
ATOM     14  N   UNL     1       1.487  -0.158   0.071  1.00  0.00    -0.177 NA
BRANCH  12  15
ATOM     15  C   UNL     1      -1.272  -2.637  -0.761  1.00  0.00     0.071 C 
BRANCH  15  16
ATOM     16  C   UNL     1      -1.110  -2.879  -2.266  1.00  0.00     0.161 C 
BRANCH  16  17
ATOM     17  O   UNL     1       0.237  -3.105  -2.656  1.00  0.00    -0.396 OA
ATOM     18  H   UNL     1       0.769  -2.320  -2.452  1.00  0.00     0.210 HD
ENDBRANCH  16  17
ENDBRANCH  15  16
ENDBRANCH  12  15
BRANCH  13  19
ATOM     19  N   UNL     1       1.409   2.183   0.086  1.00  0.00    -0.324 N 
ATOM     20  H   UNL     1       2.391   2.151   0.027  1.00  0.00     0.170 HD
BRANCH  19  21
ATOM     21  C   UNL     1       0.828   3.459   0.071  1.00  0.00     0.041 A 
ATOM     22  C   UNL     1      -0.144   3.826   1.015  1.00  0.00     0.029 A 
ATOM     23  C   UNL     1       1.102   4.348  -0.980  1.00  0.00     0.029 A 
ATOM     24  C   UNL     1      -0.816   5.047   0.925  1.00  0.00     0.041 A 
ATOM     25  C   UNL     1       0.416   5.563  -1.085  1.00  0.00     0.041 A 
ATOM     26  C   UNL     1      -0.536   5.901  -0.131  1.00  0.00     0.123 A 
ATOM     27  F   UNL     1      -1.204   7.057  -0.240  1.00  0.00    -0.207 F 
ENDBRANCH  19  21
ENDBRANCH  13  19
ENDBRANCH   7   8
ENDBRANCH   6   7
ENDBRANCH   3   6
ENDBRANCH   1   2
BRANCH   1  28
ATOM     28  C   UNL     1       2.901  -1.776   3.483  1.00  0.00     0.023 C 
BRANCH  28  29
ATOM     29  C   UNL     1       2.236  -1.774   4.862  1.00  0.00     0.023 C 
BRANCH  29  30
ATOM     30  C   UNL     1       2.685  -2.870   5.822  1.00  0.00     0.116 C 
BRANCH  30  31
ATOM     31  N   UNL     1       4.121  -2.893   6.041  1.00  0.00    -0.352 N 
ATOM     32  C   UNL     1       4.811  -3.061   7.216  1.00  0.00     0.251 C 
ATOM     33  H   UNL     1       4.676  -2.772   5.237  1.00  0.00     0.163 HD
ATOM     34  O   UNL     1       6.035  -2.971   7.236  1.00  0.00    -0.269 OA
BRANCH  32  35
ATOM     35  C   UNL     1       4.068  -3.305   8.469  1.00  0.00     0.039 A 
ATOM     36  C   UNL     1       4.359  -2.515   9.582  1.00  0.00     0.014 A 
ATOM     37  C   UNL     1       3.068  -4.280   8.534  1.00  0.00     0.014 A 
ATOM     38  C   UNL     1       3.599  -2.655  10.744  1.00  0.00     0.010 A 
ATOM     39  C   UNL     1       2.266  -4.369   9.668  1.00  0.00     0.010 A 
ATOM     40  C   UNL     1       2.522  -3.556  10.783  1.00  0.00    -0.014 A 
BRANCH  40  41
ATOM     41  C   UNL     1       1.651  -3.654  11.980  1.00  0.00     0.031 A 
ATOM     42  C   UNL     1       1.605  -4.925  12.779  1.00  0.00     0.074 A 
ATOM     43  C   UNL     1       0.866  -2.613  12.319  1.00  0.00     0.049 A 
ATOM     44  N   UNL     1       0.869  -5.219  13.820  1.00  0.00    -0.248 NA
ATOM     45  C   UNL     1       2.485  -6.019  12.337  1.00  0.00     0.031 C 
ATOM     46  C   UNL     1       0.794  -1.339  11.602  1.00  0.00     0.029 A 
ATOM     47  N   UNL     1      -0.024  -2.462  13.354  1.00  0.00    -0.354 N 
ATOM     48  C   UNL     1       1.192  -6.528  14.153  1.00  0.00     0.074 A 
ATOM     49  C   UNL     1       2.146  -6.992  13.170  1.00  0.00     0.031 C 
ATOM     50  C   UNL     1      -0.063  -0.524  12.238  1.00  0.00     0.029 A 
ATOM     51  C   UNL     1      -0.632  -1.230  13.383  1.00  0.00     0.049 A 
ATOM     52  H   UNL     1      -0.208  -3.169  14.014  1.00  0.00     0.167 HD
ATOM     53  C   UNL     1       0.755  -7.265  15.200  1.00  0.00     0.037 A 
ATOM     54  C   UNL     1      -1.545  -0.726  14.234  1.00  0.00     0.037 A 
ATOM     55  C   UNL     1      -0.177  -6.793  16.189  1.00  0.00     0.049 A 
ATOM     56  C   UNL     1      -2.033  -1.573  15.376  1.00  0.00     0.074 A 
ATOM     57  C   UNL     1      -0.649  -7.452  17.310  1.00  0.00     0.029 A 
ATOM     58  N   UNL     1      -0.776  -5.542  16.177  1.00  0.00    -0.354 N 
ATOM     59  N   UNL     1      -1.687  -2.794  15.703  1.00  0.00    -0.248 NA
ATOM     60  C   UNL     1      -3.037  -0.974  16.267  1.00  0.00     0.031 C 
ATOM     61  C   UNL     1      -1.566  -6.617  17.954  1.00  0.00     0.029 A 
ATOM     62  C   UNL     1      -1.628  -5.418  17.263  1.00  0.00     0.049 A 
ATOM     63  H   UNL     1      -0.620  -4.846  15.499  1.00  0.00     0.167 HD
ATOM     64  C   UNL     1      -2.409  -3.101  16.849  1.00  0.00     0.074 A 
ATOM     65  C   UNL     1      -3.206  -1.934  17.166  1.00  0.00     0.031 C 
ATOM     66  C   UNL     1      -2.410  -4.248  17.571  1.00  0.00     0.037 A 
BRANCH  53  67
ATOM     67  C   UNL     1       1.292  -8.659  15.342  1.00  0.00     0.057 A 
ATOM     68  C   UNL     1       0.463  -9.772  15.156  1.00  0.00     0.134 A 
ATOM     69  C   UNL     1       2.619  -8.898  15.723  1.00  0.00     0.134 A 
ATOM     70  F   UNL     1      -0.820  -9.613  14.796  1.00  0.00    -0.206 F 
ATOM     71  C   UNL     1       0.931 -11.072  15.352  1.00  0.00     0.040 A 
ATOM     72  C   UNL     1       3.107 -10.194  15.896  1.00  0.00     0.040 A 
ATOM     73  F   UNL     1       3.469  -7.876  15.906  1.00  0.00    -0.206 F 
ATOM     74  C   UNL     1       2.258 -11.286  15.720  1.00  0.00     0.006 A 
ENDBRANCH  53  67
BRANCH  54  75
ATOM     75  C   UNL     1      -2.025   0.668  14.058  1.00  0.00     0.057 A 
ATOM     76  C   UNL     1      -2.849   1.032  12.986  1.00  0.00     0.134 A 
ATOM     77  C   UNL     1      -1.641   1.677  14.948  1.00  0.00     0.134 A 
ATOM     78  F   UNL     1      -3.246   0.113  12.094  1.00  0.00    -0.206 F 
ATOM     79  C   UNL     1      -3.261   2.353  12.798  1.00  0.00     0.040 A 
ATOM     80  C   UNL     1      -2.064   2.997  14.785  1.00  0.00     0.040 A 
ATOM     81  F   UNL     1      -0.867   1.386  16.004  1.00  0.00    -0.206 F 
ATOM     82  C   UNL     1      -2.871   3.339  13.701  1.00  0.00     0.006 A 
ENDBRANCH  54  75
BRANCH  66  83
ATOM     83  C   UNL     1      -3.279  -4.300  18.793  1.00  0.00     0.057 A 
ATOM     84  C   UNL     1      -2.708  -4.317  20.072  1.00  0.00     0.134 A 
ATOM     85  C   UNL     1      -4.670  -4.420  18.702  1.00  0.00     0.134 A 
ATOM     86  F   UNL     1      -1.379  -4.218  20.227  1.00  0.00    -0.206 F 
ATOM     87  C   UNL     1      -3.489  -4.468  21.218  1.00  0.00     0.040 A 
ATOM     88  C   UNL     1      -5.465  -4.546  19.843  1.00  0.00     0.040 A 
ATOM     89  F   UNL     1      -5.278  -4.401  17.507  1.00  0.00    -0.206 F 
ATOM     90  C   UNL     1      -4.873  -4.582  21.104  1.00  0.00     0.006 A 
ENDBRANCH  66  83
ENDBRANCH  40  41
ENDBRANCH  32  35
ENDBRANCH  30  31
ENDBRANCH  29  30
ENDBRANCH  28  29
ENDBRANCH   1  28
TORSDOF 18
