REMARK SMILES O=C(NCCCCNC(=O)c1ccc(-c2c3nc(c(-c4c(F)cccc4F)c4ccc([nH]4)c(-c4c(F)cccc4F)c4nc(c(-c5c(F)cccc5F)c5ccc2[nH]5)C=C4)C=C3)cc1)C1=Cc2cc(S(F)(F)(F)(F)F)ccc2O[C@@H]1C(F)(F)F
REMARK SMILES IDX 6 1 5 2 4 3 3 4 1 5 2 6 65 8 66 9 80 10 67 11 79 12 68 13
REMARK SMILES IDX 78 14 69 15 77 16 76 17 81 18 82 19 83 20 84 21 70 22 71 23
REMARK SMILES IDX 72 24 73 25 74 26 75 27 7 28 8 29 9 30 10 32 11 33 12 34
REMARK SMILES IDX 64 35 13 36 63 37 14 38 15 39 16 40 57 41 17 42 62 43 56 44
REMARK SMILES IDX 58 45 18 46 61 47 55 48 54 49 19 51 45 52 28 53 44 54 29 55
REMARK SMILES IDX 32 56 43 57 59 58 30 59 31 60 42 62 60 63 33 64 20 65 21 66
REMARK SMILES IDX 26 67 22 68 23 69 25 70 27 71 24 72 46 73 47 74 52 75 48 76
REMARK SMILES IDX 49 77 51 78 53 79 50 80 34 81 35 82 40 83 36 84 37 85 39 86
REMARK SMILES IDX 41 87 38 88
REMARK H PARENT 3 7 8 31 58 50 32 61
REMARK Flexibility Score: inf
ROOT
ATOM      1  C   UNL     1       4.469   3.344   1.340  1.00  0.00     0.023 C 
ENDROOT
BRANCH   1   2
ATOM      2  C   UNL     1       4.976   2.251   0.413  1.00  0.00     0.023 C 
BRANCH   2   3
ATOM      3  C   UNL     1       4.469   0.902   0.896  1.00  0.00     0.116 C 
BRANCH   3   4
ATOM      4  N   UNL     1       2.999   0.902   0.896  1.00  0.00    -0.352 N 
ATOM      5  O   UNL     1       0.993  -0.069   0.072  1.00  0.00    -0.270 OA
ATOM      6  C   UNL     1       2.264  -0.069   0.072  1.00  0.00     0.251 C 
ATOM      7  H   UNL     1       2.507   1.552   1.447  1.00  0.00     0.163 HD
BRANCH   6   8
ATOM      8  C   UNL     1       3.024  -1.073  -0.780  1.00  0.00     0.067 C 
ATOM      9  C   UNL     1       4.385  -1.073  -0.780  1.00  0.00     0.025 C 
ATOM     10  C   UNL     1       2.264  -2.076  -1.631  1.00  0.00     0.314 C 
ATOM     11  C   UNL     1       5.144  -0.069   0.072  1.00  0.00     0.019 A 
ATOM     12  O   UNL     1       3.441  -0.417   1.692  1.00  0.00    -0.475 OA
ATOM     13  C   UNL     1       6.302   0.548  -0.373  1.00  0.00     0.036 A 
ATOM     14  C   UNL     1       4.711   0.097   1.316  1.00  0.00     0.128 A 
ATOM     15  C   UNL     1       7.095   1.095   0.663  1.00  0.00     0.107 A 
ATOM     16  C   UNL     1       5.479   0.760   2.242  1.00  0.00     0.048 A 
ATOM     17  C   UNL     1       6.663   1.343   1.886  1.00  0.00     0.028 A 
BRANCH  10  18
ATOM     18  C   UNL     1       2.631  -3.487  -1.201  1.00  0.00     0.429 C 
ATOM     19  F   UNL     1       2.310  -3.658   0.079  1.00  0.00    -0.167 F 
ATOM     20  F   UNL     1       1.966  -4.365  -1.946  1.00  0.00    -0.167 F 
ATOM     21  F   UNL     1       3.939  -3.672  -1.358  1.00  0.00    -0.167 F 
ENDBRANCH  10  18
BRANCH  15  22
ATOM     22  S   UNL     1       8.823   1.479   0.287  1.00  0.00     0.310 S 
ATOM     23  F   UNL     1       9.222   1.500   1.822  1.00  0.00    -0.094 F 
ATOM     24  F   UNL     1       8.480   3.010   0.427  1.00  0.00    -0.094 F 
ATOM     25  F   UNL     1      10.306   1.813  -0.040  1.00  0.00    -0.094 F 
ATOM     26  F   UNL     1       9.179  -0.059   0.289  1.00  0.00    -0.094 F 
ATOM     27  F   UNL     1       7.348   1.124   0.728  1.00  0.00    -0.094 F 
ENDBRANCH  15  22
ENDBRANCH   6   8
ENDBRANCH   3   4
ENDBRANCH   2   3
ENDBRANCH   1   2
BRANCH   1  28
ATOM     28  C   UNL     1       4.976   3.087   2.750  1.00  0.00     0.116 C 
BRANCH  28  29
ATOM     29  N   UNL     1       6.446   3.087   2.750  1.00  0.00    -0.352 N 
ATOM     30  C   UNL     1       7.181   4.058   3.574  1.00  0.00     0.251 C 
ATOM     31  H   UNL     1       6.938   2.437   2.198  1.00  0.00     0.163 HD
ATOM     32  O   UNL     1       8.452   4.058   3.574  1.00  0.00    -0.269 OA
BRANCH  30  33
ATOM     33  C   UNL     1       6.421   5.062   4.425  1.00  0.00     0.039 A 
ATOM     34  C   UNL     1       6.945   6.342   4.493  1.00  0.00     0.014 A 
ATOM     35  C   UNL     1       5.380   4.704   5.168  1.00  0.00     0.014 A 
ATOM     36  C   UNL     1       6.479   7.095   5.596  1.00  0.00     0.010 A 
ATOM     37  C   UNL     1       4.889   5.546   6.137  1.00  0.00     0.010 A 
ATOM     38  C   UNL     1       5.399   6.804   6.299  1.00  0.00    -0.014 A 
BRANCH  38  39
ATOM     39  C   UNL     1       4.759   7.813   7.238  1.00  0.00     0.031 A 
ATOM     40  C   UNL     1       4.628   7.559   8.604  1.00  0.00     0.074 A 
ATOM     41  C   UNL     1       4.466   9.029   6.646  1.00  0.00     0.049 A 
ATOM     42  N   UNL     1       4.248   8.411   9.557  1.00  0.00    -0.248 NA
ATOM     43  C   UNL     1       4.906   6.258   9.231  1.00  0.00     0.031 C 
ATOM     44  C   UNL     1       4.604   9.296   5.269  1.00  0.00     0.029 A 
ATOM     45  N   UNL     1       4.002  10.175   7.253  1.00  0.00    -0.354 N 
ATOM     46  C   UNL     1       4.263   7.807  10.748  1.00  0.00     0.074 A 
ATOM     47  C   UNL     1       4.680   6.412  10.554  1.00  0.00     0.031 C 
ATOM     48  C   UNL     1       4.216  10.580   5.048  1.00  0.00     0.029 A 
ATOM     49  C   UNL     1       3.831  11.137   6.282  1.00  0.00     0.049 A 
ATOM     50  H   UNL     1       3.822  10.287   8.214  1.00  0.00     0.167 HD
ATOM     51  C   UNL     1       3.946   8.366  11.987  1.00  0.00     0.037 A 
ATOM     52  C   UNL     1       3.366  12.433   6.444  1.00  0.00     0.037 A 
ATOM     53  C   UNL     1       3.523   9.675  12.155  1.00  0.00     0.049 A 
ATOM     54  C   UNL     1       2.994  12.975   7.676  1.00  0.00     0.074 A 
ATOM     55  C   UNL     1       3.207  10.256  13.398  1.00  0.00     0.029 A 
ATOM     56  N   UNL     1       3.329  10.629  11.181  1.00  0.00    -0.354 N 
ATOM     57  N   UNL     1       3.046  12.383   8.871  1.00  0.00    -0.248 NA
ATOM     58  C   UNL     1       2.469  14.335   7.855  1.00  0.00     0.031 C 
ATOM     59  C   UNL     1       2.820  11.540  13.176  1.00  0.00     0.029 A 
ATOM     60  C   UNL     1       2.886  11.782  11.791  1.00  0.00     0.049 A 
ATOM     61  H   UNL     1       3.481  10.509  10.216  1.00  0.00     0.167 HD
ATOM     62  C   UNL     1       2.626  13.223   9.819  1.00  0.00     0.074 A 
ATOM     63  C   UNL     1       2.241  14.488   9.178  1.00  0.00     0.031 C 
ATOM     64  C   UNL     1       2.551  12.987  11.193  1.00  0.00     0.037 A 
BRANCH  51  65
ATOM     65  C   UNL     1       4.074   7.490  13.223  1.00  0.00     0.057 A 
ATOM     66  C   UNL     1       5.269   6.865  13.542  1.00  0.00     0.134 A 
ATOM     67  C   UNL     1       2.977   7.288  13.943  1.00  0.00     0.134 A 
ATOM     68  F   UNL     1       6.437   7.222  13.018  1.00  0.00    -0.206 F 
ATOM     69  C   UNL     1       5.132   5.812  14.478  1.00  0.00     0.040 A 
ATOM     70  C   UNL     1       2.956   6.336  14.934  1.00  0.00     0.040 A 
ATOM     71  F   UNL     1       1.889   8.015  13.704  1.00  0.00    -0.206 F 
ATOM     72  C   UNL     1       4.085   5.638  15.263  1.00  0.00     0.006 A 
ENDBRANCH  51  65
BRANCH  52  73
ATOM     73  C   UNL     1       3.254  13.314   5.210  1.00  0.00     0.057 A 
ATOM     74  C   UNL     1       4.041  14.453   5.181  1.00  0.00     0.134 A 
ATOM     75  C   UNL     1       2.480  12.985   4.183  1.00  0.00     0.134 A 
ATOM     76  F   UNL     1       5.009  14.689   6.062  1.00  0.00    -0.206 F 
ATOM     77  C   UNL     1       3.721  15.344   4.129  1.00  0.00     0.040 A 
ATOM     78  C   UNL     1       2.320  13.846   3.124  1.00  0.00     0.040 A 
ATOM     79  F   UNL     1       1.853  11.812   4.179  1.00  0.00    -0.206 F 
ATOM     80  C   UNL     1       3.021  15.017   3.058  1.00  0.00     0.006 A 
ENDBRANCH  52  73
BRANCH  64  81
ATOM     81  C   UNL     1       2.074  14.120  12.087  1.00  0.00     0.057 A 
ATOM     82  C   UNL     1       0.882  14.744  11.758  1.00  0.00     0.134 A 
ATOM     83  C   UNL     1       2.859  14.595  13.046  1.00  0.00     0.134 A 
ATOM     84  F   UNL     1      -0.048  14.177  10.995  1.00  0.00    -0.206 F 
ATOM     85  C   UNL     1       0.743  16.041  12.308  1.00  0.00     0.040 A 
ATOM     86  C   UNL     1       2.588  15.807  13.635  1.00  0.00     0.040 A 
ATOM     87  F   UNL     1       3.918  13.893  13.440  1.00  0.00    -0.206 F 
ATOM     88  C   UNL     1       1.458  16.507  13.315  1.00  0.00     0.006 A 
ENDBRANCH  64  81
ENDBRANCH  38  39
ENDBRANCH  30  33
ENDBRANCH  28  29
ENDBRANCH   1  28
TORSDOF 13
