REMARK SMILES CN(C)c1oc(/C=N/c2ccc(O)c(C(=O)NCCCCNC(=O)c3ccc(-c4c5nc(c(-c6c(F)cccc6F)c6ccc([nH]6)c(-c6c(F)cccc6F)c6nc(c(-c7c(F)cccc7F)c7ccc4[nH]7)C=C6)C=C5)cc3)c2)cc1Br
REMARK SMILES IDX 19 1 18 2 17 3 15 4 16 5 14 7 9 8 10 9 79 10 11 11 12 12
REMARK SMILES IDX 8 13 7 14 6 15 4 16 5 17 81 18 80 19 82 20 2 21 1 22 3 23
REMARK SMILES IDX 13 24 20 26 21 27 22 28 23 29 24 31 25 32 26 33 78 34 27 35
REMARK SMILES IDX 77 36 28 37 29 38 30 39 71 40 31 41 76 42 70 43 72 44 32 45
REMARK SMILES IDX 75 46 69 47 68 48 33 50 59 51 42 52 58 53 43 54 46 55 57 56
REMARK SMILES IDX 73 57 44 58 45 59 56 61 74 62 47 63 34 64 35 65 40 66 36 67
REMARK SMILES IDX 37 68 39 69 41 70 38 71 60 72 61 73 66 74 62 75 63 76 65 77
REMARK SMILES IDX 67 78 64 79 48 80 49 81 54 82 50 83 51 84 53 85 55 86 52 87
REMARK H PARENT 17 6 13 25 22 30 72 49 46 60
REMARK Flexibility Score: inf
ROOT
ATOM      1  C   UNL     1      -0.534   8.473 -11.757  1.00  0.00     0.023 C 
ENDROOT
BRANCH   1   2
ATOM      2  C   UNL     1      -0.478   6.942 -11.816  1.00  0.00     0.116 C 
BRANCH   2   3
ATOM      3  N   UNL     1       0.787   6.470 -11.306  1.00  0.00    -0.352 N 
ATOM      4  C   UNL     1       1.195   6.075 -10.060  1.00  0.00     0.255 C 
ATOM      5  O   UNL     1       2.395   5.792  -9.966  1.00  0.00    -0.269 OA
ATOM      6  H   UNL     1       1.496   6.422 -11.988  1.00  0.00     0.163 HD
BRANCH   4   7
ATOM      7  C   UNL     1       0.324   5.897  -8.852  1.00  0.00     0.083 A 
ATOM      8  C   UNL     1       0.222   4.746  -6.678  1.00  0.00     0.064 A 
ATOM      9  C   UNL     1      -0.976   5.394  -6.388  1.00  0.00     0.032 A 
ATOM     10  C   UNL     1       0.843   4.986  -7.906  1.00  0.00     0.046 A 
ATOM     11  C   UNL     1      -1.516   6.296  -7.298  1.00  0.00     0.049 A 
ATOM     12  C   UNL     1      -0.852   6.576  -8.501  1.00  0.00     0.128 A 
BRANCH   8  13
ATOM     13  N   UNL     1       0.911   4.018  -5.707  1.00  0.00    -0.253 NA
ATOM     14  C   UNL     1       0.327   3.029  -5.117  1.00  0.00     0.158 C 
BRANCH  14  15
ATOM     15  C   UNL     1       0.997   2.385  -4.026  1.00  0.00     0.149 A 
ATOM     16  C   UNL     1       1.147   1.019  -2.296  1.00  0.00     0.210 A 
ATOM     17  O   UNL     1       0.360   1.381  -3.361  1.00  0.00    -0.438 OA
ATOM     18  C   UNL     1       2.302   1.775  -2.332  1.00  0.00     0.082 A 
ATOM     19  C   UNL     1       2.221   2.636  -3.442  1.00  0.00     0.070 A 
ATOM     20  Br  UNL     1       3.800   1.752  -1.202  1.00  0.00    -0.045 Br
BRANCH  16  21
ATOM     21  N   UNL     1       0.636   0.074  -1.467  1.00  0.00    -0.348 N 
ATOM     22  C   UNL     1       1.074  -0.034  -0.089  1.00  0.00     0.146 C 
ATOM     23  C   UNL     1      -0.397  -0.827  -1.947  1.00  0.00     0.146 C 
ENDBRANCH  16  21
ENDBRANCH  14  15
ENDBRANCH   8  13
BRANCH  12  24
ATOM     24  O   UNL     1      -1.372   7.589  -9.248  1.00  0.00    -0.507 OA
ATOM     25  H   UNL     1      -2.161   8.015  -8.976  1.00  0.00     0.293 HD
ENDBRANCH  12  24
ENDBRANCH   4   7
ENDBRANCH   2   3
ENDBRANCH   1   2
BRANCH   1  26
ATOM     26  C   UNL     1       0.119   9.181 -12.944  1.00  0.00     0.023 C 
BRANCH  26  27
ATOM     27  C   UNL     1      -0.583   8.962 -14.276  1.00  0.00     0.116 C 
BRANCH  27  28
ATOM     28  N   UNL     1      -1.979   9.374 -14.271  1.00  0.00    -0.352 N 
ATOM     29  C   UNL     1      -2.734   9.851 -15.316  1.00  0.00     0.251 C 
ATOM     30  H   UNL     1      -2.444   9.300 -13.406  1.00  0.00     0.163 HD
ATOM     31  O   UNL     1      -3.879  10.240 -15.134  1.00  0.00    -0.269 OA
BRANCH  29  32
ATOM     32  C   UNL     1      -2.122   9.933 -16.657  1.00  0.00     0.039 A 
ATOM     33  C   UNL     1      -2.199  11.140 -17.356  1.00  0.00     0.014 A 
ATOM     34  C   UNL     1      -1.433   8.843 -17.195  1.00  0.00     0.014 A 
ATOM     35  C   UNL     1      -1.522  11.275 -18.568  1.00  0.00     0.010 A 
ATOM     36  C   UNL     1      -0.702   9.002 -18.365  1.00  0.00     0.010 A 
ATOM     37  C   UNL     1      -0.738  10.220 -19.061  1.00  0.00    -0.014 A 
BRANCH  37  38
ATOM     38  C   UNL     1       0.055  10.369 -20.305  1.00  0.00     0.031 A 
ATOM     39  C   UNL     1      -0.272   9.533 -21.508  1.00  0.00     0.074 A 
ATOM     40  C   UNL     1       1.112  11.203 -20.324  1.00  0.00     0.049 A 
ATOM     41  N   UNL     1       0.345   9.466 -22.660  1.00  0.00    -0.248 NA
ATOM     42  C   UNL     1      -1.429   8.630 -21.392  1.00  0.00     0.031 C 
ATOM     43  C   UNL     1       1.563  12.026 -19.200  1.00  0.00     0.029 A 
ATOM     44  N   UNL     1       2.007  11.487 -21.323  1.00  0.00    -0.354 N 
ATOM     45  C   UNL     1      -0.336   8.505 -23.396  1.00  0.00     0.074 A 
ATOM     46  C   UNL     1      -1.380   7.979 -22.544  1.00  0.00     0.031 C 
ATOM     47  C   UNL     1       2.636  12.738 -19.580  1.00  0.00     0.029 A 
ATOM     48  C   UNL     1       2.968  12.398 -20.959  1.00  0.00     0.049 A 
ATOM     49  H   UNL     1       1.965  11.076 -22.217  1.00  0.00     0.167 HD
ATOM     50  C   UNL     1      -0.125   8.114 -24.675  1.00  0.00     0.037 A 
ATOM     51  C   UNL     1       4.002  12.899 -21.660  1.00  0.00     0.037 A 
ATOM     52  C   UNL     1       0.895   8.660 -25.529  1.00  0.00     0.049 A 
ATOM     53  C   UNL     1       4.209  12.456 -23.081  1.00  0.00     0.074 A 
ATOM     54  C   UNL     1       1.147   8.379 -26.860  1.00  0.00     0.029 A 
ATOM     55  N   UNL     1       1.833   9.601 -25.133  1.00  0.00    -0.354 N 
ATOM     56  N   UNL     1       3.514  11.600 -23.789  1.00  0.00    -0.248 NA
ATOM     57  C   UNL     1       5.341  13.054 -23.803  1.00  0.00     0.031 C 
ATOM     58  C   UNL     1       2.262   9.125 -27.260  1.00  0.00     0.029 A 
ATOM     59  C   UNL     1       2.678   9.899 -26.189  1.00  0.00     0.049 A 
ATOM     60  H   UNL     1       1.890   9.999 -24.234  1.00  0.00     0.167 HD
ATOM     61  C   UNL     1       4.106  11.574 -25.045  1.00  0.00     0.074 A 
ATOM     62  C   UNL     1       5.211  12.510 -25.005  1.00  0.00     0.031 C 
ATOM     63  C   UNL     1       3.767  10.840 -26.133  1.00  0.00     0.037 A 
BRANCH  50  64
ATOM     64  C   UNL     1      -1.025   7.047 -25.225  1.00  0.00     0.057 A 
ATOM     65  C   UNL     1      -2.374   7.296 -25.512  1.00  0.00     0.134 A 
ATOM     66  C   UNL     1      -0.534   5.763 -25.490  1.00  0.00     0.134 A 
ATOM     67  F   UNL     1      -2.909   8.502 -25.267  1.00  0.00    -0.206 F 
ATOM     68  C   UNL     1      -3.209   6.299 -26.017  1.00  0.00     0.040 A 
ATOM     69  C   UNL     1      -1.353   4.764 -26.020  1.00  0.00     0.040 A 
ATOM     70  F   UNL     1       0.748   5.458 -25.242  1.00  0.00    -0.206 F 
ATOM     71  C   UNL     1      -2.697   5.029 -26.278  1.00  0.00     0.006 A 
ENDBRANCH  50  64
BRANCH  51  72
ATOM     72  C   UNL     1       4.905  13.899 -21.039  1.00  0.00     0.057 A 
ATOM     73  C   UNL     1       4.876  15.240 -21.439  1.00  0.00     0.134 A 
ATOM     74  C   UNL     1       5.815  13.543 -20.037  1.00  0.00     0.134 A 
ATOM     75  F   UNL     1       4.037  15.637 -22.407  1.00  0.00    -0.206 F 
ATOM     76  C   UNL     1       5.733  16.189 -20.879  1.00  0.00     0.040 A 
ATOM     77  C   UNL     1       6.662  14.486 -19.452  1.00  0.00     0.040 A 
ATOM     78  F   UNL     1       5.885  12.276 -19.605  1.00  0.00    -0.206 F 
ATOM     79  C   UNL     1       6.627  15.812 -19.878  1.00  0.00     0.006 A 
ENDBRANCH  51  72
BRANCH  63  80
ATOM     80  C   UNL     1       4.580  11.044 -27.376  1.00  0.00     0.057 A 
ATOM     81  C   UNL     1       5.881  10.541 -27.497  1.00  0.00     0.134 A 
ATOM     82  C   UNL     1       4.038  11.716 -28.479  1.00  0.00     0.134 A 
ATOM     83  F   UNL     1       6.461   9.900 -26.471  1.00  0.00    -0.206 F 
ATOM     84  C   UNL     1       6.623  10.717 -28.666  1.00  0.00     0.040 A 
ATOM     85  C   UNL     1       4.761  11.877 -29.661  1.00  0.00     0.040 A 
ATOM     86  F   UNL     1       2.793  12.215 -28.429  1.00  0.00    -0.206 F 
ATOM     87  C   UNL     1       6.059  11.381 -29.755  1.00  0.00     0.006 A 
ENDBRANCH  63  80
ENDBRANCH  37  38
ENDBRANCH  29  32
ENDBRANCH  27  28
ENDBRANCH  26  27
ENDBRANCH   1  26
TORSDOF 15
