REMARK SMILES COc1ccc([C@H](C)[N@H+]2CC[C@H](C(=O)NCCCCNC(=O)c3ccc(-c4c5nc(c(-c6c(F)cccc6F)c6ccc([nH]6)c(-c6c(F)cccc6F)c6nc(c(-c7c(F)cccc7F)c7ccc4[nH]7)C=C6)C=C5)cc3)[C@@H]2C)cc1
REMARK SMILES IDX 17 1 16 2 15 3 13 4 14 5 12 7 9 8 10 9 77 10 11 12 78 13
REMARK SMILES IDX 7 14 8 15 6 16 3 17 4 18 80 19 5 20 79 21 2 22 1 23 18 24
REMARK SMILES IDX 19 25 20 26 21 27 22 29 23 30 24 31 76 32 25 33 75 34 26 35
REMARK SMILES IDX 27 36 28 37 69 38 29 39 74 40 68 41 70 42 30 43 73 44 67 45
REMARK SMILES IDX 66 46 31 48 57 49 40 50 56 51 41 52 44 53 55 54 71 55 42 56
REMARK SMILES IDX 43 57 54 59 72 60 45 61 32 62 33 63 38 64 34 65 35 66 37 67
REMARK SMILES IDX 39 68 36 69 58 70 59 71 64 72 60 73 61 74 63 75 65 76 62 77
REMARK SMILES IDX 46 78 47 79 52 80 48 81 49 82 51 83 53 84 50 85
REMARK H PARENT 15 6 9 11 20 28 70 47 44 58
REMARK Flexibility Score: inf
ROOT
ATOM      1  C   UNL     1      -3.478   7.725  -1.532  1.00  0.00     0.023 C 
ENDROOT
BRANCH   1   2
ATOM      2  C   UNL     1      -2.069   8.319  -1.487  1.00  0.00     0.116 C 
BRANCH   2   3
ATOM      3  N   UNL     1      -1.468   8.204  -0.179  1.00  0.00    -0.356 N 
ATOM      4  C   UNL     1      -0.560   7.343   0.341  1.00  0.00     0.229 C 
ATOM      5  O   UNL     1      -0.238   7.558   1.518  1.00  0.00    -0.275 OA
ATOM      6  H   UNL     1      -1.778   8.884   0.461  1.00  0.00     0.163 HD
BRANCH   4   7
ATOM      7  C   UNL     1       0.105   6.182  -0.401  1.00  0.00     0.142 C 
ATOM      8  N   UNL     1       1.443   6.221  -2.413  1.00  0.00    -0.326 N 
ATOM      9  C   UNL     1       0.088   5.834  -2.790  1.00  0.00     0.264 C 
ATOM     10  C   UNL     1       1.519   6.434  -0.958  1.00  0.00     0.194 C 
ATOM     11  H   UNL     1       1.657   7.128  -2.828  1.00  0.00     0.348 HD
ATOM     12  C   UNL     1      -0.627   5.454  -1.510  1.00  0.00     0.081 C 
ATOM     13  C   UNL     1       2.126   7.801  -0.653  1.00  0.00     0.076 C 
BRANCH   8  14
ATOM     14  C   UNL     1       2.503   5.396  -3.031  1.00  0.00     0.212 C 
ATOM     15  C   UNL     1       2.475   3.927  -2.565  1.00  0.00     0.081 C 
BRANCH  14  16
ATOM     16  C   UNL     1       2.433   5.574  -4.556  1.00  0.00     0.009 A 
ATOM     17  C   UNL     1       1.917   6.125  -7.274  1.00  0.00     0.118 A 
ATOM     18  C   UNL     1       2.439   7.116  -6.447  1.00  0.00     0.047 A 
ATOM     19  C   UNL     1       1.729   4.839  -6.773  1.00  0.00     0.047 A 
ATOM     20  C   UNL     1       2.688   6.847  -5.098  1.00  0.00     0.013 A 
ATOM     21  C   UNL     1       1.987   4.565  -5.426  1.00  0.00     0.013 A 
BRANCH  17  22
ATOM     22  O   UNL     1       1.645   6.494  -8.563  1.00  0.00    -0.497 OA
ATOM     23  C   UNL     1       0.445   5.928  -9.088  1.00  0.00     0.278 C 
ENDBRANCH  17  22
ENDBRANCH  14  16
ENDBRANCH   8  14
ENDBRANCH   4   7
ENDBRANCH   2   3
ENDBRANCH   1   2
BRANCH   1  24
ATOM     24  C   UNL     1      -4.592   8.710  -1.176  1.00  0.00     0.023 C 
BRANCH  24  25
ATOM     25  C   UNL     1      -4.629   9.984  -2.014  1.00  0.00     0.116 C 
BRANCH  25  26
ATOM     26  N   UNL     1      -4.630   9.753  -3.451  1.00  0.00    -0.352 N 
ATOM     27  C   UNL     1      -5.194  10.535  -4.436  1.00  0.00     0.251 C 
ATOM     28  H   UNL     1      -4.172   8.937  -3.757  1.00  0.00     0.163 HD
ATOM     29  O   UNL     1      -5.181  10.184  -5.603  1.00  0.00    -0.269 OA
BRANCH  27  30
ATOM     30  C   UNL     1      -5.864  11.790  -4.036  1.00  0.00     0.039 A 
ATOM     31  C   UNL     1      -7.190  11.993  -4.420  1.00  0.00     0.014 A 
ATOM     32  C   UNL     1      -5.208  12.712  -3.216  1.00  0.00     0.014 A 
ATOM     33  C   UNL     1      -7.888  13.089  -3.913  1.00  0.00     0.010 A 
ATOM     34  C   UNL     1      -5.926  13.759  -2.654  1.00  0.00     0.010 A 
ATOM     35  C   UNL     1      -7.274  13.954  -2.992  1.00  0.00    -0.014 A 
BRANCH  35  36
ATOM     36  C   UNL     1      -8.030  15.066  -2.367  1.00  0.00     0.031 A 
ATOM     37  C   UNL     1      -7.633  16.489  -2.635  1.00  0.00     0.074 A 
ATOM     38  C   UNL     1      -9.028  14.789  -1.504  1.00  0.00     0.049 A 
ATOM     39  N   UNL     1      -8.138  17.593  -2.146  1.00  0.00    -0.248 NA
ATOM     40  C   UNL     1      -6.498  16.700  -3.547  1.00  0.00     0.031 C 
ATOM     41  C   UNL     1      -9.460  13.447  -1.109  1.00  0.00     0.029 A 
ATOM     42  N   UNL     1      -9.854  15.625  -0.797  1.00  0.00    -0.354 N 
ATOM     43  C   UNL     1      -7.373  18.623  -2.676  1.00  0.00     0.074 A 
ATOM     44  C   UNL     1      -6.338  18.013  -3.480  1.00  0.00     0.031 C 
ATOM     45  C   UNL     1     -10.488  13.551  -0.251  1.00  0.00     0.029 A 
ATOM     46  C   UNL     1     -10.770  14.963  -0.015  1.00  0.00     0.049 A 
ATOM     47  H   UNL     1      -9.796  16.607  -0.845  1.00  0.00     0.167 HD
ATOM     48  C   UNL     1      -7.536  19.959  -2.527  1.00  0.00     0.037 A 
ATOM     49  C   UNL     1     -11.730  15.444   0.796  1.00  0.00     0.037 A 
ATOM     50  C   UNL     1      -8.591  20.563  -1.760  1.00  0.00     0.049 A 
ATOM     51  C   UNL     1     -11.912  16.931   0.917  1.00  0.00     0.074 A 
ATOM     52  C   UNL     1      -8.888  21.906  -1.611  1.00  0.00     0.029 A 
ATOM     53  N   UNL     1      -9.523  19.860  -1.013  1.00  0.00    -0.354 N 
ATOM     54  N   UNL     1     -11.233  17.895   0.343  1.00  0.00    -0.248 NA
ATOM     55  C   UNL     1     -12.998  17.398   1.790  1.00  0.00     0.031 C 
ATOM     56  C   UNL     1      -9.983  22.017  -0.748  1.00  0.00     0.029 A 
ATOM     57  C   UNL     1     -10.389  20.741  -0.388  1.00  0.00     0.049 A 
ATOM     58  H   UNL     1      -9.564  18.879  -0.938  1.00  0.00     0.167 HD
ATOM     59  C   UNL     1     -11.823  19.079   0.765  1.00  0.00     0.074 A 
ATOM     60  C   UNL     1     -12.924  18.712   1.632  1.00  0.00     0.031 C 
ATOM     61  C   UNL     1     -11.483  20.355   0.464  1.00  0.00     0.037 A 
BRANCH  48  62
ATOM     62  C   UNL     1      -6.556  20.854  -3.225  1.00  0.00     0.057 A 
ATOM     63  C   UNL     1      -6.562  21.007  -4.618  1.00  0.00     0.134 A 
ATOM     64  C   UNL     1      -5.612  21.588  -2.498  1.00  0.00     0.134 A 
ATOM     65  F   UNL     1      -7.432  20.319  -5.374  1.00  0.00    -0.206 F 
ATOM     66  C   UNL     1      -5.649  21.841  -5.264  1.00  0.00     0.040 A 
ATOM     67  C   UNL     1      -4.710  22.445  -3.131  1.00  0.00     0.040 A 
ATOM     68  F   UNL     1      -5.555  21.489  -1.161  1.00  0.00    -0.206 F 
ATOM     69  C   UNL     1      -4.723  22.568  -4.519  1.00  0.00     0.006 A 
ENDBRANCH  48  62
BRANCH  49  70
ATOM     70  C   UNL     1     -12.620  14.511   1.531  1.00  0.00     0.057 A 
ATOM     71  C   UNL     1     -13.962  14.358   1.164  1.00  0.00     0.134 A 
ATOM     72  C   UNL     1     -12.157  13.761   2.618  1.00  0.00     0.134 A 
ATOM     73  F   UNL     1     -14.466  15.064   0.142  1.00  0.00    -0.206 F 
ATOM     74  C   UNL     1     -14.819  13.507   1.864  1.00  0.00     0.040 A 
ATOM     75  C   UNL     1     -12.997  12.889   3.313  1.00  0.00     0.040 A 
ATOM     76  F   UNL     1     -10.879  13.857   3.013  1.00  0.00    -0.206 F 
ATOM     77  C   UNL     1     -14.335  12.766   2.941  1.00  0.00     0.006 A 
ENDBRANCH  49  70
BRANCH  61  78
ATOM     78  C   UNL     1     -12.327  21.445   1.054  1.00  0.00     0.057 A 
ATOM     79  C   UNL     1     -12.236  21.794   2.407  1.00  0.00     0.134 A 
ATOM     80  C   UNL     1     -13.207  22.179   0.250  1.00  0.00     0.134 A 
ATOM     81  F   UNL     1     -11.420  21.119   3.230  1.00  0.00    -0.206 F 
ATOM     82  C   UNL     1     -13.008  22.825   2.944  1.00  0.00     0.040 A 
ATOM     83  C   UNL     1     -13.967  23.227   0.771  1.00  0.00     0.040 A 
ATOM     84  F   UNL     1     -13.334  21.898  -1.056  1.00  0.00    -0.206 F 
ATOM     85  C   UNL     1     -13.871  23.549   2.123  1.00  0.00     0.006 A 
ENDBRANCH  61  78
ENDBRANCH  35  36
ENDBRANCH  27  30
ENDBRANCH  25  26
ENDBRANCH  24  25
ENDBRANCH   1  24
TORSDOF 14
