REMARK SMILES CCOc1cccc(OCC)c1-c1ccc([C@@H](C)C(=O)NCCCCNC(=O)c2ccc(-c3c4nc(c(-c5c(F)cccc5F)c5ccc([nH]5)c(-c5c(F)cccc5F)c5nc(c(-c6c(F)cccc6F)c6ccc3[nH]6)C=C5)C=C4)cc2)cc1F
REMARK SMILES IDX 22 1 21 2 19 3 20 4 17 6 18 7 16 8 13 9 14 10 84 11 15 12
REMARK SMILES IDX 83 13 85 14 12 15 4 16 5 17 6 18 8 19 7 20 3 21 2 22 1 23
REMARK SMILES IDX 9 24 10 25 11 26 23 27 24 28 25 29 26 30 27 31 28 33 29 34
REMARK SMILES IDX 30 35 82 36 31 37 81 38 32 39 33 40 34 41 75 42 35 43 80 44
REMARK SMILES IDX 74 45 76 46 36 47 79 48 73 49 72 50 37 52 63 53 46 54 62 55
REMARK SMILES IDX 47 56 50 57 61 58 77 59 48 60 49 61 60 63 78 64 51 65 38 66
REMARK SMILES IDX 39 67 44 68 40 69 41 70 43 71 45 72 42 73 64 74 65 75 70 76
REMARK SMILES IDX 66 77 67 78 69 79 71 80 68 81 52 82 53 83 58 84 54 85 55 86
REMARK SMILES IDX 57 87 59 88 56 89
REMARK H PARENT 21 5 26 32 76 51 50 62
REMARK Flexibility Score: inf
ROOT
ATOM      1  C   UNL     1       1.839  -4.113  -2.381  1.00  0.00     0.116 C 
ENDROOT
BRANCH   1   2
ATOM      2  N   UNL     1       0.464  -3.657  -2.495  1.00  0.00    -0.356 N 
ATOM      3  C   UNL     1      -0.122  -2.519  -2.964  1.00  0.00     0.227 C 
ATOM      4  O   UNL     1      -1.351  -2.466  -2.822  1.00  0.00    -0.274 OA
ATOM      5  H   UNL     1      -0.187  -4.314  -2.159  1.00  0.00     0.163 HD
BRANCH   3   6
ATOM      6  C   UNL     1       0.612  -1.334  -3.637  1.00  0.00     0.105 C 
ATOM      7  C   UNL     1       1.457  -1.717  -4.848  1.00  0.00     0.023 C 
BRANCH   6   8
ATOM      8  C   UNL     1       1.321  -0.423  -2.650  1.00  0.00    -0.033 A 
ATOM      9  C   UNL     1       2.467   1.053  -0.500  1.00  0.00     0.025 A 
ATOM     10  C   UNL     1       2.903  -0.227  -0.833  1.00  0.00     0.012 A 
ATOM     11  C   UNL     1       1.450   1.597  -1.297  1.00  0.00     0.131 A 
ATOM     12  C   UNL     1       2.441  -0.874  -1.968  1.00  0.00     0.005 A 
ATOM     13  C   UNL     1       0.847   0.854  -2.325  1.00  0.00     0.044 A 
ATOM     14  F   UNL     1       0.980   2.830  -1.049  1.00  0.00    -0.206 F 
BRANCH   9  15
ATOM     15  C   UNL     1       3.000   1.684   0.720  1.00  0.00     0.069 A 
ATOM     16  C   UNL     1       2.092   1.867   1.804  1.00  0.00     0.130 A 
ATOM     17  C   UNL     1       2.491   2.364   3.047  1.00  0.00     0.047 A 
ATOM     18  C   UNL     1       3.825   2.669   3.260  1.00  0.00     0.008 A 
ATOM     19  C   UNL     1       4.356   2.015   0.951  1.00  0.00     0.130 A 
ATOM     20  C   UNL     1       4.737   2.502   2.220  1.00  0.00     0.047 A 
BRANCH  16  21
ATOM     21  O   UNL     1       0.751   1.626   1.612  1.00  0.00    -0.493 OA
BRANCH  21  22
ATOM     22  C   UNL     1       0.290   0.437   2.260  1.00  0.00     0.226 C 
ATOM     23  C   UNL     1      -0.339  -0.472   1.216  1.00  0.00     0.049 C 
ENDBRANCH  21  22
ENDBRANCH  16  21
BRANCH  19  24
ATOM     24  O   UNL     1       5.456   1.997   0.135  1.00  0.00    -0.493 OA
BRANCH  24  25
ATOM     25  C   UNL     1       5.555   1.306  -1.100  1.00  0.00     0.226 C 
ATOM     26  C   UNL     1       6.094  -0.103  -0.882  1.00  0.00     0.049 C 
ENDBRANCH  24  25
ENDBRANCH  19  24
ENDBRANCH   9  15
ENDBRANCH   6   8
ENDBRANCH   3   6
ENDBRANCH   1   2
BRANCH   1  27
ATOM     27  C   UNL     1       2.417  -3.854  -0.980  1.00  0.00     0.023 C 
BRANCH  27  28
ATOM     28  C   UNL     1       2.317  -5.000   0.016  1.00  0.00     0.023 C 
BRANCH  28  29
ATOM     29  C   UNL     1       3.130  -6.230  -0.349  1.00  0.00     0.116 C 
BRANCH  29  30
ATOM     30  N   UNL     1       4.563  -5.996  -0.462  1.00  0.00    -0.352 N 
ATOM     31  C   UNL     1       5.586  -6.884  -0.214  1.00  0.00     0.251 C 
ATOM     32  H   UNL     1       4.833  -5.094  -0.751  1.00  0.00     0.163 HD
ATOM     33  O   UNL     1       6.757  -6.526  -0.291  1.00  0.00    -0.269 OA
BRANCH  31  34
ATOM     34  C   UNL     1       5.253  -8.264   0.198  1.00  0.00     0.039 A 
ATOM     35  C   UNL     1       5.886  -8.811   1.316  1.00  0.00     0.014 A 
ATOM     36  C   UNL     1       4.271  -8.989  -0.481  1.00  0.00     0.014 A 
ATOM     37  C   UNL     1       5.482 -10.060   1.793  1.00  0.00     0.010 A 
ATOM     38  C   UNL     1       3.803 -10.182   0.051  1.00  0.00     0.010 A 
ATOM     39  C   UNL     1       4.414 -10.739   1.185  1.00  0.00    -0.014 A 
BRANCH  39  40
ATOM     40  C   UNL     1       3.949 -12.059   1.676  1.00  0.00     0.031 A 
ATOM     41  C   UNL     1       4.050 -13.260   0.774  1.00  0.00     0.074 A 
ATOM     42  C   UNL     1       3.380 -12.169   2.892  1.00  0.00     0.049 A 
ATOM     43  N   UNL     1       3.612 -14.478   0.962  1.00  0.00    -0.248 NA
ATOM     44  C   UNL     1       4.698 -13.053  -0.533  1.00  0.00     0.031 C 
ATOM     45  C   UNL     1       3.175 -11.071   3.839  1.00  0.00     0.029 A 
ATOM     46  N   UNL     1       2.860 -13.263   3.537  1.00  0.00    -0.354 N 
ATOM     47  C   UNL     1       3.913 -15.170  -0.204  1.00  0.00     0.074 A 
ATOM     48  C   UNL     1       4.510 -14.224  -1.119  1.00  0.00     0.031 C 
ATOM     49  C   UNL     1       2.596 -11.552   4.952  1.00  0.00     0.029 A 
ATOM     50  C   UNL     1       2.361 -12.982   4.786  1.00  0.00     0.049 A 
ATOM     51  H   UNL     1       2.846 -14.164   3.142  1.00  0.00     0.167 HD
ATOM     52  C   UNL     1       3.741 -16.484  -0.477  1.00  0.00     0.037 A 
ATOM     53  C   UNL     1       1.780 -13.793   5.691  1.00  0.00     0.037 A 
ATOM     54  C   UNL     1       3.189 -17.434   0.450  1.00  0.00     0.049 A 
ATOM     55  C   UNL     1       1.627 -15.255   5.373  1.00  0.00     0.074 A 
ATOM     56  C   UNL     1       3.007 -18.795   0.286  1.00  0.00     0.029 A 
ATOM     57  N   UNL     1       2.748 -17.119   1.726  1.00  0.00    -0.354 N 
ATOM     58  N   UNL     1       1.961 -15.905   4.284  1.00  0.00    -0.248 NA
ATOM     59  C   UNL     1       1.027 -16.101   6.415  1.00  0.00     0.031 C 
ATOM     60  C   UNL     1       2.435 -19.302   1.457  1.00  0.00     0.029 A 
ATOM     61  C   UNL     1       2.297 -18.263   2.362  1.00  0.00     0.049 A 
ATOM     62  H   UNL     1       2.754 -16.218   2.121  1.00  0.00     0.167 HD
ATOM     63  C   UNL     1       1.649 -17.237   4.525  1.00  0.00     0.074 A 
ATOM     64  C   UNL     1       1.110 -17.304   5.867  1.00  0.00     0.031 C 
ATOM     65  C   UNL     1       1.794 -18.310   3.710  1.00  0.00     0.037 A 
BRANCH  52  66
ATOM     66  C   UNL     1       4.182 -16.973  -1.825  1.00  0.00     0.057 A 
ATOM     67  C   UNL     1       5.539 -17.068  -2.163  1.00  0.00     0.134 A 
ATOM     68  C   UNL     1       3.247 -17.381  -2.784  1.00  0.00     0.134 A 
ATOM     69  F   UNL     1       6.484 -16.675  -1.295  1.00  0.00    -0.206 F 
ATOM     70  C   UNL     1       5.949 -17.530  -3.414  1.00  0.00     0.040 A 
ATOM     71  C   UNL     1       3.646 -17.871  -4.029  1.00  0.00     0.040 A 
ATOM     72  F   UNL     1       1.932 -17.318  -2.525  1.00  0.00    -0.206 F 
ATOM     73  C   UNL     1       5.001 -17.941  -4.348  1.00  0.00     0.006 A 
ENDBRANCH  52  66
BRANCH  53  74
ATOM     74  C   UNL     1       1.328 -13.258   7.001  1.00  0.00     0.057 A 
ATOM     75  C   UNL     1       1.983 -13.610   8.188  1.00  0.00     0.134 A 
ATOM     76  C   UNL     1       0.211 -12.421   7.106  1.00  0.00     0.134 A 
ATOM     77  F   UNL     1       3.048 -14.424   8.154  1.00  0.00    -0.206 F 
ATOM     78  C   UNL     1       1.525 -13.178   9.434  1.00  0.00     0.040 A 
ATOM     79  C   UNL     1      -0.242 -11.960   8.343  1.00  0.00     0.040 A 
ATOM     80  F   UNL     1      -0.455 -12.039   6.007  1.00  0.00    -0.206 F 
ATOM     81  C   UNL     1       0.408 -12.348   9.513  1.00  0.00     0.006 A 
ENDBRANCH  53  74
BRANCH  65  82
ATOM     82  C   UNL     1       1.422 -19.650   4.269  1.00  0.00     0.057 A 
ATOM     83  C   UNL     1       0.089 -20.027   4.468  1.00  0.00     0.134 A 
ATOM     84  C   UNL     1       2.416 -20.588   4.578  1.00  0.00     0.134 A 
ATOM     85  F   UNL     1      -0.907 -19.169   4.201  1.00  0.00    -0.206 F 
ATOM     86  C   UNL     1      -0.243 -21.282   4.980  1.00  0.00     0.040 A 
ATOM     87  C   UNL     1       2.095 -21.854   5.066  1.00  0.00     0.040 A 
ATOM     88  F   UNL     1       3.712 -20.291   4.400  1.00  0.00    -0.206 F 
ATOM     89  C   UNL     1       0.762 -22.202   5.275  1.00  0.00     0.006 A 
ENDBRANCH  65  82
ENDBRANCH  39  40
ENDBRANCH  31  34
ENDBRANCH  29  30
ENDBRANCH  28  29
ENDBRANCH  27  28
ENDBRANCH   1  27
TORSDOF 17
