REMARK SMILES C[C@@H](C(=O)NCCCCNC(=O)c1ccc(-c2c3nc(c(-c4c(F)cccc4F)c4ccc([nH]4)c(-c4c(F)cccc4F)c4nc(c(-c5c(F)cccc5F)c5ccc2[nH]5)C=C4)C=C3)cc1)c1ccc(C[C@H]2CCCC2=O)cc1
REMARK SMILES IDX 7 1 6 2 5 3 3 4 4 5 2 7 1 8 67 9 68 10 79 11 69 12 78 13
REMARK SMILES IDX 70 14 71 15 72 16 73 17 76 18 74 19 75 20 77 21 8 22 9 23
REMARK SMILES IDX 10 24 11 25 12 27 13 28 14 29 66 30 15 31 65 32 16 33 17 34
REMARK SMILES IDX 18 35 59 36 19 37 64 38 58 39 60 40 20 41 63 42 57 43 56 44
REMARK SMILES IDX 21 46 47 47 30 48 46 49 31 50 34 51 45 52 61 53 32 54 33 55
REMARK SMILES IDX 44 57 62 58 35 59 22 60 23 61 28 62 24 63 25 64 27 65 29 66
REMARK SMILES IDX 26 67 48 68 49 69 54 70 50 71 51 72 53 73 55 74 52 75 36 76
REMARK SMILES IDX 37 77 42 78 38 79 39 80 41 81 43 82 40 83
REMARK H PARENT 5 6 10 26 60 45 34 56
REMARK Flexibility Score: inf
ROOT
ATOM      1  C   UNL     1       4.243   0.301   1.245  1.00  0.00     0.023 C 
ENDROOT
BRANCH   1   2
ATOM      2  C   UNL     1       3.476  -0.978   1.591  1.00  0.00     0.116 C 
BRANCH   2   3
ATOM      3  N   UNL     1       2.405  -0.696   2.521  1.00  0.00    -0.356 N 
ATOM      4  C   UNL     1       1.074  -0.507   2.289  1.00  0.00     0.227 C 
ATOM      5  O   UNL     1       0.396  -0.146   3.253  1.00  0.00    -0.274 OA
ATOM      6  H   UNL     1       2.678  -0.631   3.465  1.00  0.00     0.163 HD
BRANCH   4   7
ATOM      7  C   UNL     1       0.484  -0.792   0.894  1.00  0.00     0.105 C 
ATOM      8  C   UNL     1       0.965   0.207  -0.167  1.00  0.00     0.023 C 
BRANCH   7   9
ATOM      9  C   UNL     1      -1.040  -0.834   0.939  1.00  0.00    -0.036 A 
ATOM     10  C   UNL     1      -1.799   0.342   0.855  1.00  0.00     0.005 A 
ATOM     11  C   UNL     1      -1.712  -2.053   1.108  1.00  0.00     0.005 A 
ATOM     12  C   UNL     1      -3.188   0.300   0.911  1.00  0.00     0.004 A 
ATOM     13  C   UNL     1      -3.107  -2.090   1.203  1.00  0.00     0.004 A 
ATOM     14  C   UNL     1      -3.857  -0.910   1.121  1.00  0.00    -0.047 A 
BRANCH  14  15
ATOM     15  C   UNL     1      -5.357  -0.928   1.282  1.00  0.00     0.047 C 
BRANCH  15  16
ATOM     16  C   UNL     1      -5.904  -0.373   2.605  1.00  0.00     0.060 C 
ATOM     17  C   UNL     1      -5.379  -1.031   3.885  1.00  0.00     0.012 C 
ATOM     18  C   UNL     1      -5.549   1.079   2.831  1.00  0.00     0.136 C 
ATOM     19  C   UNL     1      -4.258  -0.138   4.403  1.00  0.00     0.009 C 
ATOM     20  C   UNL     1      -4.651   1.282   4.022  1.00  0.00     0.076 C 
ATOM     21  O   UNL     1      -5.957   1.996   2.126  1.00  0.00    -0.299 OA
ENDBRANCH  15  16
ENDBRANCH  14  15
ENDBRANCH   7   9
ENDBRANCH   4   7
ENDBRANCH   2   3
ENDBRANCH   1   2
BRANCH   1  22
ATOM     22  C   UNL     1       5.028   0.903   2.414  1.00  0.00     0.023 C 
BRANCH  22  23
ATOM     23  C   UNL     1       6.035  -0.037   3.063  1.00  0.00     0.116 C 
BRANCH  23  24
ATOM     24  N   UNL     1       7.019  -0.547   2.121  1.00  0.00    -0.352 N 
ATOM     25  C   UNL     1       8.370  -0.713   2.290  1.00  0.00     0.251 C 
ATOM     26  H   UNL     1       6.666  -0.810   1.240  1.00  0.00     0.163 HD
ATOM     27  O   UNL     1       9.077  -1.024   1.335  1.00  0.00    -0.269 OA
BRANCH  25  28
ATOM     28  C   UNL     1       8.977  -0.485   3.617  1.00  0.00     0.039 A 
ATOM     29  C   UNL     1      10.159   0.254   3.698  1.00  0.00     0.014 A 
ATOM     30  C   UNL     1       8.382  -0.990   4.777  1.00  0.00     0.014 A 
ATOM     31  C   UNL     1      10.715   0.532   4.947  1.00  0.00     0.010 A 
ATOM     32  C   UNL     1       8.892  -0.643   6.024  1.00  0.00     0.010 A 
ATOM     33  C   UNL     1      10.069   0.112   6.122  1.00  0.00    -0.014 A 
BRANCH  33  34
ATOM     34  C   UNL     1      10.621   0.445   7.459  1.00  0.00     0.031 A 
ATOM     35  C   UNL     1      11.081  -0.650   8.381  1.00  0.00     0.074 A 
ATOM     36  C   UNL     1      10.663   1.730   7.862  1.00  0.00     0.049 A 
ATOM     37  N   UNL     1      11.561  -0.562   9.596  1.00  0.00    -0.248 NA
ATOM     38  C   UNL     1      10.962  -2.030   7.883  1.00  0.00     0.031 C 
ATOM     39  C   UNL     1      10.203   2.878   7.080  1.00  0.00     0.029 A 
ATOM     40  N   UNL     1      11.113   2.285   9.033  1.00  0.00    -0.354 N 
ATOM     41  C   UNL     1      11.789  -1.869  10.009  1.00  0.00     0.074 A 
ATOM     42  C   UNL     1      11.337  -2.734   8.941  1.00  0.00     0.031 C 
ATOM     43  C   UNL     1      10.425   4.003   7.778  1.00  0.00     0.029 A 
ATOM     44  C   UNL     1      11.006   3.654   9.071  1.00  0.00     0.049 A 
ATOM     45  H   UNL     1      11.478   1.752   9.777  1.00  0.00     0.167 HD
ATOM     46  C   UNL     1      12.348  -2.309  11.161  1.00  0.00     0.037 A 
ATOM     47  C   UNL     1      11.337   4.528  10.039  1.00  0.00     0.037 A 
ATOM     48  C   UNL     1      12.813  -1.445  12.214  1.00  0.00     0.049 A 
ATOM     49  C   UNL     1      11.941   4.013  11.317  1.00  0.00     0.074 A 
ATOM     50  C   UNL     1      13.444  -1.788  13.396  1.00  0.00     0.029 A 
ATOM     51  N   UNL     1      12.690  -0.063  12.213  1.00  0.00    -0.354 N 
ATOM     52  N   UNL     1      12.220   2.780  11.663  1.00  0.00    -0.248 NA
ATOM     53  C   UNL     1      12.284   5.015  12.336  1.00  0.00     0.031 C 
ATOM     54  C   UNL     1      13.656  -0.620  14.135  1.00  0.00     0.029 A 
ATOM     55  C   UNL     1      13.211   0.459  13.387  1.00  0.00     0.049 A 
ATOM     56  H   UNL     1      12.291   0.469  11.487  1.00  0.00     0.167 HD
ATOM     57  C   UNL     1      12.801   2.860  12.922  1.00  0.00     0.074 A 
ATOM     58  C   UNL     1      12.847   4.264  13.271  1.00  0.00     0.031 C 
ATOM     59  C   UNL     1      13.258   1.861  13.717  1.00  0.00     0.037 A 
BRANCH  46  60
ATOM     60  C   UNL     1      12.486  -3.795  11.339  1.00  0.00     0.057 A 
ATOM     61  C   UNL     1      13.374  -4.555  10.565  1.00  0.00     0.134 A 
ATOM     62  C   UNL     1      11.739  -4.471  12.311  1.00  0.00     0.134 A 
ATOM     63  F   UNL     1      14.112  -3.973   9.607  1.00  0.00    -0.206 F 
ATOM     64  C   UNL     1      13.489  -5.937  10.729  1.00  0.00     0.040 A 
ATOM     65  C   UNL     1      11.868  -5.848  12.506  1.00  0.00     0.040 A 
ATOM     66  F   UNL     1      10.875  -3.806  13.092  1.00  0.00    -0.206 F 
ATOM     67  C   UNL     1      12.739  -6.586  11.707  1.00  0.00     0.006 A 
ENDBRANCH  46  60
BRANCH  47  68
ATOM     68  C   UNL     1      11.136   5.985   9.831  1.00  0.00     0.057 A 
ATOM     69  C   UNL     1      12.227   6.852   9.698  1.00  0.00     0.134 A 
ATOM     70  C   UNL     1       9.855   6.548   9.774  1.00  0.00     0.134 A 
ATOM     71  F   UNL     1      13.479   6.375   9.761  1.00  0.00    -0.206 F 
ATOM     72  C   UNL     1      12.054   8.228   9.541  1.00  0.00     0.040 A 
ATOM     73  C   UNL     1       9.667   7.919   9.589  1.00  0.00     0.040 A 
ATOM     74  F   UNL     1       8.768   5.771   9.886  1.00  0.00    -0.206 F 
ATOM     75  C   UNL     1      10.770   8.764   9.481  1.00  0.00     0.006 A 
ENDBRANCH  47  68
BRANCH  59  76
ATOM     76  C   UNL     1      13.887   2.255  15.023  1.00  0.00     0.057 A 
ATOM     77  C   UNL     1      13.135   2.767  16.087  1.00  0.00     0.134 A 
ATOM     78  C   UNL     1      15.264   2.093  15.224  1.00  0.00     0.134 A 
ATOM     79  F   UNL     1      11.814   2.960  15.956  1.00  0.00    -0.206 F 
ATOM     80  C   UNL     1      13.734   3.132  17.294  1.00  0.00     0.040 A 
ATOM     81  C   UNL     1      15.870   2.425  16.437  1.00  0.00     0.040 A 
ATOM     82  F   UNL     1      16.043   1.598  14.250  1.00  0.00    -0.206 F 
ATOM     83  C   UNL     1      15.105   2.954  17.473  1.00  0.00     0.006 A 
ENDBRANCH  59  76
ENDBRANCH  33  34
ENDBRANCH  25  28
ENDBRANCH  23  24
ENDBRANCH  22  23
ENDBRANCH   1  22
TORSDOF 14
