REMARK SMILES COC[C@H](C)Oc1cnc2ccccc2c1C(=O)NCCCCNC(=O)c1ccc(-c2c3nc(c(-c4c(F)cccc4F)c4ccc([nH]4)c(-c4c(F)cccc4F)c4nc(c(-c5c(F)cccc5F)c5ccc2[nH]5)C=C4)C=C3)cc1
REMARK SMILES IDX 20 1 19 2 17 3 18 4 16 6 7 7 8 8 9 9 15 10 10 11 14 12 11 13
REMARK SMILES IDX 13 14 12 15 6 16 4 17 5 18 3 19 2 20 1 21 21 22 22 23 23 24
REMARK SMILES IDX 24 25 25 26 26 28 27 29 28 30 80 31 29 32 79 33 30 34 31 35
REMARK SMILES IDX 32 36 73 37 33 38 78 39 72 40 74 41 34 42 77 43 71 44 70 45
REMARK SMILES IDX 35 47 61 48 44 49 60 50 45 51 48 52 59 53 75 54 46 55 47 56
REMARK SMILES IDX 58 58 76 59 49 60 36 61 37 62 42 63 38 64 39 65 41 66 43 67
REMARK SMILES IDX 40 68 62 69 63 70 68 71 64 72 65 73 67 74 69 75 66 76 50 77
REMARK SMILES IDX 51 78 56 79 52 80 53 81 55 82 57 83 54 84
REMARK H PARENT 19 5 24 27 74 46 48 57
REMARK Flexibility Score: inf
ROOT
ATOM      1  C   UNL     1       3.466   7.772  -0.551  1.00  0.00     0.116 C 
ENDROOT
BRANCH   1   2
ATOM      2  N   UNL     1       2.341   7.022  -1.079  1.00  0.00    -0.352 N 
ATOM      3  C   UNL     1       2.155   5.875  -1.815  1.00  0.00     0.255 C 
ATOM      4  O   UNL     1       1.010   5.785  -2.268  1.00  0.00    -0.269 OA
ATOM      5  H   UNL     1       1.483   7.447  -0.850  1.00  0.00     0.163 HD
BRANCH   3   6
ATOM      6  C   UNL     1       3.135   4.736  -2.015  1.00  0.00     0.092 A 
ATOM      7  C   UNL     1       2.571   3.439  -2.085  1.00  0.00     0.151 A 
ATOM      8  C   UNL     1       3.429   2.361  -2.209  1.00  0.00     0.159 A 
ATOM      9  N   UNL     1       4.769   2.442  -2.159  1.00  0.00    -0.252 NA
ATOM     10  C   UNL     1       4.556   4.847  -2.158  1.00  0.00     0.017 A 
ATOM     11  C   UNL     1       5.316   3.654  -2.142  1.00  0.00     0.071 A 
ATOM     12  C   UNL     1       5.292   6.024  -2.402  1.00  0.00     0.011 A 
ATOM     13  C   UNL     1       6.704   3.698  -2.162  1.00  0.00     0.029 A 
ATOM     14  C   UNL     1       6.688   6.071  -2.400  1.00  0.00     0.001 A 
ATOM     15  C   UNL     1       7.401   4.898  -2.250  1.00  0.00     0.002 A 
BRANCH   7  16
ATOM     16  O   UNL     1       1.222   3.262  -2.192  1.00  0.00    -0.486 OA
BRANCH  16  17
ATOM     17  C   UNL     1       0.531   2.338  -1.336  1.00  0.00     0.196 C 
ATOM     18  C   UNL     1       0.560   0.901  -1.858  1.00  0.00     0.055 C 
BRANCH  17  19
ATOM     19  C   UNL     1       0.887   2.464   0.156  1.00  0.00     0.204 C 
BRANCH  19  20
ATOM     20  O   UNL     1       0.211   1.514   0.984  1.00  0.00    -0.381 OA
ATOM     21  C   UNL     1      -1.165   1.808   1.177  1.00  0.00     0.195 C 
ENDBRANCH  19  20
ENDBRANCH  17  19
ENDBRANCH  16  17
ENDBRANCH   7  16
ENDBRANCH   3   6
ENDBRANCH   1   2
BRANCH   1  22
ATOM     22  C   UNL     1       3.875   8.850  -1.572  1.00  0.00     0.023 C 
BRANCH  22  23
ATOM     23  C   UNL     1       3.317  10.248  -1.337  1.00  0.00     0.023 C 
BRANCH  23  24
ATOM     24  C   UNL     1       3.885  10.964  -0.122  1.00  0.00     0.116 C 
BRANCH  24  25
ATOM     25  N   UNL     1       5.340  11.057  -0.111  1.00  0.00    -0.352 N 
ATOM     26  C   UNL     1       6.133  12.066   0.382  1.00  0.00     0.251 C 
ATOM     27  H   UNL     1       5.819  10.294  -0.509  1.00  0.00     0.163 HD
ATOM     28  O   UNL     1       7.353  12.017   0.260  1.00  0.00    -0.269 OA
BRANCH  26  29
ATOM     29  C   UNL     1       5.491  13.238   1.007  1.00  0.00     0.039 A 
ATOM     30  C   UNL     1       5.860  14.514   0.578  1.00  0.00     0.014 A 
ATOM     31  C   UNL     1       4.469  13.070   1.944  1.00  0.00     0.014 A 
ATOM     32  C   UNL     1       5.133  15.619   1.017  1.00  0.00     0.010 A 
ATOM     33  C   UNL     1       3.690  14.159   2.308  1.00  0.00     0.010 A 
ATOM     34  C   UNL     1       4.010  15.443   1.842  1.00  0.00    -0.014 A 
BRANCH  34  35
ATOM     35  C   UNL     1       3.142  16.587   2.209  1.00  0.00     0.031 A 
ATOM     36  C   UNL     1       3.000  16.996   3.647  1.00  0.00     0.074 A 
ATOM     37  C   UNL     1       2.425  17.207   1.252  1.00  0.00     0.049 A 
ATOM     38  N   UNL     1       2.261  17.942   4.166  1.00  0.00    -0.248 NA
ATOM     39  C   UNL     1       3.762  16.218   4.636  1.00  0.00     0.031 C 
ATOM     40  C   UNL     1       2.418  16.849  -0.169  1.00  0.00     0.029 A 
ATOM     41  N   UNL     1       1.557  18.266   1.330  1.00  0.00    -0.354 N 
ATOM     42  C   UNL     1       2.456  17.861   5.538  1.00  0.00     0.074 A 
ATOM     43  C   UNL     1       3.334  16.737   5.776  1.00  0.00     0.031 C 
ATOM     44  C   UNL     1       1.616  17.697  -0.832  1.00  0.00     0.029 A 
ATOM     45  C   UNL     1       1.032  18.638   0.117  1.00  0.00     0.049 A 
ATOM     46  H   UNL     1       1.333  18.717   2.176  1.00  0.00     0.167 HD
ATOM     47  C   UNL     1       1.971  18.669   6.510  1.00  0.00     0.037 A 
ATOM     48  C   UNL     1       0.180  19.633  -0.193  1.00  0.00     0.037 A 
ATOM     49  C   UNL     1       1.127  19.807   6.265  1.00  0.00     0.049 A 
ATOM     50  C   UNL     1      -0.319  20.536   0.898  1.00  0.00     0.074 A 
ATOM     51  C   UNL     1       0.645  20.736   7.171  1.00  0.00     0.029 A 
ATOM     52  N   UNL     1       0.638  20.171   5.019  1.00  0.00    -0.354 N 
ATOM     53  N   UNL     1      -0.059  20.500   2.183  1.00  0.00    -0.248 NA
ATOM     54  C   UNL     1      -1.223  21.622   0.496  1.00  0.00     0.031 C 
ATOM     55  C   UNL     1      -0.162  21.643   6.477  1.00  0.00     0.029 A 
ATOM     56  C   UNL     1      -0.154  21.301   5.134  1.00  0.00     0.049 A 
ATOM     57  H   UNL     1       0.827  19.697   4.178  1.00  0.00     0.167 HD
ATOM     58  C   UNL     1      -0.749  21.568   2.740  1.00  0.00     0.074 A 
ATOM     59  C   UNL     1      -1.426  22.242   1.650  1.00  0.00     0.031 C 
ATOM     60  C   UNL     1      -0.819  21.955   4.037  1.00  0.00     0.037 A 
BRANCH  47  61
ATOM     61  C   UNL     1       2.361  18.351   7.923  1.00  0.00     0.057 A 
ATOM     62  C   UNL     1       3.669  18.545   8.388  1.00  0.00     0.134 A 
ATOM     63  C   UNL     1       1.419  17.856   8.832  1.00  0.00     0.134 A 
ATOM     64  F   UNL     1       4.623  19.001   7.562  1.00  0.00    -0.206 F 
ATOM     65  C   UNL     1       4.033  18.229   9.697  1.00  0.00     0.040 A 
ATOM     66  C   UNL     1       1.765  17.561  10.152  1.00  0.00     0.040 A 
ATOM     67  F   UNL     1       0.148  17.649   8.453  1.00  0.00    -0.206 F 
ATOM     68  C   UNL     1       3.077  17.740  10.585  1.00  0.00     0.006 A 
ENDBRANCH  47  61
BRANCH  48  69
ATOM     69  C   UNL     1      -0.216  19.855  -1.605  1.00  0.00     0.057 A 
ATOM     70  C   UNL     1       0.276  20.951  -2.324  1.00  0.00     0.134 A 
ATOM     71  C   UNL     1      -1.086  18.984  -2.270  1.00  0.00     0.134 A 
ATOM     72  F   UNL     1       1.101  21.829  -1.734  1.00  0.00    -0.206 F 
ATOM     73  C   UNL     1      -0.094  21.182  -3.650  1.00  0.00     0.040 A 
ATOM     74  C   UNL     1      -1.449  19.191  -3.602  1.00  0.00     0.040 A 
ATOM     75  F   UNL     1      -1.584  17.911  -1.638  1.00  0.00    -0.206 F 
ATOM     76  C   UNL     1      -0.957  20.297  -4.294  1.00  0.00     0.006 A 
ENDBRANCH  48  69
BRANCH  60  77
ATOM     77  C   UNL     1      -1.641  23.171   4.340  1.00  0.00     0.057 A 
ATOM     78  C   UNL     1      -3.041  23.137   4.315  1.00  0.00     0.134 A 
ATOM     79  C   UNL     1      -1.026  24.379   4.691  1.00  0.00     0.134 A 
ATOM     80  F   UNL     1      -3.688  22.013   3.972  1.00  0.00    -0.206 F 
ATOM     81  C   UNL     1      -3.801  24.270   4.607  1.00  0.00     0.040 A 
ATOM     82  C   UNL     1      -1.776  25.512   5.008  1.00  0.00     0.040 A 
ATOM     83  F   UNL     1       0.311  24.474   4.740  1.00  0.00    -0.206 F 
ATOM     84  C   UNL     1      -3.168  25.461   4.960  1.00  0.00     0.006 A 
ENDBRANCH  60  77
ENDBRANCH  34  35
ENDBRANCH  26  29
ENDBRANCH  24  25
ENDBRANCH  23  24
ENDBRANCH  22  23
ENDBRANCH   1  22
TORSDOF 15
