REMARK SMILES COc1ccc(-n2c(SCc3cn(-c4ccc(C(=O)NCCCCNC(=O)c5ccc(-c6c7nc(c(-c8c(F)cccc8F)c8ccc([nH]8)c(-c8c(F)cccc8F)c8nc(c(-c9c(F)cccc9F)c9ccc6[nH]9)C=C8)C=C7)cc5)cc4)nn3)nc3ccccc3c2=O)cc1
REMARK SMILES IDX 18 1 19 2 20 3 17 5 14 6 15 7 83 8 16 9 82 10 13 11 11 12
REMARK SMILES IDX 12 13 85 14 84 15 10 16 9 17 8 18 7 19 93 20 86 21 92 22
REMARK SMILES IDX 94 23 87 24 91 25 88 26 90 27 89 28 6 29 3 30 4 31 96 32
REMARK SMILES IDX 5 33 95 34 2 35 1 36 21 37 22 38 23 39 24 40 25 41 26 42
REMARK SMILES IDX 27 44 28 45 29 46 81 47 30 48 80 49 31 50 32 51 33 52 74 53
REMARK SMILES IDX 34 54 79 55 73 56 75 57 35 58 78 59 72 60 71 61 36 63 62 64
REMARK SMILES IDX 45 65 61 66 46 67 49 68 60 69 76 70 47 71 48 72 59 74 77 75
REMARK SMILES IDX 50 76 37 77 38 78 43 79 39 80 40 81 42 82 44 83 41 84 63 85
REMARK SMILES IDX 64 86 69 87 65 88 66 89 68 90 70 91 67 92 51 93 52 94 57 95
REMARK SMILES IDX 53 96 54 97 56 98 58 99 55 100
REMARK H PARENT 20 4 25 43 75 62 49 73
REMARK Flexibility Score: inf
ROOT
ATOM      1  C   UNL     1      -4.680  -0.167  -5.656  1.00  0.00     0.251 C 
ATOM      2  O   UNL     1      -4.958   0.477  -6.670  1.00  0.00    -0.269 OA
ATOM      3  N   UNL     1      -5.712  -0.841  -5.058  1.00  0.00    -0.352 N 
ATOM      4  H   UNL     1      -6.581  -0.683  -5.493  1.00  0.00     0.163 HD
ENDROOT
BRANCH   1   5
ATOM      5  C   UNL     1      -3.264  -0.184  -5.186  1.00  0.00     0.039 A 
ATOM      6  C   UNL     1      -0.563  -0.089  -4.494  1.00  0.00     0.066 A 
ATOM      7  C   UNL     1      -0.939   0.303  -5.773  1.00  0.00     0.029 A 
ATOM      8  C   UNL     1      -1.496  -0.532  -3.560  1.00  0.00     0.029 A 
ATOM      9  C   UNL     1      -2.290   0.248  -6.113  1.00  0.00     0.016 A 
ATOM     10  C   UNL     1      -2.847  -0.546  -3.901  1.00  0.00     0.016 A 
BRANCH   6  11
ATOM     11  N   UNL     1       0.790  -0.141  -4.176  1.00  0.00    -0.220 N 
ATOM     12  C   UNL     1       2.776  -0.863  -3.709  1.00  0.00     0.093 A 
ATOM     13  C   UNL     1       1.564  -1.260  -4.219  1.00  0.00     0.141 A 
ATOM     14  N   UNL     1       2.686   0.459  -3.350  1.00  0.00    -0.134 NA
ATOM     15  N   UNL     1       1.464   0.889  -3.639  1.00  0.00    -0.062 NA
BRANCH  12  16
ATOM     16  C   UNL     1       4.026  -1.606  -3.470  1.00  0.00     0.138 C 
BRANCH  16  17
ATOM     17  S   UNL     1       4.455  -2.826  -4.696  1.00  0.00    -0.081 SA
BRANCH  17  18
ATOM     18  C   UNL     1       3.032  -3.873  -4.895  1.00  0.00     0.176 A 
ATOM     19  N   UNL     1       2.872  -4.842  -3.915  1.00  0.00    -0.255 N 
ATOM     20  C   UNL     1       3.099  -6.155  -4.299  1.00  0.00     0.266 A 
ATOM     21  N   UNL     1       2.727  -4.136  -6.132  1.00  0.00    -0.223 NA
ATOM     22  C   UNL     1       3.791  -6.254  -5.612  1.00  0.00     0.066 A 
ATOM     23  O   UNL     1       2.817  -7.168  -3.669  1.00  0.00    -0.268 OA
ATOM     24  C   UNL     1       3.446  -5.274  -6.557  1.00  0.00     0.079 A 
ATOM     25  C   UNL     1       4.918  -7.047  -5.797  1.00  0.00     0.016 A 
ATOM     26  C   UNL     1       4.121  -5.206  -7.773  1.00  0.00     0.029 A 
ATOM     27  C   UNL     1       5.672  -6.881  -6.963  1.00  0.00     0.001 A 
ATOM     28  C   UNL     1       5.252  -5.997  -7.966  1.00  0.00     0.002 A 
BRANCH  19  29
ATOM     29  C   UNL     1       2.117  -4.516  -2.758  1.00  0.00     0.052 A 
ATOM     30  C   UNL     1       0.818  -2.928  -0.868  1.00  0.00     0.119 A 
ATOM     31  C   UNL     1       0.075  -3.551  -1.869  1.00  0.00     0.048 A 
ATOM     32  C   UNL     1       2.160  -3.256  -0.697  1.00  0.00     0.048 A 
ATOM     33  C   UNL     1       0.728  -4.330  -2.834  1.00  0.00     0.030 A 
ATOM     34  C   UNL     1       2.805  -4.070  -1.631  1.00  0.00     0.030 A 
BRANCH  30  35
ATOM     35  O   UNL     1       0.185  -2.024  -0.059  1.00  0.00    -0.497 OA
ATOM     36  C   UNL     1       0.787  -0.722  -0.111  1.00  0.00     0.278 C 
ENDBRANCH  30  35
ENDBRANCH  19  29
ENDBRANCH  17  18
ENDBRANCH  16  17
ENDBRANCH  12  16
ENDBRANCH   6  11
ENDBRANCH   1   5
BRANCH   3  37
ATOM     37  C   UNL     1      -5.798  -1.735  -3.920  1.00  0.00     0.116 C 
BRANCH  37  38
ATOM     38  C   UNL     1      -6.234  -0.998  -2.648  1.00  0.00     0.023 C 
BRANCH  38  39
ATOM     39  C   UNL     1      -7.701  -0.540  -2.619  1.00  0.00     0.023 C 
BRANCH  39  40
ATOM     40  C   UNL     1      -8.729  -1.666  -2.627  1.00  0.00     0.116 C 
BRANCH  40  41
ATOM     41  N   UNL     1      -8.628  -2.550  -1.462  1.00  0.00    -0.352 N 
ATOM     42  C   UNL     1      -9.252  -3.765  -1.267  1.00  0.00     0.251 C 
ATOM     43  H   UNL     1      -8.045  -2.239  -0.732  1.00  0.00     0.163 HD
ATOM     44  O   UNL     1      -9.434  -4.216  -0.134  1.00  0.00    -0.269 OA
BRANCH  42  45
ATOM     45  C   UNL     1      -9.673  -4.537  -2.444  1.00  0.00     0.039 A 
ATOM     46  C   UNL     1     -10.898  -5.206  -2.508  1.00  0.00     0.014 A 
ATOM     47  C   UNL     1      -8.802  -4.535  -3.529  1.00  0.00     0.014 A 
ATOM     48  C   UNL     1     -11.267  -5.806  -3.711  1.00  0.00     0.010 A 
ATOM     49  C   UNL     1      -9.244  -4.953  -4.752  1.00  0.00     0.010 A 
ATOM     50  C   UNL     1     -10.438  -5.657  -4.834  1.00  0.00    -0.014 A 
BRANCH  50  51
ATOM     51  C   UNL     1     -10.841  -6.122  -6.154  1.00  0.00     0.031 A 
ATOM     52  C   UNL     1     -12.135  -5.565  -6.625  1.00  0.00     0.074 A 
ATOM     53  C   UNL     1      -9.998  -6.797  -6.968  1.00  0.00     0.049 A 
ATOM     54  N   UNL     1     -13.240  -6.207  -6.803  1.00  0.00    -0.248 NA
ATOM     55  C   UNL     1     -12.269  -4.104  -6.766  1.00  0.00     0.031 C 
ATOM     56  C   UNL     1      -8.588  -7.141  -6.743  1.00  0.00     0.029 A 
ATOM     57  N   UNL     1     -10.201  -7.229  -8.241  1.00  0.00    -0.354 N 
ATOM     58  C   UNL     1     -14.147  -5.277  -7.301  1.00  0.00     0.074 A 
ATOM     59  C   UNL     1     -13.565  -3.982  -7.066  1.00  0.00     0.031 C 
ATOM     60  C   UNL     1      -8.012  -7.498  -7.913  1.00  0.00     0.029 A 
ATOM     61  C   UNL     1      -9.041  -7.574  -8.931  1.00  0.00     0.049 A 
ATOM     62  H   UNL     1     -11.098  -7.294  -8.643  1.00  0.00     0.167 HD
ATOM     63  C   UNL     1     -15.177  -5.670  -8.101  1.00  0.00     0.037 A 
ATOM     64  C   UNL     1      -8.947  -7.868 -10.253  1.00  0.00     0.037 A 
ATOM     65  C   UNL     1     -15.362  -7.100  -8.037  1.00  0.00     0.049 A 
ATOM     66  C   UNL     1     -10.311  -8.232 -10.715  1.00  0.00     0.074 A 
ATOM     67  C   UNL     1     -15.629  -7.998  -7.022  1.00  0.00     0.029 A 
ATOM     68  N   UNL     1     -14.863  -7.848  -9.077  1.00  0.00    -0.354 N 
ATOM     69  N   UNL     1     -10.937  -9.309 -10.327  1.00  0.00    -0.248 NA
ATOM     70  C   UNL     1     -11.161  -7.156 -11.203  1.00  0.00     0.031 C 
ATOM     71  C   UNL     1     -14.814  -9.132  -7.314  1.00  0.00     0.029 A 
ATOM     72  C   UNL     1     -14.174  -8.901  -8.533  1.00  0.00     0.049 A 
ATOM     73  H   UNL     1     -14.980  -7.662 -10.036  1.00  0.00     0.167 HD
ATOM     74  C   UNL     1     -12.238  -8.890 -10.091  1.00  0.00     0.074 A 
ATOM     75  C   UNL     1     -12.334  -7.571 -10.718  1.00  0.00     0.031 C 
ATOM     76  C   UNL     1     -13.017  -9.504  -9.152  1.00  0.00     0.037 A 
BRANCH  63  77
ATOM     77  C   UNL     1     -15.748  -4.849  -9.230  1.00  0.00     0.057 A 
ATOM     78  C   UNL     1     -16.906  -5.304  -9.886  1.00  0.00     0.134 A 
ATOM     79  C   UNL     1     -15.053  -3.815  -9.890  1.00  0.00     0.134 A 
ATOM     80  F   UNL     1     -17.648  -6.294  -9.364  1.00  0.00    -0.206 F 
ATOM     81  C   UNL     1     -17.295  -4.826 -11.142  1.00  0.00     0.040 A 
ATOM     82  C   UNL     1     -15.462  -3.294 -11.120  1.00  0.00     0.040 A 
ATOM     83  F   UNL     1     -13.891  -3.328  -9.442  1.00  0.00    -0.206 F 
ATOM     84  C   UNL     1     -16.567  -3.822 -11.768  1.00  0.00     0.006 A 
ENDBRANCH  63  77
BRANCH  64  85
ATOM     85  C   UNL     1      -7.856  -7.537 -11.204  1.00  0.00     0.057 A 
ATOM     86  C   UNL     1      -7.826  -8.094 -12.492  1.00  0.00     0.134 A 
ATOM     87  C   UNL     1      -6.991  -6.450 -10.988  1.00  0.00     0.134 A 
ATOM     88  F   UNL     1      -8.637  -9.114 -12.811  1.00  0.00    -0.206 F 
ATOM     89  C   UNL     1      -7.017  -7.576 -13.514  1.00  0.00     0.040 A 
ATOM     90  C   UNL     1      -6.174  -5.926 -11.998  1.00  0.00     0.040 A 
ATOM     91  F   UNL     1      -6.974  -5.798  -9.817  1.00  0.00    -0.206 F 
ATOM     92  C   UNL     1      -6.199  -6.478 -13.272  1.00  0.00     0.006 A 
ENDBRANCH  64  85
BRANCH  76  93
ATOM     93  C   UNL     1     -12.524 -10.795  -8.554  1.00  0.00     0.057 A 
ATOM     94  C   UNL     1     -11.350 -10.926  -7.795  1.00  0.00     0.134 A 
ATOM     95  C   UNL     1     -13.355 -11.918  -8.623  1.00  0.00     0.134 A 
ATOM     96  F   UNL     1     -10.539  -9.883  -7.583  1.00  0.00    -0.206 F 
ATOM     97  C   UNL     1     -11.000 -12.129  -7.174  1.00  0.00     0.040 A 
ATOM     98  C   UNL     1     -13.035 -13.116  -7.979  1.00  0.00     0.040 A 
ATOM     99  F   UNL     1     -14.522 -11.854  -9.282  1.00  0.00    -0.206 F 
ATOM    100  C   UNL     1     -11.848 -13.228  -7.260  1.00  0.00     0.006 A 
ENDBRANCH  76  93
ENDBRANCH  50  51
ENDBRANCH  42  45
ENDBRANCH  40  41
ENDBRANCH  39  40
ENDBRANCH  38  39
ENDBRANCH  37  38
ENDBRANCH   3  37
TORSDOF 17
