REMARK SMILES CCOc1cc(C(=O)NCCCCNC(=O)c2ccc(-c3c4nc(c(-c5c(F)cccc5F)c5ccc([nH]5)c(-c5c(F)cccc5F)c5nc(c(-c6c(F)cccc6F)c6ccc3[nH]6)C=C5)C=C4)cc2)ccc1OCc1ccc(Cl)c(Cl)c1
REMARK SMILES IDX 11 1 10 2 9 3 7 4 8 5 6 7 4 8 5 9 73 10 72 11 71 12 3 13
REMARK SMILES IDX 2 14 1 15 74 16 75 17 76 18 77 19 83 20 78 21 81 22 79 23
REMARK SMILES IDX 82 24 80 25 12 26 13 27 14 28 15 29 16 31 17 32 18 33 70 34
REMARK SMILES IDX 19 35 69 36 20 37 21 38 22 39 63 40 23 41 68 42 62 43 64 44
REMARK SMILES IDX 24 45 67 46 61 47 60 48 25 50 51 51 34 52 50 53 35 54 38 55
REMARK SMILES IDX 49 56 65 57 36 58 37 59 48 61 66 62 39 63 26 64 27 65 32 66
REMARK SMILES IDX 28 67 29 68 31 69 33 70 30 71 52 72 53 73 58 74 54 75 55 76
REMARK SMILES IDX 57 77 59 78 56 79 40 80 41 81 46 82 42 83 43 84 45 85 47 86
REMARK SMILES IDX 44 87
REMARK H PARENT 9 6 14 30 64 49 38 60
REMARK Flexibility Score: inf
ROOT
ATOM      1  C   UNL     1       7.242  -2.782  -5.096  1.00  0.00     0.023 C 
ENDROOT
BRANCH   1   2
ATOM      2  C   UNL     1       6.738  -1.405  -4.676  1.00  0.00     0.116 C 
BRANCH   2   3
ATOM      3  N   UNL     1       5.758  -0.837  -5.592  1.00  0.00    -0.352 N 
ATOM      4  C   UNL     1       4.531  -0.274  -5.308  1.00  0.00     0.251 C 
ATOM      5  O   UNL     1       3.780   0.070  -6.214  1.00  0.00    -0.269 OA
ATOM      6  H   UNL     1       6.006  -0.857  -6.545  1.00  0.00     0.163 HD
BRANCH   4   7
ATOM      7  C   UNL     1       4.106  -0.109  -3.898  1.00  0.00     0.043 A 
ATOM      8  C   UNL     1       2.506  -0.575  -2.135  1.00  0.00     0.161 A 
ATOM      9  C   UNL     1       2.854  -0.594  -3.493  1.00  0.00     0.064 A 
ATOM     10  C   UNL     1       3.420  -0.077  -1.196  1.00  0.00     0.161 A 
ATOM     11  C   UNL     1       4.646   0.447  -1.621  1.00  0.00     0.051 A 
ATOM     12  C   UNL     1       4.972   0.475  -2.971  1.00  0.00     0.018 A 
BRANCH   8  13
ATOM     13  O   UNL     1       1.363  -1.191  -1.697  1.00  0.00    -0.490 OA
BRANCH  13  14
ATOM     14  C   UNL     1       0.163  -0.647  -2.259  1.00  0.00     0.226 C 
ATOM     15  C   UNL     1      -0.993  -1.097  -1.377  1.00  0.00     0.049 C 
ENDBRANCH  13  14
ENDBRANCH   8  13
BRANCH  10  16
ATOM     16  O   UNL     1       3.274  -0.081   0.167  1.00  0.00    -0.485 OA
BRANCH  16  17
ATOM     17  C   UNL     1       2.043   0.426   0.695  1.00  0.00     0.265 C 
BRANCH  17  18
ATOM     18  C   UNL     1       1.699   1.841   0.272  1.00  0.00    -0.009 A 
ATOM     19  C   UNL     1       2.693   2.815   0.108  1.00  0.00     0.009 A 
ATOM     20  C   UNL     1       0.362   2.206   0.061  1.00  0.00     0.029 A 
ATOM     21  C   UNL     1       2.369   4.098  -0.335  1.00  0.00     0.022 A 
ATOM     22  C   UNL     1       0.031   3.493  -0.378  1.00  0.00     0.060 A 
ATOM     23  C   UNL     1       1.038   4.438  -0.588  1.00  0.00     0.059 A 
ATOM     24  Cl  UNL     1      -1.640   3.838  -0.653  1.00  0.00    -0.083 Cl
ATOM     25  Cl  UNL     1       0.709   6.037  -1.152  1.00  0.00    -0.083 Cl
ENDBRANCH  17  18
ENDBRANCH  16  17
ENDBRANCH  10  16
ENDBRANCH   4   7
ENDBRANCH   2   3
ENDBRANCH   1   2
BRANCH   1  26
ATOM     26  C   UNL     1       8.075  -2.826  -6.374  1.00  0.00     0.023 C 
BRANCH  26  27
ATOM     27  C   UNL     1       9.289  -1.903  -6.413  1.00  0.00     0.116 C 
BRANCH  27  28
ATOM     28  N   UNL     1      10.254  -2.157  -5.353  1.00  0.00    -0.352 N 
ATOM     29  C   UNL     1      11.604  -2.423  -5.426  1.00  0.00     0.251 C 
ATOM     30  H   UNL     1       9.884  -2.135  -4.441  1.00  0.00     0.163 HD
ATOM     31  O   UNL     1      12.229  -2.699  -4.411  1.00  0.00    -0.269 OA
BRANCH  29  32
ATOM     32  C   UNL     1      12.294  -2.419  -6.736  1.00  0.00     0.039 A 
ATOM     33  C   UNL     1      13.161  -3.474  -7.042  1.00  0.00     0.014 A 
ATOM     34  C   UNL     1      12.082  -1.399  -7.665  1.00  0.00     0.014 A 
ATOM     35  C   UNL     1      13.735  -3.554  -8.314  1.00  0.00     0.010 A 
ATOM     36  C   UNL     1      12.588  -1.523  -8.957  1.00  0.00     0.010 A 
ATOM     37  C   UNL     1      13.412  -2.607  -9.299  1.00  0.00    -0.014 A 
BRANCH  37  38
ATOM     38  C   UNL     1      13.904  -2.741 -10.695  1.00  0.00     0.031 A 
ATOM     39  C   UNL     1      14.795  -1.686 -11.291  1.00  0.00     0.074 A 
ATOM     40  C   UNL     1      13.482  -3.771 -11.456  1.00  0.00     0.049 A 
ATOM     41  N   UNL     1      15.247  -1.579 -12.515  1.00  0.00    -0.248 NA
ATOM     42  C   UNL     1      15.209  -0.591 -10.401  1.00  0.00     0.031 C 
ATOM     43  C   UNL     1      12.575  -4.834 -11.018  1.00  0.00     0.029 A 
ATOM     44  N   UNL     1      13.749  -4.084 -12.767  1.00  0.00    -0.354 N 
ATOM     45  C   UNL     1      15.979  -0.399 -12.546  1.00  0.00     0.074 A 
ATOM     46  C   UNL     1      15.869   0.200 -11.234  1.00  0.00     0.031 C 
ATOM     47  C   UNL     1      12.379  -5.691 -12.033  1.00  0.00     0.029 A 
ATOM     48  C   UNL     1      13.111  -5.220 -13.203  1.00  0.00     0.049 A 
ATOM     49  H   UNL     1      14.341  -3.545 -13.339  1.00  0.00     0.167 HD
ATOM     50  C   UNL     1      16.697   0.127 -13.567  1.00  0.00     0.037 A 
ATOM     51  C   UNL     1      13.110  -5.812 -14.413  1.00  0.00     0.037 A 
ATOM     52  C   UNL     1      16.830  -0.484 -14.864  1.00  0.00     0.049 A 
ATOM     53  C   UNL     1      13.915  -5.210 -15.530  1.00  0.00     0.074 A 
ATOM     54  C   UNL     1      17.588  -0.061 -15.942  1.00  0.00     0.029 A 
ATOM     55  N   UNL     1      16.190  -1.649 -15.258  1.00  0.00    -0.354 N 
ATOM     56  N   UNL     1      14.658  -4.130 -15.524  1.00  0.00    -0.248 NA
ATOM     57  C   UNL     1      13.887  -5.912 -16.821  1.00  0.00     0.031 C 
ATOM     58  C   UNL     1      17.375  -0.948 -17.002  1.00  0.00     0.029 A 
ATOM     59  C   UNL     1      16.520  -1.949 -16.570  1.00  0.00     0.049 A 
ATOM     60  H   UNL     1      15.589  -2.184 -14.690  1.00  0.00     0.167 HD
ATOM     61  C   UNL     1      15.206  -4.038 -16.797  1.00  0.00     0.074 A 
ATOM     62  C   UNL     1      14.721  -5.179 -17.545  1.00  0.00     0.031 C 
ATOM     63  C   UNL     1      16.037  -3.093 -17.299  1.00  0.00     0.037 A 
BRANCH  50  64
ATOM     64  C   UNL     1      17.400   1.429 -13.318  1.00  0.00     0.057 A 
ATOM     65  C   UNL     1      18.514   1.517 -12.472  1.00  0.00     0.134 A 
ATOM     66  C   UNL     1      16.980   2.603 -13.956  1.00  0.00     0.134 A 
ATOM     67  F   UNL     1      18.960   0.431 -11.822  1.00  0.00    -0.206 F 
ATOM     68  C   UNL     1      19.166   2.730 -12.247  1.00  0.00     0.040 A 
ATOM     69  C   UNL     1      17.641   3.817 -13.760  1.00  0.00     0.040 A 
ATOM     70  F   UNL     1      15.924   2.590 -14.784  1.00  0.00    -0.206 F 
ATOM     71  C   UNL     1      18.734   3.884 -12.897  1.00  0.00     0.006 A 
ENDBRANCH  50  64
BRANCH  51  72
ATOM     72  C   UNL     1      12.336  -7.061 -14.629  1.00  0.00     0.057 A 
ATOM     73  C   UNL     1      12.986  -8.287 -14.814  1.00  0.00     0.134 A 
ATOM     74  C   UNL     1      10.937  -7.061 -14.666  1.00  0.00     0.134 A 
ATOM     75  F   UNL     1      14.326  -8.348 -14.809  1.00  0.00    -0.206 F 
ATOM     76  C   UNL     1      12.274  -9.465 -15.047  1.00  0.00     0.040 A 
ATOM     77  C   UNL     1      10.211  -8.235 -14.874  1.00  0.00     0.040 A 
ATOM     78  F   UNL     1      10.255  -5.920 -14.488  1.00  0.00    -0.206 F 
ATOM     79  C   UNL     1      10.881  -9.441 -15.073  1.00  0.00     0.006 A 
ENDBRANCH  51  72
BRANCH  63  80
ATOM     80  C   UNL     1      16.505  -3.271 -18.714  1.00  0.00     0.057 A 
ATOM     81  C   UNL     1      15.655  -3.058 -19.806  1.00  0.00     0.134 A 
ATOM     82  C   UNL     1      17.834  -3.622 -18.985  1.00  0.00     0.134 A 
ATOM     83  F   UNL     1      14.368  -2.733 -19.614  1.00  0.00    -0.206 F 
ATOM     84  C   UNL     1      16.106  -3.207 -21.119  1.00  0.00     0.040 A 
ATOM     85  C   UNL     1      18.302  -3.749 -20.293  1.00  0.00     0.040 A 
ATOM     86  F   UNL     1      18.701  -3.833 -17.983  1.00  0.00    -0.206 F 
ATOM     87  C   UNL     1      17.435  -3.546 -21.365  1.00  0.00     0.006 A 
ENDBRANCH  63  80
ENDBRANCH  37  38
ENDBRANCH  29  32
ENDBRANCH  27  28
ENDBRANCH  26  27
ENDBRANCH   1  26
TORSDOF 16
