REMARK SMILES Cc1ccc(-c2cc(C(=O)NCCCCNC(=O)c3ccc(-c4c5nc(c(-c6c(F)cccc6F)c6ccc([nH]6)c(-c6c(F)cccc6F)c6nc(c(-c7c(F)cccc7F)c7ccc4[nH]7)C=C6)C=C5)cc3)c3c(-c4cccc([N+](=O)[O-])c4)[nH]nc3n2)cc1
REMARK SMILES IDX 13 1 12 2 11 3 9 4 10 5 8 7 6 8 7 9 87 10 86 11 73 12 85 13
REMARK SMILES IDX 74 14 84 15 5 17 1 18 2 19 3 20 89 21 4 22 88 23 75 24 76 25
REMARK SMILES IDX 83 26 77 27 79 28 78 29 80 30 81 31 82 32 14 33 15 34 16 35
REMARK SMILES IDX 17 36 18 38 19 39 20 40 72 41 21 42 71 43 22 44 23 45 24 46
REMARK SMILES IDX 65 47 25 48 70 49 64 50 66 51 26 52 69 53 63 54 62 55 27 57
REMARK SMILES IDX 53 58 36 59 52 60 37 61 40 62 51 63 67 64 38 65 39 66 50 68
REMARK SMILES IDX 68 69 41 70 28 71 29 72 34 73 30 74 31 75 33 76 35 77 32 78
REMARK SMILES IDX 54 79 55 80 60 81 56 82 57 83 59 84 61 85 58 86 42 87 43 88
REMARK SMILES IDX 48 89 44 90 45 91 47 92 49 93 46 94
REMARK H PARENT 11 6 84 16 16 37 66 56 40 67
REMARK Flexibility Score: inf
ROOT
ATOM      1  C   UNL     1      -2.920   1.093  -4.345  1.00  0.00     0.023 C 
ENDROOT
BRANCH   1   2
ATOM      2  C   UNL     1      -3.522   2.256  -3.542  1.00  0.00     0.116 C 
BRANCH   2   3
ATOM      3  N   UNL     1      -4.945   2.098  -3.287  1.00  0.00    -0.352 N 
ATOM      4  C   UNL     1      -5.726   1.507  -2.323  1.00  0.00     0.252 C 
ATOM      5  O   UNL     1      -6.921   1.763  -2.437  1.00  0.00    -0.269 OA
ATOM      6  H   UNL     1      -5.491   2.525  -3.986  1.00  0.00     0.163 HD
BRANCH   4   7
ATOM      7  C   UNL     1      -5.228   0.669  -1.200  1.00  0.00     0.055 A 
ATOM      8  C   UNL     1      -3.347  -0.216   0.180  1.00  0.00     0.074 A 
ATOM      9  C   UNL     1      -3.870   0.427  -0.970  1.00  0.00     0.043 A 
ATOM     10  N   UNL     1      -4.077  -0.770   1.174  1.00  0.00    -0.226 NA
ATOM     11  C   UNL     1      -5.412  -0.631   0.976  1.00  0.00     0.182 A 
ATOM     12  C   UNL     1      -5.978   0.058  -0.168  1.00  0.00     0.059 A 
ATOM     13  N   UNL     1      -6.352  -1.090   1.800  1.00  0.00    -0.154 NA
ATOM     14  C   UNL     1      -7.349  -0.064   0.013  1.00  0.00     0.076 A 
ATOM     15  N   UNL     1      -7.495  -0.727   1.210  1.00  0.00    -0.275 N 
ATOM     16  H   UNL     1      -8.377  -0.921   1.602  1.00  0.00     0.190 HD
BRANCH   8  17
ATOM     17  C   UNL     1      -1.883  -0.224   0.330  1.00  0.00     0.000 A 
ATOM     18  C   UNL     1       2.431  -0.129   0.080  1.00  0.00     0.044 C 
ATOM     19  C   UNL     1       0.938  -0.156   0.214  1.00  0.00    -0.051 A 
ATOM     20  C   UNL     1       0.253  -1.378   0.264  1.00  0.00     0.004 A 
ATOM     21  C   UNL     1       0.210   1.034   0.274  1.00  0.00     0.004 A 
ATOM     22  C   UNL     1      -1.146  -1.413   0.327  1.00  0.00     0.010 A 
ATOM     23  C   UNL     1      -1.182   0.997   0.338  1.00  0.00     0.010 A 
ENDBRANCH   8  17
BRANCH  14  24
ATOM     24  C   UNL     1      -8.525   0.293  -0.767  1.00  0.00     0.007 A 
ATOM     25  C   UNL     1      -9.383   1.314  -0.331  1.00  0.00     0.011 A 
ATOM     26  C   UNL     1      -8.769  -0.340  -1.991  1.00  0.00     0.096 A 
ATOM     27  C   UNL     1     -10.445   1.738  -1.133  1.00  0.00     0.008 A 
ATOM     28  C   UNL     1      -9.810   0.118  -2.808  1.00  0.00     0.270 A 
ATOM     29  C   UNL     1     -10.655   1.152  -2.382  1.00  0.00     0.085 A 
BRANCH  28  30
ATOM     30  N   UNL     1      -9.979  -0.455  -4.148  1.00  0.00     0.062 N 
ATOM     31  O   UNL     1     -10.872   0.015  -4.869  1.00  0.00    -0.258 OA
ATOM     32  O   UNL     1      -9.223  -1.379  -4.483  1.00  0.00    -0.258 OA
ENDBRANCH  28  30
ENDBRANCH  14  24
ENDBRANCH   4   7
ENDBRANCH   2   3
ENDBRANCH   1   2
BRANCH   1  33
ATOM     33  C   UNL     1      -3.432   0.978  -5.786  1.00  0.00     0.023 C 
BRANCH  33  34
ATOM     34  C   UNL     1      -3.030   2.139  -6.687  1.00  0.00     0.116 C 
BRANCH  34  35
ATOM     35  N   UNL     1      -1.675   2.068  -7.218  1.00  0.00    -0.352 N 
ATOM     36  C   UNL     1      -0.899   3.058  -7.810  1.00  0.00     0.251 C 
ATOM     37  H   UNL     1      -1.244   1.185  -7.147  1.00  0.00     0.163 HD
ATOM     38  O   UNL     1       0.193   2.785  -8.268  1.00  0.00    -0.269 OA
BRANCH  36  39
ATOM     39  C   UNL     1      -1.343   4.477  -7.739  1.00  0.00     0.039 A 
ATOM     40  C   UNL     1      -0.392   5.426  -7.342  1.00  0.00     0.014 A 
ATOM     41  C   UNL     1      -2.688   4.824  -7.809  1.00  0.00     0.014 A 
ATOM     42  C   UNL     1      -0.819   6.602  -6.733  1.00  0.00     0.010 A 
ATOM     43  C   UNL     1      -3.117   5.938  -7.114  1.00  0.00     0.010 A 
ATOM     44  C   UNL     1      -2.180   6.774  -6.499  1.00  0.00    -0.014 A 
BRANCH  44  45
ATOM     45  C   UNL     1      -2.702   7.701  -5.503  1.00  0.00     0.031 A 
ATOM     46  C   UNL     1      -3.399   8.932  -5.919  1.00  0.00     0.074 A 
ATOM     47  C   UNL     1      -2.604   7.379  -4.192  1.00  0.00     0.049 A 
ATOM     48  N   UNL     1      -3.638   9.923  -5.131  1.00  0.00    -0.248 NA
ATOM     49  C   UNL     1      -3.803   9.189  -7.299  1.00  0.00     0.031 C 
ATOM     50  C   UNL     1      -3.311   7.988  -3.068  1.00  0.00     0.029 A 
ATOM     51  N   UNL     1      -1.636   6.560  -3.589  1.00  0.00    -0.354 N 
ATOM     52  C   UNL     1      -4.459  10.800  -5.796  1.00  0.00     0.074 A 
ATOM     53  C   UNL     1      -4.410  10.373  -7.170  1.00  0.00     0.031 C 
ATOM     54  C   UNL     1      -2.609   7.771  -1.944  1.00  0.00     0.029 A 
ATOM     55  C   UNL     1      -1.356   7.153  -2.338  1.00  0.00     0.049 A 
ATOM     56  H   UNL     1      -1.236   5.741  -3.961  1.00  0.00     0.167 HD
ATOM     57  C   UNL     1      -5.182  11.693  -5.065  1.00  0.00     0.037 A 
ATOM     58  C   UNL     1      -0.120   7.649  -2.041  1.00  0.00     0.037 A 
ATOM     59  C   UNL     1      -4.656  11.782  -3.700  1.00  0.00     0.049 A 
ATOM     60  C   UNL     1      -0.115   9.118  -1.686  1.00  0.00     0.074 A 
ATOM     61  C   UNL     1      -5.095  11.318  -2.472  1.00  0.00     0.029 A 
ATOM     62  N   UNL     1      -3.345  12.214  -3.511  1.00  0.00    -0.354 N 
ATOM     63  N   UNL     1      -1.077   9.946  -1.992  1.00  0.00    -0.248 NA
ATOM     64  C   UNL     1       0.979   9.774  -0.976  1.00  0.00     0.031 C 
ATOM     65  C   UNL     1      -4.003  11.389  -1.564  1.00  0.00     0.029 A 
ATOM     66  C   UNL     1      -2.919  11.939  -2.228  1.00  0.00     0.049 A 
ATOM     67  H   UNL     1      -2.796  12.655  -4.200  1.00  0.00     0.167 HD
ATOM     68  C   UNL     1      -0.750  11.209  -1.567  1.00  0.00     0.074 A 
ATOM     69  C   UNL     1       0.534  11.042  -0.913  1.00  0.00     0.031 C 
ATOM     70  C   UNL     1      -1.565  12.281  -1.804  1.00  0.00     0.037 A 
BRANCH  57  71
ATOM     71  C   UNL     1      -6.488  12.339  -5.500  1.00  0.00     0.057 A 
ATOM     72  C   UNL     1      -7.207  13.156  -4.600  1.00  0.00     0.134 A 
ATOM     73  C   UNL     1      -7.168  12.104  -6.714  1.00  0.00     0.134 A 
ATOM     74  F   UNL     1      -6.710  13.484  -3.400  1.00  0.00    -0.206 F 
ATOM     75  C   UNL     1      -8.490  13.659  -4.873  1.00  0.00     0.040 A 
ATOM     76  C   UNL     1      -8.432  12.634  -7.013  1.00  0.00     0.040 A 
ATOM     77  F   UNL     1      -6.687  11.310  -7.672  1.00  0.00    -0.206 F 
ATOM     78  C   UNL     1      -9.108  13.402  -6.086  1.00  0.00     0.006 A 
ENDBRANCH  57  71
BRANCH  58  79
ATOM     79  C   UNL     1       0.986   6.926  -2.720  1.00  0.00     0.057 A 
ATOM     80  C   UNL     1       1.210   5.577  -2.391  1.00  0.00     0.134 A 
ATOM     81  C   UNL     1       1.550   7.393  -3.910  1.00  0.00     0.134 A 
ATOM     82  F   UNL     1       0.693   5.062  -1.263  1.00  0.00    -0.206 F 
ATOM     83  C   UNL     1       1.865   4.702  -3.262  1.00  0.00     0.040 A 
ATOM     84  C   UNL     1       2.220   6.528  -4.785  1.00  0.00     0.040 A 
ATOM     85  F   UNL     1       1.361   8.660  -4.304  1.00  0.00    -0.206 F 
ATOM     86  C   UNL     1       2.343   5.172  -4.480  1.00  0.00     0.006 A 
ENDBRANCH  58  79
BRANCH  70  87
ATOM     87  C   UNL     1      -1.211  13.741  -1.602  1.00  0.00     0.057 A 
ATOM     88  C   UNL     1       0.093  14.258  -1.621  1.00  0.00     0.134 A 
ATOM     89  C   UNL     1      -2.232  14.718  -1.524  1.00  0.00     0.134 A 
ATOM     90  F   UNL     1       1.161  13.473  -1.812  1.00  0.00    -0.206 F 
ATOM     91  C   UNL     1       0.364  15.631  -1.506  1.00  0.00     0.040 A 
ATOM     92  C   UNL     1      -1.975  16.092  -1.467  1.00  0.00     0.040 A 
ATOM     93  F   UNL     1      -3.531  14.385  -1.525  1.00  0.00    -0.206 F 
ATOM     94  C   UNL     1      -0.670  16.554  -1.441  1.00  0.00     0.006 A 
ENDBRANCH  70  87
ENDBRANCH  44  45
ENDBRANCH  36  39
ENDBRANCH  34  35
ENDBRANCH  33  34
ENDBRANCH   1  33
TORSDOF 14
