REMARK SMILES CC(=O)Nc1ccc(/N=C2\C(=O)N(c3ccc(NC(C)=O)cc3)[C@H](c3ccccc3)[C@H]2CC(=O)NCCCCNC(=O)c2ccc(-c3c4nc(c(-c5c(F)cccc5F)c5ccc([nH]5)c(-c5c(F)cccc5F)c5nc(c(-c6c(F)cccc6F)c6ccc3[nH]6)C=C5)C=C4)cc2)cc1
REMARK SMILES IDX 37 1 36 2 35 3 33 4 34 5 32 7 31 8 9 9 10 10 11 11 12 12
REMARK SMILES IDX 13 13 24 14 8 15 5 16 6 17 98 18 7 19 97 20 4 21 1 22 2 23
REMARK SMILES IDX 3 24 14 26 15 27 23 28 16 29 22 30 17 31 18 32 19 33 20 35
REMARK SMILES IDX 21 36 25 37 26 38 30 39 27 40 29 41 28 42 38 43 39 44 40 45
REMARK SMILES IDX 41 46 42 48 43 49 44 50 96 51 45 52 95 53 46 54 47 55 48 56
REMARK SMILES IDX 89 57 49 58 94 59 88 60 90 61 50 62 93 63 87 64 86 65 51 67
REMARK SMILES IDX 77 68 60 69 76 70 61 71 64 72 75 73 91 74 62 75 63 76 74 78
REMARK SMILES IDX 92 79 65 80 52 81 53 82 58 83 54 84 55 85 57 86 59 87 56 88
REMARK SMILES IDX 78 89 79 90 84 91 80 92 81 93 83 94 85 95 82 96 66 97 67 98
REMARK SMILES IDX 72 99 68 100 69 101 71 102 73 103 70 104
REMARK H PARENT 35 6 4 25 18 34 40 47 90 66 64 77
REMARK Flexibility Score: inf
ROOT
ATOM      1  C   UNL     1       5.218   4.979  -2.994  1.00  0.00     0.023 C 
ENDROOT
BRANCH   1   2
ATOM      2  C   UNL     1       6.695   5.361  -3.096  1.00  0.00     0.116 C 
BRANCH   2   3
ATOM      3  N   UNL     1       6.963   6.598  -2.382  1.00  0.00    -0.356 N 
ATOM      4  C   UNL     1       7.158   6.802  -1.049  1.00  0.00     0.220 C 
ATOM      5  O   UNL     1       7.294   7.955  -0.637  1.00  0.00    -0.275 OA
ATOM      6  H   UNL     1       7.012   7.406  -2.943  1.00  0.00     0.163 HD
BRANCH   4   7
ATOM      7  C   UNL     1       7.243   5.623  -0.099  1.00  0.00     0.112 C 
BRANCH   7   8
ATOM      8  C   UNL     1       6.178   5.726   1.006  1.00  0.00     0.081 C 
ATOM      9  N   UNL     1       3.941   5.059   0.209  1.00  0.00    -0.247 NA
ATOM     10  C   UNL     1       5.090   4.734   0.720  1.00  0.00     0.112 C 
ATOM     11  C   UNL     1       5.520   3.409   1.282  1.00  0.00     0.273 C 
ATOM     12  O   UNL     1       5.253   2.344   0.771  1.00  0.00    -0.267 OA
ATOM     13  N   UNL     1       6.209   3.748   2.437  1.00  0.00    -0.299 N 
ATOM     14  C   UNL     1       6.666   5.144   2.375  1.00  0.00     0.131 C 
BRANCH   9  15
ATOM     15  C   UNL     1       2.929   4.101   0.002  1.00  0.00     0.064 A 
ATOM     16  C   UNL     1       1.029   2.095  -0.642  1.00  0.00     0.041 A 
ATOM     17  C   UNL     1       1.358   3.098  -1.560  1.00  0.00     0.028 A 
ATOM     18  C   UNL     1       1.572   2.173   0.637  1.00  0.00     0.028 A 
ATOM     19  C   UNL     1       2.289   4.088  -1.235  1.00  0.00     0.030 A 
ATOM     20  C   UNL     1       2.493   3.183   0.962  1.00  0.00     0.030 A 
BRANCH  16  21
ATOM     21  N   UNL     1       0.138   1.109  -1.094  1.00  0.00    -0.326 N 
ATOM     22  C   UNL     1       0.450  -0.748   0.552  1.00  0.00     0.114 C 
ATOM     23  C   UNL     1      -0.239  -0.112  -0.621  1.00  0.00     0.221 C 
ATOM     24  O   UNL     1      -1.154  -0.704  -1.202  1.00  0.00    -0.275 OA
ATOM     25  H   UNL     1      -0.312   1.352  -1.936  1.00  0.00     0.169 HD
ENDBRANCH  16  21
ENDBRANCH   9  15
BRANCH  13  26
ATOM     26  C   UNL     1       6.436   2.816   3.486  1.00  0.00     0.045 A 
ATOM     27  C   UNL     1       6.583   1.452   3.203  1.00  0.00     0.028 A 
ATOM     28  C   UNL     1       6.351   3.181   4.832  1.00  0.00     0.028 A 
ATOM     29  C   UNL     1       6.578   0.485   4.217  1.00  0.00     0.028 A 
ATOM     30  C   UNL     1       6.318   2.214   5.848  1.00  0.00     0.028 A 
ATOM     31  C   UNL     1       6.401   0.855   5.547  1.00  0.00     0.041 A 
BRANCH  31  32
ATOM     32  N   UNL     1       6.227  -0.054   6.609  1.00  0.00    -0.326 N 
ATOM     33  C   UNL     1       6.243  -1.434   6.535  1.00  0.00     0.221 C 
ATOM     34  H   UNL     1       6.078   0.336   7.501  1.00  0.00     0.169 HD
ATOM     35  C   UNL     1       5.832  -2.095   7.830  1.00  0.00     0.114 C 
ATOM     36  O   UNL     1       6.556  -2.111   5.562  1.00  0.00    -0.275 OA
ENDBRANCH  31  32
ENDBRANCH  13  26
BRANCH  14  37
ATOM     37  C   UNL     1       6.308   6.065   3.526  1.00  0.00    -0.024 A 
ATOM     38  C   UNL     1       7.331   6.519   4.384  1.00  0.00     0.006 A 
ATOM     39  C   UNL     1       4.996   6.499   3.761  1.00  0.00     0.006 A 
ATOM     40  C   UNL     1       7.048   7.369   5.453  1.00  0.00     0.000 A 
ATOM     41  C   UNL     1       4.719   7.363   4.824  1.00  0.00     0.000 A 
ATOM     42  C   UNL     1       5.741   7.793   5.670  1.00  0.00     0.000 A 
ENDBRANCH  14  37
ENDBRANCH   7   8
ENDBRANCH   4   7
ENDBRANCH   2   3
ENDBRANCH   1   2
BRANCH   1  43
ATOM     43  C   UNL     1       4.430   5.200  -4.290  1.00  0.00     0.023 C 
BRANCH  43  44
ATOM     44  C   UNL     1       4.685   4.135  -5.355  1.00  0.00     0.116 C 
BRANCH  44  45
ATOM     45  N   UNL     1       4.117   2.841  -4.996  1.00  0.00    -0.352 N 
ATOM     46  C   UNL     1       2.943   2.222  -5.352  1.00  0.00     0.251 C 
ATOM     47  H   UNL     1       4.679   2.313  -4.384  1.00  0.00     0.163 HD
ATOM     48  O   UNL     1       2.597   1.209  -4.747  1.00  0.00    -0.269 OA
BRANCH  46  49
ATOM     49  C   UNL     1       2.058   2.755  -6.415  1.00  0.00     0.039 A 
ATOM     50  C   UNL     1       0.672   2.658  -6.232  1.00  0.00     0.014 A 
ATOM     51  C   UNL     1       2.553   3.283  -7.607  1.00  0.00     0.014 A 
ATOM     52  C   UNL     1      -0.206   3.178  -7.189  1.00  0.00     0.010 A 
ATOM     53  C   UNL     1       1.681   3.859  -8.532  1.00  0.00     0.010 A 
ATOM     54  C   UNL     1       0.294   3.836  -8.322  1.00  0.00    -0.014 A 
BRANCH  54  55
ATOM     55  C   UNL     1      -0.591   4.530  -9.291  1.00  0.00     0.031 A 
ATOM     56  C   UNL     1      -0.577   4.137 -10.738  1.00  0.00     0.074 A 
ATOM     57  C   UNL     1      -1.333   5.587  -8.909  1.00  0.00     0.049 A 
ATOM     58  N   UNL     1      -0.922   4.844 -11.783  1.00  0.00    -0.248 NA
ATOM     59  C   UNL     1      -0.081   2.789 -11.053  1.00  0.00     0.031 C 
ATOM     60  C   UNL     1      -1.464   6.098  -7.544  1.00  0.00     0.029 A 
ATOM     61  N   UNL     1      -2.108   6.439  -9.658  1.00  0.00    -0.354 N 
ATOM     62  C   UNL     1      -0.587   4.071 -12.884  1.00  0.00     0.074 A 
ATOM     63  C   UNL     1      -0.085   2.808 -12.380  1.00  0.00     0.031 C 
ATOM     64  C   UNL     1      -2.288   7.158  -7.549  1.00  0.00     0.029 A 
ATOM     65  C   UNL     1      -2.693   7.438  -8.922  1.00  0.00     0.049 A 
ATOM     66  H   UNL     1      -2.231   6.341 -10.630  1.00  0.00     0.167 HD
ATOM     67  C   UNL     1      -0.646   4.415 -14.192  1.00  0.00     0.037 A 
ATOM     68  C   UNL     1      -3.440   8.486  -9.312  1.00  0.00     0.037 A 
ATOM     69  C   UNL     1      -1.190   5.653 -14.681  1.00  0.00     0.049 A 
ATOM     70  C   UNL     1      -3.678   8.734 -10.770  1.00  0.00     0.074 A 
ATOM     71  C   UNL     1      -1.148   6.185 -15.958  1.00  0.00     0.029 A 
ATOM     72  N   UNL     1      -1.938   6.526 -13.909  1.00  0.00    -0.354 N 
ATOM     73  N   UNL     1      -3.160   8.115 -11.800  1.00  0.00    -0.248 NA
ATOM     74  C   UNL     1      -4.579   9.842 -11.119  1.00  0.00     0.031 C 
ATOM     75  C   UNL     1      -1.911   7.363 -15.966  1.00  0.00     0.029 A 
ATOM     76  C   UNL     1      -2.423   7.556 -14.694  1.00  0.00     0.049 A 
ATOM     77  H   UNL     1      -2.101   6.428 -12.943  1.00  0.00     0.167 HD
ATOM     78  C   UNL     1      -3.630   8.786 -12.919  1.00  0.00     0.074 A 
ATOM     79  C   UNL     1      -4.517   9.829 -12.445  1.00  0.00     0.031 C 
ATOM     80  C   UNL     1      -3.316   8.578 -14.220  1.00  0.00     0.037 A 
BRANCH  67  81
ATOM     81  C   UNL     1      -0.039   3.465 -15.170  1.00  0.00     0.057 A 
ATOM     82  C   UNL     1      -0.775   2.422 -15.738  1.00  0.00     0.134 A 
ATOM     83  C   UNL     1       1.299   3.610 -15.556  1.00  0.00     0.134 A 
ATOM     84  F   UNL     1      -2.056   2.225 -15.392  1.00  0.00    -0.206 F 
ATOM     85  C   UNL     1      -0.196   1.548 -16.660  1.00  0.00     0.040 A 
ATOM     86  C   UNL     1       1.887   2.746 -16.480  1.00  0.00     0.040 A 
ATOM     87  F   UNL     1       2.055   4.589 -15.037  1.00  0.00    -0.206 F 
ATOM     88  C   UNL     1       1.138   1.711 -17.035  1.00  0.00     0.006 A 
ENDBRANCH  67  81
BRANCH  68  89
ATOM     89  C   UNL     1      -3.984   9.410  -8.296  1.00  0.00     0.057 A 
ATOM     90  C   UNL     1      -5.266   9.220  -7.771  1.00  0.00     0.134 A 
ATOM     91  C   UNL     1      -3.229  10.482  -7.811  1.00  0.00     0.134 A 
ATOM     92  F   UNL     1      -6.034   8.214  -8.213  1.00  0.00    -0.206 F 
ATOM     93  C   UNL     1      -5.783  10.070  -6.795  1.00  0.00     0.040 A 
ATOM     94  C   UNL     1      -3.732  11.337  -6.830  1.00  0.00     0.040 A 
ATOM     95  F   UNL     1      -1.993  10.706  -8.280  1.00  0.00    -0.206 F 
ATOM     96  C   UNL     1      -5.013  11.131  -6.319  1.00  0.00     0.006 A 
ENDBRANCH  68  89
BRANCH  80  97
ATOM     97  C   UNL     1      -3.924   9.508 -15.217  1.00  0.00     0.057 A 
ATOM     98  C   UNL     1      -3.271  10.689 -15.587  1.00  0.00     0.134 A 
ATOM     99  C   UNL     1      -5.154   9.223 -15.817  1.00  0.00     0.134 A 
ATOM    100  F   UNL     1      -2.092  11.016 -15.036  1.00  0.00    -0.206 F 
ATOM    101  C   UNL     1      -3.826  11.562 -16.523  1.00  0.00     0.040 A 
ATOM    102  C   UNL     1      -5.720  10.089 -16.753  1.00  0.00     0.040 A 
ATOM    103  F   UNL     1      -5.830   8.112 -15.490  1.00  0.00    -0.206 F 
ATOM    104  C   UNL     1      -5.055  11.262 -17.109  1.00  0.00     0.006 A 
ENDBRANCH  80  97
ENDBRANCH  54  55
ENDBRANCH  46  49
ENDBRANCH  44  45
ENDBRANCH  43  44
ENDBRANCH   1  43
TORSDOF 17
