REMARK SMILES C[C@@H](C(=O)NCCCCNC(=O)c1ccc(-c2c3nc(c(-c4c(F)cccc4F)c4ccc([nH]4)c(-c4c(F)cccc4F)c4nc(c(-c5c(F)cccc5F)c5ccc2[nH]5)C=C4)C=C3)cc1)c1ccc(C[C@H]2CCC[C@H]2O)cc1-c1ccc(O)cc1
REMARK SMILES IDX 6 1 5 2 3 3 4 4 2 6 1 7 67 8 68 9 79 10 69 11 78 12 70 13
REMARK SMILES IDX 80 14 81 15 86 16 82 17 85 18 83 19 84 20 71 22 72 23 73 24
REMARK SMILES IDX 76 25 74 26 75 27 77 28 7 30 8 31 9 32 10 33 11 34 12 36
REMARK SMILES IDX 13 37 14 38 66 39 15 40 65 41 16 42 17 43 18 44 59 45 19 46
REMARK SMILES IDX 64 47 58 48 60 49 20 50 63 51 57 52 56 53 21 55 47 56 30 57
REMARK SMILES IDX 46 58 31 59 34 60 45 61 61 62 32 63 33 64 44 66 62 67 35 68
REMARK SMILES IDX 22 69 23 70 28 71 24 72 25 73 27 74 29 75 26 76 48 77 49 78
REMARK SMILES IDX 54 79 50 80 51 81 53 82 55 83 52 84 36 85 37 86 42 87 38 88
REMARK SMILES IDX 39 89 41 90 43 91 40 92
REMARK H PARENT 5 5 84 21 77 29 10 35 60 54 34 65
REMARK Flexibility Score: inf
ROOT
ATOM      1  C   UNL     1       3.480  -0.663   1.694  1.00  0.00     0.116 C 
ENDROOT
BRANCH   1   2
ATOM      2  N   UNL     1       2.375  -0.266   2.536  1.00  0.00    -0.356 N 
ATOM      3  C   UNL     1       1.049  -0.162   2.232  1.00  0.00     0.227 C 
ATOM      4  O   UNL     1       0.320   0.287   3.121  1.00  0.00    -0.274 OA
ATOM      5  H   UNL     1       2.614  -0.037   3.463  1.00  0.00     0.163 HD
BRANCH   3   6
ATOM      6  C   UNL     1       0.526  -0.635   0.857  1.00  0.00     0.106 C 
ATOM      7  C   UNL     1       1.004   0.269  -0.287  1.00  0.00     0.023 C 
BRANCH   6   8
ATOM      8  C   UNL     1      -1.001  -0.743   0.879  1.00  0.00    -0.028 A 
ATOM      9  C   UNL     1      -1.756   0.428   0.675  1.00  0.00     0.005 A 
ATOM     10  C   UNL     1      -1.680  -1.955   1.153  1.00  0.00    -0.014 A 
ATOM     11  C   UNL     1      -3.140   0.420   0.759  1.00  0.00     0.004 A 
ATOM     12  C   UNL     1      -3.083  -1.913   1.323  1.00  0.00     0.012 A 
ATOM     13  C   UNL     1      -3.813  -0.724   1.171  1.00  0.00    -0.047 A 
BRANCH  10  14
ATOM     14  C   UNL     1      -0.998  -3.263   1.196  1.00  0.00    -0.018 A 
ATOM     15  C   UNL     1      -1.217  -4.190   0.160  1.00  0.00     0.012 A 
ATOM     16  C   UNL     1      -0.097  -3.611   2.215  1.00  0.00     0.012 A 
ATOM     17  C   UNL     1      -0.537  -5.408   0.125  1.00  0.00     0.047 A 
ATOM     18  C   UNL     1       0.597  -4.827   2.176  1.00  0.00     0.047 A 
ATOM     19  C   UNL     1       0.375  -5.712   1.125  1.00  0.00     0.115 A 
BRANCH  19  20
ATOM     20  O   UNL     1       1.042  -6.897   1.033  1.00  0.00    -0.508 OA
ATOM     21  H   UNL     1       0.874  -7.475   0.315  1.00  0.00     0.293 HD
ENDBRANCH  19  20
ENDBRANCH  10  14
BRANCH  13  22
ATOM     22  C   UNL     1      -5.287  -0.649   1.472  1.00  0.00     0.041 C 
BRANCH  22  23
ATOM     23  C   UNL     1      -5.699  -0.078   2.844  1.00  0.00     0.022 C 
ATOM     24  C   UNL     1      -5.113  -0.803   4.066  1.00  0.00     0.007 C 
ATOM     25  C   UNL     1      -5.482   1.417   3.140  1.00  0.00     0.117 C 
ATOM     26  C   UNL     1      -5.037   0.243   5.183  1.00  0.00     0.003 C 
ATOM     27  C   UNL     1      -5.729   1.491   4.643  1.00  0.00     0.032 C 
BRANCH  25  28
ATOM     28  O   UNL     1      -4.179   1.914   2.893  1.00  0.00    -0.393 OA
ATOM     29  H   UNL     1      -3.539   1.428   3.436  1.00  0.00     0.210 HD
ENDBRANCH  25  28
ENDBRANCH  22  23
ENDBRANCH  13  22
ENDBRANCH   6   8
ENDBRANCH   3   6
ENDBRANCH   1   2
BRANCH   1  30
ATOM     30  C   UNL     1       4.241   0.561   1.183  1.00  0.00     0.023 C 
BRANCH  30  31
ATOM     31  C   UNL     1       5.009   1.328   2.261  1.00  0.00     0.023 C 
BRANCH  31  32
ATOM     32  C   UNL     1       6.008   0.496   3.053  1.00  0.00     0.116 C 
BRANCH  32  33
ATOM     33  N   UNL     1       6.988  -0.164   2.206  1.00  0.00    -0.352 N 
ATOM     34  C   UNL     1       8.341  -0.307   2.394  1.00  0.00     0.251 C 
ATOM     35  H   UNL     1       6.632  -0.564   1.380  1.00  0.00     0.163 HD
ATOM     36  O   UNL     1       9.039  -0.769   1.500  1.00  0.00    -0.269 OA
BRANCH  34  37
ATOM     37  C   UNL     1       8.955   0.122   3.668  1.00  0.00     0.039 A 
ATOM     38  C   UNL     1      10.162   0.823   3.628  1.00  0.00     0.014 A 
ATOM     39  C   UNL     1       8.351  -0.169   4.894  1.00  0.00     0.014 A 
ATOM     40  C   UNL     1      10.742   1.267   4.817  1.00  0.00     0.010 A 
ATOM     41  C   UNL     1       8.884   0.350   6.070  1.00  0.00     0.010 A 
ATOM     42  C   UNL     1      10.095   1.056   6.046  1.00  0.00    -0.014 A 
BRANCH  42  43
ATOM     43  C   UNL     1      10.691   1.542   7.315  1.00  0.00     0.031 A 
ATOM     44  C   UNL     1      11.114   0.561   8.375  1.00  0.00     0.074 A 
ATOM     45  C   UNL     1      10.818   2.865   7.529  1.00  0.00     0.049 A 
ATOM     46  N   UNL     1      11.645   0.790   9.550  1.00  0.00    -0.248 NA
ATOM     47  C   UNL     1      10.883  -0.864   8.091  1.00  0.00     0.031 C 
ATOM     48  C   UNL     1      10.401   3.918   6.601  1.00  0.00     0.029 A 
ATOM     49  N   UNL     1      11.336   3.552   8.598  1.00  0.00    -0.354 N 
ATOM     50  C   UNL     1      11.795  -0.456  10.146  1.00  0.00     0.074 A 
ATOM     51  C   UNL     1      11.243  -1.431   9.232  1.00  0.00     0.031 C 
ATOM     52  C   UNL     1      10.718   5.114   7.121  1.00  0.00     0.029 A 
ATOM     53  C   UNL     1      11.324   4.916   8.434  1.00  0.00     0.049 A 
ATOM     54  H   UNL     1      11.684   3.109   9.406  1.00  0.00     0.167 HD
ATOM     55  C   UNL     1      12.366  -0.764  11.335  1.00  0.00     0.037 A 
ATOM     56  C   UNL     1      11.757   5.895   9.250  1.00  0.00     0.037 A 
ATOM     57  C   UNL     1      12.935   0.208  12.231  1.00  0.00     0.049 A 
ATOM     58  C   UNL     1      12.379   5.527  10.569  1.00  0.00     0.074 A 
ATOM     59  C   UNL     1      13.597  -0.005  13.428  1.00  0.00     0.029 A 
ATOM     60  N   UNL     1      12.904   1.580  12.030  1.00  0.00    -0.354 N 
ATOM     61  N   UNL     1      12.591   4.340  11.085  1.00  0.00    -0.248 NA
ATOM     62  C   UNL     1      12.831   6.639  11.417  1.00  0.00     0.031 C 
ATOM     63  C   UNL     1      13.915   1.241  13.979  1.00  0.00     0.029 A 
ATOM     64  C   UNL     1      13.509   2.228  13.095  1.00  0.00     0.049 A 
ATOM     65  H   UNL     1      12.511   2.028  11.246  1.00  0.00     0.167 HD
ATOM     66  C   UNL     1      13.234   4.560  12.296  1.00  0.00     0.074 A 
ATOM     67  C   UNL     1      13.388   5.994  12.432  1.00  0.00     0.031 C 
ATOM     68  C   UNL     1      13.662   3.656  13.213  1.00  0.00     0.037 A 
BRANCH  55  69
ATOM     69  C   UNL     1      12.393  -2.212  11.735  1.00  0.00     0.057 A 
ATOM     70  C   UNL     1      13.178  -3.157  11.059  1.00  0.00     0.134 A 
ATOM     71  C   UNL     1      11.639  -2.666  12.825  1.00  0.00     0.134 A 
ATOM     72  F   UNL     1      13.916  -2.795   9.999  1.00  0.00    -0.206 F 
ATOM     73  C   UNL     1      13.184  -4.503  11.429  1.00  0.00     0.040 A 
ATOM     74  C   UNL     1      11.661  -4.003  13.224  1.00  0.00     0.040 A 
ATOM     75  F   UNL     1      10.870  -1.816  13.522  1.00  0.00    -0.206 F 
ATOM     76  C   UNL     1      12.428  -4.928  12.519  1.00  0.00     0.006 A 
ENDBRANCH  55  69
BRANCH  56  77
ATOM     77  C   UNL     1      11.659   7.316   8.830  1.00  0.00     0.057 A 
ATOM     78  C   UNL     1      12.808   8.061   8.537  1.00  0.00     0.134 A 
ATOM     79  C   UNL     1      10.425   7.967   8.724  1.00  0.00     0.134 A 
ATOM     80  F   UNL     1      14.021   7.498   8.637  1.00  0.00    -0.206 F 
ATOM     81  C   UNL     1      12.736   9.408   8.179  1.00  0.00     0.040 A 
ATOM     82  C   UNL     1      10.336   9.306   8.340  1.00  0.00     0.040 A 
ATOM     83  F   UNL     1       9.286   7.308   8.981  1.00  0.00    -0.206 F 
ATOM     84  C   UNL     1      11.495  10.033   8.075  1.00  0.00     0.006 A 
ENDBRANCH  56  77
BRANCH  68  85
ATOM     85  C   UNL     1      14.382   4.191  14.418  1.00  0.00     0.057 A 
ATOM     86  C   UNL     1      13.724   4.917  15.419  1.00  0.00     0.134 A 
ATOM     87  C   UNL     1      15.752   3.952  14.590  1.00  0.00     0.134 A 
ATOM     88  F   UNL     1      12.415   5.192  15.312  1.00  0.00    -0.206 F 
ATOM     89  C   UNL     1      14.409   5.416  16.528  1.00  0.00     0.040 A 
ATOM     90  C   UNL     1      16.441   4.417  15.711  1.00  0.00     0.040 A 
ATOM     91  F   UNL     1      16.442   3.253  13.676  1.00  0.00    -0.206 F 
ATOM     92  C   UNL     1      15.770   5.161  16.679  1.00  0.00     0.006 A 
ENDBRANCH  68  85
ENDBRANCH  42  43
ENDBRANCH  34  37
ENDBRANCH  32  33
ENDBRANCH  31  32
ENDBRANCH  30  31
ENDBRANCH   1  30
TORSDOF 17
