REMARK SMILES CC[C@@H]1CCCN(S(=O)(=O)c2cc(C(=O)NCCCCNC(=O)c3ccc(-c4c5nc(c(-c6c(F)cccc6F)c6ccc([nH]6)c(-c6c(F)cccc6F)c6nc(c(-c7c(F)cccc7F)c7ccc4[nH]7)C=C6)C=C5)cc3)ccc2F)C1
REMARK SMILES IDX 18 1 17 2 16 3 14 4 15 5 13 7 11 8 12 9 80 10 79 11 81 12
REMARK SMILES IDX 78 13 8 14 9 15 10 16 7 17 3 18 4 19 82 20 5 21 6 22 2 23
REMARK SMILES IDX 1 24 19 25 20 26 21 27 22 28 23 30 24 31 25 32 77 33 26 34
REMARK SMILES IDX 76 35 27 36 28 37 29 38 70 39 30 40 75 41 69 42 71 43 31 44
REMARK SMILES IDX 74 45 68 46 67 47 32 49 58 50 41 51 57 52 42 53 45 54 56 55
REMARK SMILES IDX 72 56 43 57 44 58 55 60 73 61 46 62 33 63 34 64 39 65 35 66
REMARK SMILES IDX 36 67 38 68 40 69 37 70 59 71 60 72 65 73 61 74 62 75 64 76
REMARK SMILES IDX 66 77 63 78 47 79 48 80 53 81 49 82 50 83 52 84 54 85 51 86
REMARK H PARENT 16 6 21 29 71 48 45 59
REMARK Flexibility Score: inf
ROOT
ATOM      1  C   UNL     1      -4.010   8.706   7.514  1.00  0.00     0.023 C 
ENDROOT
BRANCH   1   2
ATOM      2  C   UNL     1      -3.945   7.204   7.228  1.00  0.00     0.116 C 
BRANCH   2   3
ATOM      3  N   UNL     1      -4.704   6.870   6.042  1.00  0.00    -0.352 N 
ATOM      4  C   UNL     1      -4.342   6.678   4.734  1.00  0.00     0.251 C 
ATOM      5  O   UNL     1      -5.229   6.334   3.952  1.00  0.00    -0.269 OA
ATOM      6  H   UNL     1      -5.668   6.759   6.206  1.00  0.00     0.163 HD
BRANCH   4   7
ATOM      7  C   UNL     1      -2.951   6.844   4.212  1.00  0.00     0.041 A 
ATOM      8  C   UNL     1      -1.389   6.371   2.398  1.00  0.00     0.119 A 
ATOM      9  C   UNL     1      -2.645   6.202   2.997  1.00  0.00     0.038 A 
ATOM     10  C   UNL     1      -0.444   7.193   2.995  1.00  0.00     0.143 A 
ATOM     11  C   UNL     1      -0.719   7.814   4.204  1.00  0.00     0.041 A 
ATOM     12  F   UNL     1       0.759   7.403   2.444  1.00  0.00    -0.206 F 
ATOM     13  C   UNL     1      -1.974   7.660   4.796  1.00  0.00     0.017 A 
BRANCH   8  14
ATOM     14  S   UNL     1      -1.071   5.706   0.797  1.00  0.00     0.246 S 
ATOM     15  O   UNL     1      -0.329   6.693   0.036  1.00  0.00    -0.207 OA
ATOM     16  O   UNL     1      -2.323   5.196   0.281  1.00  0.00    -0.207 OA
BRANCH  14  17
ATOM     17  N   UNL     1      -0.033   4.333   1.042  1.00  0.00    -0.197 NA
ATOM     18  C   UNL     1       1.062   2.395  -0.161  1.00  0.00     0.004 C 
ATOM     19  C   UNL     1       2.375   2.723   0.563  1.00  0.00     0.006 C 
ATOM     20  C   UNL     1       0.200   3.658  -0.281  1.00  0.00     0.106 C 
ATOM     21  C   UNL     1       2.122   3.417   1.894  1.00  0.00     0.017 C 
ATOM     22  C   UNL     1       1.257   4.658   1.716  1.00  0.00     0.102 C 
BRANCH  18  23
ATOM     23  C   UNL     1       0.290   1.230   0.489  1.00  0.00     0.001 C 
ATOM     24  C   UNL     1       0.892  -0.124   0.131  1.00  0.00     0.004 C 
ENDBRANCH  18  23
ENDBRANCH  14  17
ENDBRANCH   8  14
ENDBRANCH   4   7
ENDBRANCH   2   3
ENDBRANCH   1   2
BRANCH   1  25
ATOM     25  C   UNL     1      -5.294   9.165   8.207  1.00  0.00     0.023 C 
BRANCH  25  26
ATOM     26  C   UNL     1      -5.551   8.534   9.570  1.00  0.00     0.116 C 
BRANCH  26  27
ATOM     27  N   UNL     1      -4.452   8.711  10.508  1.00  0.00    -0.352 N 
ATOM     28  C   UNL     1      -4.512   8.835  11.875  1.00  0.00     0.251 C 
ATOM     29  H   UNL     1      -3.551   8.747  10.113  1.00  0.00     0.163 HD
ATOM     30  O   UNL     1      -3.503   9.081  12.526  1.00  0.00    -0.269 OA
BRANCH  28  31
ATOM     31  C   UNL     1      -5.821   8.711  12.544  1.00  0.00     0.039 A 
ATOM     32  C   UNL     1      -6.228   9.717  13.422  1.00  0.00     0.014 A 
ATOM     33  C   UNL     1      -6.663   7.634  12.255  1.00  0.00     0.014 A 
ATOM     34  C   UNL     1      -7.515   9.679  13.957  1.00  0.00     0.010 A 
ATOM     35  C   UNL     1      -7.970   7.640  12.726  1.00  0.00     0.010 A 
ATOM     36  C   UNL     1      -8.409   8.663  13.580  1.00  0.00    -0.014 A 
BRANCH  36  37
ATOM     37  C   UNL     1      -9.811   8.656  14.061  1.00  0.00     0.031 A 
ATOM     38  C   UNL     1     -10.303   7.539  14.934  1.00  0.00     0.074 A 
ATOM     39  C   UNL     1     -10.656   9.624  13.660  1.00  0.00     0.049 A 
ATOM     40  N   UNL     1     -11.505   7.331  15.409  1.00  0.00    -0.248 NA
ATOM     41  C   UNL     1      -9.323   6.505  15.300  1.00  0.00     0.031 C 
ATOM     42  C   UNL     1     -10.306  10.738  12.777  1.00  0.00     0.029 A 
ATOM     43  N   UNL     1     -11.983   9.827  13.942  1.00  0.00    -0.354 N 
ATOM     44  C   UNL     1     -11.424   6.144  16.125  1.00  0.00     0.074 A 
ATOM     45  C   UNL     1     -10.078   5.642  15.964  1.00  0.00     0.031 C 
ATOM     46  C   UNL     1     -11.380  11.528  12.622  1.00  0.00     0.029 A 
ATOM     47  C   UNL     1     -12.503  10.957  13.359  1.00  0.00     0.049 A 
ATOM     48  H   UNL     1     -12.513   9.220  14.508  1.00  0.00     0.167 HD
ATOM     49  C   UNL     1     -12.378   5.544  16.876  1.00  0.00     0.037 A 
ATOM     50  C   UNL     1     -13.744  11.476  13.415  1.00  0.00     0.037 A 
ATOM     51  C   UNL     1     -13.713   6.054  17.041  1.00  0.00     0.049 A 
ATOM     52  C   UNL     1     -14.797  10.779  14.227  1.00  0.00     0.074 A 
ATOM     53  C   UNL     1     -14.741   5.541  17.811  1.00  0.00     0.029 A 
ATOM     54  N   UNL     1     -14.206   7.194  16.422  1.00  0.00    -0.354 N 
ATOM     55  N   UNL     1     -14.697   9.682  14.939  1.00  0.00    -0.248 NA
ATOM     56  C   UNL     1     -16.134  11.387  14.244  1.00  0.00     0.031 C 
ATOM     57  C   UNL     1     -15.871   6.343  17.621  1.00  0.00     0.029 A 
ATOM     58  C   UNL     1     -15.531   7.387  16.775  1.00  0.00     0.049 A 
ATOM     59  H   UNL     1     -13.690   7.778  15.820  1.00  0.00     0.167 HD
ATOM     60  C   UNL     1     -15.948   9.480  15.506  1.00  0.00     0.074 A 
ATOM     61  C   UNL     1     -16.789  10.573  15.063  1.00  0.00     0.031 C 
ATOM     62  C   UNL     1     -16.359   8.479  16.323  1.00  0.00     0.037 A 
BRANCH  49  63
ATOM     63  C   UNL     1     -11.999   4.274  17.582  1.00  0.00     0.057 A 
ATOM     64  C   UNL     1     -12.567   3.049  17.213  1.00  0.00     0.134 A 
ATOM     65  C   UNL     1     -11.087   4.268  18.646  1.00  0.00     0.134 A 
ATOM     66  F   UNL     1     -13.452   2.982  16.207  1.00  0.00    -0.206 F 
ATOM     67  C   UNL     1     -12.241   1.864  17.876  1.00  0.00     0.040 A 
ATOM     68  C   UNL     1     -10.729   3.086  19.296  1.00  0.00     0.040 A 
ATOM     69  F   UNL     1     -10.496   5.406  19.043  1.00  0.00    -0.206 F 
ATOM     70  C   UNL     1     -11.313   1.880  18.915  1.00  0.00     0.006 A 
ENDBRANCH  49  63
BRANCH  50  71
ATOM     71  C   UNL     1     -14.026  12.755  12.718  1.00  0.00     0.057 A 
ATOM     72  C   UNL     1     -14.079  12.836  11.321  1.00  0.00     0.134 A 
ATOM     73  C   UNL     1     -14.182  13.943  13.441  1.00  0.00     0.134 A 
ATOM     74  F   UNL     1     -13.925  11.734  10.573  1.00  0.00    -0.206 F 
ATOM     75  C   UNL     1     -14.251  14.057  10.667  1.00  0.00     0.040 A 
ATOM     76  C   UNL     1     -14.376  15.168  12.801  1.00  0.00     0.040 A 
ATOM     77  F   UNL     1     -14.155  13.925  14.781  1.00  0.00    -0.206 F 
ATOM     78  C   UNL     1     -14.400  15.228  11.408  1.00  0.00     0.006 A 
ENDBRANCH  50  71
BRANCH  62  79
ATOM     79  C   UNL     1     -17.778   8.516  16.811  1.00  0.00     0.057 A 
ATOM     80  C   UNL     1     -18.062   8.777  18.157  1.00  0.00     0.134 A 
ATOM     81  C   UNL     1     -18.854   8.207  15.970  1.00  0.00     0.134 A 
ATOM     82  F   UNL     1     -17.075   9.070  19.018  1.00  0.00    -0.206 F 
ATOM     83  C   UNL     1     -19.364   8.711  18.655  1.00  0.00     0.040 A 
ATOM     84  C   UNL     1     -20.164   8.163  16.450  1.00  0.00     0.040 A 
ATOM     85  F   UNL     1     -18.649   7.957  14.668  1.00  0.00    -0.206 F 
ATOM     86  C   UNL     1     -20.420   8.404  17.799  1.00  0.00     0.006 A 
ENDBRANCH  62  79
ENDBRANCH  36  37
ENDBRANCH  28  31
ENDBRANCH  26  27
ENDBRANCH  25  26
ENDBRANCH   1  25
TORSDOF 14
