REMARK SMILES CCCCCC[C@@H](C(=O)NCCCCNC(=O)c1ccc(-c2c3nc(c(-c4c(F)cccc4F)c4ccc([nH]4)c(-c4c(F)cccc4F)c4nc(c(-c5c(F)cccc5F)c5ccc2[nH]5)C=C4)C=C3)cc1)c1ccccc1C
REMARK SMILES IDX 11 1 10 2 8 3 9 4 7 6 6 7 5 8 4 9 3 10 2 11 1 12 72 13 73 14
REMARK SMILES IDX 77 15 74 16 76 17 78 18 75 19 12 20 13 21 14 22 15 23 16 24
REMARK SMILES IDX 17 26 18 27 19 28 71 29 20 30 70 31 21 32 22 33 23 34 64 35
REMARK SMILES IDX 24 36 69 37 63 38 65 39 25 40 68 41 62 42 61 43 26 45 52 46
REMARK SMILES IDX 35 47 51 48 36 49 39 50 50 51 66 52 37 53 38 54 49 56 67 57
REMARK SMILES IDX 40 58 27 59 28 60 33 61 29 62 30 63 32 64 34 65 31 66 53 67
REMARK SMILES IDX 54 68 59 69 55 70 56 71 58 72 60 73 57 74 41 75 42 76 47 77
REMARK SMILES IDX 43 78 44 79 46 80 48 81 45 82
REMARK H PARENT 10 5 15 25 65 44 39 55
REMARK Flexibility Score: inf
ROOT
ATOM      1  C   UNL     1      -0.713  -4.868   1.247  1.00  0.00     0.116 C 
ENDROOT
BRANCH   1   2
ATOM      2  N   UNL     1      -1.799  -5.522   0.549  1.00  0.00    -0.356 N 
ATOM      3  C   UNL     1      -2.248  -5.374  -0.733  1.00  0.00     0.227 C 
ATOM      4  O   UNL     1      -3.384  -5.802  -0.957  1.00  0.00    -0.274 OA
ATOM      5  H   UNL     1      -2.295  -6.182   1.085  1.00  0.00     0.163 HD
BRANCH   3   6
ATOM      6  C   UNL     1      -1.359  -4.759  -1.843  1.00  0.00     0.109 C 
BRANCH   6   7
ATOM      7  C   UNL     1      -1.574  -3.227  -2.014  1.00  0.00     0.018 C 
BRANCH   7   8
ATOM      8  C   UNL     1      -0.944  -2.266  -1.010  1.00  0.00     0.001 C 
BRANCH   8   9
ATOM      9  C   UNL     1       0.585  -2.271  -0.939  1.00  0.00     0.000 C 
BRANCH   9  10
ATOM     10  C   UNL     1       1.260  -1.233  -1.839  1.00  0.00    -0.000 C 
BRANCH  10  11
ATOM     11  C   UNL     1       0.928   0.231  -1.528  1.00  0.00    -0.003 C 
ATOM     12  C   UNL     1       1.181   0.632  -0.082  1.00  0.00     0.004 C 
ENDBRANCH  10  11
ENDBRANCH   9  10
ENDBRANCH   8   9
ENDBRANCH   7   8
ENDBRANCH   6   7
BRANCH   6  13
ATOM     13  C   UNL     1      -1.631  -5.512  -3.175  1.00  0.00    -0.033 A 
ATOM     14  C   UNL     1      -2.459  -4.929  -4.164  1.00  0.00     0.005 A 
ATOM     15  C   UNL     1      -1.130  -6.811  -3.424  1.00  0.00    -0.047 A 
ATOM     16  C   UNL     1      -2.748  -5.575  -5.366  1.00  0.00     0.000 A 
ATOM     17  C   UNL     1      -1.452  -7.458  -4.637  1.00  0.00     0.004 A 
ATOM     18  C   UNL     1      -0.345  -7.613  -2.421  1.00  0.00     0.044 C 
ATOM     19  C   UNL     1      -2.243  -6.841  -5.604  1.00  0.00     0.000 A 
ENDBRANCH   6  13
ENDBRANCH   3   6
ENDBRANCH   1   2
BRANCH   1  20
ATOM     20  C   UNL     1      -1.256  -3.691   2.068  1.00  0.00     0.023 C 
BRANCH  20  21
ATOM     21  C   UNL     1      -1.672  -4.023   3.492  1.00  0.00     0.023 C 
BRANCH  21  22
ATOM     22  C   UNL     1      -0.516  -4.353   4.416  1.00  0.00     0.116 C 
BRANCH  22  23
ATOM     23  N   UNL     1       0.438  -3.265   4.583  1.00  0.00    -0.352 N 
ATOM     24  C   UNL     1       1.136  -2.909   5.717  1.00  0.00     0.251 C 
ATOM     25  H   UNL     1       0.606  -2.714   3.785  1.00  0.00     0.163 HD
ATOM     26  O   UNL     1       1.852  -1.920   5.726  1.00  0.00    -0.269 OA
BRANCH  24  27
ATOM     27  C   UNL     1       0.964  -3.722   6.941  1.00  0.00     0.039 A 
ATOM     28  C   UNL     1       0.712  -3.076   8.152  1.00  0.00     0.014 A 
ATOM     29  C   UNL     1       0.982  -5.117   6.873  1.00  0.00     0.014 A 
ATOM     30  C   UNL     1       0.413  -3.835   9.284  1.00  0.00     0.010 A 
ATOM     31  C   UNL     1       0.573  -5.864   7.968  1.00  0.00     0.010 A 
ATOM     32  C   UNL     1       0.309  -5.233   9.192  1.00  0.00    -0.014 A 
BRANCH  32  33
ATOM     33  C   UNL     1      -0.020  -6.060  10.378  1.00  0.00     0.031 A 
ATOM     34  C   UNL     1       0.977  -7.069  10.881  1.00  0.00     0.074 A 
ATOM     35  C   UNL     1      -1.225  -5.941  10.968  1.00  0.00     0.049 A 
ATOM     36  N   UNL     1       0.875  -7.906  11.882  1.00  0.00    -0.248 NA
ATOM     37  C   UNL     1       2.241  -7.184  10.134  1.00  0.00     0.031 C 
ATOM     38  C   UNL     1      -2.305  -5.057  10.526  1.00  0.00     0.029 A 
ATOM     39  N   UNL     1      -1.742  -6.571  12.071  1.00  0.00    -0.354 N 
ATOM     40  C   UNL     1       2.046  -8.653  11.867  1.00  0.00     0.074 A 
ATOM     41  C   UNL     1       2.809  -8.227  10.717  1.00  0.00     0.031 C 
ATOM     42  C   UNL     1      -3.340  -5.170  11.375  1.00  0.00     0.029 A 
ATOM     43  C   UNL     1      -3.006  -6.149  12.404  1.00  0.00     0.049 A 
ATOM     44  H   UNL     1      -1.254  -7.261  12.576  1.00  0.00     0.167 HD
ATOM     45  C   UNL     1       2.469  -9.583  12.754  1.00  0.00     0.037 A 
ATOM     46  C   UNL     1      -3.796  -6.504  13.435  1.00  0.00     0.037 A 
ATOM     47  C   UNL     1       1.730  -9.969  13.925  1.00  0.00     0.049 A 
ATOM     48  C   UNL     1      -3.284  -7.502  14.436  1.00  0.00     0.074 A 
ATOM     49  C   UNL     1       2.097 -10.848  14.928  1.00  0.00     0.029 A 
ATOM     50  N   UNL     1       0.472  -9.485  14.253  1.00  0.00    -0.354 N 
ATOM     51  N   UNL     1      -2.139  -8.142  14.457  1.00  0.00    -0.248 NA
ATOM     52  C   UNL     1      -4.167  -7.814  15.568  1.00  0.00     0.031 C 
ATOM     53  C   UNL     1       1.046 -10.919  15.849  1.00  0.00     0.029 A 
ATOM     54  C   UNL     1       0.043 -10.055  15.439  1.00  0.00     0.049 A 
ATOM     55  H   UNL     1      -0.040  -8.834  13.721  1.00  0.00     0.167 HD
ATOM     56  C   UNL     1      -2.153  -8.911  15.613  1.00  0.00     0.074 A 
ATOM     57  C   UNL     1      -3.413  -8.642  16.277  1.00  0.00     0.031 C 
ATOM     58  C   UNL     1      -1.212  -9.766  16.083  1.00  0.00     0.037 A 
BRANCH  45  59
ATOM     59  C   UNL     1       3.801 -10.224  12.494  1.00  0.00     0.057 A 
ATOM     60  C   UNL     1       5.000  -9.508  12.613  1.00  0.00     0.134 A 
ATOM     61  C   UNL     1       3.889 -11.571  12.122  1.00  0.00     0.134 A 
ATOM     62  F   UNL     1       4.985  -8.208  12.948  1.00  0.00    -0.206 F 
ATOM     63  C   UNL     1       6.235 -10.097  12.339  1.00  0.00     0.040 A 
ATOM     64  C   UNL     1       5.120 -12.180  11.873  1.00  0.00     0.040 A 
ATOM     65  F   UNL     1       2.781 -12.316  11.991  1.00  0.00    -0.206 F 
ATOM     66  C   UNL     1       6.297 -11.440  11.973  1.00  0.00     0.006 A 
ENDBRANCH  45  59
BRANCH  46  67
ATOM     67  C   UNL     1      -5.128  -5.872  13.607  1.00  0.00     0.057 A 
ATOM     68  C   UNL     1      -5.362  -4.957  14.641  1.00  0.00     0.134 A 
ATOM     69  C   UNL     1      -6.198  -6.170  12.755  1.00  0.00     0.134 A 
ATOM     70  F   UNL     1      -4.380  -4.644  15.499  1.00  0.00    -0.206 F 
ATOM     71  C   UNL     1      -6.618  -4.380  14.838  1.00  0.00     0.040 A 
ATOM     72  C   UNL     1      -7.453  -5.583  12.926  1.00  0.00     0.040 A 
ATOM     73  F   UNL     1      -6.035  -7.031  11.740  1.00  0.00    -0.206 F 
ATOM     74  C   UNL     1      -7.667  -4.691  13.976  1.00  0.00     0.006 A 
ENDBRANCH  46  67
BRANCH  58  75
ATOM     75  C   UNL     1      -1.501 -10.444  17.389  1.00  0.00     0.057 A 
ATOM     76  C   UNL     1      -2.457 -11.462  17.496  1.00  0.00     0.134 A 
ATOM     77  C   UNL     1      -0.797 -10.090  18.547  1.00  0.00     0.134 A 
ATOM     78  F   UNL     1      -3.173 -11.838  16.426  1.00  0.00    -0.206 F 
ATOM     79  C   UNL     1      -2.723 -12.084  18.716  1.00  0.00     0.040 A 
ATOM     80  C   UNL     1      -1.035 -10.723  19.766  1.00  0.00     0.040 A 
ATOM     81  F   UNL     1       0.139  -9.129  18.508  1.00  0.00    -0.206 F 
ATOM     82  C   UNL     1      -2.006 -11.719  19.855  1.00  0.00     0.006 A 
ENDBRANCH  58  75
ENDBRANCH  32  33
ENDBRANCH  24  27
ENDBRANCH  22  23
ENDBRANCH  21  22
ENDBRANCH  20  21
ENDBRANCH   1  20
TORSDOF 17
