REMARK SMILES CC(=O)O[C@H]1C[C@@H](C(=O)NCCCCNC(=O)c2ccc(-c3c4nc(c(-c5c(F)cccc5F)c5ccc([nH]5)c(-c5c(F)cccc5F)c5nc(c(-c6c(F)cccc6F)c6ccc3[nH]6)C=C5)C=C4)cc2)N(S(=O)(=O)c2ccc(F)cc2)C1
REMARK SMILES IDX 12 1 11 2 10 3 8 4 9 5 7 7 5 8 6 9 83 10 72 11 4 12 2 13
REMARK SMILES IDX 1 14 3 15 73 16 74 17 75 18 76 19 77 20 82 21 78 22 81 23
REMARK SMILES IDX 79 24 80 25 13 26 14 27 15 28 16 29 17 31 18 32 19 33 71 34
REMARK SMILES IDX 20 35 70 36 21 37 22 38 23 39 64 40 24 41 69 42 63 43 65 44
REMARK SMILES IDX 25 45 68 46 62 47 61 48 26 50 52 51 35 52 51 53 36 54 39 55
REMARK SMILES IDX 50 56 66 57 37 58 38 59 49 61 67 62 40 63 27 64 28 65 33 66
REMARK SMILES IDX 29 67 30 68 32 69 34 70 31 71 53 72 54 73 59 74 55 75 56 76
REMARK SMILES IDX 58 77 60 78 57 79 41 80 42 81 47 82 43 83 44 84 46 85 48 86
REMARK SMILES IDX 45 87
REMARK H PARENT 10 6 15 30 65 49 39 60
REMARK Flexibility Score: inf
ROOT
ATOM      1  C   UNL     1      -3.767   1.572   2.165  1.00  0.00     0.023 C 
ENDROOT
BRANCH   1   2
ATOM      2  C   UNL     1      -2.881   0.928   1.103  1.00  0.00     0.116 C 
BRANCH   2   3
ATOM      3  N   UNL     1      -2.841   1.677  -0.137  1.00  0.00    -0.355 N 
ATOM      4  C   UNL     1      -1.975   2.580  -0.659  1.00  0.00     0.238 C 
ATOM      5  O   UNL     1      -2.205   2.911  -1.830  1.00  0.00    -0.273 OA
ATOM      6  H   UNL     1      -3.607   1.489  -0.728  1.00  0.00     0.163 HD
BRANCH   4   7
ATOM      7  C   UNL     1      -0.761   3.171   0.042  1.00  0.00     0.166 C 
ATOM      8  C   UNL     1       0.929   3.548   1.648  1.00  0.00     0.193 C 
ATOM      9  C   UNL     1      -0.306   2.694   1.406  1.00  0.00     0.077 C 
ATOM     10  C   UNL     1       0.579   4.900   1.013  1.00  0.00     0.148 C 
ATOM     11  N   UNL     1      -0.627   4.671   0.132  1.00  0.00    -0.182 NA
BRANCH   8  12
ATOM     12  O   UNL     1       1.143   3.647   3.065  1.00  0.00    -0.461 OA
BRANCH  12  13
ATOM     13  C   UNL     1       2.350   3.927   3.614  1.00  0.00     0.302 C 
ATOM     14  C   UNL     1       3.542   3.898   2.704  1.00  0.00     0.139 C 
ATOM     15  O   UNL     1       2.460   4.155   4.813  1.00  0.00    -0.253 OA
ENDBRANCH  12  13
ENDBRANCH   8  12
BRANCH  11  16
ATOM     16  S   UNL     1      -1.970   5.605   0.639  1.00  0.00     0.243 S 
ATOM     17  O   UNL     1      -2.601   4.889   1.730  1.00  0.00    -0.207 OA
ATOM     18  O   UNL     1      -1.494   6.957   0.835  1.00  0.00    -0.207 OA
BRANCH  16  19
ATOM     19  C   UNL     1      -3.121   5.676  -0.712  1.00  0.00     0.082 A 
ATOM     20  C   UNL     1      -3.008   6.701  -1.661  1.00  0.00     0.025 A 
ATOM     21  C   UNL     1      -4.231   4.824  -0.729  1.00  0.00     0.025 A 
ATOM     22  C   UNL     1      -3.973   6.822  -2.664  1.00  0.00     0.040 A 
ATOM     23  C   UNL     1      -5.170   4.922  -1.756  1.00  0.00     0.040 A 
ATOM     24  C   UNL     1      -5.032   5.920  -2.714  1.00  0.00     0.123 A 
ATOM     25  F   UNL     1      -5.946   6.027  -3.687  1.00  0.00    -0.207 F 
ENDBRANCH  16  19
ENDBRANCH  11  16
ENDBRANCH   4   7
ENDBRANCH   2   3
ENDBRANCH   1   2
BRANCH   1  26
ATOM     26  C   UNL     1      -5.268   1.548   1.864  1.00  0.00     0.023 C 
BRANCH  26  27
ATOM     27  C   UNL     1      -5.858   0.184   1.519  1.00  0.00     0.116 C 
BRANCH  27  28
ATOM     28  N   UNL     1      -5.545  -0.854   2.489  1.00  0.00    -0.352 N 
ATOM     29  C   UNL     1      -6.337  -1.878   2.949  1.00  0.00     0.251 C 
ATOM     30  H   UNL     1      -4.637  -0.817   2.869  1.00  0.00     0.163 HD
ATOM     31  O   UNL     1      -5.927  -2.634   3.823  1.00  0.00    -0.269 OA
BRANCH  29  32
ATOM     32  C   UNL     1      -7.708  -2.030   2.422  1.00  0.00     0.039 A 
ATOM     33  C   UNL     1      -8.765  -2.118   3.331  1.00  0.00     0.014 A 
ATOM     34  C   UNL     1      -7.955  -2.027   1.047  1.00  0.00     0.014 A 
ATOM     35  C   UNL     1     -10.080  -2.102   2.863  1.00  0.00     0.010 A 
ATOM     36  C   UNL     1      -9.267  -1.948   0.585  1.00  0.00     0.010 A 
ATOM     37  C   UNL     1     -10.340  -1.959   1.490  1.00  0.00    -0.014 A 
BRANCH  37  38
ATOM     38  C   UNL     1     -11.720  -1.744   0.989  1.00  0.00     0.031 A 
ATOM     39  C   UNL     1     -12.368  -2.748   0.080  1.00  0.00     0.074 A 
ATOM     40  C   UNL     1     -12.350  -0.587   1.279  1.00  0.00     0.049 A 
ATOM     41  N   UNL     1     -13.521  -2.679  -0.534  1.00  0.00    -0.248 NA
ATOM     42  C   UNL     1     -11.611  -3.978  -0.197  1.00  0.00     0.031 C 
ATOM     43  C   UNL     1     -11.800   0.492   2.103  1.00  0.00     0.029 A 
ATOM     44  N   UNL     1     -13.579  -0.114   0.893  1.00  0.00    -0.354 N 
ATOM     45  C   UNL     1     -13.621  -3.845  -1.282  1.00  0.00     0.074 A 
ATOM     46  C   UNL     1     -12.397  -4.587  -1.074  1.00  0.00     0.031 C 
ATOM     47  C   UNL     1     -12.689   1.496   2.165  1.00  0.00     0.029 A 
ATOM     48  C   UNL     1     -13.851   1.152   1.353  1.00  0.00     0.049 A 
ATOM     49  H   UNL     1     -14.207  -0.632   0.339  1.00  0.00     0.167 HD
ATOM     50  C   UNL     1     -14.650  -4.262  -2.057  1.00  0.00     0.037 A 
ATOM     51  C   UNL     1     -14.907   1.958   1.128  1.00  0.00     0.037 A 
ATOM     52  C   UNL     1     -15.879  -3.534  -2.235  1.00  0.00     0.049 A 
ATOM     53  C   UNL     1     -16.029   1.470   0.255  1.00  0.00     0.074 A 
ATOM     54  C   UNL     1     -17.018  -3.925  -2.917  1.00  0.00     0.029 A 
ATOM     55  N   UNL     1     -16.124  -2.263  -1.740  1.00  0.00    -0.354 N 
ATOM     56  N   UNL     1     -16.154   0.322  -0.364  1.00  0.00    -0.248 NA
ATOM     57  C   UNL     1     -17.157   2.390   0.046  1.00  0.00     0.031 C 
ATOM     58  C   UNL     1     -17.933  -2.868  -2.880  1.00  0.00     0.029 A 
ATOM     59  C   UNL     1     -17.381  -1.838  -2.137  1.00  0.00     0.049 A 
ATOM     60  H   UNL     1     -15.499  -1.740  -1.188  1.00  0.00     0.167 HD
ATOM     61  C   UNL     1     -17.374   0.376  -1.024  1.00  0.00     0.074 A 
ATOM     62  C   UNL     1     -17.964   1.661  -0.710  1.00  0.00     0.031 C 
ATOM     63  C   UNL     1     -17.952  -0.553  -1.823  1.00  0.00     0.037 A 
BRANCH  50  64
ATOM     64  C   UNL     1     -14.498  -5.569  -2.777  1.00  0.00     0.057 A 
ATOM     65  C   UNL     1     -14.546  -6.795  -2.101  1.00  0.00     0.134 A 
ATOM     66  C   UNL     1     -14.374  -5.604  -4.171  1.00  0.00     0.134 A 
ATOM     67  F   UNL     1     -14.655  -6.830  -0.764  1.00  0.00    -0.206 F 
ATOM     68  C   UNL     1     -14.459  -8.009  -2.785  1.00  0.00     0.040 A 
ATOM     69  C   UNL     1     -14.311  -6.812  -4.869  1.00  0.00     0.040 A 
ATOM     70  F   UNL     1     -14.329  -4.466  -4.880  1.00  0.00    -0.206 F 
ATOM     71  C   UNL     1     -14.351  -8.019  -4.174  1.00  0.00     0.006 A 
ENDBRANCH  50  64
BRANCH  51  72
ATOM     72  C   UNL     1     -14.949   3.317   1.725  1.00  0.00     0.057 A 
ATOM     73  C   UNL     1     -15.862   3.637   2.735  1.00  0.00     0.134 A 
ATOM     74  C   UNL     1     -14.089   4.332   1.287  1.00  0.00     0.134 A 
ATOM     75  F   UNL     1     -16.725   2.713   3.182  1.00  0.00    -0.206 F 
ATOM     76  C   UNL     1     -15.935   4.923   3.274  1.00  0.00     0.040 A 
ATOM     77  C   UNL     1     -14.133   5.615   1.835  1.00  0.00     0.040 A 
ATOM     78  F   UNL     1     -13.187   4.088   0.325  1.00  0.00    -0.206 F 
ATOM     79  C   UNL     1     -15.065   5.915   2.826  1.00  0.00     0.006 A 
ENDBRANCH  51  72
BRANCH  63  80
ATOM     80  C   UNL     1     -19.289  -0.216  -2.413  1.00  0.00     0.057 A 
ATOM     81  C   UNL     1     -19.418   0.712  -3.454  1.00  0.00     0.134 A 
ATOM     82  C   UNL     1     -20.451  -0.860  -1.970  1.00  0.00     0.134 A 
ATOM     83  F   UNL     1     -18.344   1.373  -3.912  1.00  0.00    -0.206 F 
ATOM     84  C   UNL     1     -20.659   0.999  -4.024  1.00  0.00     0.040 A 
ATOM     85  C   UNL     1     -21.694  -0.600  -2.550  1.00  0.00     0.040 A 
ATOM     86  F   UNL     1     -20.395  -1.765  -0.981  1.00  0.00    -0.206 F 
ATOM     87  C   UNL     1     -21.800   0.335  -3.578  1.00  0.00     0.006 A 
ENDBRANCH  63  80
ENDBRANCH  37  38
ENDBRANCH  29  32
ENDBRANCH  27  28
ENDBRANCH  26  27
ENDBRANCH   1  26
TORSDOF 15
