REMARK SMILES CC(C)C[C@H](C(=O)NCCCCNC(=O)c1ccc(-c2c3nc(c(-c4c(F)cccc4F)c4ccc([nH]4)c(-c4c(F)cccc4F)c4nc(c(-c5c(F)cccc5F)c5ccc2[nH]5)C=C4)C=C3)cc1)N1C(=O)/C(=C2\C(=O)Nc3ccc(Br)cc32)SC1=S
REMARK SMILES IDX 10 1 9 2 8 3 6 4 7 5 5 7 4 8 2 9 1 10 3 11 70 12 71 13 86 14
REMARK SMILES IDX 72 15 73 16 85 17 87 18 74 19 75 20 84 21 76 22 77 23 78 24
REMARK SMILES IDX 83 25 79 27 81 28 80 29 82 30 11 31 12 32 13 33 14 34 15 36
REMARK SMILES IDX 16 37 17 38 69 39 18 40 68 41 19 42 20 43 21 44 62 45 22 46
REMARK SMILES IDX 67 47 61 48 63 49 23 50 66 51 60 52 59 53 24 55 50 56 33 57
REMARK SMILES IDX 49 58 34 59 37 60 48 61 64 62 35 63 36 64 47 66 65 67 38 68
REMARK SMILES IDX 25 69 26 70 31 71 27 72 28 73 30 74 32 75 29 76 51 77 52 78
REMARK SMILES IDX 57 79 53 80 54 81 56 82 58 83 55 84 39 85 40 86 45 87 41 88
REMARK SMILES IDX 42 89 44 90 46 91 43 92
REMARK H PARENT 8 6 77 26 13 35 63 54 37 65
REMARK Flexibility Score: inf
ROOT
ATOM      1  C   UNL     1      -3.602   3.295  -0.779  1.00  0.00     0.023 C 
ENDROOT
BRANCH   1   2
ATOM      2  C   UNL     1      -2.999   2.002  -1.326  1.00  0.00     0.116 C 
BRANCH   2   3
ATOM      3  N   UNL     1      -1.676   1.782  -0.792  1.00  0.00    -0.354 N 
ATOM      4  C   UNL     1      -1.202   1.263   0.365  1.00  0.00     0.243 C 
ATOM      5  O   UNL     1       0.024   1.394   0.505  1.00  0.00    -0.273 OA
ATOM      6  H   UNL     1      -0.962   2.074  -1.404  1.00  0.00     0.163 HD
BRANCH   4   7
ATOM      7  C   UNL     1      -2.021   0.498   1.459  1.00  0.00     0.181 C 
BRANCH   7   8
ATOM      8  C   UNL     1      -1.538   0.977   2.846  1.00  0.00     0.038 C 
BRANCH   8   9
ATOM      9  C   UNL     1      -2.022   0.181   4.070  1.00  0.00    -0.015 C 
ATOM     10  C   UNL     1      -1.549  -1.272   4.066  1.00  0.00     0.007 C 
ATOM     11  C   UNL     1      -1.502   0.869   5.338  1.00  0.00     0.007 C 
ENDBRANCH   8   9
ENDBRANCH   7   8
BRANCH   7  12
ATOM     12  N   UNL     1      -3.478   0.299   1.268  1.00  0.00    -0.280 N 
ATOM     13  C   UNL     1      -3.877  -0.965   0.861  1.00  0.00     0.267 C 
ATOM     14  C   UNL     1      -4.530   1.140   1.528  1.00  0.00     0.149 C 
ATOM     15  O   UNL     1      -3.274  -1.986   1.139  1.00  0.00    -0.268 OA
ATOM     16  C   UNL     1      -5.201  -0.917   0.179  1.00  0.00     0.093 C 
ATOM     17  S   UNL     1      -5.961   0.565   0.643  1.00  0.00    -0.053 SA
ATOM     18  S   UNL     1      -4.601   2.506   2.481  1.00  0.00    -0.052 S 
ATOM     19  C   UNL     1      -5.709  -1.867  -0.624  1.00  0.00     0.069 C 
ATOM     20  C   UNL     1      -5.109  -3.249  -0.771  1.00  0.00     0.257 C 
ATOM     21  C   UNL     1      -6.969  -1.907  -1.395  1.00  0.00     0.013 A 
ATOM     22  O   UNL     1      -3.966  -3.623  -0.636  1.00  0.00    -0.269 OA
ATOM     23  N   UNL     1      -6.147  -4.039  -1.230  1.00  0.00    -0.321 N 
ATOM     24  C   UNL     1      -7.215  -3.263  -1.655  1.00  0.00     0.049 A 
ATOM     25  C   UNL     1      -7.749  -0.949  -2.023  1.00  0.00     0.026 A 
ATOM     26  H   UNL     1      -6.130  -5.024  -1.254  1.00  0.00     0.170 HD
ATOM     27  C   UNL     1      -8.283  -3.720  -2.399  1.00  0.00     0.028 A 
ATOM     28  C   UNL     1      -8.797  -1.391  -2.846  1.00  0.00     0.018 A 
ATOM     29  C   UNL     1      -9.087  -2.759  -3.006  1.00  0.00     0.018 A 
ATOM     30  Br  UNL     1      -9.792  -0.130  -3.848  1.00  0.00    -0.051 Br
ENDBRANCH   7  12
ENDBRANCH   4   7
ENDBRANCH   2   3
ENDBRANCH   1   2
BRANCH   1  31
ATOM     31  C   UNL     1      -3.519   4.510  -1.694  1.00  0.00     0.023 C 
BRANCH  31  32
ATOM     32  C   UNL     1      -4.226   4.346  -3.029  1.00  0.00     0.116 C 
BRANCH  32  33
ATOM     33  N   UNL     1      -5.620   3.932  -2.931  1.00  0.00    -0.352 N 
ATOM     34  C   UNL     1      -6.619   4.136  -3.855  1.00  0.00     0.251 C 
ATOM     35  H   UNL     1      -5.876   3.451  -2.111  1.00  0.00     0.163 HD
ATOM     36  O   UNL     1      -7.769   3.781  -3.629  1.00  0.00    -0.269 OA
BRANCH  34  37
ATOM     37  C   UNL     1      -6.281   4.850  -5.102  1.00  0.00     0.039 A 
ATOM     38  C   UNL     1      -7.012   5.987  -5.451  1.00  0.00     0.014 A 
ATOM     39  C   UNL     1      -5.174   4.455  -5.857  1.00  0.00     0.014 A 
ATOM     40  C   UNL     1      -6.587   6.770  -6.524  1.00  0.00     0.010 A 
ATOM     41  C   UNL     1      -4.696   5.289  -6.857  1.00  0.00     0.010 A 
ATOM     42  C   UNL     1      -5.404   6.447  -7.211  1.00  0.00    -0.014 A 
BRANCH  42  43
ATOM     43  C   UNL     1      -4.907   7.286  -8.328  1.00  0.00     0.031 A 
ATOM     44  C   UNL     1      -4.805   6.700  -9.709  1.00  0.00     0.074 A 
ATOM     45  C   UNL     1      -4.490   8.545  -8.091  1.00  0.00     0.049 A 
ATOM     46  N   UNL     1      -4.353   7.245 -10.809  1.00  0.00    -0.248 NA
ATOM     47  C   UNL     1      -5.231   5.299  -9.866  1.00  0.00     0.031 C 
ATOM     48  C   UNL     1      -4.478   9.206  -6.784  1.00  0.00     0.029 A 
ATOM     49  N   UNL     1      -3.993   9.495  -8.947  1.00  0.00    -0.354 N 
ATOM     50  C   UNL     1      -4.418   6.249 -11.775  1.00  0.00     0.074 A 
ATOM     51  C   UNL     1      -4.888   5.050 -11.120  1.00  0.00     0.031 C 
ATOM     52  C   UNL     1      -4.036  10.466  -6.933  1.00  0.00     0.029 A 
ATOM     53  C   UNL     1      -3.707  10.692  -8.336  1.00  0.00     0.049 A 
ATOM     54  H   UNL     1      -3.854   9.334  -9.908  1.00  0.00     0.167 HD
ATOM     55  C   UNL     1      -4.144   6.333 -13.098  1.00  0.00     0.037 A 
ATOM     56  C   UNL     1      -3.241  11.843  -8.857  1.00  0.00     0.037 A 
ATOM     57  C   UNL     1      -3.723   7.541 -13.755  1.00  0.00     0.049 A 
ATOM     58  C   UNL     1      -2.970  11.921 -10.334  1.00  0.00     0.074 A 
ATOM     59  C   UNL     1      -3.494   7.756 -15.102  1.00  0.00     0.029 A 
ATOM     60  N   UNL     1      -3.472   8.741 -13.107  1.00  0.00    -0.354 N 
ATOM     61  N   UNL     1      -3.114  10.995 -11.252  1.00  0.00    -0.248 NA
ATOM     62  C   UNL     1      -2.481  13.207 -10.848  1.00  0.00     0.031 C 
ATOM     63  C   UNL     1      -3.069   9.079 -15.265  1.00  0.00     0.029 A 
ATOM     64  C   UNL     1      -3.074   9.698 -14.025  1.00  0.00     0.049 A 
ATOM     65  H   UNL     1      -3.563   8.890 -12.138  1.00  0.00     0.167 HD
ATOM     66  C   UNL     1      -2.767  11.596 -12.455  1.00  0.00     0.074 A 
ATOM     67  C   UNL     1      -2.416  12.968 -12.150  1.00  0.00     0.031 C 
ATOM     68  C   UNL     1      -2.742  11.062 -13.701  1.00  0.00     0.037 A 
BRANCH  55  69
ATOM     69  C   UNL     1      -4.305   5.084 -13.914  1.00  0.00     0.057 A 
ATOM     70  C   UNL     1      -5.565   4.524 -14.170  1.00  0.00     0.134 A 
ATOM     71  C   UNL     1      -3.189   4.432 -14.452  1.00  0.00     0.134 A 
ATOM     72  F   UNL     1      -6.674   5.089 -13.669  1.00  0.00    -0.206 F 
ATOM     73  C   UNL     1      -5.705   3.343 -14.900  1.00  0.00     0.040 A 
ATOM     74  C   UNL     1      -3.319   3.267 -15.209  1.00  0.00     0.040 A 
ATOM     75  F   UNL     1      -1.954   4.915 -14.248  1.00  0.00    -0.206 F 
ATOM     76  C   UNL     1      -4.580   2.714 -15.427  1.00  0.00     0.006 A 
ENDBRANCH  55  69
BRANCH  56  77
ATOM     77  C   UNL     1      -3.054  13.033  -7.989  1.00  0.00     0.057 A 
ATOM     78  C   UNL     1      -3.907  14.138  -8.096  1.00  0.00     0.134 A 
ATOM     79  C   UNL     1      -2.023  13.103  -7.046  1.00  0.00     0.134 A 
ATOM     80  F   UNL     1      -4.903  14.136  -8.995  1.00  0.00    -0.206 F 
ATOM     81  C   UNL     1      -3.730  15.279  -7.312  1.00  0.00     0.040 A 
ATOM     82  C   UNL     1      -1.848  14.229  -6.239  1.00  0.00     0.040 A 
ATOM     83  F   UNL     1      -1.178  12.074  -6.888  1.00  0.00    -0.206 F 
ATOM     84  C   UNL     1      -2.699  15.324  -6.377  1.00  0.00     0.006 A 
ENDBRANCH  56  77
BRANCH  68  85
ATOM     85  C   UNL     1      -2.363  11.975 -14.829  1.00  0.00     0.057 A 
ATOM     86  C   UNL     1      -1.046  12.411 -15.018  1.00  0.00     0.134 A 
ATOM     87  C   UNL     1      -3.326  12.396 -15.756  1.00  0.00     0.134 A 
ATOM     88  F   UNL     1      -0.081  12.053 -14.158  1.00  0.00    -0.206 F 
ATOM     89  C   UNL     1      -0.704  13.253 -16.077  1.00  0.00     0.040 A 
ATOM     90  C   UNL     1      -2.991  13.216 -16.833  1.00  0.00     0.040 A 
ATOM     91  F   UNL     1      -4.604  12.006 -15.635  1.00  0.00    -0.206 F 
ATOM     92  C   UNL     1      -1.677  13.653 -16.991  1.00  0.00     0.006 A 
ENDBRANCH  68  85
ENDBRANCH  42  43
ENDBRANCH  34  37
ENDBRANCH  32  33
ENDBRANCH  31  32
ENDBRANCH   1  31
TORSDOF 14
