REMARK SMILES CCNC(=O)NC(=O)[C@@H](C)[NH2+][C@](C)(CC)C(=O)NCCCCNC(=O)c1ccc(-c2c3nc(c(-c4c(F)cccc4F)c4ccc([nH]4)c(-c4c(F)cccc4F)c4nc(c(-c5c(F)cccc5F)c5ccc2[nH]5)C=C4)C=C3)cc1
REMARK SMILES IDX 19 1 18 2 16 3 17 4 12 6 13 7 11 8 9 11 10 12 7 13 3 14 4 15
REMARK SMILES IDX 5 17 6 18 8 20 2 21 1 22 14 23 15 24 20 25 21 26 22 27 23 28
REMARK SMILES IDX 24 29 25 31 26 32 27 33 79 34 28 35 78 36 29 37 30 38 31 39
REMARK SMILES IDX 72 40 32 41 77 42 71 43 73 44 33 45 76 46 70 47 69 48 34 50
REMARK SMILES IDX 60 51 43 52 59 53 44 54 47 55 58 56 74 57 45 58 46 59 57 61
REMARK SMILES IDX 75 62 48 63 35 64 36 65 41 66 37 67 38 68 40 69 42 70 39 71
REMARK SMILES IDX 61 72 62 73 67 74 63 75 64 76 66 77 68 78 65 79 49 80 50 81
REMARK SMILES IDX 55 82 51 83 52 84 54 85 56 86 53 87
REMARK H PARENT 18 5 11 9 11 10 3 16 6 19 23 30 73 49 47 60
REMARK Flexibility Score: inf
ROOT
ATOM      1  C   UNL     1       2.672  -0.126  -4.132  1.00  0.00     0.116 C 
ENDROOT
BRANCH   1   2
ATOM      2  N   UNL     1       1.236  -0.109  -3.967  1.00  0.00    -0.351 N 
ATOM      3  C   UNL     1       0.400  -0.921  -3.262  1.00  0.00     0.281 C 
ATOM      4  O   UNL     1      -0.807  -0.733  -3.442  1.00  0.00    -0.268 OA
ATOM      5  H   UNL     1       0.781   0.618  -4.450  1.00  0.00     0.163 HD
BRANCH   3   6
ATOM      6  C   UNL     1       0.946  -1.975  -2.224  1.00  0.00     0.173 C 
ATOM      7  C   UNL     1      -0.300  -2.595  -1.545  1.00  0.00     0.090 C 
BRANCH   6   8
ATOM      8  N   UNL     1       1.618  -1.204  -1.137  1.00  0.00    -0.324 N 
ATOM      9  H   UNL     1       1.620  -0.230  -1.441  1.00  0.00     0.347 HD
ATOM     10  H   UNL     1       1.071  -1.473  -0.320  1.00  0.00     0.347 HD
BRANCH   8  11
ATOM     11  C   UNL     1       2.989  -1.497  -0.693  1.00  0.00     0.270 C 
ATOM     12  C   UNL     1       3.318  -2.780   0.073  1.00  0.00     0.086 C 
BRANCH  11  13
ATOM     13  C   UNL     1       3.470  -0.294   0.133  1.00  0.00     0.285 C 
ATOM     14  N   UNL     1       1.072  -0.955   2.504  1.00  0.00    -0.338 N 
ATOM     15  C   UNL     1       2.028  -0.038   2.376  1.00  0.00     0.321 C 
ATOM     16  H   UNL     1       0.648  -0.925   3.392  1.00  0.00     0.165 HD
ATOM     17  O   UNL     1       2.127   0.778   3.302  1.00  0.00    -0.248 OA
ATOM     18  N   UNL     1       2.924   0.110   1.351  1.00  0.00    -0.273 N 
ATOM     19  H   UNL     1       3.448   0.905   1.600  1.00  0.00     0.175 HD
ATOM     20  O   UNL     1       4.392   0.406  -0.314  1.00  0.00    -0.268 OA
BRANCH  14  21
ATOM     21  C   UNL     1       0.503  -1.977   1.669  1.00  0.00     0.114 C 
ATOM     22  C   UNL     1       0.295  -3.289   2.398  1.00  0.00     0.027 C 
ENDBRANCH  14  21
ENDBRANCH  11  13
ENDBRANCH   8  11
ENDBRANCH   6   8
BRANCH   6  23
ATOM     23  C   UNL     1       1.748  -3.103  -2.915  1.00  0.00     0.075 C 
ATOM     24  C   UNL     1       0.962  -3.891  -3.964  1.00  0.00     0.011 C 
ENDBRANCH   6  23
ENDBRANCH   3   6
ENDBRANCH   1   2
BRANCH   1  25
ATOM     25  C   UNL     1       3.076  -0.808  -5.437  1.00  0.00     0.023 C 
BRANCH  25  26
ATOM     26  C   UNL     1       2.577  -0.100  -6.694  1.00  0.00     0.023 C 
BRANCH  26  27
ATOM     27  C   UNL     1       2.894   1.387  -6.756  1.00  0.00     0.116 C 
BRANCH  27  28
ATOM     28  N   UNL     1       4.314   1.671  -6.599  1.00  0.00    -0.352 N 
ATOM     29  C   UNL     1       5.118   2.482  -7.364  1.00  0.00     0.251 C 
ATOM     30  H   UNL     1       4.757   1.221  -5.844  1.00  0.00     0.163 HD
ATOM     31  O   UNL     1       6.325   2.524  -7.182  1.00  0.00    -0.269 OA
BRANCH  29  32
ATOM     32  C   UNL     1       4.494   3.271  -8.441  1.00  0.00     0.039 A 
ATOM     33  C   UNL     1       4.987   3.142  -9.741  1.00  0.00     0.014 A 
ATOM     34  C   UNL     1       3.372   4.059  -8.174  1.00  0.00     0.014 A 
ATOM     35  C   UNL     1       4.296   3.737 -10.794  1.00  0.00     0.010 A 
ATOM     36  C   UNL     1       2.644   4.588  -9.232  1.00  0.00     0.010 A 
ATOM     37  C   UNL     1       3.093   4.420 -10.551  1.00  0.00    -0.014 A 
BRANCH  37  38
ATOM     38  C   UNL     1       2.266   4.941 -11.665  1.00  0.00     0.031 A 
ATOM     39  C   UNL     1       2.029   6.416 -11.799  1.00  0.00     0.074 A 
ATOM     40  C   UNL     1       1.652   4.075 -12.494  1.00  0.00     0.049 A 
ATOM     41  N   UNL     1       1.260   7.055 -12.642  1.00  0.00    -0.248 NA
ATOM     42  C   UNL     1       2.724   7.285 -10.837  1.00  0.00     0.031 C 
ATOM     43  C   UNL     1       1.755   2.616 -12.423  1.00  0.00     0.029 A 
ATOM     44  N   UNL     1       0.800   4.296 -13.546  1.00  0.00    -0.354 N 
ATOM     45  C   UNL     1       1.366   8.397 -12.302  1.00  0.00     0.074 A 
ATOM     46  C   UNL     1       2.231   8.475 -11.145  1.00  0.00     0.031 C 
ATOM     47  C   UNL     1       1.003   2.074 -13.393  1.00  0.00     0.029 A 
ATOM     48  C   UNL     1       0.337   3.143 -14.131  1.00  0.00     0.049 A 
ATOM     49  H   UNL     1       0.545   5.196 -13.853  1.00  0.00     0.167 HD
ATOM     50  C   UNL     1       0.809   9.469 -12.914  1.00  0.00     0.037 A 
ATOM     51  C   UNL     1      -0.539   2.966 -15.138  1.00  0.00     0.037 A 
ATOM     52  C   UNL     1      -0.034   9.386 -14.077  1.00  0.00     0.049 A 
ATOM     53  C   UNL     1      -1.144   4.170 -15.803  1.00  0.00     0.074 A 
ATOM     54  C   UNL     1      -0.581  10.416 -14.820  1.00  0.00     0.029 A 
ATOM     55  N   UNL     1      -0.459   8.200 -14.660  1.00  0.00    -0.354 N 
ATOM     56  N   UNL     1      -0.967   5.439 -15.528  1.00  0.00    -0.248 NA
ATOM     57  C   UNL     1      -2.065   3.918 -16.919  1.00  0.00     0.031 C 
ATOM     58  C   UNL     1      -1.374   9.854 -15.827  1.00  0.00     0.029 A 
ATOM     59  C   UNL     1      -1.286   8.473 -15.736  1.00  0.00     0.049 A 
ATOM     60  H   UNL     1      -0.209   7.299 -14.353  1.00  0.00     0.167 HD
ATOM     61  C   UNL     1      -1.742   6.139 -16.443  1.00  0.00     0.074 A 
ATOM     62  C   UNL     1      -2.376   5.152 -17.294  1.00  0.00     0.031 C 
ATOM     63  C   UNL     1      -1.915   7.477 -16.567  1.00  0.00     0.037 A 
BRANCH  50  64
ATOM     64  C   UNL     1       1.098  10.820 -12.329  1.00  0.00     0.057 A 
ATOM     65  C   UNL     1       2.370  11.402 -12.408  1.00  0.00     0.134 A 
ATOM     66  C   UNL     1       0.091  11.553 -11.689  1.00  0.00     0.134 A 
ATOM     67  F   UNL     1       3.383  10.746 -12.996  1.00  0.00    -0.206 F 
ATOM     68  C   UNL     1       2.639  12.649 -11.843  1.00  0.00     0.040 A 
ATOM     69  C   UNL     1       0.341  12.813 -11.145  1.00  0.00     0.040 A 
ATOM     70  F   UNL     1      -1.151  11.056 -11.583  1.00  0.00    -0.206 F 
ATOM     71  C   UNL     1       1.621  13.361 -11.213  1.00  0.00     0.006 A 
ENDBRANCH  50  64
BRANCH  51  72
ATOM     72  C   UNL     1      -0.886   1.593 -15.578  1.00  0.00     0.057 A 
ATOM     73  C   UNL     1      -0.425   1.086 -16.798  1.00  0.00     0.134 A 
ATOM     74  C   UNL     1      -1.671   0.749 -14.783  1.00  0.00     0.134 A 
ATOM     75  F   UNL     1       0.316   1.854 -17.610  1.00  0.00    -0.206 F 
ATOM     76  C   UNL     1      -0.739  -0.208 -17.217  1.00  0.00     0.040 A 
ATOM     77  C   UNL     1      -1.974  -0.555 -15.179  1.00  0.00     0.040 A 
ATOM     78  F   UNL     1      -2.135   1.173 -13.598  1.00  0.00    -0.206 F 
ATOM     79  C   UNL     1      -1.511  -1.034 -16.403  1.00  0.00     0.006 A 
ENDBRANCH  51  72
BRANCH  63  80
ATOM     80  C   UNL     1      -2.817   7.953 -17.666  1.00  0.00     0.057 A 
ATOM     81  C   UNL     1      -4.208   7.825 -17.582  1.00  0.00     0.134 A 
ATOM     82  C   UNL     1      -2.291   8.588 -18.798  1.00  0.00     0.134 A 
ATOM     83  F   UNL     1      -4.772   7.213 -16.530  1.00  0.00    -0.206 F 
ATOM     84  C   UNL     1      -5.046   8.300 -18.592  1.00  0.00     0.040 A 
ATOM     85  C   UNL     1      -3.119   9.089 -19.803  1.00  0.00     0.040 A 
ATOM     86  F   UNL     1      -0.966   8.748 -18.936  1.00  0.00    -0.206 F 
ATOM     87  C   UNL     1      -4.501   8.942 -19.703  1.00  0.00     0.006 A 
ENDBRANCH  63  80
ENDBRANCH  37  38
ENDBRANCH  29  32
ENDBRANCH  27  28
ENDBRANCH  26  27
ENDBRANCH  25  26
ENDBRANCH   1  25
TORSDOF 16
