REMARK SMILES C[NH2+]C[C@@H](C)C(=O)N1CC[NH+](CC(=O)NCCCCNC(=O)c2ccc(-c3c4nc(c(-c5c(F)cccc5F)c5ccc([nH]5)c(-c5c(F)cccc5F)c5nc(c(-c6c(F)cccc6F)c6ccc3[nH]6)C=C5)C=C4)cc2)CC1
REMARK SMILES IDX 16 1 15 2 13 3 14 4 12 6 11 7 6 8 7 9 8 10 9 11 78 12 10 13
REMARK SMILES IDX 77 14 4 16 5 17 3 18 2 19 1 20 17 23 18 24 19 25 20 26 21 27
REMARK SMILES IDX 22 29 23 30 24 31 76 32 25 33 75 34 26 35 27 36 28 37 69 38
REMARK SMILES IDX 29 39 74 40 68 41 70 42 30 43 73 44 67 45 66 46 31 48 57 49
REMARK SMILES IDX 40 50 56 51 41 52 44 53 55 54 71 55 42 56 43 57 54 59 72 60
REMARK SMILES IDX 45 61 32 62 33 63 38 64 34 65 35 66 37 67 39 68 36 69 58 70
REMARK SMILES IDX 59 71 64 72 60 73 61 74 63 75 65 76 62 77 46 78 47 79 52 80
REMARK SMILES IDX 48 81 49 82 51 83 53 84 50 85
REMARK H PARENT 15 5 11 15 2 21 2 22 20 28 70 47 44 58
REMARK Flexibility Score: inf
ROOT
ATOM      1  C   UNL     1      -4.223  -1.520   4.855  1.00  0.00     0.116 C 
ENDROOT
BRANCH   1   2
ATOM      2  N   UNL     1      -5.266  -1.501   3.841  1.00  0.00    -0.351 N 
ATOM      3  C   UNL     1      -5.885  -2.483   3.126  1.00  0.00     0.275 C 
ATOM      4  O   UNL     1      -6.780  -2.134   2.350  1.00  0.00    -0.269 OA
ATOM      5  H   UNL     1      -5.590  -0.596   3.628  1.00  0.00     0.163 HD
BRANCH   3   6
ATOM      6  C   UNL     1      -5.505  -3.953   3.275  1.00  0.00     0.363 C 
BRANCH   6   7
ATOM      7  N   UNL     1      -4.661  -4.510   2.204  1.00  0.00    -0.324 N 
ATOM      8  C   UNL     1      -2.816  -1.981  -0.834  1.00  0.00     0.231 C 
ATOM      9  O   UNL     1      -3.474  -1.476  -1.748  1.00  0.00    -0.274 OA
ATOM     10  N   UNL     1      -3.421  -2.777   0.134  1.00  0.00    -0.331 N 
ATOM     11  C   UNL     1      -4.816  -3.209  -0.043  1.00  0.00     0.181 C 
ATOM     12  C   UNL     1      -2.984  -2.789   1.510  1.00  0.00     0.181 C 
ATOM     13  C   UNL     1      -5.193  -4.443   0.828  1.00  0.00     0.284 C 
ATOM     14  C   UNL     1      -3.268  -4.092   2.249  1.00  0.00     0.284 C 
ATOM     15  H   UNL     1      -4.696  -5.501   2.445  1.00  0.00     0.348 HD
BRANCH   8  16
ATOM     16  C   UNL     1      -1.276  -1.821  -0.838  1.00  0.00     0.130 C 
ATOM     17  C   UNL     1      -0.630  -3.209  -0.793  1.00  0.00     0.024 C 
BRANCH  16  18
ATOM     18  C   UNL     1      -0.713  -0.803   0.176  1.00  0.00     0.273 C 
BRANCH  18  19
ATOM     19  N   UNL     1       0.748  -0.695   0.260  1.00  0.00    -0.348 N 
ATOM     20  C   UNL     1       1.315   0.207  -0.726  1.00  0.00     0.330 C 
ATOM     21  H   UNL     1       0.994  -0.354   1.189  1.00  0.00     0.346 HD
ATOM     22  H   UNL     1       1.131  -1.622   0.075  1.00  0.00     0.346 HD
ENDBRANCH  18  19
ENDBRANCH  16  18
ENDBRANCH   8  16
ENDBRANCH   6   7
ENDBRANCH   3   6
ENDBRANCH   1   2
BRANCH   1  23
ATOM     23  C   UNL     1      -2.842  -1.051   4.372  1.00  0.00     0.023 C 
BRANCH  23  24
ATOM     24  C   UNL     1      -2.835   0.155   3.423  1.00  0.00     0.023 C 
BRANCH  24  25
ATOM     25  C   UNL     1      -2.379   1.454   4.059  1.00  0.00     0.116 C 
BRANCH  25  26
ATOM     26  N   UNL     1      -0.995   1.403   4.505  1.00  0.00    -0.352 N 
ATOM     27  C   UNL     1      -0.004   2.355   4.441  1.00  0.00     0.251 C 
ATOM     28  H   UNL     1      -0.724   0.551   4.918  1.00  0.00     0.163 HD
ATOM     29  O   UNL     1       1.129   2.074   4.800  1.00  0.00    -0.269 OA
BRANCH  27  30
ATOM     30  C   UNL     1      -0.298   3.705   3.906  1.00  0.00     0.039 A 
ATOM     31  C   UNL     1       0.669   4.334   3.115  1.00  0.00     0.014 A 
ATOM     32  C   UNL     1      -1.509   4.346   4.166  1.00  0.00     0.014 A 
ATOM     33  C   UNL     1       0.389   5.569   2.527  1.00  0.00     0.010 A 
ATOM     34  C   UNL     1      -1.828   5.521   3.497  1.00  0.00     0.010 A 
ATOM     35  C   UNL     1      -0.880   6.147   2.677  1.00  0.00    -0.014 A 
BRANCH  35  36
ATOM     36  C   UNL     1      -1.249   7.405   1.988  1.00  0.00     0.031 A 
ATOM     37  C   UNL     1      -1.636   8.614   2.792  1.00  0.00     0.074 A 
ATOM     38  C   UNL     1      -1.327   7.423   0.644  1.00  0.00     0.049 A 
ATOM     39  N   UNL     1      -2.092   9.770   2.384  1.00  0.00    -0.248 NA
ATOM     40  C   UNL     1      -1.533   8.493   4.256  1.00  0.00     0.031 C 
ATOM     41  C   UNL     1      -1.028   6.290  -0.236  1.00  0.00     0.029 A 
ATOM     42  N   UNL     1      -1.695   8.424  -0.218  1.00  0.00    -0.354 N 
ATOM     43  C   UNL     1      -2.355  10.499   3.536  1.00  0.00     0.074 A 
ATOM     44  C   UNL     1      -2.063   9.637   4.660  1.00  0.00     0.031 C 
ATOM     45  C   UNL     1      -1.191   6.670  -1.512  1.00  0.00     0.029 A 
ATOM     46  C   UNL     1      -1.653   8.053  -1.540  1.00  0.00     0.049 A 
ATOM     47  H   UNL     1      -1.963   9.322   0.082  1.00  0.00     0.167 HD
ATOM     48  C   UNL     1      -2.780  11.780   3.645  1.00  0.00     0.037 A 
ATOM     49  C   UNL     1      -1.964   8.750  -2.648  1.00  0.00     0.037 A 
ATOM     50  C   UNL     1      -3.037  12.634   2.516  1.00  0.00     0.049 A 
ATOM     51  C   UNL     1      -2.447  10.165  -2.502  1.00  0.00     0.074 A 
ATOM     52  C   UNL     1      -3.382  13.973   2.507  1.00  0.00     0.029 A 
ATOM     53  N   UNL     1      -2.984  12.223   1.191  1.00  0.00    -0.354 N 
ATOM     54  N   UNL     1      -2.608  10.874  -1.410  1.00  0.00    -0.248 NA
ATOM     55  C   UNL     1      -2.797  10.875  -3.739  1.00  0.00     0.031 C 
ATOM     56  C   UNL     1      -3.595  14.357   1.179  1.00  0.00     0.029 A 
ATOM     57  C   UNL     1      -3.332  13.272   0.357  1.00  0.00     0.049 A 
ATOM     58  H   UNL     1      -2.736  11.320   0.889  1.00  0.00     0.167 HD
ATOM     59  C   UNL     1      -3.066  12.116  -1.827  1.00  0.00     0.074 A 
ATOM     60  C   UNL     1      -3.134  12.070  -3.275  1.00  0.00     0.031 C 
ATOM     61  C   UNL     1      -3.404  13.197  -1.081  1.00  0.00     0.037 A 
BRANCH  48  62
ATOM     62  C   UNL     1      -2.999  12.321   5.029  1.00  0.00     0.057 A 
ATOM     63  C   UNL     1      -1.940  12.540   5.921  1.00  0.00     0.134 A 
ATOM     64  C   UNL     1      -4.289  12.633   5.477  1.00  0.00     0.134 A 
ATOM     65  F   UNL     1      -0.679  12.252   5.563  1.00  0.00    -0.206 F 
ATOM     66  C   UNL     1      -2.158  13.010   7.218  1.00  0.00     0.040 A 
ATOM     67  C   UNL     1      -4.518  13.134   6.760  1.00  0.00     0.040 A 
ATOM     68  F   UNL     1      -5.351  12.454   4.676  1.00  0.00    -0.206 F 
ATOM     69  C   UNL     1      -3.451  13.314   7.638  1.00  0.00     0.006 A 
ENDBRANCH  48  62
BRANCH  49  70
ATOM     70  C   UNL     1      -1.801   8.127  -3.985  1.00  0.00     0.057 A 
ATOM     71  C   UNL     1      -0.788   8.549  -4.854  1.00  0.00     0.134 A 
ATOM     72  C   UNL     1      -2.628   7.084  -4.419  1.00  0.00     0.134 A 
ATOM     73  F   UNL     1       0.027   9.554  -4.502  1.00  0.00    -0.206 F 
ATOM     74  C   UNL     1      -0.608   7.963  -6.108  1.00  0.00     0.040 A 
ATOM     75  C   UNL     1      -2.444   6.472  -5.660  1.00  0.00     0.040 A 
ATOM     76  F   UNL     1      -3.613   6.628  -3.631  1.00  0.00    -0.206 F 
ATOM     77  C   UNL     1      -1.433   6.915  -6.511  1.00  0.00     0.006 A 
ENDBRANCH  49  70
BRANCH  61  78
ATOM     78  C   UNL     1      -3.875  14.415  -1.820  1.00  0.00     0.057 A 
ATOM     79  C   UNL     1      -5.133  14.460  -2.433  1.00  0.00     0.134 A 
ATOM     80  C   UNL     1      -3.081  15.567  -1.881  1.00  0.00     0.134 A 
ATOM     81  F   UNL     1      -5.934  13.384  -2.423  1.00  0.00    -0.206 F 
ATOM     82  C   UNL     1      -5.579  15.604  -3.096  1.00  0.00     0.040 A 
ATOM     83  C   UNL     1      -3.528  16.726  -2.516  1.00  0.00     0.040 A 
ATOM     84  F   UNL     1      -1.869  15.591  -1.307  1.00  0.00    -0.206 F 
ATOM     85  C   UNL     1      -4.778  16.745  -3.130  1.00  0.00     0.006 A 
ENDBRANCH  61  78
ENDBRANCH  35  36
ENDBRANCH  27  30
ENDBRANCH  25  26
ENDBRANCH  24  25
ENDBRANCH  23  24
ENDBRANCH   1  23
TORSDOF 15
