REMARK SMILES CC(C)COc1cccc(C(=O)Nc2ccc(O)c(C(=O)NCCCCNC(=O)c3ccc(-c4c5nc(c(-c6c(F)cccc6F)c6ccc([nH]6)c(-c6c(F)cccc6F)c6nc(c(-c7c(F)cccc7F)c7ccc4[nH]7)C=C6)C=C5)cc3)c2)c1
REMARK SMILES IDX 23 1 22 2 20 3 21 4 19 6 14 7 15 8 84 9 16 10 17 11 13 12
REMARK SMILES IDX 11 13 12 14 10 16 6 17 7 18 85 19 8 20 9 21 5 22 4 23 2 24
REMARK SMILES IDX 1 25 3 26 18 27 24 29 25 30 26 31 27 32 28 33 29 35 30 36
REMARK SMILES IDX 31 37 83 38 32 39 82 40 33 41 34 42 35 43 76 44 36 45 81 46
REMARK SMILES IDX 75 47 77 48 37 49 80 50 74 51 73 52 38 54 64 55 47 56 63 57
REMARK SMILES IDX 48 58 51 59 62 60 78 61 49 62 50 63 61 65 79 66 52 67 39 68
REMARK SMILES IDX 40 69 45 70 41 71 42 72 44 73 46 74 43 75 65 76 66 77 71 78
REMARK SMILES IDX 67 79 68 80 70 81 72 82 69 83 53 84 54 85 59 86 55 87 56 88
REMARK SMILES IDX 58 89 60 90 57 91
REMARK H PARENT 22 5 13 15 18 28 27 34 77 53 51 64
REMARK Flexibility Score: inf
ROOT
ATOM      1  C   UNL     1       0.041  -3.603   1.786  1.00  0.00     0.116 C 
ENDROOT
BRANCH   1   2
ATOM      2  N   UNL     1       0.601  -3.006   2.978  1.00  0.00    -0.352 N 
ATOM      3  C   UNL     1       1.596  -2.082   3.161  1.00  0.00     0.255 C 
ATOM      4  O   UNL     1       1.782  -1.681   4.314  1.00  0.00    -0.269 OA
ATOM      5  H   UNL     1       0.191  -3.324   3.815  1.00  0.00     0.163 HD
BRANCH   3   6
ATOM      6  C   UNL     1       2.417  -1.478   2.066  1.00  0.00     0.083 A 
ATOM      7  C   UNL     1       3.169  -1.313  -0.250  1.00  0.00     0.042 A 
ATOM      8  C   UNL     1       3.873  -0.147   0.044  1.00  0.00     0.030 A 
ATOM      9  C   UNL     1       2.547  -2.025   0.782  1.00  0.00     0.043 A 
ATOM     10  C   UNL     1       3.819   0.384   1.331  1.00  0.00     0.049 A 
ATOM     11  C   UNL     1       3.073  -0.258   2.321  1.00  0.00     0.128 A 
BRANCH   7  12
ATOM     12  N   UNL     1       3.062  -1.700  -1.597  1.00  0.00    -0.322 N 
ATOM     13  C   UNL     1       2.014  -2.259  -2.314  1.00  0.00     0.255 C 
ATOM     14  O   UNL     1       2.270  -2.779  -3.402  1.00  0.00    -0.269 OA
ATOM     15  H   UNL     1       3.877  -1.546  -2.127  1.00  0.00     0.170 HD
BRANCH  13  16
ATOM     16  C   UNL     1       0.572  -2.143  -1.910  1.00  0.00     0.043 A 
ATOM     17  C   UNL     1      -1.214  -1.150  -0.565  1.00  0.00     0.120 A 
ATOM     18  C   UNL     1      -2.147  -1.980  -1.174  1.00  0.00     0.046 A 
ATOM     19  C   UNL     1       0.121  -1.219  -0.966  1.00  0.00     0.060 A 
ATOM     20  C   UNL     1      -1.740  -2.853  -2.187  1.00  0.00     0.005 A 
ATOM     21  C   UNL     1      -0.388  -2.942  -2.546  1.00  0.00     0.014 A 
BRANCH  17  22
ATOM     22  O   UNL     1      -1.578  -0.500   0.584  1.00  0.00    -0.493 OA
BRANCH  22  23
ATOM     23  C   UNL     1      -1.494   0.938   0.604  1.00  0.00     0.232 C 
BRANCH  23  24
ATOM     24  C   UNL     1      -0.060   1.487   0.728  1.00  0.00     0.020 C 
ATOM     25  C   UNL     1       0.454   1.987  -0.630  1.00  0.00     0.011 C 
ATOM     26  C   UNL     1       0.062   2.619   1.748  1.00  0.00     0.011 C 
ENDBRANCH  23  24
ENDBRANCH  22  23
ENDBRANCH  17  22
ENDBRANCH  13  16
ENDBRANCH   7  12
BRANCH  11  27
ATOM     27  O   UNL     1       3.007   0.401   3.522  1.00  0.00    -0.507 OA
ATOM     28  H   UNL     1       3.464   1.211   3.638  1.00  0.00     0.293 HD
ENDBRANCH  11  27
ENDBRANCH   3   6
ENDBRANCH   1   2
BRANCH   1  29
ATOM     29  C   UNL     1       0.690  -4.951   1.480  1.00  0.00     0.023 C 
BRANCH  29  30
ATOM     30  C   UNL     1      -0.036  -6.128   2.124  1.00  0.00     0.023 C 
BRANCH  30  31
ATOM     31  C   UNL     1      -1.458  -6.335   1.620  1.00  0.00     0.116 C 
BRANCH  31  32
ATOM     32  N   UNL     1      -1.543  -6.573   0.186  1.00  0.00    -0.352 N 
ATOM     33  C   UNL     1      -2.423  -7.395  -0.476  1.00  0.00     0.251 C 
ATOM     34  H   UNL     1      -0.895  -6.088  -0.374  1.00  0.00     0.163 HD
ATOM     35  O   UNL     1      -2.335  -7.576  -1.685  1.00  0.00    -0.269 OA
BRANCH  33  36
ATOM     36  C   UNL     1      -3.463  -8.086   0.310  1.00  0.00     0.039 A 
ATOM     37  C   UNL     1      -3.575  -9.474   0.217  1.00  0.00     0.014 A 
ATOM     38  C   UNL     1      -4.268  -7.361   1.193  1.00  0.00     0.014 A 
ATOM     39  C   UNL     1      -4.463 -10.145   1.058  1.00  0.00     0.010 A 
ATOM     40  C   UNL     1      -5.088  -8.039   2.086  1.00  0.00     0.010 A 
ATOM     41  C   UNL     1      -5.204  -9.436   2.019  1.00  0.00    -0.014 A 
BRANCH  41  42
ATOM     42  C   UNL     1      -6.136 -10.131   2.939  1.00  0.00     0.031 A 
ATOM     43  C   UNL     1      -7.609  -9.839   2.865  1.00  0.00     0.074 A 
ATOM     44  C   UNL     1      -5.658 -10.979   3.870  1.00  0.00     0.049 A 
ATOM     45  N   UNL     1      -8.582 -10.293   3.612  1.00  0.00    -0.248 NA
ATOM     46  C   UNL     1      -8.043  -8.883   1.832  1.00  0.00     0.031 C 
ATOM     47  C   UNL     1      -4.246 -11.306   4.077  1.00  0.00     0.029 A 
ATOM     48  N   UNL     1      -6.313 -11.718   4.823  1.00  0.00    -0.354 N 
ATOM     49  C   UNL     1      -9.734  -9.670   3.150  1.00  0.00     0.074 A 
ATOM     50  C   UNL     1      -9.332  -8.757   2.103  1.00  0.00     0.031 C 
ATOM     51  C   UNL     1      -4.144 -12.204   5.072  1.00  0.00     0.029 A 
ATOM     52  C   UNL     1      -5.477 -12.492   5.592  1.00  0.00     0.049 A 
ATOM     53  H   UNL     1      -7.289 -11.697   4.944  1.00  0.00     0.167 HD
ATOM     54  C   UNL     1     -11.017  -9.864   3.537  1.00  0.00     0.037 A 
ATOM     55  C   UNL     1      -5.759 -13.339   6.600  1.00  0.00     0.037 A 
ATOM     56  C   UNL     1     -11.418 -10.795   4.556  1.00  0.00     0.049 A 
ATOM     57  C   UNL     1      -7.193 -13.543   7.006  1.00  0.00     0.074 A 
ATOM     58  C   UNL     1     -12.695 -11.098   4.995  1.00  0.00     0.029 A 
ATOM     59  N   UNL     1     -10.544 -11.583   5.290  1.00  0.00    -0.354 N 
ATOM     60  N   UNL     1      -8.278 -12.990   6.520  1.00  0.00    -0.248 NA
ATOM     61  C   UNL     1      -7.442 -14.499   8.094  1.00  0.00     0.031 C 
ATOM     62  C   UNL     1     -12.592 -12.047   6.017  1.00  0.00     0.029 A 
ATOM     63  C   UNL     1     -11.254 -12.367   6.183  1.00  0.00     0.049 A 
ATOM     64  H   UNL     1      -9.565 -11.584   5.191  1.00  0.00     0.167 HD
ATOM     65  C   UNL     1      -9.338 -13.559   7.214  1.00  0.00     0.074 A 
ATOM     66  C   UNL     1      -8.766 -14.506   8.149  1.00  0.00     0.031 C 
ATOM     67  C   UNL     1     -10.667 -13.320   7.089  1.00  0.00     0.037 A 
BRANCH  54  68
ATOM     68  C   UNL     1     -12.075  -9.060   2.840  1.00  0.00     0.057 A 
ATOM     69  C   UNL     1     -12.415  -9.297   1.501  1.00  0.00     0.134 A 
ATOM     70  C   UNL     1     -12.776  -8.054   3.515  1.00  0.00     0.134 A 
ATOM     71  F   UNL     1     -11.770 -10.236   0.791  1.00  0.00    -0.206 F 
ATOM     72  C   UNL     1     -13.395  -8.544   0.851  1.00  0.00     0.040 A 
ATOM     73  C   UNL     1     -13.777  -7.313   2.885  1.00  0.00     0.040 A 
ATOM     74  F   UNL     1     -12.502  -7.777   4.799  1.00  0.00    -0.206 F 
ATOM     75  C   UNL     1     -14.083  -7.553   1.547  1.00  0.00     0.006 A 
ENDBRANCH  54  68
BRANCH  55  76
ATOM     76  C   UNL     1      -4.670 -14.093   7.271  1.00  0.00     0.057 A 
ATOM     77  C   UNL     1      -4.543 -15.477   7.100  1.00  0.00     0.134 A 
ATOM     78  C   UNL     1      -3.751 -13.461   8.116  1.00  0.00     0.134 A 
ATOM     79  F   UNL     1      -5.405 -16.142   6.317  1.00  0.00    -0.206 F 
ATOM     80  C   UNL     1      -3.559 -16.210   7.765  1.00  0.00     0.040 A 
ATOM     81  C   UNL     1      -2.746 -14.178   8.768  1.00  0.00     0.040 A 
ATOM     82  F   UNL     1      -3.814 -12.137   8.315  1.00  0.00    -0.206 F 
ATOM     83  C   UNL     1      -2.654 -15.558   8.600  1.00  0.00     0.006 A 
ENDBRANCH  55  76
BRANCH  67  84
ATOM     84  C   UNL     1     -11.593 -14.136   7.942  1.00  0.00     0.057 A 
ATOM     85  C   UNL     1     -11.713 -13.924   9.321  1.00  0.00     0.134 A 
ATOM     86  C   UNL     1     -12.402 -15.123   7.364  1.00  0.00     0.134 A 
ATOM     87  F   UNL     1     -10.958 -13.001   9.935  1.00  0.00    -0.206 F 
ATOM     88  C   UNL     1     -12.586 -14.685  10.100  1.00  0.00     0.040 A 
ATOM     89  C   UNL     1     -13.297 -15.872   8.129  1.00  0.00     0.040 A 
ATOM     90  F   UNL     1     -12.342 -15.369   6.047  1.00  0.00    -0.206 F 
ATOM     91  C   UNL     1     -13.385 -15.658   9.503  1.00  0.00     0.006 A 
ENDBRANCH  67  84
ENDBRANCH  41  42
ENDBRANCH  33  36
ENDBRANCH  31  32
ENDBRANCH  30  31
ENDBRANCH  29  30
ENDBRANCH   1  29
TORSDOF 17
