REMARK SMILES CC[C@@H](CNC(=O)NCc1c(C)noc1C)C(=O)NCCCCNC(=O)c1ccc(-c2c3nc(c(-c4c(F)cccc4F)c4ccc([nH]4)c(-c4c(F)cccc4F)c4nc(c(-c5c(F)cccc5F)c5ccc2[nH]5)C=C4)C=C3)cc1
REMARK SMILES IDX 20 1 19 2 17 3 18 4 3 6 2 7 1 8 4 9 5 10 6 11 7 13 8 14 9 16
REMARK SMILES IDX 10 17 11 18 15 19 12 20 13 21 14 22 16 23 21 24 22 25 23 26
REMARK SMILES IDX 24 27 25 28 26 30 27 31 28 32 80 33 29 34 79 35 30 36 31 37
REMARK SMILES IDX 32 38 73 39 33 40 78 41 72 42 74 43 34 44 77 45 71 46 70 47
REMARK SMILES IDX 35 49 61 50 44 51 60 52 45 53 48 54 59 55 75 56 46 57 47 58
REMARK SMILES IDX 58 60 76 61 49 62 36 63 37 64 42 65 38 66 39 67 41 68 43 69
REMARK SMILES IDX 40 70 62 71 63 72 68 73 64 74 65 75 67 76 69 77 66 78 50 79
REMARK SMILES IDX 51 80 56 81 52 82 53 83 55 84 57 85 54 86
REMARK H PARENT 19 5 5 12 8 15 24 29 74 48 48 59
REMARK Flexibility Score: inf
ROOT
ATOM      1  C   UNL     1      -1.966   2.035   2.024  1.00  0.00     0.116 C 
ENDROOT
BRANCH   1   2
ATOM      2  N   UNL     1      -0.801   2.524   2.736  1.00  0.00    -0.356 N 
ATOM      3  C   UNL     1       0.506   2.560   2.359  1.00  0.00     0.224 C 
ATOM      4  O   UNL     1       1.274   3.254   3.034  1.00  0.00    -0.275 OA
ATOM      5  H   UNL     1      -0.984   2.886   3.633  1.00  0.00     0.163 HD
BRANCH   3   6
ATOM      6  C   UNL     1       1.036   1.803   1.144  1.00  0.00     0.097 C 
BRANCH   6   7
ATOM      7  C   UNL     1       0.686   0.303   1.146  1.00  0.00     0.012 C 
ATOM      8  C   UNL     1       1.274  -0.474  -0.024  1.00  0.00     0.005 C 
ENDBRANCH   6   7
BRANCH   6   9
ATOM      9  C   UNL     1       0.870   2.576  -0.173  1.00  0.00     0.131 C 
BRANCH   9  10
ATOM     10  N   UNL     1      -0.456   3.046  -0.510  1.00  0.00    -0.337 N 
ATOM     11  C   UNL     1      -1.135   4.179  -0.300  1.00  0.00     0.315 C 
ATOM     12  H   UNL     1      -0.979   2.378  -1.011  1.00  0.00     0.165 HD
ATOM     13  O   UNL     1      -2.347   4.160  -0.528  1.00  0.00    -0.249 OA
ATOM     14  N   UNL     1      -0.612   5.312   0.164  1.00  0.00    -0.334 N 
ATOM     15  H   UNL     1      -1.303   5.947   0.463  1.00  0.00     0.165 HD
BRANCH  14  16
ATOM     16  C   UNL     1       0.724   5.838   0.334  1.00  0.00     0.159 C 
BRANCH  16  17
ATOM     17  C   UNL     1       1.093   6.588  -0.896  1.00  0.00     0.037 A 
ATOM     18  C   UNL     1       1.672   6.127  -2.116  1.00  0.00     0.086 A 
ATOM     19  C   UNL     1       0.926   7.940  -1.121  1.00  0.00     0.138 A 
ATOM     20  C   UNL     1       2.065   4.759  -2.522  1.00  0.00     0.071 C 
ATOM     21  N   UNL     1       1.852   7.131  -2.982  1.00  0.00    -0.085 NA
ATOM     22  O   UNL     1       1.381   8.262  -2.357  1.00  0.00    -0.361 OA
ATOM     23  C   UNL     1       0.371   9.050  -0.324  1.00  0.00     0.091 C 
ENDBRANCH  16  17
ENDBRANCH  14  16
ENDBRANCH   9  10
ENDBRANCH   6   9
ENDBRANCH   3   6
ENDBRANCH   1   2
BRANCH   1  24
ATOM     24  C   UNL     1      -2.758   1.004   2.816  1.00  0.00     0.023 C 
BRANCH  24  25
ATOM     25  C   UNL     1      -3.559   1.582   3.980  1.00  0.00     0.023 C 
BRANCH  25  26
ATOM     26  C   UNL     1      -4.460   2.765   3.635  1.00  0.00     0.116 C 
BRANCH  26  27
ATOM     27  N   UNL     1      -5.362   2.505   2.525  1.00  0.00    -0.352 N 
ATOM     28  C   UNL     1      -6.708   2.766   2.412  1.00  0.00     0.251 C 
ATOM     29  H   UNL     1      -4.950   2.080   1.738  1.00  0.00     0.163 HD
ATOM     30  O   UNL     1      -7.338   2.362   1.446  1.00  0.00    -0.269 OA
BRANCH  28  31
ATOM     31  C   UNL     1      -7.401   3.506   3.489  1.00  0.00     0.039 A 
ATOM     32  C   UNL     1      -8.631   3.027   3.944  1.00  0.00     0.014 A 
ATOM     33  C   UNL     1      -6.837   4.650   4.059  1.00  0.00     0.014 A 
ATOM     34  C   UNL     1      -9.258   3.656   5.020  1.00  0.00     0.010 A 
ATOM     35  C   UNL     1      -7.419   5.222   5.186  1.00  0.00     0.010 A 
ATOM     36  C   UNL     1      -8.638   4.732   5.678  1.00  0.00    -0.014 A 
BRANCH  36  37
ATOM     37  C   UNL     1      -9.257   5.335   6.885  1.00  0.00     0.031 A 
ATOM     38  C   UNL     1      -9.708   6.769   6.880  1.00  0.00     0.074 A 
ATOM     39  C   UNL     1      -9.387   4.591   8.002  1.00  0.00     0.049 A 
ATOM     40  N   UNL     1     -10.287   7.455   7.833  1.00  0.00    -0.248 NA
ATOM     41  C   UNL     1      -9.454   7.544   5.655  1.00  0.00     0.031 C 
ATOM     42  C   UNL     1      -8.921   3.211   8.159  1.00  0.00     0.029 A 
ATOM     43  N   UNL     1      -9.951   4.890   9.216  1.00  0.00    -0.354 N 
ATOM     44  C   UNL     1     -10.471   8.733   7.322  1.00  0.00     0.074 A 
ATOM     45  C   UNL     1      -9.875   8.750   6.003  1.00  0.00     0.031 C 
ATOM     46  C   UNL     1      -9.250   2.773   9.384  1.00  0.00     0.029 A 
ATOM     47  C   UNL     1      -9.922   3.846  10.109  1.00  0.00     0.049 A 
ATOM     48  H   UNL     1     -10.340   5.769   9.428  1.00  0.00     0.167 HD
ATOM     49  C   UNL     1     -11.109   9.788   7.882  1.00  0.00     0.037 A 
ATOM     50  C   UNL     1     -10.391   3.761  11.368  1.00  0.00     0.037 A 
ATOM     51  C   UNL     1     -11.709   9.768   9.191  1.00  0.00     0.049 A 
ATOM     52  C   UNL     1     -11.104   4.942  11.965  1.00  0.00     0.074 A 
ATOM     53  C   UNL     1     -12.408  10.774   9.836  1.00  0.00     0.029 A 
ATOM     54  N   UNL     1     -11.680   8.684  10.056  1.00  0.00    -0.354 N 
ATOM     55  N   UNL     1     -11.336   6.121  11.439  1.00  0.00    -0.248 NA
ATOM     56  C   UNL     1     -11.635   4.776  13.324  1.00  0.00     0.031 C 
ATOM     57  C   UNL     1     -12.768  10.312  11.106  1.00  0.00     0.029 A 
ATOM     58  C   UNL     1     -12.338   9.001  11.234  1.00  0.00     0.049 A 
ATOM     59  H   UNL     1     -11.255   7.818   9.862  1.00  0.00     0.167 HD
ATOM     60  C   UNL     1     -12.058   6.827  12.392  1.00  0.00     0.074 A 
ATOM     61  C   UNL     1     -12.249   5.934  13.516  1.00  0.00     0.031 C 
ATOM     62  C   UNL     1     -12.518   8.101  12.344  1.00  0.00     0.037 A 
BRANCH  49  63
ATOM     63  C   UNL     1     -11.209  11.046   7.069  1.00  0.00     0.057 A 
ATOM     64  C   UNL     1     -12.018  11.118   5.926  1.00  0.00     0.134 A 
ATOM     65  C   UNL     1     -10.521  12.206   7.445  1.00  0.00     0.134 A 
ATOM     66  F   UNL     1     -12.695  10.040   5.503  1.00  0.00    -0.206 F 
ATOM     67  C   UNL     1     -12.120  12.290   5.174  1.00  0.00     0.040 A 
ATOM     68  C   UNL     1     -10.637  13.392   6.717  1.00  0.00     0.040 A 
ATOM     69  F   UNL     1      -9.732  12.210   8.530  1.00  0.00    -0.206 F 
ATOM     70  C   UNL     1     -11.434  13.434   5.574  1.00  0.00     0.006 A 
ENDBRANCH  49  63
BRANCH  50  71
ATOM     71  C   UNL     1     -10.225   2.504  12.143  1.00  0.00     0.057 A 
ATOM     72  C   UNL     1     -11.325   1.701  12.470  1.00  0.00     0.134 A 
ATOM     73  C   UNL     1      -8.967   2.085  12.591  1.00  0.00     0.134 A 
ATOM     74  F   UNL     1     -12.559   2.057  12.084  1.00  0.00    -0.206 F 
ATOM     75  C   UNL     1     -11.184   0.544  13.238  1.00  0.00     0.040 A 
ATOM     76  C   UNL     1      -8.807   0.916  13.335  1.00  0.00     0.040 A 
ATOM     77  F   UNL     1      -7.872   2.803  12.302  1.00  0.00    -0.206 F 
ATOM     78  C   UNL     1      -9.920   0.147  13.670  1.00  0.00     0.006 A 
ENDBRANCH  50  71
BRANCH  62  79
ATOM     79  C   UNL     1     -13.294   8.590  13.533  1.00  0.00     0.057 A 
ATOM     80  C   UNL     1     -12.679   8.839  14.767  1.00  0.00     0.134 A 
ATOM     81  C   UNL     1     -14.671   8.824  13.439  1.00  0.00     0.134 A 
ATOM     82  F   UNL     1     -11.364   8.623  14.928  1.00  0.00    -0.206 F 
ATOM     83  C   UNL     1     -13.412   9.267  15.875  1.00  0.00     0.040 A 
ATOM     84  C   UNL     1     -15.410   9.281  14.531  1.00  0.00     0.040 A 
ATOM     85  F   UNL     1     -15.321   8.616  12.284  1.00  0.00    -0.206 F 
ATOM     86  C   UNL     1     -14.782   9.494  15.756  1.00  0.00     0.006 A 
ENDBRANCH  62  79
ENDBRANCH  36  37
ENDBRANCH  28  31
ENDBRANCH  26  27
ENDBRANCH  25  26
ENDBRANCH  24  25
ENDBRANCH   1  24
TORSDOF 16
