REMARK SMILES O=C(NCCCCNC(=O)[C@@H]1C[C@H]1C(=O)N[C@@H]1CONC1=O)c1ccc(-c2c3nc(c(-c4c(F)cccc4F)c4ccc([nH]4)c(-c4c(F)cccc4F)c4nc(c(-c5c(F)cccc5F)c5ccc2[nH]5)C=C4)C=C3)cc1
REMARK SMILES IDX 5 1 4 2 3 3 1 4 2 5 23 7 24 8 76 9 25 10 75 11 26 12 27 13
REMARK SMILES IDX 28 14 69 15 29 16 74 17 68 18 70 19 30 20 73 21 67 22 66 23
REMARK SMILES IDX 31 25 57 26 40 27 56 28 41 29 44 30 55 31 71 32 42 33 43 34
REMARK SMILES IDX 54 36 72 37 45 38 32 39 33 40 38 41 34 42 35 43 37 44 39 45
REMARK SMILES IDX 36 46 58 47 59 48 64 49 60 50 61 51 63 52 65 53 62 54 46 55
REMARK SMILES IDX 47 56 52 57 48 58 49 59 51 60 53 61 50 62 6 63 7 64 8 65
REMARK SMILES IDX 9 66 10 68 11 69 12 70 13 71 14 72 15 73 16 74 17 76 18 77
REMARK SMILES IDX 21 78 19 79 20 80 22 81
REMARK H PARENT 3 6 70 24 44 35 8 67 16 75 20 82
REMARK Flexibility Score: inf
ROOT
ATOM      1  C   UNL     1       4.953  -0.459   2.349  1.00  0.00     0.023 C 
ENDROOT
BRANCH   1   2
ATOM      2  C   UNL     1       4.558  -0.823   0.925  1.00  0.00     0.116 C 
BRANCH   2   3
ATOM      3  N   UNL     1       3.117  -0.905   0.740  1.00  0.00    -0.352 N 
ATOM      4  O   UNL     1       1.071  -0.241   0.053  1.00  0.00    -0.269 OA
ATOM      5  C   UNL     1       2.289  -0.127  -0.031  1.00  0.00     0.251 C 
ATOM      6  H   UNL     1       2.670  -1.625   1.242  1.00  0.00     0.163 HD
BRANCH   5   7
ATOM      7  C   UNL     1       2.872   0.875  -0.945  1.00  0.00     0.039 A 
ATOM      8  C   UNL     1       3.940   0.542  -1.783  1.00  0.00     0.014 A 
ATOM      9  C   UNL     1       2.342   2.167  -0.955  1.00  0.00     0.014 A 
ATOM     10  C   UNL     1       4.577   1.535  -2.517  1.00  0.00     0.010 A 
ATOM     11  C   UNL     1       2.927   3.142  -1.763  1.00  0.00     0.010 A 
ATOM     12  C   UNL     1       4.068   2.842  -2.525  1.00  0.00    -0.014 A 
BRANCH  12  13
ATOM     13  C   UNL     1       4.696   3.883  -3.373  1.00  0.00     0.031 A 
ATOM     14  C   UNL     1       5.312   5.105  -2.756  1.00  0.00     0.074 A 
ATOM     15  C   UNL     1       4.665   3.740  -4.710  1.00  0.00     0.049 A 
ATOM     16  N   UNL     1       5.798   6.170  -3.342  1.00  0.00    -0.248 NA
ATOM     17  C   UNL     1       5.381   5.140  -1.288  1.00  0.00     0.031 C 
ATOM     18  C   UNL     1       4.097   2.593  -5.421  1.00  0.00     0.029 A 
ATOM     19  N   UNL     1       5.103   4.570  -5.710  1.00  0.00    -0.354 N 
ATOM     20  C   UNL     1       6.204   7.014  -2.316  1.00  0.00     0.074 A 
ATOM     21  C   UNL     1       5.884   6.347  -1.072  1.00  0.00     0.031 C 
ATOM     22  C   UNL     1       4.222   2.790  -6.740  1.00  0.00     0.029 A 
ATOM     23  C   UNL     1       4.811   4.104  -6.968  1.00  0.00     0.049 A 
ATOM     24  H   UNL     1       5.578   5.415  -5.542  1.00  0.00     0.167 HD
ATOM     25  C   UNL     1       6.789   8.233  -2.409  1.00  0.00     0.037 A 
ATOM     26  C   UNL     1       4.957   4.687  -8.171  1.00  0.00     0.037 A 
ATOM     27  C   UNL     1       7.096   8.885  -3.657  1.00  0.00     0.049 A 
ATOM     28  C   UNL     1       5.556   6.060  -8.252  1.00  0.00     0.074 A 
ATOM     29  C   UNL     1       7.722  10.102  -3.863  1.00  0.00     0.029 A 
ATOM     30  N   UNL     1       6.783   8.381  -4.912  1.00  0.00    -0.354 N 
ATOM     31  N   UNL     1       5.968   6.837  -7.279  1.00  0.00    -0.248 NA
ATOM     32  C   UNL     1       5.712   6.638  -9.592  1.00  0.00     0.031 C 
ATOM     33  C   UNL     1       7.727  10.364  -5.237  1.00  0.00     0.029 A 
ATOM     34  C   UNL     1       7.173   9.277  -5.894  1.00  0.00     0.049 A 
ATOM     35  H   UNL     1       6.348   7.513  -5.080  1.00  0.00     0.167 HD
ATOM     36  C   UNL     1       6.461   7.981  -7.889  1.00  0.00     0.074 A 
ATOM     37  C   UNL     1       6.295   7.798  -9.317  1.00  0.00     0.031 C 
ATOM     38  C   UNL     1       7.012   9.078  -7.314  1.00  0.00     0.037 A 
BRANCH  25  39
ATOM     39  C   UNL     1       7.089   8.956  -1.126  1.00  0.00     0.057 A 
ATOM     40  C   UNL     1       8.061   8.507  -0.222  1.00  0.00     0.134 A 
ATOM     41  C   UNL     1       6.395  10.127  -0.791  1.00  0.00     0.134 A 
ATOM     42  F   UNL     1       8.759   7.389  -0.474  1.00  0.00    -0.206 F 
ATOM     43  C   UNL     1       8.299   9.168   0.985  1.00  0.00     0.040 A 
ATOM     44  C   UNL     1       6.648  10.815   0.397  1.00  0.00     0.040 A 
ATOM     45  F   UNL     1       5.459  10.625  -1.614  1.00  0.00    -0.206 F 
ATOM     46  C   UNL     1       7.593  10.328   1.296  1.00  0.00     0.006 A 
ENDBRANCH  25  39
BRANCH  26  47
ATOM     47  C   UNL     1       4.507   3.961  -9.383  1.00  0.00     0.057 A 
ATOM     48  C   UNL     1       5.426   3.429 -10.293  1.00  0.00     0.134 A 
ATOM     49  C   UNL     1       3.146   3.728  -9.627  1.00  0.00     0.134 A 
ATOM     50  F   UNL     1       6.740   3.628 -10.118  1.00  0.00    -0.206 F 
ATOM     51  C   UNL     1       5.010   2.694 -11.404  1.00  0.00     0.040 A 
ATOM     52  C   UNL     1       2.718   2.973 -10.718  1.00  0.00     0.040 A 
ATOM     53  F   UNL     1       2.217   4.200  -8.782  1.00  0.00    -0.206 F 
ATOM     54  C   UNL     1       3.652   2.456 -11.613  1.00  0.00     0.006 A 
ENDBRANCH  26  47
BRANCH  38  55
ATOM     55  C   UNL     1       7.533  10.152  -8.225  1.00  0.00     0.057 A 
ATOM     56  C   UNL     1       6.683  11.013  -8.928  1.00  0.00     0.134 A 
ATOM     57  C   UNL     1       8.913  10.375  -8.332  1.00  0.00     0.134 A 
ATOM     58  F   UNL     1       5.353  10.844  -8.881  1.00  0.00    -0.206 F 
ATOM     59  C   UNL     1       7.186  12.054  -9.711  1.00  0.00     0.040 A 
ATOM     60  C   UNL     1       9.427  11.428  -9.088  1.00  0.00     0.040 A 
ATOM     61  F   UNL     1       9.782   9.589  -7.679  1.00  0.00    -0.206 F 
ATOM     62  C   UNL     1       8.562  12.271  -9.781  1.00  0.00     0.006 A 
ENDBRANCH  38  55
ENDBRANCH  12  13
ENDBRANCH   5   7
ENDBRANCH   2   3
ENDBRANCH   1   2
BRANCH   1  63
ATOM     63  C   UNL     1       4.493  -1.446   3.415  1.00  0.00     0.023 C 
BRANCH  63  64
ATOM     64  C   UNL     1       4.814  -2.906   3.132  1.00  0.00     0.116 C 
BRANCH  64  65
ATOM     65  N   UNL     1       6.231  -3.180   2.981  1.00  0.00    -0.356 N 
ATOM     66  C   UNL     1       6.917  -4.255   3.475  1.00  0.00     0.223 C 
ATOM     67  H   UNL     1       6.754  -2.521   2.469  1.00  0.00     0.163 HD
ATOM     68  O   UNL     1       8.104  -4.430   3.224  1.00  0.00    -0.275 OA
BRANCH  66  69
ATOM     69  C   UNL     1       6.199  -5.175   4.382  1.00  0.00     0.091 C 
ATOM     70  C   UNL     1       6.302  -6.678   4.245  1.00  0.00     0.028 C 
ATOM     71  C   UNL     1       5.028  -5.997   3.864  1.00  0.00     0.091 C 
BRANCH  71  72
ATOM     72  C   UNL     1       3.730  -5.912   4.583  1.00  0.00     0.224 C 
ATOM     73  O   UNL     1       2.732  -5.639   3.921  1.00  0.00    -0.275 OA
ATOM     74  N   UNL     1       3.584  -6.031   5.933  1.00  0.00    -0.342 N 
ATOM     75  H   UNL     1       2.676  -5.828   6.253  1.00  0.00     0.164 HD
BRANCH  74  76
ATOM     76  C   UNL     1       4.509  -6.398   6.988  1.00  0.00     0.202 C 
ATOM     77  C   UNL     1       4.304  -7.810   7.510  1.00  0.00     0.228 C 
ATOM     78  C   UNL     1       4.316  -5.633   8.276  1.00  0.00     0.268 C 
ATOM     79  O   UNL     1       4.855  -7.808   8.835  1.00  0.00    -0.271 OA
ATOM     80  N   UNL     1       4.661  -6.485   9.298  1.00  0.00    -0.233 N 
ATOM     81  O   UNL     1       3.995  -4.462   8.391  1.00  0.00    -0.270 OA
ATOM     82  H   UNL     1       4.762  -6.208  10.238  1.00  0.00     0.199 HD
ENDBRANCH  74  76
ENDBRANCH  71  72
ENDBRANCH  66  69
ENDBRANCH  64  65
ENDBRANCH  63  64
ENDBRANCH   1  63
TORSDOF 13
