REMARK SMILES CN(CC(=O)NCCCCNC(=O)c1ccc(-c2c3nc(c(-c4c(F)cccc4F)c4ccc([nH]4)c(-c4c(F)cccc4F)c4nc(c(-c5c(F)cccc5F)c5ccc2[nH]5)C=C4)C=C3)cc1)c1nc2cc(N)ccc2[nH]1
REMARK SMILES IDX 8 1 7 2 6 3 4 4 5 5 3 7 2 8 1 9 68 10 69 11 77 12 70 13
REMARK SMILES IDX 76 14 71 16 75 17 72 18 74 19 73 20 9 23 10 24 11 25 12 26
REMARK SMILES IDX 13 28 14 29 15 30 67 31 16 32 66 33 17 34 18 35 19 36 60 37
REMARK SMILES IDX 20 38 65 39 59 40 61 41 21 42 64 43 58 44 57 45 22 47 48 48
REMARK SMILES IDX 31 49 47 50 32 51 35 52 46 53 62 54 33 55 34 56 45 58 63 59
REMARK SMILES IDX 36 60 23 61 24 62 29 63 25 64 26 65 28 66 30 67 27 68 49 69
REMARK SMILES IDX 50 70 55 71 51 72 52 73 54 74 56 75 53 76 37 77 38 78 43 79
REMARK SMILES IDX 39 80 40 81 42 82 44 83 41 84
REMARK H PARENT 6 6 77 15 73 21 73 22 11 27 61 46 35 57
REMARK Flexibility Score: inf
ROOT
ATOM      1  C   UNL     1      -1.884  -0.161  -1.778  1.00  0.00     0.023 C 
ENDROOT
BRANCH   1   2
ATOM      2  C   UNL     1      -2.064   0.071  -0.280  1.00  0.00     0.116 C 
BRANCH   2   3
ATOM      3  N   UNL     1      -2.462  -1.116   0.438  1.00  0.00    -0.355 N 
ATOM      4  C   UNL     1      -1.708  -1.885   1.286  1.00  0.00     0.239 C 
ATOM      5  O   UNL     1      -2.295  -2.733   1.966  1.00  0.00    -0.273 OA
ATOM      6  H   UNL     1      -3.392  -1.410   0.303  1.00  0.00     0.163 HD
BRANCH   4   7
ATOM      7  C   UNL     1      -0.210  -1.591   1.468  1.00  0.00     0.219 C 
BRANCH   7   8
ATOM      8  N   UNL     1       0.598  -1.695   0.235  1.00  0.00    -0.336 N 
ATOM      9  C   UNL     1       1.496  -0.614  -0.111  1.00  0.00     0.147 C 
BRANCH   8  10
ATOM     10  C   UNL     1       0.570  -2.875  -0.434  1.00  0.00     0.204 A 
ATOM     11  N   UNL     1      -0.366  -3.791  -0.366  1.00  0.00    -0.213 NA
ATOM     12  N   UNL     1       1.573  -3.280  -1.281  1.00  0.00    -0.324 N 
ATOM     13  C   UNL     1       0.033  -4.810  -1.186  1.00  0.00     0.093 A 
ATOM     14  C   UNL     1       1.266  -4.532  -1.756  1.00  0.00     0.067 A 
ATOM     15  H   UNL     1       2.377  -2.761  -1.510  1.00  0.00     0.170 HD
ATOM     16  C   UNL     1      -0.616  -6.016  -1.488  1.00  0.00     0.056 A 
ATOM     17  C   UNL     1       1.924  -5.418  -2.607  1.00  0.00     0.030 A 
ATOM     18  C   UNL     1       0.017  -6.941  -2.324  1.00  0.00     0.034 A 
ATOM     19  C   UNL     1       1.263  -6.626  -2.883  1.00  0.00     0.028 A 
BRANCH  18  20
ATOM     20  N   UNL     1      -0.643  -8.107  -2.691  1.00  0.00    -0.399 N 
ATOM     21  H   UNL     1      -1.518  -8.323  -2.294  1.00  0.00     0.156 HD
ATOM     22  H   UNL     1      -0.235  -8.718  -3.347  1.00  0.00     0.156 HD
ENDBRANCH  18  20
ENDBRANCH   8  10
ENDBRANCH   7   8
ENDBRANCH   4   7
ENDBRANCH   2   3
ENDBRANCH   1   2
BRANCH   1  23
ATOM     23  C   UNL     1      -3.154  -0.557  -2.533  1.00  0.00     0.023 C 
BRANCH  23  24
ATOM     24  C   UNL     1      -4.354   0.361  -2.335  1.00  0.00     0.116 C 
BRANCH  24  25
ATOM     25  N   UNL     1      -4.093   1.745  -2.702  1.00  0.00    -0.352 N 
ATOM     26  C   UNL     1      -4.896   2.630  -3.383  1.00  0.00     0.251 C 
ATOM     27  H   UNL     1      -3.217   2.098  -2.422  1.00  0.00     0.163 HD
ATOM     28  O   UNL     1      -4.471   3.736  -3.693  1.00  0.00    -0.269 OA
BRANCH  26  29
ATOM     29  C   UNL     1      -6.264   2.226  -3.776  1.00  0.00     0.039 A 
ATOM     30  C   UNL     1      -6.689   2.471  -5.084  1.00  0.00     0.014 A 
ATOM     31  C   UNL     1      -7.115   1.591  -2.868  1.00  0.00     0.014 A 
ATOM     32  C   UNL     1      -7.939   2.012  -5.504  1.00  0.00     0.010 A 
ATOM     33  C   UNL     1      -8.329   1.070  -3.307  1.00  0.00     0.010 A 
ATOM     34  C   UNL     1      -8.752   1.273  -4.629  1.00  0.00    -0.014 A 
BRANCH  34  35
ATOM     35  C   UNL     1     -10.046   0.697  -5.077  1.00  0.00     0.031 A 
ATOM     36  C   UNL     1     -11.334   1.162  -4.459  1.00  0.00     0.074 A 
ATOM     37  C   UNL     1     -10.056  -0.294  -5.988  1.00  0.00     0.049 A 
ATOM     38  N   UNL     1     -12.553   0.732  -4.663  1.00  0.00    -0.248 NA
ATOM     39  C   UNL     1     -11.234   2.235  -3.458  1.00  0.00     0.031 C 
ATOM     40  C   UNL     1      -8.873  -0.862  -6.636  1.00  0.00     0.029 A 
ATOM     41  N   UNL     1     -11.101  -1.006  -6.522  1.00  0.00    -0.354 N 
ATOM     42  C   UNL     1     -13.362   1.470  -3.809  1.00  0.00     0.074 A 
ATOM     43  C   UNL     1     -12.488   2.333  -3.043  1.00  0.00     0.031 C 
ATOM     44  C   UNL     1      -9.260  -1.811  -7.503  1.00  0.00     0.029 A 
ATOM     45  C   UNL     1     -10.712  -1.947  -7.443  1.00  0.00     0.049 A 
ATOM     46  H   UNL     1     -12.041  -0.855  -6.269  1.00  0.00     0.167 HD
ATOM     47  C   UNL     1     -14.711   1.451  -3.689  1.00  0.00     0.037 A 
ATOM     48  C   UNL     1     -11.444  -2.824  -8.156  1.00  0.00     0.037 A 
ATOM     49  C   UNL     1     -15.580   0.601  -4.460  1.00  0.00     0.049 A 
ATOM     50  C   UNL     1     -12.936  -2.852  -7.983  1.00  0.00     0.074 A 
ATOM     51  C   UNL     1     -16.963   0.541  -4.448  1.00  0.00     0.029 A 
ATOM     52  N   UNL     1     -15.147  -0.345  -5.378  1.00  0.00    -0.354 N 
ATOM     53  N   UNL     1     -13.694  -2.106  -7.216  1.00  0.00    -0.248 NA
ATOM     54  C   UNL     1     -13.675  -3.844  -8.778  1.00  0.00     0.031 C 
ATOM     55  C   UNL     1     -17.364  -0.471  -5.327  1.00  0.00     0.029 A 
ATOM     56  C   UNL     1     -16.234  -1.010  -5.922  1.00  0.00     0.049 A 
ATOM     57  H   UNL     1     -14.206  -0.518  -5.608  1.00  0.00     0.167 HD
ATOM     58  C   UNL     1     -14.999  -2.516  -7.458  1.00  0.00     0.074 A 
ATOM     59  C   UNL     1     -14.930  -3.571  -8.448  1.00  0.00     0.031 C 
ATOM     60  C   UNL     1     -16.151  -2.055  -6.911  1.00  0.00     0.037 A 
BRANCH  47  61
ATOM     61  C   UNL     1     -15.319   2.381  -2.679  1.00  0.00     0.057 A 
ATOM     62  C   UNL     1     -15.305   3.773  -2.852  1.00  0.00     0.134 A 
ATOM     63  C   UNL     1     -15.921   1.884  -1.517  1.00  0.00     0.134 A 
ATOM     64  F   UNL     1     -14.732   4.316  -3.937  1.00  0.00    -0.206 F 
ATOM     65  C   UNL     1     -15.828   4.636  -1.888  1.00  0.00     0.040 A 
ATOM     66  C   UNL     1     -16.476   2.736  -0.559  1.00  0.00     0.040 A 
ATOM     67  F   UNL     1     -15.979   0.563  -1.290  1.00  0.00    -0.206 F 
ATOM     68  C   UNL     1     -16.419   4.116  -0.738  1.00  0.00     0.006 A 
ENDBRANCH  47  61
BRANCH  48  69
ATOM     69  C   UNL     1     -10.777  -3.719  -9.133  1.00  0.00     0.057 A 
ATOM     70  C   UNL     1     -10.927  -3.512 -10.510  1.00  0.00     0.134 A 
ATOM     71  C   UNL     1      -9.971  -4.788  -8.725  1.00  0.00     0.134 A 
ATOM     72  F   UNL     1     -11.703  -2.516 -10.961  1.00  0.00    -0.206 F 
ATOM     73  C   UNL     1     -10.308  -4.342 -11.446  1.00  0.00     0.040 A 
ATOM     74  C   UNL     1      -9.328  -5.612  -9.650  1.00  0.00     0.040 A 
ATOM     75  F   UNL     1      -9.783  -5.035  -7.420  1.00  0.00    -0.206 F 
ATOM     76  C   UNL     1      -9.500  -5.392 -11.016  1.00  0.00     0.006 A 
ENDBRANCH  48  69
BRANCH  60  77
ATOM     77  C   UNL     1     -17.434  -2.662  -7.400  1.00  0.00     0.057 A 
ATOM     78  C   UNL     1     -17.822  -3.960  -7.048  1.00  0.00     0.134 A 
ATOM     79  C   UNL     1     -18.309  -1.921  -8.205  1.00  0.00     0.134 A 
ATOM     80  F   UNL     1     -17.022  -4.727  -6.292  1.00  0.00    -0.206 F 
ATOM     81  C   UNL     1     -19.026  -4.507  -7.495  1.00  0.00     0.040 A 
ATOM     82  C   UNL     1     -19.527  -2.447  -8.636  1.00  0.00     0.040 A 
ATOM     83  F   UNL     1     -18.001  -0.668  -8.573  1.00  0.00    -0.206 F 
ATOM     84  C   UNL     1     -19.886  -3.747  -8.286  1.00  0.00     0.006 A 
ENDBRANCH  60  77
ENDBRANCH  34  35
ENDBRANCH  26  29
ENDBRANCH  24  25
ENDBRANCH  23  24
ENDBRANCH   1  23
TORSDOF 14
