REMARK SMILES CC(C)(C[NH2+][C@H]1CCc2ccccc21)C(=O)NCCCCNC(=O)c1ccc(-c2c3nc(c(-c4c(F)cccc4F)c4ccc([nH]4)c(-c4c(F)cccc4F)c4nc(c(-c5c(F)cccc5F)c5ccc2[nH]5)C=C4)C=C3)cc1
REMARK SMILES IDX 19 1 18 2 17 3 15 4 16 5 2 7 1 8 3 9 4 10 5 11 6 14 7 15
REMARK SMILES IDX 14 16 8 17 9 18 13 19 10 20 12 21 11 22 20 23 21 24 22 25
REMARK SMILES IDX 23 26 24 28 25 29 26 30 78 31 27 32 77 33 28 34 29 35 30 36
REMARK SMILES IDX 71 37 31 38 76 39 70 40 72 41 32 42 75 43 69 44 68 45 33 47
REMARK SMILES IDX 59 48 42 49 58 50 43 51 46 52 57 53 73 54 44 55 45 56 56 58
REMARK SMILES IDX 74 59 47 60 34 61 35 62 40 63 36 64 37 65 39 66 41 67 38 68
REMARK SMILES IDX 60 69 61 70 66 71 62 72 63 73 65 74 67 75 64 76 48 77 49 78
REMARK SMILES IDX 54 79 50 80 51 81 53 82 55 83 52 84
REMARK H PARENT 17 6 5 12 5 13 22 27 72 46 46 57
REMARK Flexibility Score: inf
ROOT
ATOM      1  C   UNL     1       0.540  -1.684   2.953  1.00  0.00     0.023 C 
ENDROOT
BRANCH   1   2
ATOM      2  C   UNL     1      -0.081  -2.639   3.969  1.00  0.00     0.116 C 
BRANCH   2   3
ATOM      3  N   UNL     1      -1.020  -1.966   4.841  1.00  0.00    -0.355 N 
ATOM      4  C   UNL     1      -2.376  -2.007   4.941  1.00  0.00     0.231 C 
ATOM      5  O   UNL     1      -2.862  -1.288   5.822  1.00  0.00    -0.274 OA
ATOM      6  H   UNL     1      -0.594  -1.360   5.489  1.00  0.00     0.163 HD
BRANCH   4   7
ATOM      7  C   UNL     1      -3.262  -2.939   4.088  1.00  0.00     0.092 C 
ATOM      8  C   UNL     1      -4.744  -2.705   4.480  1.00  0.00     0.027 C 
ATOM      9  C   UNL     1      -2.953  -4.408   4.451  1.00  0.00     0.027 C 
BRANCH   7  10
ATOM     10  C   UNL     1      -3.107  -2.714   2.561  1.00  0.00     0.277 C 
BRANCH  10  11
ATOM     11  N   UNL     1      -3.421  -1.356   2.113  1.00  0.00    -0.339 N 
ATOM     12  H   UNL     1      -2.942  -0.696   2.726  1.00  0.00     0.346 HD
ATOM     13  H   UNL     1      -4.436  -1.258   2.150  1.00  0.00     0.346 HD
BRANCH  11  14
ATOM     14  C   UNL     1      -3.017  -1.080   0.733  1.00  0.00     0.214 C 
ATOM     15  C   UNL     1      -3.647  -1.983  -0.354  1.00  0.00     0.075 C 
ATOM     16  C   UNL     1      -3.556   0.258   0.286  1.00  0.00     0.012 A 
ATOM     17  C   UNL     1      -4.991  -1.353  -0.732  1.00  0.00     0.042 C 
ATOM     18  C   UNL     1      -4.670   0.097  -0.553  1.00  0.00    -0.039 A 
ATOM     19  C   UNL     1      -3.099   1.524   0.618  1.00  0.00     0.010 A 
ATOM     20  C   UNL     1      -5.342   1.189  -1.075  1.00  0.00     0.004 A 
ATOM     21  C   UNL     1      -3.761   2.632   0.082  1.00  0.00     0.001 A 
ATOM     22  C   UNL     1      -4.873   2.465  -0.759  1.00  0.00     0.000 A 
ENDBRANCH  11  14
ENDBRANCH  10  11
ENDBRANCH   7  10
ENDBRANCH   4   7
ENDBRANCH   2   3
ENDBRANCH   1   2
BRANCH   1  23
ATOM     23  C   UNL     1       1.497  -0.647   3.546  1.00  0.00     0.023 C 
BRANCH  23  24
ATOM     24  C   UNL     1       2.625  -1.210   4.406  1.00  0.00     0.116 C 
BRANCH  24  25
ATOM     25  N   UNL     1       3.416  -2.223   3.725  1.00  0.00    -0.352 N 
ATOM     26  C   UNL     1       4.771  -2.431   3.743  1.00  0.00     0.251 C 
ATOM     27  H   UNL     1       2.902  -2.853   3.170  1.00  0.00     0.163 HD
ATOM     28  O   UNL     1       5.265  -3.284   3.006  1.00  0.00    -0.269 OA
BRANCH  26  29
ATOM     29  C   UNL     1       5.647  -1.615   4.611  1.00  0.00     0.039 A 
ATOM     30  C   UNL     1       6.853  -1.146   4.084  1.00  0.00     0.014 A 
ATOM     31  C   UNL     1       5.298  -1.315   5.931  1.00  0.00     0.014 A 
ATOM     32  C   UNL     1       7.679  -0.332   4.861  1.00  0.00     0.010 A 
ATOM     33  C   UNL     1       6.084  -0.439   6.678  1.00  0.00     0.010 A 
ATOM     34  C   UNL     1       7.286   0.057   6.152  1.00  0.00    -0.014 A 
BRANCH  34  35
ATOM     35  C   UNL     1       8.125   0.995   6.941  1.00  0.00     0.031 A 
ATOM     36  C   UNL     1       8.778   0.556   8.222  1.00  0.00     0.074 A 
ATOM     37  C   UNL     1       8.280   2.261   6.507  1.00  0.00     0.049 A 
ATOM     38  N   UNL     1       9.585   1.224   9.007  1.00  0.00    -0.248 NA
ATOM     39  C   UNL     1       8.465  -0.800   8.699  1.00  0.00     0.031 C 
ATOM     40  C   UNL     1       7.639   2.832   5.320  1.00  0.00     0.029 A 
ATOM     41  N   UNL     1       9.030   3.295   7.009  1.00  0.00    -0.354 N 
ATOM     42  C   UNL     1       9.872   0.374  10.068  1.00  0.00     0.074 A 
ATOM     43  C   UNL     1       9.105  -0.835   9.858  1.00  0.00     0.031 C 
ATOM     44  C   UNL     1       8.056   4.098   5.162  1.00  0.00     0.029 A 
ATOM     45  C   UNL     1       8.971   4.437   6.247  1.00  0.00     0.049 A 
ATOM     46  H   UNL     1       9.559   3.225   7.836  1.00  0.00     0.167 HD
ATOM     47  C   UNL     1      10.718   0.571  11.108  1.00  0.00     0.037 A 
ATOM     48  C   UNL     1       9.595   5.620   6.398  1.00  0.00     0.037 A 
ATOM     49  C   UNL     1      11.492   1.769  11.307  1.00  0.00     0.049 A 
ATOM     50  C   UNL     1      10.551   5.803   7.543  1.00  0.00     0.074 A 
ATOM     51  C   UNL     1      12.421   2.043  12.295  1.00  0.00     0.029 A 
ATOM     52  N   UNL     1      11.422   2.897  10.502  1.00  0.00    -0.354 N 
ATOM     53  N   UNL     1      10.882   4.957   8.489  1.00  0.00    -0.248 NA
ATOM     54  C   UNL     1      11.235   7.100   7.630  1.00  0.00     0.031 C 
ATOM     55  C   UNL     1      12.882   3.352  12.114  1.00  0.00     0.029 A 
ATOM     56  C   UNL     1      12.279   3.875  10.982  1.00  0.00     0.049 A 
ATOM     57  H   UNL     1      10.849   2.988   9.707  1.00  0.00     0.167 HD
ATOM     58  C   UNL     1      11.831   5.608   9.266  1.00  0.00     0.074 A 
ATOM     59  C   UNL     1      12.038   6.911   8.667  1.00  0.00     0.031 C 
ATOM     60  C   UNL     1      12.473   5.168  10.377  1.00  0.00     0.037 A 
BRANCH  47  61
ATOM     61  C   UNL     1      10.854  -0.541  12.109  1.00  0.00     0.057 A 
ATOM     62  C   UNL     1      11.485  -1.751  11.788  1.00  0.00     0.134 A 
ATOM     63  C   UNL     1      10.379  -0.390  13.418  1.00  0.00     0.134 A 
ATOM     64  F   UNL     1      11.952  -1.967  10.549  1.00  0.00    -0.206 F 
ATOM     65  C   UNL     1      11.613  -2.780  12.724  1.00  0.00     0.040 A 
ATOM     66  C   UNL     1      10.527  -1.401  14.370  1.00  0.00     0.040 A 
ATOM     67  F   UNL     1       9.770   0.744  13.796  1.00  0.00    -0.206 F 
ATOM     68  C   UNL     1      11.139  -2.603  14.022  1.00  0.00     0.006 A 
ENDBRANCH  47  61
BRANCH  48  69
ATOM     69  C   UNL     1       9.373   6.707   5.412  1.00  0.00     0.057 A 
ATOM     70  C   UNL     1      10.382   7.095   4.523  1.00  0.00     0.134 A 
ATOM     71  C   UNL     1       8.152   7.387   5.338  1.00  0.00     0.134 A 
ATOM     72  F   UNL     1      11.580   6.492   4.556  1.00  0.00    -0.206 F 
ATOM     73  C   UNL     1      10.194   8.134   3.610  1.00  0.00     0.040 A 
ATOM     74  C   UNL     1       7.941   8.410   4.412  1.00  0.00     0.040 A 
ATOM     75  F   UNL     1       7.142   7.056   6.156  1.00  0.00    -0.206 F 
ATOM     76  C   UNL     1       8.967   8.791   3.550  1.00  0.00     0.006 A 
ENDBRANCH  48  69
BRANCH  60  77
ATOM     77  C   UNL     1      13.482   6.096  10.991  1.00  0.00     0.057 A 
ATOM     78  C   UNL     1      13.103   7.272  11.651  1.00  0.00     0.134 A 
ATOM     79  C   UNL     1      14.850   5.805  10.922  1.00  0.00     0.134 A 
ATOM     80  F   UNL     1      11.809   7.615  11.742  1.00  0.00    -0.206 F 
ATOM     81  C   UNL     1      14.052   8.145  12.187  1.00  0.00     0.040 A 
ATOM     82  C   UNL     1      15.806   6.655  11.481  1.00  0.00     0.040 A 
ATOM     83  F   UNL     1      15.281   4.690  10.314  1.00  0.00    -0.206 F 
ATOM     84  C   UNL     1      15.408   7.835  12.105  1.00  0.00     0.006 A 
ENDBRANCH  60  77
ENDBRANCH  34  35
ENDBRANCH  26  29
ENDBRANCH  24  25
ENDBRANCH  23  24
ENDBRANCH   1  23
TORSDOF 14
