REMARK SMILES CC[C@@H](Nc1ccc([N+](=O)[O-])c(N)n1)C(=O)NCCCCNC(=O)c1ccc(-c2c3nc(c(-c4c(F)cccc4F)c4ccc([nH]4)c(-c4c(F)cccc4F)c4nc(c(-c5c(F)cccc5F)c5ccc2[nH]5)C=C4)C=C3)cc1
REMARK SMILES IDX 19 1 18 2 17 3 15 4 16 5 3 7 2 8 1 9 4 10 5 12 6 13 14 14
REMARK SMILES IDX 7 15 12 16 8 17 13 18 9 21 10 22 11 23 20 24 21 25 22 26
REMARK SMILES IDX 23 27 24 29 25 30 26 31 78 32 27 33 77 34 28 35 29 36 30 37
REMARK SMILES IDX 71 38 31 39 76 40 70 41 72 42 32 43 75 44 69 45 68 46 33 48
REMARK SMILES IDX 59 49 42 50 58 51 43 52 46 53 57 54 73 55 44 56 45 57 56 59
REMARK SMILES IDX 74 60 47 61 34 62 35 63 40 64 36 65 37 66 39 67 41 68 38 69
REMARK SMILES IDX 60 70 61 71 66 72 62 73 63 74 65 75 67 76 64 77 48 78 49 79
REMARK SMILES IDX 54 80 50 81 51 82 53 83 55 84 52 85
REMARK H PARENT 17 6 4 11 13 19 13 20 22 28 72 47 46 58
REMARK Flexibility Score: inf
ROOT
ATOM      1  C   UNL     1      -2.620  -1.377   2.943  1.00  0.00     0.023 C 
ENDROOT
BRANCH   1   2
ATOM      2  C   UNL     1      -1.919  -0.123   3.449  1.00  0.00     0.116 C 
BRANCH   2   3
ATOM      3  N   UNL     1      -0.627  -0.364   4.040  1.00  0.00    -0.354 N 
ATOM      4  C   UNL     1       0.606   0.049   3.622  1.00  0.00     0.242 C 
ATOM      5  O   UNL     1       1.528  -0.065   4.440  1.00  0.00    -0.273 OA
ATOM      6  H   UNL     1      -0.634  -0.904   4.862  1.00  0.00     0.163 HD
BRANCH   4   7
ATOM      7  C   UNL     1       0.906   0.548   2.180  1.00  0.00     0.169 C 
BRANCH   7   8
ATOM      8  C   UNL     1       0.800  -0.591   1.171  1.00  0.00     0.031 C 
ATOM      9  C   UNL     1       1.440  -0.258  -0.172  1.00  0.00     0.006 C 
ENDBRANCH   7   8
BRANCH   7  10
ATOM     10  N   UNL     1       0.283   1.836   1.839  1.00  0.00    -0.358 N 
ATOM     11  H   UNL     1       0.832   2.603   2.121  1.00  0.00     0.162 HD
BRANCH  10  12
ATOM     12  C   UNL     1      -0.868   2.223   1.227  1.00  0.00     0.129 A 
ATOM     13  C   UNL     1      -1.627   1.458   0.355  1.00  0.00     0.054 A 
ATOM     14  N   UNL     1      -1.290   3.450   1.606  1.00  0.00    -0.208 NA
ATOM     15  C   UNL     1      -2.890   1.898  -0.035  1.00  0.00     0.093 A 
ATOM     16  C   UNL     1      -2.495   3.917   1.199  1.00  0.00     0.204 A 
ATOM     17  C   UNL     1      -3.333   3.138   0.417  1.00  0.00     0.311 A 
BRANCH  16  18
ATOM     18  N   UNL     1      -2.830   5.152   1.716  1.00  0.00    -0.378 N 
ATOM     19  H   UNL     1      -3.688   5.571   1.475  1.00  0.00     0.158 HD
ATOM     20  H   UNL     1      -2.210   5.616   2.325  1.00  0.00     0.158 HD
ENDBRANCH  16  18
BRANCH  17  21
ATOM     21  N   UNL     1      -4.669   3.578   0.062  1.00  0.00     0.066 N 
ATOM     22  O   UNL     1      -4.852   4.788  -0.138  1.00  0.00    -0.258 OA
ATOM     23  O   UNL     1      -5.537   2.702  -0.057  1.00  0.00    -0.258 OA
ENDBRANCH  17  21
ENDBRANCH  10  12
ENDBRANCH   7  10
ENDBRANCH   4   7
ENDBRANCH   2   3
ENDBRANCH   1   2
BRANCH   1  24
ATOM     24  C   UNL     1      -3.559  -2.031   3.954  1.00  0.00     0.023 C 
BRANCH  24  25
ATOM     25  C   UNL     1      -4.636  -1.123   4.541  1.00  0.00     0.116 C 
BRANCH  25  26
ATOM     26  N   UNL     1      -5.487  -0.477   3.553  1.00  0.00    -0.352 N 
ATOM     27  C   UNL     1      -6.819  -0.139   3.668  1.00  0.00     0.251 C 
ATOM     28  H   UNL     1      -5.058  -0.254   2.695  1.00  0.00     0.163 HD
ATOM     29  O   UNL     1      -7.429   0.328   2.719  1.00  0.00    -0.269 OA
BRANCH  27  30
ATOM     30  C   UNL     1      -7.519  -0.401   4.945  1.00  0.00     0.039 A 
ATOM     31  C   UNL     1      -8.741  -1.075   4.915  1.00  0.00     0.014 A 
ATOM     32  C   UNL     1      -6.945  -0.033   6.164  1.00  0.00     0.014 A 
ATOM     33  C   UNL     1      -9.349  -1.452   6.114  1.00  0.00     0.010 A 
ATOM     34  C   UNL     1      -7.507  -0.482   7.353  1.00  0.00     0.010 A 
ATOM     35  C   UNL     1      -8.715  -1.195   7.341  1.00  0.00    -0.014 A 
BRANCH  35  36
ATOM     36  C   UNL     1      -9.306  -1.655   8.622  1.00  0.00     0.031 A 
ATOM     37  C   UNL     1      -9.737  -0.652   9.655  1.00  0.00     0.074 A 
ATOM     38  C   UNL     1      -9.393  -2.974   8.883  1.00  0.00     0.049 A 
ATOM     39  N   UNL     1     -10.233  -0.855  10.850  1.00  0.00    -0.248 NA
ATOM     40  C   UNL     1      -9.557   0.768   9.314  1.00  0.00     0.031 C 
ATOM     41  C   UNL     1      -8.952  -4.048   7.990  1.00  0.00     0.029 A 
ATOM     42  N   UNL     1      -9.881  -3.637   9.981  1.00  0.00    -0.354 N 
ATOM     43  C   UNL     1     -10.400   0.406  11.407  1.00  0.00     0.074 A 
ATOM     44  C   UNL     1      -9.901   1.364  10.445  1.00  0.00     0.031 C 
ATOM     45  C   UNL     1      -9.225  -5.233   8.559  1.00  0.00     0.029 A 
ATOM     46  C   UNL     1      -9.830  -5.005   9.868  1.00  0.00     0.049 A 
ATOM     47  H   UNL     1     -10.235  -3.175  10.776  1.00  0.00     0.167 HD
ATOM     48  C   UNL     1     -10.945   0.740  12.601  1.00  0.00     0.037 A 
ATOM     49  C   UNL     1     -10.235  -5.965  10.720  1.00  0.00     0.037 A 
ATOM     50  C   UNL     1     -11.480  -0.212  13.537  1.00  0.00     0.049 A 
ATOM     51  C   UNL     1     -10.861  -5.569  12.028  1.00  0.00     0.074 A 
ATOM     52  C   UNL     1     -12.125   0.028  14.738  1.00  0.00     0.029 A 
ATOM     53  N   UNL     1     -11.434  -1.588  13.374  1.00  0.00    -0.354 N 
ATOM     54  N   UNL     1     -11.086  -4.370  12.509  1.00  0.00    -0.248 NA
ATOM     55  C   UNL     1     -11.297  -6.662  12.909  1.00  0.00     0.031 C 
ATOM     56  C   UNL     1     -12.437  -1.206  15.320  1.00  0.00     0.029 A 
ATOM     57  C   UNL     1     -12.024  -2.212  14.461  1.00  0.00     0.049 A 
ATOM     58  H   UNL     1     -11.041  -2.053  12.601  1.00  0.00     0.167 HD
ATOM     59  C   UNL     1     -11.720  -4.563  13.729  1.00  0.00     0.074 A 
ATOM     60  C   UNL     1     -11.850  -5.994  13.912  1.00  0.00     0.031 C 
ATOM     61  C   UNL     1     -12.156  -3.638  14.619  1.00  0.00     0.037 A 
BRANCH  48  62
ATOM     62  C   UNL     1     -10.995   2.198  12.950  1.00  0.00     0.057 A 
ATOM     63  C   UNL     1     -11.846   3.090  12.284  1.00  0.00     0.134 A 
ATOM     64  C   UNL     1     -10.188   2.716  13.971  1.00  0.00     0.134 A 
ATOM     65  F   UNL     1     -12.634   2.661  11.287  1.00  0.00    -0.206 F 
ATOM     66  C   UNL     1     -11.869   4.450  12.597  1.00  0.00     0.040 A 
ATOM     67  C   UNL     1     -10.223   4.069  14.312  1.00  0.00     0.040 A 
ATOM     68  F   UNL     1      -9.353   1.917  14.653  1.00  0.00    -0.206 F 
ATOM     69  C   UNL     1     -11.059   4.942  13.618  1.00  0.00     0.006 A 
ENDBRANCH  48  62
BRANCH  49  70
ATOM     70  C   UNL     1     -10.112  -7.395  10.344  1.00  0.00     0.057 A 
ATOM     71  C   UNL     1     -11.247  -8.153  10.032  1.00  0.00     0.134 A 
ATOM     72  C   UNL     1      -8.872  -8.041  10.297  1.00  0.00     0.134 A 
ATOM     73  F   UNL     1     -12.465  -7.594  10.077  1.00  0.00    -0.206 F 
ATOM     74  C   UNL     1     -11.156  -9.507   9.705  1.00  0.00     0.040 A 
ATOM     75  C   UNL     1      -8.764  -9.389   9.951  1.00  0.00     0.040 A 
ATOM     76  F   UNL     1      -7.747  -7.368  10.579  1.00  0.00    -0.206 F 
ATOM     77  C   UNL     1      -9.909 -10.128   9.660  1.00  0.00     0.006 A 
ENDBRANCH  49  70
BRANCH  61  78
ATOM     78  C   UNL     1     -12.852  -4.146  15.847  1.00  0.00     0.057 A 
ATOM     79  C   UNL     1     -12.155  -4.771  16.888  1.00  0.00     0.134 A 
ATOM     80  C   UNL     1     -14.235  -3.978  16.000  1.00  0.00     0.134 A 
ATOM     81  F   UNL     1     -10.832  -4.973  16.795  1.00  0.00    -0.206 F 
ATOM     82  C   UNL     1     -12.813  -5.234  18.028  1.00  0.00     0.040 A 
ATOM     83  C   UNL     1     -14.899  -4.414  17.147  1.00  0.00     0.040 A 
ATOM     84  F   UNL     1     -14.959  -3.380  15.043  1.00  0.00    -0.206 F 
ATOM     85  C   UNL     1     -14.188  -5.051  18.162  1.00  0.00     0.006 A 
ENDBRANCH  61  78
ENDBRANCH  35  36
ENDBRANCH  27  30
ENDBRANCH  25  26
ENDBRANCH  24  25
ENDBRANCH   1  24
TORSDOF 16
