REMARK SMILES COCC1CCN(C(=O)NC[C@H]2CC[C@H](C(=O)NCCCCNC(=O)c3ccc(-c4c5nc(c(-c6c(F)cccc6F)c6ccc([nH]6)c(-c6c(F)cccc6F)c6nc(c(-c7c(F)cccc7F)c7ccc4[nH]7)C=C6)C=C5)cc3)O2)CC1
REMARK SMILES IDX 19 1 18 2 16 3 17 4 15 6 12 7 13 8 80 9 14 10 11 11 10 12
REMARK SMILES IDX 4 13 5 14 82 15 6 16 81 17 7 18 8 19 9 20 3 22 2 23 1 24
REMARK SMILES IDX 20 25 21 26 22 27 23 28 24 29 25 31 26 32 27 33 79 34 28 35
REMARK SMILES IDX 78 36 29 37 30 38 31 39 72 40 32 41 77 42 71 43 73 44 33 45
REMARK SMILES IDX 76 46 70 47 69 48 34 50 60 51 43 52 59 53 44 54 47 55 58 56
REMARK SMILES IDX 74 57 45 58 46 59 57 61 75 62 48 63 35 64 36 65 41 66 37 67
REMARK SMILES IDX 38 68 40 69 42 70 39 71 61 72 62 73 67 74 63 75 64 76 66 77
REMARK SMILES IDX 68 78 65 79 49 80 50 81 55 82 51 83 52 84 54 85 56 86 53 87
REMARK H PARENT 18 5 10 21 23 30 73 49 47 60
REMARK Flexibility Score: inf
ROOT
ATOM      1  C   UNL     1      -1.635   1.984   0.042  1.00  0.00     0.116 C 
ENDROOT
BRANCH   1   2
ATOM      2  N   UNL     1      -2.292   3.233  -0.267  1.00  0.00    -0.354 N 
ATOM      3  C   UNL     1      -3.028   3.594  -1.356  1.00  0.00     0.249 C 
ATOM      4  O   UNL     1      -3.473   4.747  -1.368  1.00  0.00    -0.272 OA
ATOM      5  H   UNL     1      -2.193   3.934   0.416  1.00  0.00     0.163 HD
BRANCH   3   6
ATOM      6  C   UNL     1      -3.247   2.659  -2.579  1.00  0.00     0.207 C 
ATOM      7  C   UNL     1      -2.801   0.383  -2.957  1.00  0.00     0.138 C 
ATOM      8  C   UNL     1      -1.557   1.153  -3.368  1.00  0.00     0.037 C 
ATOM      9  O   UNL     1      -3.700   1.325  -2.349  1.00  0.00    -0.363 OA
ATOM     10  C   UNL     1      -2.025   2.581  -3.479  1.00  0.00     0.045 C 
BRANCH   7  11
ATOM     11  C   UNL     1      -3.433  -0.358  -4.151  1.00  0.00     0.149 C 
BRANCH  11  12
ATOM     12  N   UNL     1      -3.169  -1.789  -4.050  1.00  0.00    -0.335 N 
ATOM     13  C   UNL     1      -8.016  -3.330  -2.918  1.00  0.00     0.018 C 
ATOM     14  C   UNL     1      -7.068  -4.503  -3.203  1.00  0.00     0.027 C 
ATOM     15  C   UNL     1      -7.361  -2.008  -3.335  1.00  0.00     0.027 C 
ATOM     16  C   UNL     1      -5.600  -4.276  -2.846  1.00  0.00     0.121 C 
ATOM     17  C   UNL     1      -5.944  -1.854  -2.786  1.00  0.00     0.121 C 
ATOM     18  N   UNL     1      -5.088  -2.953  -3.218  1.00  0.00    -0.325 N 
ATOM     19  C   UNL     1      -3.799  -2.904  -3.659  1.00  0.00     0.317 C 
ATOM     20  O   UNL     1      -3.099  -3.922  -3.739  1.00  0.00    -0.249 OA
ATOM     21  H   UNL     1      -2.258  -1.996  -4.361  1.00  0.00     0.165 HD
BRANCH  13  22
ATOM     22  C   UNL     1      -8.594  -3.319  -1.487  1.00  0.00     0.163 C 
BRANCH  22  23
ATOM     23  O   UNL     1      -7.859  -2.498  -0.590  1.00  0.00    -0.384 OA
ATOM     24  C   UNL     1      -7.185  -3.222   0.427  1.00  0.00     0.194 C 
ENDBRANCH  22  23
ENDBRANCH  13  22
ENDBRANCH  11  12
ENDBRANCH   7  11
ENDBRANCH   3   6
ENDBRANCH   1   2
BRANCH   1  25
ATOM     25  C   UNL     1      -0.151   2.021  -0.327  1.00  0.00     0.023 C 
BRANCH  25  26
ATOM     26  C   UNL     1       0.771   2.650   0.713  1.00  0.00     0.023 C 
BRANCH  26  27
ATOM     27  C   UNL     1       0.772   1.960   2.068  1.00  0.00     0.116 C 
BRANCH  27  28
ATOM     28  N   UNL     1       1.082   0.540   2.009  1.00  0.00    -0.352 N 
ATOM     29  C   UNL     1       1.714  -0.234   2.952  1.00  0.00     0.251 C 
ATOM     30  H   UNL     1       0.803   0.073   1.188  1.00  0.00     0.163 HD
ATOM     31  O   UNL     1       1.986  -1.407   2.714  1.00  0.00    -0.269 OA
BRANCH  29  32
ATOM     32  C   UNL     1       2.102   0.371   4.242  1.00  0.00     0.039 A 
ATOM     33  C   UNL     1       3.388   0.140   4.735  1.00  0.00     0.014 A 
ATOM     34  C   UNL     1       1.213   1.188   4.944  1.00  0.00     0.014 A 
ATOM     35  C   UNL     1       3.796   0.772   5.910  1.00  0.00     0.010 A 
ATOM     36  C   UNL     1       1.652   1.891   6.059  1.00  0.00     0.010 A 
ATOM     37  C   UNL     1       2.940   1.672   6.566  1.00  0.00    -0.014 A 
BRANCH  37  38
ATOM     38  C   UNL     1       3.365   2.359   7.809  1.00  0.00     0.031 A 
ATOM     39  C   UNL     1       2.640   2.093   9.099  1.00  0.00     0.074 A 
ATOM     40  C   UNL     1       4.371   3.253   7.767  1.00  0.00     0.049 A 
ATOM     41  N   UNL     1       2.858   2.593  10.289  1.00  0.00    -0.248 NA
ATOM     42  C   UNL     1       1.494   1.170   9.039  1.00  0.00     0.031 C 
ATOM     43  C   UNL     1       5.101   3.653   6.562  1.00  0.00     0.029 A 
ATOM     44  N   UNL     1       4.952   3.990   8.767  1.00  0.00    -0.354 N 
ATOM     45  C   UNL     1       1.871   2.060  11.108  1.00  0.00     0.074 A 
ATOM     46  C   UNL     1       1.013   1.254  10.269  1.00  0.00     0.031 C 
ATOM     47  C   UNL     1       6.055   4.535   6.900  1.00  0.00     0.029 A 
ATOM     48  C   UNL     1       5.989   4.781   8.337  1.00  0.00     0.049 A 
ATOM     49  H   UNL     1       4.654   3.954   9.705  1.00  0.00     0.167 HD
ATOM     50  C   UNL     1       1.711   2.201  12.445  1.00  0.00     0.037 A 
ATOM     51  C   UNL     1       6.801   5.602   9.028  1.00  0.00     0.037 A 
ATOM     52  C   UNL     1       2.589   2.976  13.280  1.00  0.00     0.049 A 
ATOM     53  C   UNL     1       6.635   5.708  10.519  1.00  0.00     0.074 A 
ATOM     54  C   UNL     1       2.562   3.128  14.655  1.00  0.00     0.029 A 
ATOM     55  N   UNL     1       3.655   3.731  12.814  1.00  0.00    -0.354 N 
ATOM     56  N   UNL     1       5.753   5.128  11.296  1.00  0.00    -0.248 NA
ATOM     57  C   UNL     1       7.590   6.569  11.230  1.00  0.00     0.031 C 
ATOM     58  C   UNL     1       3.588   4.008  15.017  1.00  0.00     0.029 A 
ATOM     59  C   UNL     1       4.285   4.364  13.872  1.00  0.00     0.049 A 
ATOM     60  H   UNL     1       3.925   3.805  11.870  1.00  0.00     0.167 HD
ATOM     61  C   UNL     1       6.062   5.528  12.589  1.00  0.00     0.074 A 
ATOM     62  C   UNL     1       7.225   6.388  12.491  1.00  0.00     0.031 C 
ATOM     63  C   UNL     1       5.443   5.214  13.754  1.00  0.00     0.037 A 
BRANCH  50  64
ATOM     64  C   UNL     1       0.547   1.495  13.078  1.00  0.00     0.057 A 
ATOM     65  C   UNL     1       0.491   0.097  13.174  1.00  0.00     0.134 A 
ATOM     66  C   UNL     1      -0.529   2.220  13.605  1.00  0.00     0.134 A 
ATOM     67  F   UNL     1       1.481  -0.659  12.675  1.00  0.00    -0.206 F 
ATOM     68  C   UNL     1      -0.608  -0.554  13.737  1.00  0.00     0.040 A 
ATOM     69  C   UNL     1      -1.620   1.581  14.198  1.00  0.00     0.040 A 
ATOM     70  F   UNL     1      -0.540   3.560  13.551  1.00  0.00    -0.206 F 
ATOM     71  C   UNL     1      -1.665   0.189  14.256  1.00  0.00     0.006 A 
ENDBRANCH  50  64
BRANCH  51  72
ATOM     72  C   UNL     1       7.876   6.345   8.325  1.00  0.00     0.057 A 
ATOM     73  C   UNL     1       9.222   6.000   8.492  1.00  0.00     0.134 A 
ATOM     74  C   UNL     1       7.585   7.411   7.466  1.00  0.00     0.134 A 
ATOM     75  F   UNL     1       9.564   4.996   9.314  1.00  0.00    -0.206 F 
ATOM     76  C   UNL     1      10.243   6.701   7.848  1.00  0.00     0.040 A 
ATOM     77  C   UNL     1       8.594   8.105   6.796  1.00  0.00     0.040 A 
ATOM     78  F   UNL     1       6.315   7.784   7.254  1.00  0.00    -0.206 F 
ATOM     79  C   UNL     1       9.929   7.755   6.992  1.00  0.00     0.006 A 
ENDBRANCH  51  72
BRANCH  63  80
ATOM     80  C   UNL     1       6.033   5.775  15.014  1.00  0.00     0.057 A 
ATOM     81  C   UNL     1       5.943   7.135  15.335  1.00  0.00     0.134 A 
ATOM     82  C   UNL     1       6.681   4.936  15.930  1.00  0.00     0.134 A 
ATOM     83  F   UNL     1       5.345   7.993  14.495  1.00  0.00    -0.206 F 
ATOM     84  C   UNL     1       6.504   7.646  16.506  1.00  0.00     0.040 A 
ATOM     85  C   UNL     1       7.221   5.430  17.118  1.00  0.00     0.040 A 
ATOM     86  F   UNL     1       6.793   3.620  15.689  1.00  0.00    -0.206 F 
ATOM     87  C   UNL     1       7.140   6.791  17.404  1.00  0.00     0.006 A 
ENDBRANCH  63  80
ENDBRANCH  37  38
ENDBRANCH  29  32
ENDBRANCH  27  28
ENDBRANCH  26  27
ENDBRANCH  25  26
ENDBRANCH   1  25
TORSDOF 15
