REMARK SMILES Cc1cc2c(c(C)c1Br)C=C(C(=O)NCCCCNC(=O)c1ccc(-c3c4nc(c(-c5c(F)cccc5F)c5ccc([nH]5)c(-c5c(F)cccc5F)c5nc(c(-c6c(F)cccc6F)c6ccc3[nH]6)C=C5)C=C4)cc1)[C@@H](C(F)(F)F)O2
REMARK SMILES IDX 17 1 16 2 15 3 14 4 12 5 13 6 11 8 1 9 2 10 3 11 8 12 4 13
REMARK SMILES IDX 6 14 9 15 5 16 81 17 7 18 10 19 76 20 77 21 78 22 79 23
REMARK SMILES IDX 80 24 18 25 19 26 20 27 21 29 22 30 23 31 75 32 24 33 74 34
REMARK SMILES IDX 25 35 26 36 27 37 68 38 28 39 73 40 67 41 69 42 29 43 72 44
REMARK SMILES IDX 66 45 65 46 30 48 56 49 39 50 55 51 40 52 43 53 54 54 70 55
REMARK SMILES IDX 41 56 42 57 53 59 71 60 44 61 31 62 32 63 37 64 33 65 34 66
REMARK SMILES IDX 36 67 38 68 35 69 57 70 58 71 63 72 59 73 60 74 62 75 64 76
REMARK SMILES IDX 61 77 45 78 46 79 51 80 47 81 48 82 50 83 52 84 49 85
REMARK H PARENT 14 7 19 28 69 47 43 58
REMARK Flexibility Score: inf
ROOT
ATOM      1  C   UNL     1      -6.865   7.742   1.200  1.00  0.00     0.023 C 
ENDROOT
BRANCH   1   2
ATOM      2  C   UNL     1      -6.046   6.477   0.934  1.00  0.00     0.023 C 
BRANCH   2   3
ATOM      3  C   UNL     1      -5.284   6.494  -0.387  1.00  0.00     0.116 C 
BRANCH   3   4
ATOM      4  N   UNL     1      -4.012   7.183  -0.269  1.00  0.00    -0.352 N 
ATOM      5  C   UNL     1      -2.704   6.841  -0.202  1.00  0.00     0.251 C 
ATOM      6  O   UNL     1      -1.922   7.791  -0.090  1.00  0.00    -0.270 OA
ATOM      7  H   UNL     1      -4.133   8.159  -0.225  1.00  0.00     0.163 HD
BRANCH   5   8
ATOM      8  C   UNL     1      -2.169   5.447  -0.255  1.00  0.00     0.067 C 
ATOM      9  C   UNL     1       1.260  -0.078  -0.056  1.00  0.00     0.046 C 
ATOM     10  C   UNL     1       0.827   1.364  -0.082  1.00  0.00    -0.033 A 
ATOM     11  C   UNL     1      -0.554   1.593  -0.132  1.00  0.00     0.051 A 
ATOM     12  C   UNL     1       1.695   2.474  -0.010  1.00  0.00     0.024 A 
ATOM     13  C   UNL     1      -1.064   2.886  -0.135  1.00  0.00     0.128 A 
ATOM     14  C   UNL     1       1.186   3.801  -0.028  1.00  0.00    -0.026 A 
ATOM     15  Br  UNL     1       3.578   2.165   0.147  1.00  0.00    -0.050 Br
ATOM     16  C   UNL     1      -0.218   3.995  -0.075  1.00  0.00     0.021 A 
ATOM     17  O   UNL     1      -2.425   2.976  -0.149  1.00  0.00    -0.475 OA
ATOM     18  C   UNL     1       2.088   5.015   0.023  1.00  0.00     0.046 C 
ATOM     19  C   UNL     1      -0.851   5.318  -0.011  1.00  0.00     0.026 C 
ATOM     20  C   UNL     1      -2.988   4.238  -0.591  1.00  0.00     0.314 C 
BRANCH  20  21
ATOM     21  C   UNL     1      -3.334   4.147  -2.088  1.00  0.00     0.429 C 
ATOM     22  F   UNL     1      -4.323   3.241  -2.291  1.00  0.00    -0.167 F 
ATOM     23  F   UNL     1      -3.786   5.322  -2.588  1.00  0.00    -0.167 F 
ATOM     24  F   UNL     1      -2.280   3.774  -2.847  1.00  0.00    -0.167 F 
ENDBRANCH  20  21
ENDBRANCH   5   8
ENDBRANCH   3   4
ENDBRANCH   2   3
ENDBRANCH   1   2
BRANCH   1  25
ATOM     25  C   UNL     1      -7.857   8.122   0.102  1.00  0.00     0.116 C 
BRANCH  25  26
ATOM     26  N   UNL     1      -8.731   7.031  -0.306  1.00  0.00    -0.352 N 
ATOM     27  C   UNL     1     -10.034   7.106  -0.737  1.00  0.00     0.251 C 
ATOM     28  H   UNL     1      -8.341   6.128  -0.268  1.00  0.00     0.163 HD
ATOM     29  O   UNL     1     -10.676   6.091  -0.982  1.00  0.00    -0.269 OA
BRANCH  27  30
ATOM     30  C   UNL     1     -10.662   8.433  -0.854  1.00  0.00     0.039 A 
ATOM     31  C   UNL     1     -11.836   8.685  -0.141  1.00  0.00     0.014 A 
ATOM     32  C   UNL     1     -10.046   9.441  -1.601  1.00  0.00     0.014 A 
ATOM     33  C   UNL     1     -12.356   9.978  -0.117  1.00  0.00     0.010 A 
ATOM     34  C   UNL     1     -10.532  10.740  -1.528  1.00  0.00     0.010 A 
ATOM     35  C   UNL     1     -11.685  11.020  -0.778  1.00  0.00    -0.014 A 
BRANCH  35  36
ATOM     36  C   UNL     1     -12.176  12.415  -0.695  1.00  0.00     0.031 A 
ATOM     37  C   UNL     1     -12.715  13.092  -1.920  1.00  0.00     0.074 A 
ATOM     38  C   UNL     1     -12.085  13.084   0.470  1.00  0.00     0.049 A 
ATOM     39  N   UNL     1     -13.137  14.321  -2.064  1.00  0.00    -0.248 NA
ATOM     40  C   UNL     1     -12.765  12.288  -3.151  1.00  0.00     0.031 C 
ATOM     41  C   UNL     1     -11.542  12.543   1.718  1.00  0.00     0.029 A 
ATOM     42  N   UNL     1     -12.446  14.367   0.793  1.00  0.00    -0.354 N 
ATOM     43  C   UNL     1     -13.494  14.440  -3.400  1.00  0.00     0.074 A 
ATOM     44  C   UNL     1     -13.192  13.177  -4.036  1.00  0.00     0.031 C 
ATOM     45  C   UNL     1     -11.635  13.477   2.678  1.00  0.00     0.029 A 
ATOM     46  C   UNL     1     -12.215  14.690   2.108  1.00  0.00     0.049 A 
ATOM     47  H   UNL     1     -12.834  14.997   0.144  1.00  0.00     0.167 HD
ATOM     48  C   UNL     1     -14.049  15.499  -4.033  1.00  0.00     0.037 A 
ATOM     49  C   UNL     1     -12.449  15.834   2.777  1.00  0.00     0.037 A 
ATOM     50  C   UNL     1     -14.374  16.745  -3.393  1.00  0.00     0.049 A 
ATOM     51  C   UNL     1     -13.060  16.998   2.050  1.00  0.00     0.074 A 
ATOM     52  C   UNL     1     -14.980  17.862  -3.939  1.00  0.00     0.029 A 
ATOM     53  N   UNL     1     -14.124  17.033  -2.060  1.00  0.00    -0.354 N 
ATOM     54  N   UNL     1     -13.430  17.084   0.795  1.00  0.00    -0.248 NA
ATOM     55  C   UNL     1     -13.283  18.224   2.829  1.00  0.00     0.031 C 
ATOM     56  C   UNL     1     -15.073  18.838  -2.941  1.00  0.00     0.029 A 
ATOM     57  C   UNL     1     -14.554  18.316  -1.767  1.00  0.00     0.049 A 
ATOM     58  H   UNL     1     -13.704  16.417  -1.417  1.00  0.00     0.167 HD
ATOM     59  C   UNL     1     -13.947  18.363   0.638  1.00  0.00     0.074 A 
ATOM     60  C   UNL     1     -13.853  19.015   1.929  1.00  0.00     0.031 C 
ATOM     61  C   UNL     1     -14.454  18.944  -0.475  1.00  0.00     0.037 A 
BRANCH  48  62
ATOM     62  C   UNL     1     -14.355  15.344  -5.492  1.00  0.00     0.057 A 
ATOM     63  C   UNL     1     -15.419  14.549  -5.934  1.00  0.00     0.134 A 
ATOM     64  C   UNL     1     -13.599  16.016  -6.460  1.00  0.00     0.134 A 
ATOM     65  F   UNL     1     -16.170  13.868  -5.055  1.00  0.00    -0.206 F 
ATOM     66  C   UNL     1     -15.710  14.411  -7.292  1.00  0.00     0.040 A 
ATOM     67  C   UNL     1     -13.895  15.903  -7.819  1.00  0.00     0.040 A 
ATOM     68  F   UNL     1     -12.568  16.794  -6.101  1.00  0.00    -0.206 F 
ATOM     69  C   UNL     1     -14.950  15.095  -8.239  1.00  0.00     0.006 A 
ENDBRANCH  48  62
BRANCH  49  70
ATOM     70  C   UNL     1     -12.144  15.918   4.225  1.00  0.00     0.057 A 
ATOM     71  C   UNL     1     -13.173  15.911   5.174  1.00  0.00     0.134 A 
ATOM     72  C   UNL     1     -10.829  15.994   4.697  1.00  0.00     0.134 A 
ATOM     73  F   UNL     1     -14.453  15.856   4.779  1.00  0.00    -0.206 F 
ATOM     74  C   UNL     1     -12.906  15.983   6.542  1.00  0.00     0.040 A 
ATOM     75  C   UNL     1     -10.547  16.049   6.063  1.00  0.00     0.040 A 
ATOM     76  F   UNL     1      -9.800  15.999   3.837  1.00  0.00    -0.206 F 
ATOM     77  C   UNL     1     -11.588  16.048   6.990  1.00  0.00     0.006 A 
ENDBRANCH  49  70
BRANCH  61  78
ATOM     78  C   UNL     1     -14.959  20.349  -0.350  1.00  0.00     0.057 A 
ATOM     79  C   UNL     1     -14.082  21.438  -0.292  1.00  0.00     0.134 A 
ATOM     80  C   UNL     1     -16.333  20.617  -0.359  1.00  0.00     0.134 A 
ATOM     81  F   UNL     1     -12.755  21.243  -0.269  1.00  0.00    -0.206 F 
ATOM     82  C   UNL     1     -14.557  22.750  -0.240  1.00  0.00     0.040 A 
ATOM     83  C   UNL     1     -16.819  21.924  -0.328  1.00  0.00     0.040 A 
ATOM     84  F   UNL     1     -17.222  19.614  -0.421  1.00  0.00    -0.206 F 
ATOM     85  C   UNL     1     -15.929  22.995  -0.267  1.00  0.00     0.006 A 
ENDBRANCH  61  78
ENDBRANCH  35  36
ENDBRANCH  27  30
ENDBRANCH  25  26
ENDBRANCH   1  25
TORSDOF 12
