REMARK SMILES CC[C@H](C)[C@@H](C)[C@](C)(O)C(=O)NCCCCNC(=O)c1ccc(-c2c3nc(c(-c4c(F)cccc4F)c4ccc([nH]4)c(-c4c(F)cccc4F)c4nc(c(-c5c(F)cccc5F)c5ccc2[nH]5)C=C4)C=C3)cc1
REMARK SMILES IDX 14 1 13 2 12 3 10 4 11 5 7 7 8 8 5 9 6 10 3 11 4 12 2 13
REMARK SMILES IDX 1 14 9 15 15 17 16 18 17 19 18 20 19 22 20 23 21 24 73 25
REMARK SMILES IDX 22 26 72 27 23 28 24 29 25 30 66 31 26 32 71 33 65 34 67 35
REMARK SMILES IDX 27 36 70 37 64 38 63 39 28 41 54 42 37 43 53 44 38 45 41 46
REMARK SMILES IDX 52 47 68 48 39 49 40 50 51 52 69 53 42 54 29 55 30 56 35 57
REMARK SMILES IDX 31 58 32 59 34 60 36 61 33 62 55 63 56 64 61 65 57 66 58 67
REMARK SMILES IDX 60 68 62 69 59 70 43 71 44 72 49 73 45 74 46 75 48 76 50 77
REMARK SMILES IDX 47 78
REMARK H PARENT 12 6 9 16 17 21 67 40 41 51
REMARK Flexibility Score: inf
ROOT
ATOM      1  C   UNL     1       2.782  -7.297   4.336  1.00  0.00     0.023 C 
ENDROOT
BRANCH   1   2
ATOM      2  C   UNL     1       2.378  -5.827   4.388  1.00  0.00     0.116 C 
BRANCH   2   3
ATOM      3  N   UNL     1       2.926  -5.062   3.279  1.00  0.00    -0.354 N 
ATOM      4  C   UNL     1       2.279  -4.444   2.238  1.00  0.00     0.251 C 
ATOM      5  O   UNL     1       2.984  -3.906   1.379  1.00  0.00    -0.272 OA
ATOM      6  H   UNL     1       3.907  -4.975   3.273  1.00  0.00     0.163 HD
BRANCH   4   7
ATOM      7  C   UNL     1       0.719  -4.391   2.200  1.00  0.00     0.143 C 
ATOM      8  C   UNL     1       0.190  -3.945   0.824  1.00  0.00     0.053 C 
BRANCH   7   9
ATOM      9  C   UNL     1       0.152  -3.553   3.410  1.00  0.00     0.030 C 
ATOM     10  C   UNL     1      -1.242  -4.081   3.811  1.00  0.00     0.011 C 
BRANCH   9  11
ATOM     11  C   UNL     1       0.153  -1.981   3.287  1.00  0.00    -0.008 C 
ATOM     12  C   UNL     1      -0.361  -1.345   4.600  1.00  0.00     0.008 C 
BRANCH  11  13
ATOM     13  C   UNL     1       1.533  -1.351   2.964  1.00  0.00     0.000 C 
ATOM     14  C   UNL     1       1.633  -0.807   1.543  1.00  0.00     0.004 C 
ENDBRANCH  11  13
ENDBRANCH   9  11
ENDBRANCH   7   9
BRANCH   7  15
ATOM     15  O   UNL     1       0.335  -5.785   2.333  1.00  0.00    -0.380 OA
ATOM     16  H   UNL     1       0.688  -6.291   1.585  1.00  0.00     0.212 HD
ENDBRANCH   7  15
ENDBRANCH   4   7
ENDBRANCH   2   3
ENDBRANCH   1   2
BRANCH   1  17
ATOM     17  C   UNL     1       4.268  -7.555   4.572  1.00  0.00     0.023 C 
BRANCH  17  18
ATOM     18  C   UNL     1       4.833  -6.960   5.858  1.00  0.00     0.116 C 
BRANCH  18  19
ATOM     19  N   UNL     1       4.167  -7.448   7.057  1.00  0.00    -0.352 N 
ATOM     20  C   UNL     1       4.718  -7.946   8.212  1.00  0.00     0.251 C 
ATOM     21  H   UNL     1       3.183  -7.416   7.037  1.00  0.00     0.163 HD
ATOM     22  O   UNL     1       4.002  -8.437   9.081  1.00  0.00    -0.269 OA
BRANCH  20  23
ATOM     23  C   UNL     1       6.184  -7.923   8.391  1.00  0.00     0.039 A 
ATOM     24  C   UNL     1       6.830  -9.082   8.827  1.00  0.00     0.014 A 
ATOM     25  C   UNL     1       6.922  -6.772   8.100  1.00  0.00     0.014 A 
ATOM     26  C   UNL     1       8.224  -9.110   8.897  1.00  0.00     0.010 A 
ATOM     27  C   UNL     1       8.312  -6.828   8.091  1.00  0.00     0.010 A 
ATOM     28  C   UNL     1       8.978  -7.997   8.488  1.00  0.00    -0.014 A 
BRANCH  28  29
ATOM     29  C   UNL     1      10.463  -8.041   8.460  1.00  0.00     0.031 A 
ATOM     30  C   UNL     1      11.264  -7.115   9.332  1.00  0.00     0.074 A 
ATOM     31  C   UNL     1      11.090  -8.869   7.601  1.00  0.00     0.049 A 
ATOM     32  N   UNL     1      12.562  -6.957   9.397  1.00  0.00    -0.248 NA
ATOM     33  C   UNL     1      10.506  -6.230  10.230  1.00  0.00     0.031 C 
ATOM     34  C   UNL     1      10.427  -9.780   6.666  1.00  0.00     0.029 A 
ATOM     35  N   UNL     1      12.427  -9.068   7.366  1.00  0.00    -0.354 N 
ATOM     36  C   UNL     1      12.773  -5.952  10.333  1.00  0.00     0.074 A 
ATOM     37  C   UNL     1      11.470  -5.495  10.763  1.00  0.00     0.031 C 
ATOM     38  C   UNL     1      11.359 -10.456   5.975  1.00  0.00     0.029 A 
ATOM     39  C   UNL     1      12.682  -9.998   6.387  1.00  0.00     0.049 A 
ATOM     40  H   UNL     1      13.137  -8.590   7.853  1.00  0.00     0.167 HD
ATOM     41  C   UNL     1      13.946  -5.471  10.810  1.00  0.00     0.037 A 
ATOM     42  C   UNL     1      13.850 -10.426   5.870  1.00  0.00     0.037 A 
ATOM     43  C   UNL     1      15.242  -5.937  10.390  1.00  0.00     0.049 A 
ATOM     44  C   UNL     1      15.139  -9.864   6.404  1.00  0.00     0.074 A 
ATOM     45  C   UNL     1      16.488  -5.548  10.849  1.00  0.00     0.029 A 
ATOM     46  N   UNL     1      15.458  -6.891   9.407  1.00  0.00    -0.354 N 
ATOM     47  N   UNL     1      15.325  -8.963   7.338  1.00  0.00    -0.248 NA
ATOM     48  C   UNL     1      16.382 -10.384   5.816  1.00  0.00     0.031 C 
ATOM     49  C   UNL     1      17.459  -6.231  10.110  1.00  0.00     0.029 A 
ATOM     50  C   UNL     1      16.819  -7.087   9.229  1.00  0.00     0.049 A 
ATOM     51  H   UNL     1      14.750  -7.360   8.908  1.00  0.00     0.167 HD
ATOM     52  C   UNL     1      16.701  -8.829   7.470  1.00  0.00     0.074 A 
ATOM     53  C   UNL     1      17.302  -9.753   6.530  1.00  0.00     0.031 C 
ATOM     54  C   UNL     1      17.404  -8.015   8.294  1.00  0.00     0.037 A 
BRANCH  41  55
ATOM     55  C   UNL     1      13.877  -4.385  11.845  1.00  0.00     0.057 A 
ATOM     56  C   UNL     1      13.406  -4.629  13.142  1.00  0.00     0.134 A 
ATOM     57  C   UNL     1      14.314  -3.087  11.553  1.00  0.00     0.134 A 
ATOM     58  F   UNL     1      12.961  -5.848  13.486  1.00  0.00    -0.206 F 
ATOM     59  C   UNL     1      13.342  -3.616  14.100  1.00  0.00     0.040 A 
ATOM     60  C   UNL     1      14.284  -2.073  12.511  1.00  0.00     0.040 A 
ATOM     61  F   UNL     1      14.784  -2.784  10.333  1.00  0.00    -0.206 F 
ATOM     62  C   UNL     1      13.790  -2.334  13.787  1.00  0.00     0.006 A 
ENDBRANCH  41  55
BRANCH  42  63
ATOM     63  C   UNL     1      13.856 -11.452   4.797  1.00  0.00     0.057 A 
ATOM     64  C   UNL     1      14.330 -12.747   5.036  1.00  0.00     0.134 A 
ATOM     65  C   UNL     1      13.397 -11.163   3.506  1.00  0.00     0.134 A 
ATOM     66  F   UNL     1      14.800 -13.080   6.247  1.00  0.00    -0.206 F 
ATOM     67  C   UNL     1      14.368 -13.711   4.027  1.00  0.00     0.040 A 
ATOM     68  C   UNL     1      13.403 -12.125   2.495  1.00  0.00     0.040 A 
ATOM     69  F   UNL     1      12.923  -9.943   3.213  1.00  0.00    -0.206 F 
ATOM     70  C   UNL     1      13.898 -13.402   2.753  1.00  0.00     0.006 A 
ENDBRANCH  42  63
BRANCH  54  71
ATOM     71  C   UNL     1      18.901  -8.112   8.247  1.00  0.00     0.057 A 
ATOM     72  C   UNL     1      19.642  -7.635   7.158  1.00  0.00     0.134 A 
ATOM     73  C   UNL     1      19.613  -8.655   9.325  1.00  0.00     0.134 A 
ATOM     74  F   UNL     1      19.022  -7.115   6.088  1.00  0.00    -0.206 F 
ATOM     75  C   UNL     1      21.036  -7.718   7.132  1.00  0.00     0.040 A 
ATOM     76  C   UNL     1      21.007  -8.716   9.323  1.00  0.00     0.040 A 
ATOM     77  F   UNL     1      18.966  -9.121  10.403  1.00  0.00    -0.206 F 
ATOM     78  C   UNL     1      21.722  -8.252   8.221  1.00  0.00     0.006 A 
ENDBRANCH  54  71
ENDBRANCH  28  29
ENDBRANCH  20  23
ENDBRANCH  18  19
ENDBRANCH  17  18
ENDBRANCH   1  17
TORSDOF 15
