REMARK SMILES CC1=C(C(=O)NCCCCNC(=O)c2ccc(-c3c4nc(c(-c5c(F)cccc5F)c5ccc([nH]5)c(-c5c(F)cccc5F)c5nc(c(-c6c(F)cccc6F)c6ccc3[nH]6)C=C5)C=C4)cc2)N2C(=O)[C@@H](NC(=O)c3ccn(C)n3)[C@H]2SC1
REMARK SMILES IDX 8 1 7 2 6 3 4 4 5 5 3 7 1 8 2 9 83 10 68 11 82 12 69 13
REMARK SMILES IDX 81 14 70 15 71 16 72 17 73 18 74 20 75 21 76 22 80 23 77 24
REMARK SMILES IDX 78 25 79 26 9 27 10 28 11 29 12 30 13 32 14 33 15 34 67 35
REMARK SMILES IDX 16 36 66 37 17 38 18 39 19 40 60 41 20 42 65 43 59 44 61 45
REMARK SMILES IDX 21 46 64 47 58 48 57 49 22 51 48 52 31 53 47 54 32 55 35 56
REMARK SMILES IDX 46 57 62 58 33 59 34 60 45 62 63 63 36 64 23 65 24 66 29 67
REMARK SMILES IDX 25 68 26 69 28 70 30 71 27 72 49 73 50 74 55 75 51 76 52 77
REMARK SMILES IDX 54 78 56 79 53 80 37 81 38 82 43 83 39 84 40 85 42 86 44 87
REMARK SMILES IDX 41 88
REMARK H PARENT 6 6 72 19 11 31 61 50 35 61
REMARK Flexibility Score: inf
ROOT
ATOM      1  C   UNL     1       3.100  -3.833   2.449  1.00  0.00     0.023 C 
ENDROOT
BRANCH   1   2
ATOM      2  C   UNL     1       2.706  -3.010   1.232  1.00  0.00     0.116 C 
BRANCH   2   3
ATOM      3  N   UNL     1       1.488  -3.398   0.552  1.00  0.00    -0.351 N 
ATOM      4  C   UNL     1       0.662  -2.635  -0.233  1.00  0.00     0.268 C 
ATOM      5  O   UNL     1      -0.201  -3.197  -0.907  1.00  0.00    -0.268 OA
ATOM      6  H   UNL     1       1.216  -4.337   0.669  1.00  0.00     0.163 HD
BRANCH   4   7
ATOM      7  C   UNL     1       0.765  -1.125  -0.243  1.00  0.00     0.110 C 
ATOM      8  C   UNL     1       3.185  -0.941  -0.966  1.00  0.00     0.043 C 
ATOM      9  C   UNL     1       1.890  -0.389  -0.433  1.00  0.00    -0.034 C 
ATOM     10  C   UNL     1       1.971   1.119  -0.182  1.00  0.00     0.104 C 
ATOM     11  N   UNL     1      -0.418  -0.452  -0.231  1.00  0.00    -0.290 N 
ATOM     12  S   UNL     1       0.399   1.939   0.258  1.00  0.00    -0.129 SA
ATOM     13  C   UNL     1      -1.720  -0.631   0.061  1.00  0.00     0.253 C 
ATOM     14  C   UNL     1      -0.542   0.856  -0.835  1.00  0.00     0.181 C 
ATOM     15  O   UNL     1      -2.336  -1.494   0.644  1.00  0.00    -0.272 OA
ATOM     16  C   UNL     1      -2.065   0.698  -0.674  1.00  0.00     0.206 C 
BRANCH  16  17
ATOM     17  N   UNL     1      -2.804   1.761   0.041  1.00  0.00    -0.336 N 
ATOM     18  C   UNL     1      -3.803   2.565  -0.481  1.00  0.00     0.272 C 
ATOM     19  H   UNL     1      -2.560   1.912   0.983  1.00  0.00     0.164 HD
ATOM     20  O   UNL     1      -4.188   3.535   0.170  1.00  0.00    -0.267 OA
BRANCH  18  21
ATOM     21  C   UNL     1      -4.343   2.219  -1.807  1.00  0.00     0.150 A 
ATOM     22  C   UNL     1      -4.873   0.965  -2.229  1.00  0.00     0.056 A 
ATOM     23  N   UNL     1      -4.350   3.099  -2.827  1.00  0.00    -0.168 NA
ATOM     24  C   UNL     1      -5.160   1.116  -3.564  1.00  0.00     0.109 A 
ATOM     25  N   UNL     1      -4.878   2.416  -3.858  1.00  0.00    -0.275 N 
ATOM     26  C   UNL     1      -5.071   3.059  -5.136  1.00  0.00     0.173 C 
ENDBRANCH  18  21
ENDBRANCH  16  17
ENDBRANCH   4   7
ENDBRANCH   2   3
ENDBRANCH   1   2
BRANCH   1  27
ATOM     27  C   UNL     1       3.374  -5.316   2.214  1.00  0.00     0.023 C 
BRANCH  27  28
ATOM     28  C   UNL     1       4.269  -5.666   1.028  1.00  0.00     0.116 C 
BRANCH  28  29
ATOM     29  N   UNL     1       5.623  -5.137   1.129  1.00  0.00    -0.352 N 
ATOM     30  C   UNL     1       6.828  -5.791   1.265  1.00  0.00     0.251 C 
ATOM     31  H   UNL     1       5.687  -4.155   1.094  1.00  0.00     0.163 HD
ATOM     32  O   UNL     1       7.860  -5.147   1.428  1.00  0.00    -0.269 OA
BRANCH  30  33
ATOM     33  C   UNL     1       6.878  -7.269   1.259  1.00  0.00     0.039 A 
ATOM     34  C   UNL     1       7.611  -7.926   2.251  1.00  0.00     0.014 A 
ATOM     35  C   UNL     1       6.183  -8.008   0.301  1.00  0.00     0.014 A 
ATOM     36  C   UNL     1       7.558  -9.320   2.343  1.00  0.00     0.010 A 
ATOM     37  C   UNL     1       6.047  -9.384   0.456  1.00  0.00     0.010 A 
ATOM     38  C   UNL     1       6.729 -10.058   1.481  1.00  0.00    -0.014 A 
BRANCH  38  39
ATOM     39  C   UNL     1       6.556 -11.527   1.640  1.00  0.00     0.031 A 
ATOM     40  C   UNL     1       6.935 -12.460   0.521  1.00  0.00     0.074 A 
ATOM     41  C   UNL     1       5.994 -12.019   2.763  1.00  0.00     0.049 A 
ATOM     42  N   UNL     1       6.795 -13.759   0.444  1.00  0.00    -0.248 NA
ATOM     43  C   UNL     1       7.523 -11.850  -0.682  1.00  0.00     0.031 C 
ATOM     44  C   UNL     1       5.534 -11.221   3.901  1.00  0.00     0.029 A 
ATOM     45  N   UNL     1       5.704 -13.311   3.128  1.00  0.00    -0.354 N 
ATOM     46  C   UNL     1       7.265 -14.116  -0.813  1.00  0.00     0.074 A 
ATOM     47  C   UNL     1       7.633 -12.893  -1.490  1.00  0.00     0.031 C 
ATOM     48  C   UNL     1       5.050 -12.041   4.848  1.00  0.00     0.029 A 
ATOM     49  C   UNL     1       5.119 -13.417   4.368  1.00  0.00     0.049 A 
ATOM     50  H   UNL     1       5.898 -14.089   2.556  1.00  0.00     0.167 HD
ATOM     51  C   UNL     1       7.406 -15.353  -1.347  1.00  0.00     0.037 A 
ATOM     52  C   UNL     1       4.677 -14.499   5.039  1.00  0.00     0.037 A 
ATOM     53  C   UNL     1       7.056 -16.572  -0.666  1.00  0.00     0.049 A 
ATOM     54  C   UNL     1       4.819 -15.860   4.411  1.00  0.00     0.074 A 
ATOM     55  C   UNL     1       7.213 -17.876  -1.101  1.00  0.00     0.029 A 
ATOM     56  N   UNL     1       6.473 -16.636   0.590  1.00  0.00    -0.354 N 
ATOM     57  N   UNL     1       5.337 -16.188   3.252  1.00  0.00    -0.248 NA
ATOM     58  C   UNL     1       4.318 -17.004   5.187  1.00  0.00     0.031 C 
ATOM     59  C   UNL     1       6.669 -18.727  -0.135  1.00  0.00     0.029 A 
ATOM     60  C   UNL     1       6.235 -17.957   0.932  1.00  0.00     0.049 A 
ATOM     61  H   UNL     1       6.259 -15.859   1.155  1.00  0.00     0.167 HD
ATOM     62  C   UNL     1       5.255 -17.573   3.175  1.00  0.00     0.074 A 
ATOM     63  C   UNL     1       4.653 -18.025   4.412  1.00  0.00     0.031 C 
ATOM     64  C   UNL     1       5.645 -18.396   2.172  1.00  0.00     0.037 A 
BRANCH  51  65
ATOM     65  C   UNL     1       7.967 -15.450  -2.738  1.00  0.00     0.057 A 
ATOM     66  C   UNL     1       9.301 -15.128  -3.023  1.00  0.00     0.134 A 
ATOM     67  C   UNL     1       7.175 -15.910  -3.798  1.00  0.00     0.134 A 
ATOM     68  F   UNL     1      10.112 -14.671  -2.057  1.00  0.00    -0.206 F 
ATOM     69  C   UNL     1       9.818 -15.231  -4.316  1.00  0.00     0.040 A 
ATOM     70  C   UNL     1       7.689 -16.048  -5.088  1.00  0.00     0.040 A 
ATOM     71  F   UNL     1       5.891 -16.243  -3.596  1.00  0.00    -0.206 F 
ATOM     72  C   UNL     1       9.013 -15.701  -5.351  1.00  0.00     0.006 A 
ENDBRANCH  51  65
BRANCH  52  73
ATOM     73  C   UNL     1       4.068 -14.350   6.387  1.00  0.00     0.057 A 
ATOM     74  C   UNL     1       4.700 -14.861   7.528  1.00  0.00     0.134 A 
ATOM     75  C   UNL     1       2.830 -13.721   6.567  1.00  0.00     0.134 A 
ATOM     76  F   UNL     1       5.879 -15.492   7.421  1.00  0.00    -0.206 F 
ATOM     77  C   UNL     1       4.111 -14.778   8.791  1.00  0.00     0.040 A 
ATOM     78  C   UNL     1       2.244 -13.604   7.828  1.00  0.00     0.040 A 
ATOM     79  F   UNL     1       2.175 -13.203   5.518  1.00  0.00    -0.206 F 
ATOM     80  C   UNL     1       2.880 -14.144   8.944  1.00  0.00     0.006 A 
ENDBRANCH  52  73
BRANCH  64  81
ATOM     81  C   UNL     1       5.476 -19.874   2.382  1.00  0.00     0.057 A 
ATOM     82  C   UNL     1       4.216 -20.485   2.398  1.00  0.00     0.134 A 
ATOM     83  C   UNL     1       6.597 -20.703   2.523  1.00  0.00     0.134 A 
ATOM     84  F   UNL     1       3.101 -19.748   2.280  1.00  0.00    -0.206 F 
ATOM     85  C   UNL     1       4.076 -21.863   2.571  1.00  0.00     0.040 A 
ATOM     86  C   UNL     1       6.471 -22.086   2.663  1.00  0.00     0.040 A 
ATOM     87  F   UNL     1       7.835 -20.186   2.505  1.00  0.00    -0.206 F 
ATOM     88  C   UNL     1       5.207 -22.669   2.694  1.00  0.00     0.006 A 
ENDBRANCH  64  81
ENDBRANCH  38  39
ENDBRANCH  30  33
ENDBRANCH  28  29
ENDBRANCH  27  28
ENDBRANCH   1  27
TORSDOF 13
