REMARK SMILES O=C(NCCCCNC(=O)c1cccc(CS(=O)(=O)NCc2ccccc2)c1)c1ccc(-c2c3nc(c(-c4c(F)cccc4F)c4ccc([nH]4)c(-c4c(F)cccc4F)c4nc(c(-c5c(F)cccc5F)c5ccc2[nH]5)C=C4)C=C3)cc1
REMARK SMILES IDX 7 1 6 2 5 3 4 4 3 5 1 6 2 7 29 9 30 10 82 11 31 12 81 13
REMARK SMILES IDX 32 14 33 15 34 16 75 17 35 18 80 19 74 20 76 21 36 22 79 23
REMARK SMILES IDX 73 24 72 25 37 27 63 28 46 29 62 30 47 31 50 32 61 33 77 34
REMARK SMILES IDX 48 35 49 36 60 38 78 39 51 40 38 41 39 42 44 43 40 44 41 45
REMARK SMILES IDX 43 46 45 47 42 48 64 49 65 50 70 51 66 52 67 53 69 54 71 55
REMARK SMILES IDX 68 56 52 57 53 58 58 59 54 60 55 61 57 62 59 63 56 64 8 65
REMARK SMILES IDX 9 66 10 68 11 69 12 70 28 71 13 72 15 73 14 74 16 75 17 76
REMARK SMILES IDX 18 77 19 78 20 79 21 81 22 82 23 83 27 84 24 85 26 86 25 87
REMARK H PARENT 3 8 76 26 50 37 8 67 20 80
REMARK Flexibility Score: inf
ROOT
ATOM      1  C   UNL     1       4.778  -3.075  -2.960  1.00  0.00     0.116 C 
ENDROOT
BRANCH   1   2
ATOM      2  C   UNL     1       4.367  -3.536  -1.570  1.00  0.00     0.023 C 
BRANCH   2   3
ATOM      3  C   UNL     1       4.833  -2.634  -0.436  1.00  0.00     0.023 C 
BRANCH   3   4
ATOM      4  C   UNL     1       4.532  -1.154  -0.625  1.00  0.00     0.116 C 
BRANCH   4   5
ATOM      5  N   UNL     1       3.110  -0.862  -0.755  1.00  0.00    -0.352 N 
ATOM      6  O   UNL     1       1.122   0.063  -0.206  1.00  0.00    -0.269 OA
ATOM      7  C   UNL     1       2.335   0.018  -0.036  1.00  0.00     0.251 C 
ATOM      8  H   UNL     1       2.637  -1.367  -1.456  1.00  0.00     0.163 HD
BRANCH   7   9
ATOM      9  C   UNL     1       2.976   0.879   0.980  1.00  0.00     0.039 A 
ATOM     10  C   UNL     1       4.150   1.569   0.678  1.00  0.00     0.014 A 
ATOM     11  C   UNL     1       2.432   0.938   2.265  1.00  0.00     0.014 A 
ATOM     12  C   UNL     1       4.883   2.150   1.704  1.00  0.00     0.010 A 
ATOM     13  C   UNL     1       3.122   1.612   3.276  1.00  0.00     0.010 A 
ATOM     14  C   UNL     1       4.381   2.175   3.017  1.00  0.00    -0.014 A 
BRANCH  14  15
ATOM     15  C   UNL     1       5.197   2.804   4.087  1.00  0.00     0.031 A 
ATOM     16  C   UNL     1       5.736   1.994   5.235  1.00  0.00     0.074 A 
ATOM     17  C   UNL     1       5.506   4.110   3.980  1.00  0.00     0.049 A 
ATOM     18  N   UNL     1       6.516   2.376   6.216  1.00  0.00    -0.248 NA
ATOM     19  C   UNL     1       5.346   0.577   5.301  1.00  0.00     0.031 C 
ATOM     20  C   UNL     1       5.034   5.002   2.918  1.00  0.00     0.029 A 
ATOM     21  N   UNL     1       6.313   4.907   4.749  1.00  0.00    -0.354 N 
ATOM     22  C   UNL     1       6.684   1.261   7.029  1.00  0.00     0.074 A 
ATOM     23  C   UNL     1       5.911   0.190   6.437  1.00  0.00     0.031 C 
ATOM     24  C   UNL     1       5.614   6.202   3.062  1.00  0.00     0.029 A 
ATOM     25  C   UNL     1       6.450   6.182   4.258  1.00  0.00     0.049 A 
ATOM     26  H   UNL     1       6.753   4.595   5.573  1.00  0.00     0.167 HD
ATOM     27  C   UNL     1       7.418   1.141   8.161  1.00  0.00     0.037 A 
ATOM     28  C   UNL     1       7.167   7.223   4.717  1.00  0.00     0.037 A 
ATOM     29  C   UNL     1       8.218   2.197   8.728  1.00  0.00     0.049 A 
ATOM     30  C   UNL     1       7.985   7.056   5.962  1.00  0.00     0.074 A 
ATOM     31  C   UNL     1       9.031   2.157   9.848  1.00  0.00     0.029 A 
ATOM     32  N   UNL     1       8.308   3.482   8.216  1.00  0.00    -0.354 N 
ATOM     33  N   UNL     1       8.151   5.988   6.703  1.00  0.00    -0.248 NA
ATOM     34  C   UNL     1       8.710   8.241   6.438  1.00  0.00     0.031 C 
ATOM     35  C   UNL     1       9.588   3.428  10.032  1.00  0.00     0.029 A 
ATOM     36  C   UNL     1       9.150   4.248   9.005  1.00  0.00     0.049 A 
ATOM     37  H   UNL     1       7.842   3.803   7.410  1.00  0.00     0.167 HD
ATOM     38  C   UNL     1       9.010   6.366   7.724  1.00  0.00     0.074 A 
ATOM     39  C   UNL     1       9.346   7.757   7.495  1.00  0.00     0.031 C 
ATOM     40  C   UNL     1       9.475   5.629   8.761  1.00  0.00     0.037 A 
BRANCH  27  41
ATOM     41  C   UNL     1       7.382  -0.177   8.877  1.00  0.00     0.057 A 
ATOM     42  C   UNL     1       8.054  -1.306   8.392  1.00  0.00     0.134 A 
ATOM     43  C   UNL     1       6.701  -0.305  10.095  1.00  0.00     0.134 A 
ATOM     44  F   UNL     1       8.715  -1.253   7.225  1.00  0.00    -0.206 F 
ATOM     45  C   UNL     1       8.036  -2.519   9.083  1.00  0.00     0.040 A 
ATOM     46  C   UNL     1       6.693  -1.507  10.805  1.00  0.00     0.040 A 
ATOM     47  F   UNL     1       6.041   0.739  10.619  1.00  0.00    -0.206 F 
ATOM     48  C   UNL     1       7.359  -2.620  10.297  1.00  0.00     0.006 A 
ENDBRANCH  27  41
BRANCH  28  49
ATOM     49  C   UNL     1       7.152   8.508   3.978  1.00  0.00     0.057 A 
ATOM     50  C   UNL     1       8.275   8.945   3.268  1.00  0.00     0.134 A 
ATOM     51  C   UNL     1       6.011   9.318   3.948  1.00  0.00     0.134 A 
ATOM     52  F   UNL     1       9.402   8.217   3.273  1.00  0.00    -0.206 F 
ATOM     53  C   UNL     1       8.269  10.148   2.562  1.00  0.00     0.040 A 
ATOM     54  C   UNL     1       5.982  10.511   3.227  1.00  0.00     0.040 A 
ATOM     55  F   UNL     1       4.900   8.947   4.602  1.00  0.00    -0.206 F 
ATOM     56  C   UNL     1       7.116  10.931   2.535  1.00  0.00     0.006 A 
ENDBRANCH  28  49
BRANCH  40  57
ATOM     57  C   UNL     1      10.417   6.311   9.707  1.00  0.00     0.057 A 
ATOM     58  C   UNL     1       9.968   7.256  10.638  1.00  0.00     0.134 A 
ATOM     59  C   UNL     1      11.784   6.011   9.692  1.00  0.00     0.134 A 
ATOM     60  F   UNL     1       8.672   7.597  10.690  1.00  0.00    -0.206 F 
ATOM     61  C   UNL     1      10.852   7.897  11.507  1.00  0.00     0.040 A 
ATOM     62  C   UNL     1      12.674   6.630  10.570  1.00  0.00     0.040 A 
ATOM     63  F   UNL     1      12.275   5.112   8.826  1.00  0.00    -0.206 F 
ATOM     64  C   UNL     1      12.210   7.581  11.476  1.00  0.00     0.006 A 
ENDBRANCH  40  57
ENDBRANCH  14  15
ENDBRANCH   7   9
ENDBRANCH   4   5
ENDBRANCH   3   4
ENDBRANCH   2   3
ENDBRANCH   1   2
BRANCH   1  65
ATOM     65  N   UNL     1       6.222  -3.041  -3.147  1.00  0.00    -0.352 N 
ATOM     66  C   UNL     1       6.956  -3.658  -4.138  1.00  0.00     0.251 C 
ATOM     67  H   UNL     1       6.733  -2.516  -2.490  1.00  0.00     0.163 HD
ATOM     68  O   UNL     1       8.170  -3.619  -4.166  1.00  0.00    -0.269 OA
BRANCH  66  69
ATOM     69  C   UNL     1       6.197  -4.385  -5.172  1.00  0.00     0.040 A 
ATOM     70  C   UNL     1       6.278  -5.773  -5.228  1.00  0.00     0.014 A 
ATOM     71  C   UNL     1       5.295  -3.677  -5.973  1.00  0.00     0.018 A 
ATOM     72  C   UNL     1       5.379  -6.464  -6.036  1.00  0.00     0.001 A 
ATOM     73  C   UNL     1       4.385  -4.364  -6.784  1.00  0.00    -0.031 A 
ATOM     74  C   UNL     1       4.415  -5.767  -6.778  1.00  0.00     0.005 A 
BRANCH  73  75
ATOM     75  C   UNL     1       3.372  -3.577  -7.565  1.00  0.00     0.189 C 
BRANCH  75  76
ATOM     76  S   UNL     1       3.603  -3.622  -9.349  1.00  0.00     0.216 S 
ATOM     77  O   UNL     1       3.172  -4.910  -9.842  1.00  0.00    -0.212 OA
ATOM     78  O   UNL     1       2.951  -2.434  -9.869  1.00  0.00    -0.212 OA
BRANCH  76  79
ATOM     79  N   UNL     1       5.192  -3.384  -9.728  1.00  0.00    -0.211 NA
ATOM     80  H   UNL     1       5.375  -2.422  -9.442  1.00  0.00     0.141 HD
BRANCH  79  81
ATOM     81  C   UNL     1       6.379  -4.116  -9.297  1.00  0.00     0.134 C 
BRANCH  81  82
ATOM     82  C   UNL     1       6.684  -5.503  -9.810  1.00  0.00    -0.033 A 
ATOM     83  C   UNL     1       5.758  -6.549  -9.809  1.00  0.00     0.005 A 
ATOM     84  C   UNL     1       8.014  -5.826 -10.137  1.00  0.00     0.005 A 
ATOM     85  C   UNL     1       6.121  -7.859 -10.131  1.00  0.00     0.000 A 
ATOM     86  C   UNL     1       8.386  -7.136 -10.458  1.00  0.00     0.000 A 
ATOM     87  C   UNL     1       7.438  -8.153 -10.453  1.00  0.00     0.000 A 
ENDBRANCH  81  82
ENDBRANCH  79  81
ENDBRANCH  76  79
ENDBRANCH  75  76
ENDBRANCH  73  75
ENDBRANCH  66  69
ENDBRANCH   1  65
TORSDOF 16
