REMARK SMILES O=C(NCCCCNC(=O)c1ccc(-n2cc(CSc3nc4ccccc4c(=O)n3-c3ccccc3)nn2)cc1)c1ccc(-c2c3nc(c(-c4c(F)cccc4F)c4ccc([nH]4)c(-c4c(F)cccc4F)c4nc(c(-c5c(F)cccc5F)c5ccc2[nH]5)C=C4)C=C3)cc1
REMARK SMILES IDX 7 1 6 2 5 3 4 4 3 5 1 6 2 7 41 9 42 10 94 11 43 12 93 13
REMARK SMILES IDX 44 14 45 15 46 16 87 17 47 18 92 19 86 20 88 21 48 22 91 23
REMARK SMILES IDX 85 24 84 25 49 27 75 28 58 29 74 30 59 31 62 32 73 33 89 34
REMARK SMILES IDX 60 35 61 36 72 38 90 39 63 40 50 41 51 42 56 43 52 44 53 45
REMARK SMILES IDX 55 46 57 47 54 48 76 49 77 50 82 51 78 52 79 53 81 54 83 55
REMARK SMILES IDX 80 56 64 57 65 58 70 59 66 60 67 61 69 62 71 63 68 64 8 65
REMARK SMILES IDX 9 66 10 68 11 69 12 70 40 71 13 72 39 73 14 74 15 75 16 76
REMARK SMILES IDX 38 77 17 78 37 79 18 80 19 81 20 82 21 83 30 84 22 85 28 86
REMARK SMILES IDX 23 87 27 88 29 89 24 90 26 91 25 92 31 93 32 94 36 95 33 96
REMARK SMILES IDX 35 97 34 98
REMARK H PARENT 3 8 88 26 62 37 8 67
REMARK Flexibility Score: inf
ROOT
ATOM      1  C   UNL     1       4.792   3.425  -2.284  1.00  0.00     0.116 C 
ENDROOT
BRANCH   1   2
ATOM      2  C   UNL     1       4.466   2.026  -2.792  1.00  0.00     0.023 C 
BRANCH   2   3
ATOM      3  C   UNL     1       4.984   0.870  -1.937  1.00  0.00     0.023 C 
BRANCH   3   4
ATOM      4  C   UNL     1       4.678   0.962  -0.440  1.00  0.00     0.116 C 
BRANCH   4   5
ATOM      5  N   UNL     1       3.278   1.151  -0.118  1.00  0.00    -0.352 N 
ATOM      6  O   UNL     1       1.177   0.844   0.484  1.00  0.00    -0.269 OA
ATOM      7  C   UNL     1       2.205   0.319   0.048  1.00  0.00     0.251 C 
ATOM      8  H   UNL     1       3.045   2.099   0.011  1.00  0.00     0.163 HD
BRANCH   7   9
ATOM      9  C   UNL     1       2.177  -1.130  -0.295  1.00  0.00     0.039 A 
ATOM     10  C   UNL     1       3.262  -1.880  -0.747  1.00  0.00     0.014 A 
ATOM     11  C   UNL     1       0.926  -1.769  -0.186  1.00  0.00     0.014 A 
ATOM     12  C   UNL     1       3.094  -3.199  -1.159  1.00  0.00     0.010 A 
ATOM     13  C   UNL     1       0.756  -3.097  -0.572  1.00  0.00     0.010 A 
ATOM     14  C   UNL     1       1.838  -3.801  -1.094  1.00  0.00    -0.014 A 
BRANCH  14  15
ATOM     15  C   UNL     1       1.734  -5.197  -1.513  1.00  0.00     0.031 A 
ATOM     16  C   UNL     1       2.466  -6.201  -0.683  1.00  0.00     0.074 A 
ATOM     17  C   UNL     1       0.913  -5.611  -2.498  1.00  0.00     0.049 A 
ATOM     18  N   UNL     1       3.325  -7.097  -1.058  1.00  0.00    -0.248 NA
ATOM     19  C   UNL     1       2.224  -6.177   0.767  1.00  0.00     0.031 C 
ATOM     20  C   UNL     1      -0.112  -4.838  -3.202  1.00  0.00     0.029 A 
ATOM     21  N   UNL     1       0.758  -6.870  -3.001  1.00  0.00    -0.354 N 
ATOM     22  C   UNL     1       3.615  -7.856   0.077  1.00  0.00     0.074 A 
ATOM     23  C   UNL     1       2.981  -7.191   1.186  1.00  0.00     0.031 C 
ATOM     24  C   UNL     1      -0.919  -5.687  -3.876  1.00  0.00     0.029 A 
ATOM     25  C   UNL     1      -0.392  -7.036  -3.754  1.00  0.00     0.049 A 
ATOM     26  H   UNL     1       1.406  -7.594  -2.843  1.00  0.00     0.167 HD
ATOM     27  C   UNL     1       4.219  -9.075   0.012  1.00  0.00     0.037 A 
ATOM     28  C   UNL     1      -0.917  -8.208  -4.184  1.00  0.00     0.037 A 
ATOM     29  C   UNL     1       4.935  -9.259  -1.219  1.00  0.00     0.049 A 
ATOM     30  C   UNL     1       0.141  -9.243  -4.128  1.00  0.00     0.074 A 
ATOM     31  C   UNL     1       5.983  -8.615  -1.848  1.00  0.00     0.029 A 
ATOM     32  N   UNL     1       4.418 -10.110  -2.161  1.00  0.00    -0.354 N 
ATOM     33  N   UNL     1       1.174  -9.293  -4.920  1.00  0.00    -0.248 NA
ATOM     34  C   UNL     1       0.241 -10.050  -2.921  1.00  0.00     0.031 C 
ATOM     35  C   UNL     1       5.716  -8.743  -3.242  1.00  0.00     0.029 A 
ATOM     36  C   UNL     1       4.529  -9.467  -3.365  1.00  0.00     0.049 A 
ATOM     37  H   UNL     1       4.041 -11.006  -2.004  1.00  0.00     0.167 HD
ATOM     38  C   UNL     1       2.199  -9.798  -4.135  1.00  0.00     0.074 A 
ATOM     39  C   UNL     1       1.540 -10.352  -2.958  1.00  0.00     0.031 C 
ATOM     40  C   UNL     1       3.503  -9.478  -4.379  1.00  0.00     0.037 A 
BRANCH  27  41
ATOM     41  C   UNL     1       3.915 -10.228   0.941  1.00  0.00     0.057 A 
ATOM     42  C   UNL     1       4.708 -11.392   0.892  1.00  0.00     0.134 A 
ATOM     43  C   UNL     1       2.711 -10.357   1.660  1.00  0.00     0.134 A 
ATOM     44  F   UNL     1       5.871 -11.407   0.224  1.00  0.00    -0.206 F 
ATOM     45  C   UNL     1       4.296 -12.608   1.452  1.00  0.00     0.040 A 
ATOM     46  C   UNL     1       2.315 -11.553   2.268  1.00  0.00     0.040 A 
ATOM     47  F   UNL     1       1.812  -9.367   1.731  1.00  0.00    -0.206 F 
ATOM     48  C   UNL     1       3.091 -12.693   2.137  1.00  0.00     0.006 A 
ENDBRANCH  27  41
BRANCH  28  49
ATOM     49  C   UNL     1      -2.342  -8.545  -4.382  1.00  0.00     0.057 A 
ATOM     50  C   UNL     1      -2.732  -9.629  -5.178  1.00  0.00     0.134 A 
ATOM     51  C   UNL     1      -3.349  -7.962  -3.592  1.00  0.00     0.134 A 
ATOM     52  F   UNL     1      -1.833 -10.283  -5.928  1.00  0.00    -0.206 F 
ATOM     53  C   UNL     1      -4.048 -10.110  -5.184  1.00  0.00     0.040 A 
ATOM     54  C   UNL     1      -4.668  -8.424  -3.597  1.00  0.00     0.040 A 
ATOM     55  F   UNL     1      -3.067  -6.979  -2.724  1.00  0.00    -0.206 F 
ATOM     56  C   UNL     1      -5.019  -9.510  -4.387  1.00  0.00     0.006 A 
ENDBRANCH  28  49
BRANCH  40  57
ATOM     57  C   UNL     1       3.832  -8.798  -5.675  1.00  0.00     0.057 A 
ATOM     58  C   UNL     1       3.370  -7.518  -6.015  1.00  0.00     0.134 A 
ATOM     59  C   UNL     1       4.775  -9.381  -6.529  1.00  0.00     0.134 A 
ATOM     60  F   UNL     1       2.550  -6.840  -5.201  1.00  0.00    -0.206 F 
ATOM     61  C   UNL     1       3.791  -6.869  -7.178  1.00  0.00     0.040 A 
ATOM     62  C   UNL     1       5.229  -8.729  -7.678  1.00  0.00     0.040 A 
ATOM     63  F   UNL     1       5.310 -10.576  -6.232  1.00  0.00    -0.206 F 
ATOM     64  C   UNL     1       4.729  -7.472  -8.011  1.00  0.00     0.006 A 
ENDBRANCH  40  57
ENDBRANCH  14  15
ENDBRANCH   7   9
ENDBRANCH   4   5
ENDBRANCH   3   4
ENDBRANCH   2   3
ENDBRANCH   1   2
BRANCH   1  65
ATOM     65  N   UNL     1       6.221   3.694  -2.211  1.00  0.00    -0.352 N 
ATOM     66  C   UNL     1       6.974   4.644  -2.857  1.00  0.00     0.251 C 
ATOM     67  H   UNL     1       6.725   3.103  -1.605  1.00  0.00     0.163 HD
ATOM     68  O   UNL     1       8.197   4.650  -2.728  1.00  0.00    -0.269 OA
BRANCH  66  69
ATOM     69  C   UNL     1       6.326   5.635  -3.744  1.00  0.00     0.039 A 
ATOM     70  C   UNL     1       6.842   5.824  -5.035  1.00  0.00     0.016 A 
ATOM     71  C   UNL     1       5.204   6.354  -3.321  1.00  0.00     0.016 A 
ATOM     72  C   UNL     1       6.177   6.656  -5.942  1.00  0.00     0.029 A 
ATOM     73  C   UNL     1       4.495   7.121  -4.239  1.00  0.00     0.029 A 
ATOM     74  C   UNL     1       4.977   7.251  -5.548  1.00  0.00     0.066 A 
BRANCH  74  75
ATOM     75  N   UNL     1       4.191   7.949  -6.479  1.00  0.00    -0.220 N 
ATOM     76  C   UNL     1       4.443   9.196  -7.012  1.00  0.00     0.141 A 
ATOM     77  N   UNL     1       2.905   7.609  -6.684  1.00  0.00    -0.062 NA
ATOM     78  C   UNL     1       3.209   9.662  -7.409  1.00  0.00     0.093 A 
ATOM     79  N   UNL     1       2.314   8.615  -7.300  1.00  0.00    -0.134 NA
BRANCH  78  80
ATOM     80  C   UNL     1       2.584  10.973  -7.708  1.00  0.00     0.138 C 
BRANCH  80  81
ATOM     81  S   UNL     1       3.323  12.509  -8.190  1.00  0.00    -0.081 SA
BRANCH  81  82
ATOM     82  C   UNL     1       5.039  12.595  -7.980  1.00  0.00     0.176 A 
ATOM     83  N   UNL     1       5.589  13.166  -9.011  1.00  0.00    -0.223 NA
ATOM     84  N   UNL     1       5.776  12.162  -6.883  1.00  0.00    -0.255 N 
ATOM     85  C   UNL     1       6.975  13.289  -9.064  1.00  0.00     0.079 A 
ATOM     86  C   UNL     1       7.079  11.744  -7.207  1.00  0.00     0.266 A 
ATOM     87  C   UNL     1       7.583  14.131  -9.995  1.00  0.00     0.029 A 
ATOM     88  C   UNL     1       7.772  12.499  -8.256  1.00  0.00     0.066 A 
ATOM     89  O   UNL     1       7.665  10.764  -6.749  1.00  0.00    -0.268 OA
ATOM     90  C   UNL     1       8.974  14.132 -10.139  1.00  0.00     0.002 A 
ATOM     91  C   UNL     1       9.159  12.450  -8.419  1.00  0.00     0.016 A 
ATOM     92  C   UNL     1       9.760  13.271  -9.371  1.00  0.00     0.001 A 
BRANCH  84  93
ATOM     93  C   UNL     1       5.318  11.994  -5.507  1.00  0.00     0.051 A 
ATOM     94  C   UNL     1       6.212  11.558  -4.506  1.00  0.00     0.027 A 
ATOM     95  C   UNL     1       4.021  12.273  -5.059  1.00  0.00     0.027 A 
ATOM     96  C   UNL     1       5.798  11.235  -3.208  1.00  0.00     0.002 A 
ATOM     97  C   UNL     1       3.583  11.914  -3.774  1.00  0.00     0.002 A 
ATOM     98  C   UNL     1       4.467  11.367  -2.857  1.00  0.00     0.000 A 
ENDBRANCH  84  93
ENDBRANCH  81  82
ENDBRANCH  80  81
ENDBRANCH  78  80
ENDBRANCH  74  75
ENDBRANCH  66  69
ENDBRANCH   1  65
TORSDOF 16
