REMARK SMILES N#C/C(=C\c1ccc(-c2ccc(C(=O)NCCCCNC(=O)c3ccc(-c4c5nc(c(-c6c(F)cccc6F)c6ccc([nH]6)c(-c6c(F)cccc6F)c6nc(c(-c7c(F)cccc7F)c7ccc4[nH]7)C=C6)C=C5)cc3)cc2)o1)[C@@H]1N=c2cc(Br)cnc2=N1
REMARK SMILES IDX 17 1 16 2 15 3 13 4 14 5 12 7 9 8 10 9 78 10 11 11 77 12
REMARK SMILES IDX 8 13 5 14 6 15 79 16 7 17 4 18 3 19 2 20 1 21 80 22 81 23
REMARK SMILES IDX 89 24 82 25 88 26 83 27 87 28 84 29 86 30 85 31 18 32 19 33
REMARK SMILES IDX 20 34 21 35 22 37 23 38 24 39 76 40 25 41 75 42 26 43 27 44
REMARK SMILES IDX 28 45 69 46 29 47 74 48 68 49 70 50 30 51 73 52 67 53 66 54
REMARK SMILES IDX 31 56 57 57 40 58 56 59 41 60 44 61 55 62 71 63 42 64 43 65
REMARK SMILES IDX 54 67 72 68 45 69 32 70 33 71 38 72 34 73 35 74 37 75 39 76
REMARK SMILES IDX 36 77 58 78 59 79 64 80 60 81 61 82 63 83 65 84 62 85 46 86
REMARK SMILES IDX 47 87 52 88 48 89 49 90 51 91 53 92 50 93
REMARK H PARENT 15 6 20 36 70 55 44 66
REMARK Flexibility Score: inf
ROOT
ATOM      1  C   UNL     1      17.046  -1.553   3.117  1.00  0.00     0.023 C 
ENDROOT
BRANCH   1   2
ATOM      2  C   UNL     1      16.870  -0.225   2.374  1.00  0.00     0.116 C 
BRANCH   2   3
ATOM      3  N   UNL     1      16.925  -0.423   0.938  1.00  0.00    -0.352 N 
ATOM      4  C   UNL     1      15.928  -0.551   0.001  1.00  0.00     0.251 C 
ATOM      5  O   UNL     1      16.252  -0.645  -1.182  1.00  0.00    -0.269 OA
ATOM      6  H   UNL     1      17.837  -0.473   0.570  1.00  0.00     0.163 HD
BRANCH   4   7
ATOM      7  C   UNL     1      14.485  -0.525   0.361  1.00  0.00     0.039 A 
ATOM      8  C   UNL     1      11.761  -0.287   0.987  1.00  0.00     0.017 A 
ATOM      9  C   UNL     1      12.226   0.134  -0.260  1.00  0.00     0.013 A 
ATOM     10  C   UNL     1      12.640  -0.887   1.887  1.00  0.00     0.013 A 
ATOM     11  C   UNL     1      13.586   0.021  -0.568  1.00  0.00     0.014 A 
ATOM     12  C   UNL     1      13.983  -1.034   1.559  1.00  0.00     0.014 A 
BRANCH   8  13
ATOM     13  C   UNL     1      10.399  -0.079   1.409  1.00  0.00     0.134 A 
ATOM     14  C   UNL     1       8.255  -0.599   1.445  1.00  0.00     0.128 A 
ATOM     15  C   UNL     1       8.483   0.369   2.421  1.00  0.00     0.051 A 
ATOM     16  O   UNL     1       9.462  -0.885   0.852  1.00  0.00    -0.457 OA
ATOM     17  C   UNL     1       9.844   0.723   2.374  1.00  0.00     0.051 A 
BRANCH  14  18
ATOM     18  C   UNL     1       7.043  -1.247   1.078  1.00  0.00     0.066 C 
ATOM     19  C   UNL     1       5.895  -0.566   0.866  1.00  0.00     0.080 C 
BRANCH  19  20
ATOM     20  C   UNL     1       5.966   0.952   0.887  1.00  0.00     0.099 C 
ATOM     21  N   UNL     1       6.024   2.212   0.905  1.00  0.00    -0.193 NA
ENDBRANCH  19  20
BRANCH  19  22
ATOM     22  C   UNL     1       4.571  -1.234   0.609  1.00  0.00     0.265 C 
ATOM     23  N   UNL     1       4.043  -1.730   1.918  1.00  0.00    -0.249 NA
ATOM     24  N   UNL     1       4.731  -2.369  -0.340  1.00  0.00    -0.232 NA
ATOM     25  C   UNL     1       3.980  -3.000   1.729  1.00  0.00     0.106 A 
ATOM     26  C   UNL     1       4.380  -3.391   0.360  1.00  0.00     0.175 A 
ATOM     27  C   UNL     1       3.616  -4.067   2.659  1.00  0.00     0.049 A 
ATOM     28  N   UNL     1       4.416  -4.671  -0.103  1.00  0.00    -0.234 NA
ATOM     29  C   UNL     1       3.686  -5.324   2.200  1.00  0.00     0.038 A 
ATOM     30  C   UNL     1       4.092  -5.567   0.777  1.00  0.00     0.129 A 
ATOM     31  Br  UNL     1       3.305  -6.807   3.255  1.00  0.00    -0.049 Br
ENDBRANCH  19  22
ENDBRANCH  14  18
ENDBRANCH   8  13
ENDBRANCH   4   7
ENDBRANCH   2   3
ENDBRANCH   1   2
BRANCH   1  32
ATOM     32  C   UNL     1      18.488  -2.054   3.184  1.00  0.00     0.023 C 
BRANCH  32  33
ATOM     33  C   UNL     1      19.432  -1.165   3.977  1.00  0.00     0.116 C 
BRANCH  33  34
ATOM     34  N   UNL     1      19.024  -0.983   5.362  1.00  0.00    -0.352 N 
ATOM     35  C   UNL     1      19.822  -0.794   6.465  1.00  0.00     0.251 C 
ATOM     36  H   UNL     1      18.054  -0.997   5.530  1.00  0.00     0.163 HD
ATOM     37  O   UNL     1      19.337  -0.759   7.588  1.00  0.00    -0.269 OA
BRANCH  35  38
ATOM     38  C   UNL     1      21.282  -0.680   6.278  1.00  0.00     0.039 A 
ATOM     39  C   UNL     1      22.123  -1.482   7.054  1.00  0.00     0.014 A 
ATOM     40  C   UNL     1      21.813   0.179   5.312  1.00  0.00     0.014 A 
ATOM     41  C   UNL     1      23.497  -1.468   6.815  1.00  0.00     0.010 A 
ATOM     42  C   UNL     1      23.173   0.139   5.028  1.00  0.00     0.010 A 
ATOM     43  C   UNL     1      24.027  -0.684   5.777  1.00  0.00    -0.014 A 
BRANCH  43  44
ATOM     44  C   UNL     1      25.475  -0.705   5.462  1.00  0.00     0.031 A 
ATOM     45  C   UNL     1      26.302   0.535   5.652  1.00  0.00     0.074 A 
ATOM     46  C   UNL     1      26.028  -1.816   4.940  1.00  0.00     0.049 A 
ATOM     47  N   UNL     1      27.562   0.741   5.365  1.00  0.00    -0.248 NA
ATOM     48  C   UNL     1      25.613   1.710   6.211  1.00  0.00     0.031 C 
ATOM     49  C   UNL     1      25.318  -3.065   4.659  1.00  0.00     0.029 A 
ATOM     50  N   UNL     1      27.316  -2.068   4.539  1.00  0.00    -0.354 N 
ATOM     51  C   UNL     1      27.810   2.068   5.691  1.00  0.00     0.074 A 
ATOM     52  C   UNL     1      26.560   2.633   6.150  1.00  0.00     0.031 C 
ATOM     53  C   UNL     1      26.183  -3.957   4.150  1.00  0.00     0.029 A 
ATOM     54  C   UNL     1      27.498  -3.335   4.039  1.00  0.00     0.049 A 
ATOM     55  H   UNL     1      28.040  -1.405   4.604  1.00  0.00     0.167 HD
ATOM     56  C   UNL     1      28.980   2.747   5.634  1.00  0.00     0.037 A 
ATOM     57  C   UNL     1      28.602  -3.924   3.543  1.00  0.00     0.037 A 
ATOM     58  C   UNL     1      30.228   2.173   5.207  1.00  0.00     0.049 A 
ATOM     59  C   UNL     1      29.892  -3.153   3.504  1.00  0.00     0.074 A 
ATOM     60  C   UNL     1      31.481   2.759   5.176  1.00  0.00     0.029 A 
ATOM     61  N   UNL     1      30.379   0.876   4.738  1.00  0.00    -0.354 N 
ATOM     62  N   UNL     1      30.129  -1.919   3.881  1.00  0.00    -0.248 NA
ATOM     63  C   UNL     1      31.070  -3.858   2.979  1.00  0.00     0.031 C 
ATOM     64  C   UNL     1      32.386   1.828   4.654  1.00  0.00     0.029 A 
ATOM     65  C   UNL     1      31.703   0.649   4.400  1.00  0.00     0.049 A 
ATOM     66  H   UNL     1      29.654   0.216   4.658  1.00  0.00     0.167 HD
ATOM     67  C   UNL     1      31.484  -1.710   3.664  1.00  0.00     0.074 A 
ATOM     68  C   UNL     1      32.020  -2.947   3.135  1.00  0.00     0.031 C 
ATOM     69  C   UNL     1      32.219  -0.593   3.885  1.00  0.00     0.037 A 
BRANCH  56  70
ATOM     70  C   UNL     1      28.962   4.187   6.052  1.00  0.00     0.057 A 
ATOM     71  C   UNL     1      28.800   4.564   7.392  1.00  0.00     0.134 A 
ATOM     72  C   UNL     1      29.133   5.209   5.110  1.00  0.00     0.134 A 
ATOM     73  F   UNL     1      28.617   3.635   8.342  1.00  0.00    -0.206 F 
ATOM     74  C   UNL     1      28.783   5.906   7.776  1.00  0.00     0.040 A 
ATOM     75  C   UNL     1      29.144   6.553   5.485  1.00  0.00     0.040 A 
ATOM     76  F   UNL     1      29.297   4.917   3.811  1.00  0.00    -0.206 F 
ATOM     77  C   UNL     1      28.962   6.905   6.821  1.00  0.00     0.006 A 
ENDBRANCH  56  70
BRANCH  57  78
ATOM     78  C   UNL     1      28.545  -5.329   3.071  1.00  0.00     0.057 A 
ATOM     79  C   UNL     1      29.161  -6.357   3.794  1.00  0.00     0.134 A 
ATOM     80  C   UNL     1      27.882  -5.678   1.889  1.00  0.00     0.134 A 
ATOM     81  F   UNL     1      29.826  -6.081   4.925  1.00  0.00    -0.206 F 
ATOM     82  C   UNL     1      29.137  -7.680   3.350  1.00  0.00     0.040 A 
ATOM     83  C   UNL     1      27.830  -7.001   1.444  1.00  0.00     0.040 A 
ATOM     84  F   UNL     1      27.265  -4.740   1.156  1.00  0.00    -0.206 F 
ATOM     85  C   UNL     1      28.465  -8.005   2.173  1.00  0.00     0.006 A 
ENDBRANCH  57  78
BRANCH  69  86
ATOM     86  C   UNL     1      33.687  -0.669   3.589  1.00  0.00     0.057 A 
ATOM     87  C   UNL     1      34.177  -0.679   2.277  1.00  0.00     0.134 A 
ATOM     88  C   UNL     1      34.623  -0.692   4.631  1.00  0.00     0.134 A 
ATOM     89  F   UNL     1      33.331  -0.672   1.236  1.00  0.00    -0.206 F 
ATOM     90  C   UNL     1      35.546  -0.728   2.012  1.00  0.00     0.040 A 
ATOM     91  C   UNL     1      35.995  -0.717   4.379  1.00  0.00     0.040 A 
ATOM     92  F   UNL     1      34.218  -0.677   5.910  1.00  0.00    -0.206 F 
ATOM     93  C   UNL     1      36.459  -0.740   3.065  1.00  0.00     0.006 A 
ENDBRANCH  69  86
ENDBRANCH  43  44
ENDBRANCH  35  38
ENDBRANCH  33  34
ENDBRANCH  32  33
ENDBRANCH   1  32
TORSDOF 15
