REMARK SMILES Cc1ccc(NC(=O)c2ccccc2NC(=O)[C@H]2CCCC[C@H]2C(=O)NCCCCNC(=O)c2ccc(-c3c4nc(c(-c5c(F)cccc5F)c5ccc([nH]5)c(-c5c(F)cccc5F)c5nc(c(-c6c(F)cccc6F)c6ccc3[nH]6)C=C5)C=C4)cc2)cc1
REMARK SMILES IDX 27 1 26 2 24 3 25 4 23 6 18 7 19 8 20 9 22 10 21 11 16 12
REMARK SMILES IDX 15 13 17 15 14 16 9 17 10 18 11 19 13 20 12 21 7 22 6 23
REMARK SMILES IDX 8 25 5 26 1 27 2 28 3 29 89 30 4 31 88 32 28 33 29 34 30 35
REMARK SMILES IDX 31 36 32 37 33 39 34 40 35 41 87 42 36 43 86 44 37 45 38 46
REMARK SMILES IDX 39 47 80 48 40 49 85 50 79 51 81 52 41 53 84 54 78 55 77 56
REMARK SMILES IDX 42 58 68 59 51 60 67 61 52 62 55 63 66 64 82 65 53 66 54 67
REMARK SMILES IDX 65 69 83 70 56 71 43 72 44 73 49 74 45 75 46 76 48 77 50 78
REMARK SMILES IDX 47 79 69 80 70 81 75 82 71 83 72 84 74 85 76 86 73 87 57 88
REMARK SMILES IDX 58 89 63 90 59 91 60 92 62 93 64 94 61 95
REMARK H PARENT 26 5 15 14 6 24 31 38 81 57 55 68
REMARK Flexibility Score: inf
ROOT
ATOM      1  C   UNL     1       0.688  -0.758   6.941  1.00  0.00     0.116 C 
ENDROOT
BRANCH   1   2
ATOM      2  N   UNL     1      -0.632  -0.293   6.542  1.00  0.00    -0.356 N 
ATOM      3  C   UNL     1      -1.564  -0.752   5.672  1.00  0.00     0.223 C 
ATOM      4  O   UNL     1      -2.506   0.020   5.446  1.00  0.00    -0.275 OA
ATOM      5  H   UNL     1      -0.907   0.532   7.003  1.00  0.00     0.163 HD
BRANCH   3   6
ATOM      6  C   UNL     1      -1.534  -2.099   4.941  1.00  0.00     0.091 C 
ATOM      7  C   UNL     1      -0.794  -2.072   3.586  1.00  0.00     0.091 C 
ATOM      8  C   UNL     1      -0.995  -3.396   2.821  1.00  0.00     0.014 C 
ATOM      9  C   UNL     1      -0.768  -4.645   3.682  1.00  0.00     0.001 C 
ATOM     10  C   UNL     1      -1.313  -3.352   5.790  1.00  0.00     0.014 C 
ATOM     11  C   UNL     1      -1.584  -4.616   4.971  1.00  0.00     0.001 C 
BRANCH   7  12
ATOM     12  C   UNL     1       0.692  -1.849   3.724  1.00  0.00     0.228 C 
ATOM     13  N   UNL     1       1.389  -0.858   3.115  1.00  0.00    -0.325 N 
ATOM     14  H   UNL     1       2.311  -0.829   3.458  1.00  0.00     0.169 HD
ATOM     15  O   UNL     1       1.351  -2.576   4.478  1.00  0.00    -0.274 OA
BRANCH  13  16
ATOM     16  C   UNL     1       1.198   0.141   2.145  1.00  0.00     0.054 A 
ATOM     17  C   UNL     1       2.162   1.178   1.992  1.00  0.00     0.063 A 
ATOM     18  C   UNL     1       1.905   2.224   1.077  1.00  0.00     0.016 A 
ATOM     19  C   UNL     1       0.753   2.243   0.300  1.00  0.00     0.001 A 
ATOM     20  C   UNL     1       0.083   0.146   1.299  1.00  0.00     0.027 A 
ATOM     21  C   UNL     1      -0.149   1.196   0.402  1.00  0.00     0.002 A 
BRANCH  17  22
ATOM     22  C   UNL     1       3.376   1.437   2.831  1.00  0.00     0.257 C 
ATOM     23  N   UNL     1       4.285   0.512   3.288  1.00  0.00    -0.322 N 
ATOM     24  H   UNL     1       4.942   0.904   3.909  1.00  0.00     0.170 HD
ATOM     25  O   UNL     1       3.562   2.601   3.207  1.00  0.00    -0.269 OA
BRANCH  23  26
ATOM     26  C   UNL     1       4.496  -0.854   3.078  1.00  0.00     0.041 A 
ATOM     27  C   UNL     1       4.050  -5.107   3.285  1.00  0.00     0.044 C 
ATOM     28  C   UNL     1       4.350  -3.643   3.155  1.00  0.00    -0.051 A 
ATOM     29  C   UNL     1       3.958  -2.943   2.007  1.00  0.00     0.005 A 
ATOM     30  C   UNL     1       4.952  -2.946   4.205  1.00  0.00     0.005 A 
ATOM     31  C   UNL     1       4.044  -1.548   1.961  1.00  0.00     0.026 A 
ATOM     32  C   UNL     1       5.053  -1.558   4.152  1.00  0.00     0.026 A 
ENDBRANCH  23  26
ENDBRANCH  17  22
ENDBRANCH  13  16
ENDBRANCH   7  12
ENDBRANCH   3   6
ENDBRANCH   1   2
BRANCH   1  33
ATOM     33  C   UNL     1       1.780  -0.076   6.114  1.00  0.00     0.023 C 
BRANCH  33  34
ATOM     34  C   UNL     1       2.318   1.252   6.609  1.00  0.00     0.023 C 
BRANCH  34  35
ATOM     35  C   UNL     1       3.230   1.137   7.810  1.00  0.00     0.116 C 
BRANCH  35  36
ATOM     36  N   UNL     1       4.578   0.649   7.537  1.00  0.00    -0.352 N 
ATOM     37  C   UNL     1       5.623   0.388   8.420  1.00  0.00     0.251 C 
ATOM     38  H   UNL     1       4.779   0.480   6.588  1.00  0.00     0.163 HD
ATOM     39  O   UNL     1       6.692  -0.014   7.997  1.00  0.00    -0.269 OA
BRANCH  37  40
ATOM     40  C   UNL     1       5.363   0.432   9.890  1.00  0.00     0.039 A 
ATOM     41  C   UNL     1       5.784  -0.669  10.643  1.00  0.00     0.014 A 
ATOM     42  C   UNL     1       4.395   1.282  10.396  1.00  0.00     0.014 A 
ATOM     43  C   UNL     1       4.984  -1.107  11.693  1.00  0.00     0.010 A 
ATOM     44  C   UNL     1       3.494   0.745  11.288  1.00  0.00     0.010 A 
ATOM     45  C   UNL     1       3.753  -0.488  11.892  1.00  0.00    -0.014 A 
BRANCH  45  46
ATOM     46  C   UNL     1       2.638  -1.115  12.597  1.00  0.00     0.031 A 
ATOM     47  C   UNL     1       2.086  -0.484  13.817  1.00  0.00     0.074 A 
ATOM     48  C   UNL     1       2.042  -2.216  12.081  1.00  0.00     0.049 A 
ATOM     49  N   UNL     1       1.407  -1.110  14.716  1.00  0.00    -0.248 NA
ATOM     50  C   UNL     1       2.295   0.921  14.144  1.00  0.00     0.031 C 
ATOM     51  C   UNL     1       0.762  -2.797  12.480  1.00  0.00     0.029 A 
ATOM     52  N   UNL     1       2.586  -3.159  11.195  1.00  0.00    -0.354 N 
ATOM     53  C   UNL     1       0.873  -0.176  15.577  1.00  0.00     0.074 A 
ATOM     54  C   UNL     1       1.494   1.069  15.201  1.00  0.00     0.031 C 
ATOM     55  C   UNL     1       0.727  -4.082  12.097  1.00  0.00     0.029 A 
ATOM     56  C   UNL     1       2.032  -4.409  11.554  1.00  0.00     0.049 A 
ATOM     57  H   UNL     1       3.225  -2.985  10.467  1.00  0.00     0.167 HD
ATOM     58  C   UNL     1      -0.123  -0.552  16.430  1.00  0.00     0.037 A 
ATOM     59  C   UNL     1       2.816  -5.440  11.982  1.00  0.00     0.037 A 
ATOM     60  C   UNL     1      -0.375  -1.989  16.332  1.00  0.00     0.049 A 
ATOM     61  C   UNL     1       2.522  -5.890  13.395  1.00  0.00     0.074 A 
ATOM     62  C   UNL     1      -1.326  -2.729  15.648  1.00  0.00     0.029 A 
ATOM     63  N   UNL     1       0.604  -2.888  16.740  1.00  0.00    -0.354 N 
ATOM     64  N   UNL     1       1.823  -5.193  14.248  1.00  0.00    -0.248 NA
ATOM     65  C   UNL     1       3.017  -7.137  13.973  1.00  0.00     0.031 C 
ATOM     66  C   UNL     1      -0.885  -4.075  15.600  1.00  0.00     0.029 A 
ATOM     67  C   UNL     1       0.323  -4.157  16.271  1.00  0.00     0.049 A 
ATOM     68  H   UNL     1       1.388  -2.654  17.287  1.00  0.00     0.167 HD
ATOM     69  C   UNL     1       1.810  -5.829  15.461  1.00  0.00     0.074 A 
ATOM     70  C   UNL     1       2.546  -7.057  15.230  1.00  0.00     0.031 C 
ATOM     71  C   UNL     1       1.212  -5.274  16.557  1.00  0.00     0.037 A 
BRANCH  58  72
ATOM     72  C   UNL     1      -1.058   0.411  17.137  1.00  0.00     0.057 A 
ATOM     73  C   UNL     1      -2.357   0.008  17.511  1.00  0.00     0.134 A 
ATOM     74  C   UNL     1      -0.779   1.758  17.428  1.00  0.00     0.134 A 
ATOM     75  F   UNL     1      -2.752  -1.269  17.425  1.00  0.00    -0.206 F 
ATOM     76  C   UNL     1      -3.326   0.894  18.001  1.00  0.00     0.040 A 
ATOM     77  C   UNL     1      -1.752   2.670  17.866  1.00  0.00     0.040 A 
ATOM     78  F   UNL     1       0.463   2.249  17.376  1.00  0.00    -0.206 F 
ATOM     79  C   UNL     1      -3.040   2.242  18.140  1.00  0.00     0.006 A 
ENDBRANCH  58  72
BRANCH  59  80
ATOM     80  C   UNL     1       4.148  -5.472  11.327  1.00  0.00     0.057 A 
ATOM     81  C   UNL     1       4.207  -5.778   9.956  1.00  0.00     0.134 A 
ATOM     82  C   UNL     1       5.258  -4.833  11.885  1.00  0.00     0.134 A 
ATOM     83  F   UNL     1       3.175  -6.400   9.361  1.00  0.00    -0.206 F 
ATOM     84  C   UNL     1       5.266  -5.356   9.149  1.00  0.00     0.040 A 
ATOM     85  C   UNL     1       6.329  -4.411  11.087  1.00  0.00     0.040 A 
ATOM     86  F   UNL     1       5.265  -4.487  13.180  1.00  0.00    -0.206 F 
ATOM     87  C   UNL     1       6.315  -4.635   9.711  1.00  0.00     0.006 A 
ENDBRANCH  59  80
BRANCH  71  88
ATOM     88  C   UNL     1       1.338  -5.755  17.982  1.00  0.00     0.057 A 
ATOM     89  C   UNL     1       2.458  -6.427  18.494  1.00  0.00     0.134 A 
ATOM     90  C   UNL     1       0.363  -5.402  18.943  1.00  0.00     0.134 A 
ATOM     91  F   UNL     1       3.508  -6.733  17.720  1.00  0.00    -0.206 F 
ATOM     92  C   UNL     1       2.576  -6.767  19.849  1.00  0.00     0.040 A 
ATOM     93  C   UNL     1       0.496  -5.687  20.305  1.00  0.00     0.040 A 
ATOM     94  F   UNL     1      -0.753  -4.740  18.604  1.00  0.00    -0.206 F 
ATOM     95  C   UNL     1       1.602  -6.385  20.763  1.00  0.00     0.006 A 
ENDBRANCH  71  88
ENDBRANCH  45  46
ENDBRANCH  37  40
ENDBRANCH  35  36
ENDBRANCH  34  35
ENDBRANCH  33  34
ENDBRANCH   1  33
TORSDOF 15
