REMARK SMILES CC[NH+](CC)[C@@H](C(=O)NCCCCNC(=O)c1ccc(-c2c3nc(c(-c4c(F)cccc4F)c4ccc([nH]4)c(-c4c(F)cccc4F)c4nc(c(-c5c(F)cccc5F)c5ccc2[nH]5)C=C4)C=C3)cc1)c1ccc(C2CC2)cc1
REMARK SMILES IDX 11 1 10 2 9 3 7 4 8 5 6 7 3 8 2 10 1 11 4 12 5 13 71 14
REMARK SMILES IDX 72 15 79 16 73 17 78 18 74 19 75 20 76 21 77 22 12 23 13 24
REMARK SMILES IDX 14 25 15 26 16 28 17 29 18 30 70 31 19 32 69 33 20 34 21 35
REMARK SMILES IDX 22 36 63 37 23 38 68 39 62 40 64 41 24 42 67 43 61 44 60 45
REMARK SMILES IDX 25 47 51 48 34 49 50 50 35 51 38 52 49 53 65 54 36 55 37 56
REMARK SMILES IDX 48 58 66 59 39 60 26 61 27 62 32 63 28 64 29 65 31 66 33 67
REMARK SMILES IDX 30 68 52 69 53 70 58 71 54 72 55 73 57 74 59 75 56 76 40 77
REMARK SMILES IDX 41 78 46 79 42 80 43 81 45 82 47 83 44 84
REMARK H PARENT 9 6 3 9 14 27 64 46 38 57
REMARK Flexibility Score: inf
ROOT
ATOM      1  C   UNL     1       0.903  -1.126  -5.925  1.00  0.00     0.023 C 
ENDROOT
BRANCH   1   2
ATOM      2  C   UNL     1       2.190  -1.472  -5.154  1.00  0.00     0.116 C 
BRANCH   2   3
ATOM      3  N   UNL     1       2.742  -0.373  -4.378  1.00  0.00    -0.351 N 
ATOM      4  C   UNL     1       2.812  -0.083  -3.040  1.00  0.00     0.283 C 
ATOM      5  O   UNL     1       3.340   1.008  -2.795  1.00  0.00    -0.268 OA
ATOM      6  H   UNL     1       3.161   0.318  -4.941  1.00  0.00     0.163 HD
BRANCH   4   7
ATOM      7  C   UNL     1       2.244  -1.038  -1.932  1.00  0.00     0.305 C 
BRANCH   7   8
ATOM      8  N   UNL     1       0.814  -0.755  -1.548  1.00  0.00    -0.321 N 
ATOM      9  H   UNL     1       0.621  -1.643  -1.084  1.00  0.00     0.349 HD
BRANCH   8  10
ATOM     10  C   UNL     1       0.541   0.235  -0.502  1.00  0.00     0.259 C 
ATOM     11  C   UNL     1       0.464  -0.372   0.895  1.00  0.00     0.071 C 
ENDBRANCH   8  10
BRANCH   8  12
ATOM     12  C   UNL     1      -0.111  -0.609  -2.665  1.00  0.00     0.259 C 
ATOM     13  C   UNL     1      -0.224   0.800  -3.262  1.00  0.00     0.071 C 
ENDBRANCH   8  12
ENDBRANCH   7   8
BRANCH   7  14
ATOM     14  C   UNL     1       3.140  -1.159  -0.682  1.00  0.00     0.019 A 
ATOM     15  C   UNL     1       3.170  -2.362   0.042  1.00  0.00     0.011 A 
ATOM     16  C   UNL     1       3.765  -0.045  -0.100  1.00  0.00     0.011 A 
ATOM     17  C   UNL     1       3.692  -2.402   1.345  1.00  0.00     0.004 A 
ATOM     18  C   UNL     1       4.293  -0.097   1.194  1.00  0.00     0.004 A 
ATOM     19  C   UNL     1       4.210  -1.256   1.975  1.00  0.00    -0.045 A 
BRANCH  19  20
ATOM     20  C   UNL     1       4.572  -1.282   3.448  1.00  0.00     0.019 C 
ATOM     21  C   UNL     1       4.840  -0.037   4.263  1.00  0.00     0.009 C 
ATOM     22  C   UNL     1       3.540  -0.760   4.431  1.00  0.00     0.009 C 
ENDBRANCH  19  20
ENDBRANCH   7  14
ENDBRANCH   4   7
ENDBRANCH   2   3
ENDBRANCH   1   2
BRANCH   1  23
ATOM     23  C   UNL     1       0.891   0.221  -6.647  1.00  0.00     0.023 C 
BRANCH  23  24
ATOM     24  C   UNL     1       1.632   0.190  -7.966  1.00  0.00     0.116 C 
BRANCH  24  25
ATOM     25  N   UNL     1       0.971  -0.687  -8.928  1.00  0.00    -0.352 N 
ATOM     26  C   UNL     1       0.617  -0.421 -10.226  1.00  0.00     0.251 C 
ATOM     27  H   UNL     1       0.751  -1.589  -8.602  1.00  0.00     0.163 HD
ATOM     28  O   UNL     1      -0.126  -1.176 -10.844  1.00  0.00    -0.269 OA
BRANCH  26  29
ATOM     29  C   UNL     1       1.141   0.800 -10.859  1.00  0.00     0.039 A 
ATOM     30  C   UNL     1       0.285   1.625 -11.591  1.00  0.00     0.014 A 
ATOM     31  C   UNL     1       2.484   1.138 -10.679  1.00  0.00     0.014 A 
ATOM     32  C   UNL     1       0.774   2.824 -12.108  1.00  0.00     0.010 A 
ATOM     33  C   UNL     1       2.936   2.376 -11.097  1.00  0.00     0.010 A 
ATOM     34  C   UNL     1       2.095   3.216 -11.842  1.00  0.00    -0.014 A 
BRANCH  34  35
ATOM     35  C   UNL     1       2.678   4.458 -12.394  1.00  0.00     0.031 A 
ATOM     36  C   UNL     1       3.854   4.345 -13.326  1.00  0.00     0.074 A 
ATOM     37  C   UNL     1       2.225   5.658 -11.990  1.00  0.00     0.049 A 
ATOM     38  N   UNL     1       4.645   5.281 -13.780  1.00  0.00    -0.248 NA
ATOM     39  C   UNL     1       4.217   2.986 -13.766  1.00  0.00     0.031 C 
ATOM     40  C   UNL     1       1.112   5.883 -11.066  1.00  0.00     0.029 A 
ATOM     41  N   UNL     1       2.664   6.921 -12.295  1.00  0.00    -0.354 N 
ATOM     42  C   UNL     1       5.610   4.620 -14.530  1.00  0.00     0.074 A 
ATOM     43  C   UNL     1       5.351   3.204 -14.412  1.00  0.00     0.031 C 
ATOM     44  C   UNL     1       0.943   7.204 -10.895  1.00  0.00     0.029 A 
ATOM     45  C   UNL     1       1.963   7.916 -11.658  1.00  0.00     0.049 A 
ATOM     46  H   UNL     1       3.410   7.097 -12.912  1.00  0.00     0.167 HD
ATOM     47  C   UNL     1       6.603   5.150 -15.280  1.00  0.00     0.037 A 
ATOM     48  C   UNL     1       2.142   9.249 -11.682  1.00  0.00     0.037 A 
ATOM     49  C   UNL     1       6.823   6.563 -15.421  1.00  0.00     0.049 A 
ATOM     50  C   UNL     1       3.263   9.814 -12.514  1.00  0.00     0.074 A 
ATOM     51  C   UNL     1       7.774   7.217 -16.182  1.00  0.00     0.029 A 
ATOM     52  N   UNL     1       6.065   7.540 -14.792  1.00  0.00    -0.354 N 
ATOM     53  N   UNL     1       4.146   9.184 -13.251  1.00  0.00    -0.248 NA
ATOM     54  C   UNL     1       3.410  11.276 -12.522  1.00  0.00     0.031 C 
ATOM     55  C   UNL     1       7.613   8.591 -15.986  1.00  0.00     0.029 A 
ATOM     56  C   UNL     1       6.530   8.793 -15.145  1.00  0.00     0.049 A 
ATOM     57  H   UNL     1       5.310   7.367 -14.184  1.00  0.00     0.167 HD
ATOM     58  C   UNL     1       4.921  10.171 -13.847  1.00  0.00     0.074 A 
ATOM     59  C   UNL     1       4.402  11.442 -13.385  1.00  0.00     0.031 C 
ATOM     60  C   UNL     1       5.965  10.041 -14.700  1.00  0.00     0.037 A 
BRANCH  47  61
ATOM     61  C   UNL     1       7.502   4.199 -16.013  1.00  0.00     0.057 A 
ATOM     62  C   UNL     1       7.039   3.425 -17.087  1.00  0.00     0.134 A 
ATOM     63  C   UNL     1       8.851   4.067 -15.659  1.00  0.00     0.134 A 
ATOM     64  F   UNL     1       5.753   3.490 -17.466  1.00  0.00    -0.206 F 
ATOM     65  C   UNL     1       7.875   2.536 -17.763  1.00  0.00     0.040 A 
ATOM     66  C   UNL     1       9.705   3.204 -16.348  1.00  0.00     0.040 A 
ATOM     67  F   UNL     1       9.362   4.778 -14.643  1.00  0.00    -0.206 F 
ATOM     68  C   UNL     1       9.215   2.430 -17.399  1.00  0.00     0.006 A 
ENDBRANCH  47  61
BRANCH  48  69
ATOM     69  C   UNL     1       1.233  10.147 -10.925  1.00  0.00     0.057 A 
ATOM     70  C   UNL     1       0.355  11.009 -11.593  1.00  0.00     0.134 A 
ATOM     71  C   UNL     1       1.235  10.190  -9.526  1.00  0.00     0.134 A 
ATOM     72  F   UNL     1       0.315  11.025 -12.934  1.00  0.00    -0.206 F 
ATOM     73  C   UNL     1      -0.463  11.905 -10.901  1.00  0.00     0.040 A 
ATOM     74  C   UNL     1       0.402  11.061  -8.819  1.00  0.00     0.040 A 
ATOM     75  F   UNL     1       2.043   9.382  -8.824  1.00  0.00    -0.206 F 
ATOM     76  C   UNL     1      -0.441  11.930  -9.508  1.00  0.00     0.006 A 
ENDBRANCH  48  69
BRANCH  60  77
ATOM     77  C   UNL     1       6.565  11.299 -15.254  1.00  0.00     0.057 A 
ATOM     78  C   UNL     1       7.365  12.146 -14.479  1.00  0.00     0.134 A 
ATOM     79  C   UNL     1       6.390  11.625 -16.606  1.00  0.00     0.134 A 
ATOM     80  F   UNL     1       7.561  11.894 -13.176  1.00  0.00    -0.206 F 
ATOM     81  C   UNL     1       7.960  13.284 -15.027  1.00  0.00     0.040 A 
ATOM     82  C   UNL     1       7.002  12.743 -17.170  1.00  0.00     0.040 A 
ATOM     83  F   UNL     1       5.643  10.847 -17.404  1.00  0.00    -0.206 F 
ATOM     84  C   UNL     1       7.787  13.579 -16.378  1.00  0.00     0.006 A 
ENDBRANCH  60  77
ENDBRANCH  34  35
ENDBRANCH  26  29
ENDBRANCH  24  25
ENDBRANCH  23  24
ENDBRANCH   1  23
TORSDOF 16
