REMARK SMILES Cc1ccc(-c2cc(Cl)ccc2Cl)c(C(=O)NCCCCNC(=O)c2ccc(-c3c4nc(c(-c5c(F)cccc5F)c5ccc([nH]5)c(-c5c(F)cccc5F)c5nc(c(-c6c(F)cccc6F)c6ccc3[nH]6)C=C5)C=C4)cc2)c1
REMARK SMILES IDX 20 1 19 2 18 3 17 4 15 5 16 6 14 8 1 9 2 10 3 11 79 12 4 13
REMARK SMILES IDX 5 14 6 15 7 16 12 17 8 18 11 19 13 20 9 21 10 22 21 23 22 24
REMARK SMILES IDX 23 25 24 27 25 28 26 29 78 30 27 31 77 32 28 33 29 34 30 35
REMARK SMILES IDX 71 36 31 37 76 38 70 39 72 40 32 41 75 42 69 43 68 44 33 46
REMARK SMILES IDX 59 47 42 48 58 49 43 50 46 51 57 52 73 53 44 54 45 55 56 57
REMARK SMILES IDX 74 58 47 59 34 60 35 61 40 62 36 63 37 64 39 65 41 66 38 67
REMARK SMILES IDX 60 68 61 69 66 70 62 71 63 72 65 73 67 74 64 75 48 76 49 77
REMARK SMILES IDX 54 78 50 79 51 80 53 81 55 82 52 83
REMARK H PARENT 17 7 22 26 72 45 46 56
REMARK Flexibility Score: inf
ROOT
ATOM      1  C   UNL     1       0.507   5.436  -1.937  1.00  0.00     0.023 C 
ENDROOT
BRANCH   1   2
ATOM      2  C   UNL     1       1.091   4.258  -1.146  1.00  0.00     0.023 C 
BRANCH   2   3
ATOM      3  C   UNL     1       0.440   4.019   0.226  1.00  0.00     0.116 C 
BRANCH   3   4
ATOM      4  N   UNL     1      -0.951   3.613   0.119  1.00  0.00    -0.352 N 
ATOM      5  C   UNL     1      -1.640   2.429   0.013  1.00  0.00     0.251 C 
ATOM      6  O   UNL     1      -2.863   2.579   0.010  1.00  0.00    -0.269 OA
ATOM      7  H   UNL     1      -1.558   4.389   0.122  1.00  0.00     0.163 HD
BRANCH   5   8
ATOM      8  C   UNL     1      -1.031   1.048  -0.079  1.00  0.00     0.047 A 
ATOM      9  C   UNL     1       2.456  -0.538  -0.254  1.00  0.00     0.044 C 
ATOM     10  C   UNL     1       0.963  -0.403  -0.186  1.00  0.00    -0.050 A 
ATOM     11  C   UNL     1       0.160  -1.533  -0.113  1.00  0.00     0.004 A 
ATOM     12  C   UNL     1       0.357   0.863  -0.198  1.00  0.00     0.018 A 
ATOM     13  C   UNL     1      -1.224  -1.391  -0.062  1.00  0.00     0.010 A 
ATOM     14  C   UNL     1      -1.849  -0.120  -0.039  1.00  0.00    -0.004 A 
BRANCH  14  15
ATOM     15  C   UNL     1      -3.331  -0.121  -0.017  1.00  0.00     0.003 A 
ATOM     16  C   UNL     1      -4.036   0.255  -1.180  1.00  0.00     0.030 A 
ATOM     17  C   UNL     1      -4.086  -0.525   1.104  1.00  0.00     0.049 A 
ATOM     18  C   UNL     1      -5.431   0.268  -1.204  1.00  0.00     0.041 A 
ATOM     19  C   UNL     1      -5.487  -0.538   1.063  1.00  0.00     0.023 A 
ATOM     20  Cl  UNL     1      -3.337  -1.028   2.582  1.00  0.00    -0.084 Cl
ATOM     21  Cl  UNL     1      -6.258   0.785  -2.622  1.00  0.00    -0.084 Cl
ATOM     22  C   UNL     1      -6.160  -0.133  -0.089  1.00  0.00     0.022 A 
ENDBRANCH  14  15
ENDBRANCH   5   8
ENDBRANCH   3   4
ENDBRANCH   2   3
ENDBRANCH   1   2
BRANCH   1  23
ATOM     23  C   UNL     1       0.815   6.802  -1.336  1.00  0.00     0.116 C 
BRANCH  23  24
ATOM     24  N   UNL     1       2.108   7.359  -1.710  1.00  0.00    -0.352 N 
ATOM     25  C   UNL     1       2.808   8.428  -1.167  1.00  0.00     0.251 C 
ATOM     26  H   UNL     1       2.554   6.908  -2.464  1.00  0.00     0.163 HD
ATOM     27  O   UNL     1       3.851   8.795  -1.681  1.00  0.00    -0.269 OA
BRANCH  25  28
ATOM     28  C   UNL     1       2.370   9.021   0.127  1.00  0.00     0.039 A 
ATOM     29  C   UNL     1       3.361   9.268   1.085  1.00  0.00     0.014 A 
ATOM     30  C   UNL     1       1.027   9.099   0.481  1.00  0.00     0.014 A 
ATOM     31  C   UNL     1       3.017   9.288   2.433  1.00  0.00     0.010 A 
ATOM     32  C   UNL     1       0.690   9.014   1.819  1.00  0.00     0.010 A 
ATOM     33  C   UNL     1       1.698   9.014   2.787  1.00  0.00    -0.014 A 
BRANCH  33  34
ATOM     34  C   UNL     1       1.320   8.530   4.110  1.00  0.00     0.031 A 
ATOM     35  C   UNL     1       0.547   9.381   5.036  1.00  0.00     0.074 A 
ATOM     36  C   UNL     1       1.617   7.252   4.442  1.00  0.00     0.049 A 
ATOM     37  N   UNL     1       0.430   9.140   6.297  1.00  0.00    -0.248 NA
ATOM     38  C   UNL     1      -0.091  10.632   4.633  1.00  0.00     0.031 C 
ATOM     39  C   UNL     1       1.075   6.468   5.549  1.00  0.00     0.029 A 
ATOM     40  N   UNL     1       2.665   6.463   3.941  1.00  0.00    -0.354 N 
ATOM     41  C   UNL     1      -0.510  10.002   6.802  1.00  0.00     0.074 A 
ATOM     42  C   UNL     1      -0.695  10.991   5.772  1.00  0.00     0.031 C 
ATOM     43  C   UNL     1       1.927   5.472   5.835  1.00  0.00     0.029 A 
ATOM     44  C   UNL     1       3.114   5.677   5.025  1.00  0.00     0.049 A 
ATOM     45  H   UNL     1       3.016   6.458   3.021  1.00  0.00     0.167 HD
ATOM     46  C   UNL     1      -1.114   9.691   7.982  1.00  0.00     0.037 A 
ATOM     47  C   UNL     1       4.379   5.802   5.521  1.00  0.00     0.037 A 
ATOM     48  C   UNL     1      -0.373   8.641   8.682  1.00  0.00     0.049 A 
ATOM     49  C   UNL     1       4.435   6.212   6.975  1.00  0.00     0.074 A 
ATOM     50  C   UNL     1      -0.600   7.295   8.905  1.00  0.00     0.029 A 
ATOM     51  N   UNL     1       0.945   8.887   9.059  1.00  0.00    -0.354 N 
ATOM     52  N   UNL     1       3.428   6.723   7.628  1.00  0.00    -0.248 NA
ATOM     53  C   UNL     1       5.639   6.112   7.797  1.00  0.00     0.031 C 
ATOM     54  C   UNL     1       0.631   6.712   9.315  1.00  0.00     0.029 A 
ATOM     55  C   UNL     1       1.587   7.712   9.391  1.00  0.00     0.049 A 
ATOM     56  H   UNL     1       1.362   9.779   9.086  1.00  0.00     0.167 HD
ATOM     57  C   UNL     1       3.830   7.070   8.891  1.00  0.00     0.074 A 
ATOM     58  C   UNL     1       5.212   6.634   8.961  1.00  0.00     0.031 C 
ATOM     59  C   UNL     1       2.998   7.716   9.761  1.00  0.00     0.037 A 
BRANCH  46  60
ATOM     60  C   UNL     1      -2.470  10.195   8.434  1.00  0.00     0.057 A 
ATOM     61  C   UNL     1      -2.981   9.820   9.694  1.00  0.00     0.134 A 
ATOM     62  C   UNL     1      -3.381  10.926   7.642  1.00  0.00     0.134 A 
ATOM     63  F   UNL     1      -2.248   9.106  10.561  1.00  0.00    -0.206 F 
ATOM     64  C   UNL     1      -4.282  10.134  10.119  1.00  0.00     0.040 A 
ATOM     65  C   UNL     1      -4.664  11.290   8.076  1.00  0.00     0.040 A 
ATOM     66  F   UNL     1      -3.119  11.278   6.380  1.00  0.00    -0.206 F 
ATOM     67  C   UNL     1      -5.127  10.882   9.314  1.00  0.00     0.006 A 
ENDBRANCH  46  60
BRANCH  47  68
ATOM     68  C   UNL     1       5.386   6.166   4.492  1.00  0.00     0.057 A 
ATOM     69  C   UNL     1       5.683   5.232   3.484  1.00  0.00     0.134 A 
ATOM     70  C   UNL     1       5.758   7.493   4.261  1.00  0.00     0.134 A 
ATOM     71  F   UNL     1       5.353   3.941   3.644  1.00  0.00    -0.206 F 
ATOM     72  C   UNL     1       6.222   5.619   2.255  1.00  0.00     0.040 A 
ATOM     73  C   UNL     1       6.306   7.890   3.035  1.00  0.00     0.040 A 
ATOM     74  F   UNL     1       5.486   8.445   5.165  1.00  0.00    -0.206 F 
ATOM     75  C   UNL     1       6.503   6.960   2.015  1.00  0.00     0.006 A 
ENDBRANCH  47  68
BRANCH  59  76
ATOM     76  C   UNL     1       3.418   8.364  11.059  1.00  0.00     0.057 A 
ATOM     77  C   UNL     1       4.694   8.898  11.303  1.00  0.00     0.134 A 
ATOM     78  C   UNL     1       2.469   8.605  12.078  1.00  0.00     0.134 A 
ATOM     79  F   UNL     1       5.663   8.853  10.378  1.00  0.00    -0.206 F 
ATOM     80  C   UNL     1       5.019   9.563  12.494  1.00  0.00     0.040 A 
ATOM     81  C   UNL     1       2.767   9.314  13.245  1.00  0.00     0.040 A 
ATOM     82  F   UNL     1       1.201   8.181  11.970  1.00  0.00    -0.206 F 
ATOM     83  C   UNL     1       4.052   9.783  13.466  1.00  0.00     0.006 A 
ENDBRANCH  59  76
ENDBRANCH  33  34
ENDBRANCH  25  28
ENDBRANCH  23  24
ENDBRANCH   1  23
TORSDOF 12
