REMARK SMILES Cc1c(Br)c(C)c2c(c1Br)O[C@H](C(F)(F)F)C(C(=O)NCCCCNC(=O)c1ccc(-c3c4nc(c(-c5c(F)cccc5F)c5ccc([nH]5)c(-c5c(F)cccc5F)c5nc(c(-c6c(F)cccc6F)c6ccc3[nH]6)C=C5)C=C4)cc1)=C2
REMARK SMILES IDX 23 1 22 2 21 3 20 4 18 5 19 6 17 8 1 9 2 10 3 11 9 12 4 13
REMARK SMILES IDX 5 14 8 15 10 16 6 17 7 18 11 19 82 20 12 21 13 22 14 23
REMARK SMILES IDX 15 24 16 25 24 26 25 27 26 28 27 30 28 31 29 32 81 33 30 34
REMARK SMILES IDX 80 35 31 36 32 37 33 38 74 39 34 40 79 41 73 42 75 43 35 44
REMARK SMILES IDX 78 45 72 46 71 47 36 49 62 50 45 51 61 52 46 53 49 54 60 55
REMARK SMILES IDX 76 56 47 57 48 58 59 60 77 61 50 62 37 63 38 64 43 65 39 66
REMARK SMILES IDX 40 67 42 68 44 69 41 70 63 71 64 72 69 73 65 74 66 75 68 76
REMARK SMILES IDX 70 77 67 78 51 79 52 80 57 81 53 82 54 83 56 84 58 85 55 86
REMARK H PARENT 20 7 25 29 75 48 49 59
REMARK Flexibility Score: inf
ROOT
ATOM      1  C   UNL     1      -2.017   4.424   9.595  1.00  0.00     0.023 C 
ENDROOT
BRANCH   1   2
ATOM      2  C   UNL     1      -1.926   3.573   8.325  1.00  0.00     0.023 C 
BRANCH   2   3
ATOM      3  C   UNL     1      -2.773   4.088   7.164  1.00  0.00     0.116 C 
BRANCH   3   4
ATOM      4  N   UNL     1      -2.084   5.117   6.407  1.00  0.00    -0.352 N 
ATOM      5  C   UNL     1      -1.368   5.183   5.260  1.00  0.00     0.251 C 
ATOM      6  O   UNL     1      -0.926   6.303   4.983  1.00  0.00    -0.270 OA
ATOM      7  H   UNL     1      -2.158   5.998   6.840  1.00  0.00     0.163 HD
BRANCH   5   8
ATOM      8  C   UNL     1      -1.095   4.036   4.345  1.00  0.00     0.067 C 
ATOM      9  C   UNL     1       1.059  -0.044  -0.341  1.00  0.00     0.047 C 
ATOM     10  C   UNL     1       0.690   1.083   0.596  1.00  0.00    -0.019 A 
ATOM     11  C   UNL     1       1.059   2.418   0.280  1.00  0.00     0.025 A 
ATOM     12  C   UNL     1      -0.007   0.857   1.797  1.00  0.00     0.064 A 
ATOM     13  Br  UNL     1       2.056   2.737  -1.332  1.00  0.00    -0.050 Br
ATOM     14  C   UNL     1       0.731   3.506   1.130  1.00  0.00    -0.026 A 
ATOM     15  C   UNL     1      -0.322   1.925   2.654  1.00  0.00     0.142 A 
ATOM     16  Br  UNL     1      -0.564  -0.899   2.323  1.00  0.00    -0.046 Br
ATOM     17  C   UNL     1       1.108   4.934   0.800  1.00  0.00     0.046 C 
ATOM     18  C   UNL     1       0.053   3.238   2.343  1.00  0.00     0.022 A 
ATOM     19  O   UNL     1      -0.956   1.625   3.834  1.00  0.00    -0.474 OA
ATOM     20  C   UNL     1      -0.242   4.284   3.333  1.00  0.00     0.026 C 
ATOM     21  C   UNL     1      -1.723   2.683   4.460  1.00  0.00     0.314 C 
BRANCH  21  22
ATOM     22  C   UNL     1      -3.178   2.652   3.956  1.00  0.00     0.429 C 
ATOM     23  F   UNL     1      -3.793   1.510   4.351  1.00  0.00    -0.167 F 
ATOM     24  F   UNL     1      -3.914   3.675   4.452  1.00  0.00    -0.167 F 
ATOM     25  F   UNL     1      -3.266   2.719   2.610  1.00  0.00    -0.167 F 
ENDBRANCH  21  22
ENDBRANCH   5   8
ENDBRANCH   3   4
ENDBRANCH   2   3
ENDBRANCH   1   2
BRANCH   1  26
ATOM     26  C   UNL     1      -3.429   4.647  10.136  1.00  0.00     0.116 C 
BRANCH  26  27
ATOM     27  N   UNL     1      -4.200   3.424  10.310  1.00  0.00    -0.352 N 
ATOM     28  C   UNL     1      -5.230   3.201  11.193  1.00  0.00     0.251 C 
ATOM     29  H   UNL     1      -3.955   2.669   9.728  1.00  0.00     0.163 HD
ATOM     30  O   UNL     1      -5.767   2.103  11.280  1.00  0.00    -0.269 OA
BRANCH  28  31
ATOM     31  C   UNL     1      -5.638   4.306  12.078  1.00  0.00     0.039 A 
ATOM     32  C   UNL     1      -5.518   4.135  13.458  1.00  0.00     0.014 A 
ATOM     33  C   UNL     1      -6.022   5.535  11.535  1.00  0.00     0.014 A 
ATOM     34  C   UNL     1      -5.702   5.231  14.298  1.00  0.00     0.010 A 
ATOM     35  C   UNL     1      -6.151   6.639  12.370  1.00  0.00     0.010 A 
ATOM     36  C   UNL     1      -5.975   6.498  13.755  1.00  0.00    -0.014 A 
BRANCH  36  37
ATOM     37  C   UNL     1      -6.044   7.694  14.626  1.00  0.00     0.031 A 
ATOM     38  C   UNL     1      -7.348   8.405  14.826  1.00  0.00     0.074 A 
ATOM     39  C   UNL     1      -4.917   8.166  15.191  1.00  0.00     0.049 A 
ATOM     40  N   UNL     1      -7.601   9.478  15.530  1.00  0.00    -0.248 NA
ATOM     41  C   UNL     1      -8.518   7.853  14.126  1.00  0.00     0.031 C 
ATOM     42  C   UNL     1      -3.580   7.589  15.026  1.00  0.00     0.029 A 
ATOM     43  N   UNL     1      -4.715   9.239  16.022  1.00  0.00    -0.354 N 
ATOM     44  C   UNL     1      -8.952   9.734  15.351  1.00  0.00     0.074 A 
ATOM     45  C   UNL     1      -9.458   8.734  14.436  1.00  0.00     0.031 C 
ATOM     46  C   UNL     1      -2.704   8.292  15.762  1.00  0.00     0.029 A 
ATOM     47  C   UNL     1      -3.411   9.381  16.430  1.00  0.00     0.049 A 
ATOM     48  H   UNL     1      -5.436   9.849  16.298  1.00  0.00     0.167 HD
ATOM     49  C   UNL     1      -9.710  10.699  15.921  1.00  0.00     0.037 A 
ATOM     50  C   UNL     1      -2.853  10.282  17.260  1.00  0.00     0.037 A 
ATOM     51  C   UNL     1      -9.213  11.671  16.856  1.00  0.00     0.049 A 
ATOM     52  C   UNL     1      -3.717  11.338  17.887  1.00  0.00     0.074 A 
ATOM     53  C   UNL     1      -9.915  12.651  17.535  1.00  0.00     0.029 A 
ATOM     54  N   UNL     1      -7.888  11.781  17.247  1.00  0.00    -0.354 N 
ATOM     55  N   UNL     1      -5.006  11.533  17.755  1.00  0.00    -0.248 NA
ATOM     56  C   UNL     1      -3.050  12.300  18.777  1.00  0.00     0.031 C 
ATOM     57  C   UNL     1      -9.009  13.370  18.322  1.00  0.00     0.029 A 
ATOM     58  C   UNL     1      -7.749  12.821  18.150  1.00  0.00     0.049 A 
ATOM     59  H   UNL     1      -7.155  11.206  16.930  1.00  0.00     0.167 HD
ATOM     60  C   UNL     1      -5.309  12.624  18.557  1.00  0.00     0.074 A 
ATOM     61  C   UNL     1      -4.071  13.046  19.178  1.00  0.00     0.031 C 
ATOM     62  C   UNL     1      -6.508  13.220  18.761  1.00  0.00     0.037 A 
BRANCH  49  63
ATOM     63  C   UNL     1     -11.162  10.732  15.561  1.00  0.00     0.057 A 
ATOM     64  C   UNL     1     -12.061   9.786  16.070  1.00  0.00     0.134 A 
ATOM     65  C   UNL     1     -11.673  11.729  14.723  1.00  0.00     0.134 A 
ATOM     66  F   UNL     1     -11.627   8.797  16.866  1.00  0.00    -0.206 F 
ATOM     67  C   UNL     1     -13.416   9.818  15.741  1.00  0.00     0.040 A 
ATOM     68  C   UNL     1     -13.030  11.784  14.402  1.00  0.00     0.040 A 
ATOM     69  F   UNL     1     -10.864  12.665  14.205  1.00  0.00    -0.206 F 
ATOM     70  C   UNL     1     -13.905  10.824  14.909  1.00  0.00     0.006 A 
ENDBRANCH  49  63
BRANCH  50  71
ATOM     71  C   UNL     1      -1.411  10.189  17.586  1.00  0.00     0.057 A 
ATOM     72  C   UNL     1      -0.991   9.696  18.826  1.00  0.00     0.134 A 
ATOM     73  C   UNL     1      -0.424  10.570  16.671  1.00  0.00     0.134 A 
ATOM     74  F   UNL     1      -1.894   9.330  19.747  1.00  0.00    -0.206 F 
ATOM     75  C   UNL     1       0.363   9.592  19.150  1.00  0.00     0.040 A 
ATOM     76  C   UNL     1       0.934  10.458  16.975  1.00  0.00     0.040 A 
ATOM     77  F   UNL     1      -0.766  11.043  15.464  1.00  0.00    -0.206 F 
ATOM     78  C   UNL     1       1.330   9.970  18.220  1.00  0.00     0.006 A 
ENDBRANCH  50  71
BRANCH  62  79
ATOM     79  C   UNL     1      -6.547  14.384  19.701  1.00  0.00     0.057 A 
ATOM     80  C   UNL     1      -6.133  15.659  19.300  1.00  0.00     0.134 A 
ATOM     81  C   UNL     1      -7.079  14.244  20.988  1.00  0.00     0.134 A 
ATOM     82  F   UNL     1      -5.606  15.851  18.082  1.00  0.00    -0.206 F 
ATOM     83  C   UNL     1      -6.246  16.759  20.151  1.00  0.00     0.040 A 
ATOM     84  C   UNL     1      -7.211  15.339  21.843  1.00  0.00     0.040 A 
ATOM     85  F   UNL     1      -7.498  13.047  21.425  1.00  0.00    -0.206 F 
ATOM     86  C   UNL     1      -6.795  16.601  21.423  1.00  0.00     0.006 A 
ENDBRANCH  62  79
ENDBRANCH  36  37
ENDBRANCH  28  31
ENDBRANCH  26  27
ENDBRANCH   1  26
TORSDOF 12
