REMARK SMILES O=C(NCCCCNC(=O)[C@@H](Cc1c[nH]c2ccccc12)Nc1ncnc2ccccc12)c1ccc(-c2c3nc(c(-c4c(F)cccc4F)c4ccc([nH]4)c(-c4c(F)cccc4F)c4nc(c(-c5c(F)cccc5F)c5ccc2[nH]5)C=C4)C=C3)cc1
REMARK SMILES IDX 5 1 4 2 3 3 1 4 2 5 33 7 34 8 86 9 35 10 85 11 36 12 37 13
REMARK SMILES IDX 38 14 79 15 39 16 84 17 78 18 80 19 40 20 83 21 77 22 76 23
REMARK SMILES IDX 41 25 67 26 50 27 66 28 51 29 54 30 65 31 81 32 52 33 53 34
REMARK SMILES IDX 64 36 82 37 55 38 42 39 43 40 48 41 44 42 45 43 47 44 49 45
REMARK SMILES IDX 46 46 68 47 69 48 74 49 70 50 71 51 73 52 75 53 72 54 56 55
REMARK SMILES IDX 57 56 62 57 58 58 59 59 61 60 63 61 60 62 6 63 7 64 8 65
REMARK SMILES IDX 9 66 10 68 11 69 12 70 13 71 14 72 21 73 15 74 16 75 20 76
REMARK SMILES IDX 17 78 19 79 18 80 22 81 23 83 24 84 32 85 25 86 27 87 31 88
REMARK SMILES IDX 26 89 28 90 30 91 29 92
REMARK H PARENT 3 6 80 24 54 35 8 67 15 77 22 82
REMARK Flexibility Score: inf
ROOT
ATOM      1  C   UNL     1       5.584   2.312   0.595  1.00  0.00     0.023 C 
ENDROOT
BRANCH   1   2
ATOM      2  C   UNL     1       4.904   0.988   0.278  1.00  0.00     0.116 C 
BRANCH   2   3
ATOM      3  N   UNL     1       3.453   1.003   0.425  1.00  0.00    -0.352 N 
ATOM      4  O   UNL     1       1.333   0.362  -0.065  1.00  0.00    -0.269 OA
ATOM      5  C   UNL     1       2.534   0.234  -0.254  1.00  0.00     0.251 C 
ATOM      6  H   UNL     1       3.089   1.636   1.085  1.00  0.00     0.163 HD
BRANCH   5   7
ATOM      7  C   UNL     1       3.042  -0.714  -1.265  1.00  0.00     0.039 A 
ATOM      8  C   UNL     1       4.046  -1.624  -0.925  1.00  0.00     0.014 A 
ATOM      9  C   UNL     1       2.590  -0.605  -2.581  1.00  0.00     0.014 A 
ATOM     10  C   UNL     1       4.706  -2.316  -1.930  1.00  0.00     0.010 A 
ATOM     11  C   UNL     1       3.199  -1.369  -3.579  1.00  0.00     0.010 A 
ATOM     12  C   UNL     1       4.283  -2.203  -3.265  1.00  0.00    -0.014 A 
BRANCH  12  13
ATOM     13  C   UNL     1       4.942  -3.026  -4.306  1.00  0.00     0.031 A 
ATOM     14  C   UNL     1       5.725  -2.397  -5.423  1.00  0.00     0.074 A 
ATOM     15  C   UNL     1       4.822  -4.365  -4.225  1.00  0.00     0.049 A 
ATOM     16  N   UNL     1       6.317  -2.978  -6.436  1.00  0.00    -0.248 NA
ATOM     17  C   UNL     1       5.859  -0.932  -5.410  1.00  0.00     0.031 C 
ATOM     18  C   UNL     1       4.073  -5.079  -3.187  1.00  0.00     0.029 A 
ATOM     19  N   UNL     1       5.323  -5.362  -5.019  1.00  0.00    -0.354 N 
ATOM     20  C   UNL     1       6.864  -1.953  -7.198  1.00  0.00     0.074 A 
ATOM     21  C   UNL     1       6.534  -0.711  -6.533  1.00  0.00     0.031 C 
ATOM     22  C   UNL     1       4.186  -6.398  -3.392  1.00  0.00     0.029 A 
ATOM     23  C   UNL     1       4.953  -6.619  -4.611  1.00  0.00     0.049 A 
ATOM     24  H   UNL     1       5.893  -5.193  -5.804  1.00  0.00     0.167 HD
ATOM     25  C   UNL     1       7.574  -2.049  -8.346  1.00  0.00     0.037 A 
ATOM     26  C   UNL     1       5.171  -7.819  -5.176  1.00  0.00     0.037 A 
ATOM     27  C   UNL     1       7.933  -3.294  -8.976  1.00  0.00     0.049 A 
ATOM     28  C   UNL     1       5.942  -7.889  -6.458  1.00  0.00     0.074 A 
ATOM     29  C   UNL     1       8.732  -3.498 -10.088  1.00  0.00     0.029 A 
ATOM     30  N   UNL     1       7.508  -4.544  -8.553  1.00  0.00    -0.354 N 
ATOM     31  N   UNL     1       6.491  -6.915  -7.141  1.00  0.00    -0.248 NA
ATOM     32  C   UNL     1       6.109  -9.219  -7.057  1.00  0.00     0.031 C 
ATOM     33  C   UNL     1       8.754  -4.870 -10.365  1.00  0.00     0.029 A 
ATOM     34  C   UNL     1       7.996  -5.521  -9.406  1.00  0.00     0.049 A 
ATOM     35  H   UNL     1       6.944  -4.713  -7.764  1.00  0.00     0.167 HD
ATOM     36  C   UNL     1       7.063  -7.510  -8.254  1.00  0.00     0.074 A 
ATOM     37  C   UNL     1       6.819  -8.935  -8.140  1.00  0.00     0.031 C 
ATOM     38  C   UNL     1       7.723  -6.929  -9.284  1.00  0.00     0.037 A 
BRANCH  25  39
ATOM     39  C   UNL     1       8.006  -0.781  -9.021  1.00  0.00     0.057 A 
ATOM     40  C   UNL     1       9.089  -0.026  -8.557  1.00  0.00     0.134 A 
ATOM     41  C   UNL     1       7.385  -0.365 -10.205  1.00  0.00     0.134 A 
ATOM     42  F   UNL     1       9.723  -0.369  -7.426  1.00  0.00    -0.206 F 
ATOM     43  C   UNL     1       9.539   1.102  -9.248  1.00  0.00     0.040 A 
ATOM     44  C   UNL     1       7.835   0.752 -10.913  1.00  0.00     0.040 A 
ATOM     45  F   UNL     1       6.345  -1.049 -10.705  1.00  0.00    -0.206 F 
ATOM     46  C   UNL     1       8.916   1.488 -10.434  1.00  0.00     0.006 A 
ENDBRANCH  25  39
BRANCH  26  47
ATOM     47  C   UNL     1       4.601  -9.035  -4.550  1.00  0.00     0.057 A 
ATOM     48  C   UNL     1       5.417  -9.976  -3.916  1.00  0.00     0.134 A 
ATOM     49  C   UNL     1       3.219  -9.265  -4.545  1.00  0.00     0.134 A 
ATOM     50  F   UNL     1       6.749  -9.815  -3.903  1.00  0.00    -0.206 F 
ATOM     51  C   UNL     1       4.880 -11.108  -3.302  1.00  0.00     0.040 A 
ATOM     52  C   UNL     1       2.667 -10.379  -3.913  1.00  0.00     0.040 A 
ATOM     53  F   UNL     1       2.385  -8.393  -5.129  1.00  0.00    -0.206 F 
ATOM     54  C   UNL     1       3.500 -11.307  -3.293  1.00  0.00     0.006 A 
ENDBRANCH  26  47
BRANCH  38  55
ATOM     55  C   UNL     1       8.210  -7.837 -10.369  1.00  0.00     0.057 A 
ATOM     56  C   UNL     1       7.331  -8.364 -11.324  1.00  0.00     0.134 A 
ATOM     57  C   UNL     1       9.565  -8.170 -10.475  1.00  0.00     0.134 A 
ATOM     58  F   UNL     1       6.019  -8.094 -11.262  1.00  0.00    -0.206 F 
ATOM     59  C   UNL     1       7.783  -9.206 -12.340  1.00  0.00     0.040 A 
ATOM     60  C   UNL     1      10.032  -8.995 -11.498  1.00  0.00     0.040 A 
ATOM     61  F   UNL     1      10.455  -7.693  -9.591  1.00  0.00    -0.206 F 
ATOM     62  C   UNL     1       9.139  -9.519 -12.431  1.00  0.00     0.006 A 
ENDBRANCH  38  55
ENDBRANCH  12  13
ENDBRANCH   5   7
ENDBRANCH   2   3
ENDBRANCH   1   2
BRANCH   1  63
ATOM     63  C   UNL     1       5.314   2.827   2.003  1.00  0.00     0.023 C 
BRANCH  63  64
ATOM     64  C   UNL     1       5.862   1.956   3.133  1.00  0.00     0.116 C 
BRANCH  64  65
ATOM     65  N   UNL     1       7.101   2.492   3.644  1.00  0.00    -0.354 N 
ATOM     66  C   UNL     1       7.343   3.366   4.656  1.00  0.00     0.242 C 
ATOM     67  H   UNL     1       7.908   2.170   3.180  1.00  0.00     0.163 HD
ATOM     68  O   UNL     1       8.520   3.733   4.777  1.00  0.00    -0.273 OA
BRANCH  66  69
ATOM     69  C   UNL     1       6.262   3.896   5.638  1.00  0.00     0.174 C 
BRANCH  69  70
ATOM     70  C   UNL     1       5.217   4.845   5.022  1.00  0.00     0.072 C 
BRANCH  70  71
ATOM     71  C   UNL     1       3.891   4.354   4.496  1.00  0.00    -0.020 A 
ATOM     72  C   UNL     1       3.125   3.267   4.875  1.00  0.00     0.087 A 
ATOM     73  C   UNL     1       3.127   5.035   3.481  1.00  0.00     0.003 A 
ATOM     74  N   UNL     1       2.030   3.187   4.052  1.00  0.00    -0.361 N 
ATOM     75  C   UNL     1       2.014   4.250   3.183  1.00  0.00     0.046 A 
ATOM     76  C   UNL     1       3.310   6.236   2.763  1.00  0.00     0.010 A 
ATOM     77  H   UNL     1       1.354   2.472   4.081  1.00  0.00     0.166 HD
ATOM     78  C   UNL     1       1.108   4.572   2.164  1.00  0.00     0.026 A 
ATOM     79  C   UNL     1       2.397   6.591   1.765  1.00  0.00     0.001 A 
ATOM     80  C   UNL     1       1.322   5.760   1.461  1.00  0.00     0.002 A 
ENDBRANCH  70  71
ENDBRANCH  69  70
BRANCH  69  81
ATOM     81  N   UNL     1       5.714   2.836   6.477  1.00  0.00    -0.358 N 
ATOM     82  H   UNL     1       5.187   2.151   6.006  1.00  0.00     0.162 HD
BRANCH  81  83
ATOM     83  C   UNL     1       5.832   2.666   7.831  1.00  0.00     0.137 A 
ATOM     84  N   UNL     1       5.784   1.358   8.145  1.00  0.00    -0.219 NA
ATOM     85  C   UNL     1       5.965   3.664   8.825  1.00  0.00     0.043 A 
ATOM     86  C   UNL     1       5.923   1.033   9.432  1.00  0.00     0.224 A 
ATOM     87  C   UNL     1       6.121   3.178  10.136  1.00  0.00     0.076 A 
ATOM     88  C   UNL     1       5.933   5.078   8.655  1.00  0.00     0.014 A 
ATOM     89  N   UNL     1       6.104   1.881  10.444  1.00  0.00    -0.236 NA
ATOM     90  C   UNL     1       6.292   4.076  11.185  1.00  0.00     0.029 A 
ATOM     91  C   UNL     1       6.111   5.962   9.719  1.00  0.00     0.001 A 
ATOM     92  C   UNL     1       6.300   5.457  10.992  1.00  0.00     0.002 A 
ENDBRANCH  81  83
ENDBRANCH  69  81
ENDBRANCH  66  69
ENDBRANCH  64  65
ENDBRANCH  63  64
ENDBRANCH   1  63
TORSDOF 15
