REMARK SMILES C[C@H]1CC[C@@H]([C@@H](Cc2ccccc2)C(=O)NCCCCNC(=O)c2ccc(-c3c4nc(c(-c5c(F)cccc5F)c5ccc([nH]5)c(-c5c(F)cccc5F)c5nc(c(-c6c(F)cccc6F)c6ccc3[nH]6)C=C5)C=C4)cc2)C[C@@H]1C
REMARK SMILES IDX 18 1 17 2 16 3 14 4 15 5 6 7 5 8 1 9 2 10 3 11 79 12 4 13
REMARK SMILES IDX 78 14 80 15 7 16 8 17 9 18 13 19 10 20 12 21 11 22 19 23
REMARK SMILES IDX 20 24 21 25 22 26 23 28 24 29 25 30 77 31 26 32 76 33 27 34
REMARK SMILES IDX 28 35 29 36 70 37 30 38 75 39 69 40 71 41 31 42 74 43 68 44
REMARK SMILES IDX 67 45 32 47 58 48 41 49 57 50 42 51 45 52 56 53 72 54 43 55
REMARK SMILES IDX 44 56 55 58 73 59 46 60 33 61 34 62 39 63 35 64 36 65 38 66
REMARK SMILES IDX 40 67 37 68 59 69 60 70 65 71 61 72 62 73 64 74 66 75 63 76
REMARK SMILES IDX 47 77 48 78 53 79 49 80 50 81 52 82 54 83 51 84
REMARK H PARENT 16 6 21 27 71 46 45 57
REMARK Flexibility Score: inf
ROOT
ATOM      1  C   UNL     1      -0.393   1.454   4.440  1.00  0.00     0.023 C 
ENDROOT
BRANCH   1   2
ATOM      2  C   UNL     1      -1.500   1.655   3.405  1.00  0.00     0.116 C 
BRANCH   2   3
ATOM      3  N   UNL     1      -1.960   3.026   3.378  1.00  0.00    -0.356 N 
ATOM      4  C   UNL     1      -2.052   3.942   2.389  1.00  0.00     0.223 C 
ATOM      5  O   UNL     1      -2.621   4.999   2.689  1.00  0.00    -0.275 OA
ATOM      6  H   UNL     1      -2.265   3.358   4.253  1.00  0.00     0.163 HD
BRANCH   4   7
ATOM      7  C   UNL     1      -1.478   3.765   0.979  1.00  0.00     0.086 C 
BRANCH   7   8
ATOM      8  C   UNL     1       0.062   4.032   0.868  1.00  0.00     0.002 C 
ATOM      9  C   UNL     1       2.261   0.822  -1.226  1.00  0.00     0.008 C 
ATOM     10  C   UNL     1       2.006   2.139  -0.469  1.00  0.00    -0.011 C 
ATOM     11  C   UNL     1       1.071   3.043  -1.292  1.00  0.00     0.004 C 
ATOM     12  C   UNL     1       1.505   1.881   0.972  1.00  0.00    -0.011 C 
ATOM     13  C   UNL     1       0.579   4.281  -0.557  1.00  0.00     0.005 C 
ATOM     14  C   UNL     1       1.070   3.183   1.647  1.00  0.00     0.008 C 
ATOM     15  C   UNL     1       2.580   1.174   1.814  1.00  0.00     0.008 C 
ENDBRANCH   7   8
BRANCH   7  16
ATOM     16  C   UNL     1      -2.296   2.860   0.022  1.00  0.00     0.049 C 
BRANCH  16  17
ATOM     17  C   UNL     1      -2.444   1.367   0.182  1.00  0.00    -0.047 A 
ATOM     18  C   UNL     1      -3.620   0.809   0.706  1.00  0.00     0.004 A 
ATOM     19  C   UNL     1      -1.474   0.487  -0.302  1.00  0.00     0.004 A 
ATOM     20  C   UNL     1      -3.786  -0.580   0.777  1.00  0.00     0.000 A 
ATOM     21  C   UNL     1      -1.613  -0.897  -0.196  1.00  0.00     0.000 A 
ATOM     22  C   UNL     1      -2.773  -1.433   0.344  1.00  0.00     0.000 A 
ENDBRANCH  16  17
ENDBRANCH   7  16
ENDBRANCH   4   7
ENDBRANCH   2   3
ENDBRANCH   1   2
BRANCH   1  23
ATOM     23  C   UNL     1      -0.535   0.241   5.345  1.00  0.00     0.023 C 
BRANCH  23  24
ATOM     24  C   UNL     1      -1.040  -1.045   4.711  1.00  0.00     0.116 C 
BRANCH  24  25
ATOM     25  N   UNL     1      -0.134  -1.691   3.774  1.00  0.00    -0.352 N 
ATOM     26  C   UNL     1       0.213  -3.029   3.719  1.00  0.00     0.251 C 
ATOM     27  H   UNL     1       0.281  -1.107   3.099  1.00  0.00     0.163 HD
ATOM     28  O   UNL     1       0.989  -3.448   2.864  1.00  0.00    -0.269 OA
BRANCH  26  29
ATOM     29  C   UNL     1      -0.310  -3.945   4.760  1.00  0.00     0.039 A 
ATOM     30  C   UNL     1       0.593  -4.676   5.534  1.00  0.00     0.014 A 
ATOM     31  C   UNL     1      -1.670  -3.947   5.077  1.00  0.00     0.014 A 
ATOM     32  C   UNL     1       0.151  -5.287   6.712  1.00  0.00     0.010 A 
ATOM     33  C   UNL     1      -2.079  -4.449   6.308  1.00  0.00     0.010 A 
ATOM     34  C   UNL     1      -1.171  -5.106   7.153  1.00  0.00    -0.014 A 
BRANCH  34  35
ATOM     35  C   UNL     1      -1.618  -5.554   8.502  1.00  0.00     0.031 A 
ATOM     36  C   UNL     1      -2.794  -6.484   8.640  1.00  0.00     0.074 A 
ATOM     37  C   UNL     1      -1.040  -5.045   9.611  1.00  0.00     0.049 A 
ATOM     38  N   UNL     1      -3.414  -6.883   9.722  1.00  0.00    -0.248 NA
ATOM     39  C   UNL     1      -3.381  -6.997   7.391  1.00  0.00     0.031 C 
ATOM     40  C   UNL     1       0.054  -4.071   9.634  1.00  0.00     0.029 A 
ATOM     41  N   UNL     1      -1.305  -5.268  10.942  1.00  0.00    -0.354 N 
ATOM     42  C   UNL     1      -4.481  -7.655   9.282  1.00  0.00     0.074 A 
ATOM     43  C   UNL     1      -4.458  -7.623   7.836  1.00  0.00     0.031 C 
ATOM     44  C   UNL     1       0.392  -3.813  10.908  1.00  0.00     0.029 A 
ATOM     45  C   UNL     1      -0.486  -4.568  11.796  1.00  0.00     0.049 A 
ATOM     46  H   UNL     1      -2.015  -5.874  11.254  1.00  0.00     0.167 HD
ATOM     47  C   UNL     1      -5.383  -8.354  10.011  1.00  0.00     0.037 A 
ATOM     48  C   UNL     1      -0.445  -4.536  13.142  1.00  0.00     0.037 A 
ATOM     49  C   UNL     1      -5.371  -8.442  11.447  1.00  0.00     0.049 A 
ATOM     50  C   UNL     1      -1.418  -5.367  13.930  1.00  0.00     0.074 A 
ATOM     51  C   UNL     1      -6.191  -9.192  12.272  1.00  0.00     0.029 A 
ATOM     52  N   UNL     1      -4.485  -7.765  12.270  1.00  0.00    -0.354 N 
ATOM     53  N   UNL     1      -2.379  -6.145  13.497  1.00  0.00    -0.248 NA
ATOM     54  C   UNL     1      -1.298  -5.318  15.395  1.00  0.00     0.031 C 
ATOM     55  C   UNL     1      -5.815  -8.951  13.598  1.00  0.00     0.029 A 
ATOM     56  C   UNL     1      -4.741  -8.076  13.595  1.00  0.00     0.049 A 
ATOM     57  H   UNL     1      -3.778  -7.154  11.959  1.00  0.00     0.167 HD
ATOM     58  C   UNL     1      -2.961  -6.698  14.630  1.00  0.00     0.074 A 
ATOM     59  C   UNL     1      -2.237  -6.176  15.771  1.00  0.00     0.031 C 
ATOM     60  C   UNL     1      -4.003  -7.559  14.717  1.00  0.00     0.037 A 
BRANCH  47  61
ATOM     61  C   UNL     1      -6.446  -9.098   9.258  1.00  0.00     0.057 A 
ATOM     62  C   UNL     1      -6.150 -10.238   8.498  1.00  0.00     0.134 A 
ATOM     63  C   UNL     1      -7.782  -8.679   9.303  1.00  0.00     0.134 A 
ATOM     64  F   UNL     1      -4.888 -10.682   8.403  1.00  0.00    -0.206 F 
ATOM     65  C   UNL     1      -7.138 -10.915   7.782  1.00  0.00     0.040 A 
ATOM     66  C   UNL     1      -8.783  -9.364   8.613  1.00  0.00     0.040 A 
ATOM     67  F   UNL     1      -8.134  -7.599  10.016  1.00  0.00    -0.206 F 
ATOM     68  C   UNL     1      -8.461 -10.480   7.843  1.00  0.00     0.006 A 
ENDBRANCH  47  61
BRANCH  48  69
ATOM     69  C   UNL     1       0.581  -3.717  13.838  1.00  0.00     0.057 A 
ATOM     70  C   UNL     1       1.659  -4.325  14.492  1.00  0.00     0.134 A 
ATOM     71  C   UNL     1       0.505  -2.321  13.879  1.00  0.00     0.134 A 
ATOM     72  F   UNL     1       1.774  -5.661  14.505  1.00  0.00    -0.206 F 
ATOM     73  C   UNL     1       2.616  -3.575  15.178  1.00  0.00     0.040 A 
ATOM     74  C   UNL     1       1.467  -1.557  14.543  1.00  0.00     0.040 A 
ATOM     75  F   UNL     1      -0.501  -1.679  13.267  1.00  0.00    -0.206 F 
ATOM     76  C   UNL     1       2.523  -2.185  15.201  1.00  0.00     0.006 A 
ENDBRANCH  48  69
BRANCH  60  77
ATOM     77  C   UNL     1      -4.399  -8.020  16.087  1.00  0.00     0.057 A 
ATOM     78  C   UNL     1      -5.096  -7.189  16.972  1.00  0.00     0.134 A 
ATOM     79  C   UNL     1      -4.119  -9.327  16.507  1.00  0.00     0.134 A 
ATOM     80  F   UNL     1      -5.381  -5.923  16.632  1.00  0.00    -0.206 F 
ATOM     81  C   UNL     1      -5.486  -7.635  18.235  1.00  0.00     0.040 A 
ATOM     82  C   UNL     1      -4.523  -9.792  17.758  1.00  0.00     0.040 A 
ATOM     83  F   UNL     1      -3.461 -10.175  15.702  1.00  0.00    -0.206 F 
ATOM     84  C   UNL     1      -5.206  -8.943  18.628  1.00  0.00     0.006 A 
ENDBRANCH  60  77
ENDBRANCH  34  35
ENDBRANCH  26  29
ENDBRANCH  24  25
ENDBRANCH  23  24
ENDBRANCH   1  23
TORSDOF 14
