REMARK SMILES CCOC(=O)[C@@]1(C)C/C(=N/c2cccc(C(=O)NCCCCNC(=O)c3ccc(-c4c5nc(c(-c6c(F)cccc6F)c6ccc([nH]6)c(-c6c(F)cccc6F)c6nc(c(-c7c(F)cccc7F)c7ccc4[nH]7)C=C6)C=C5)cc3)c2)C(=O)N1c1ccccc1
REMARK SMILES IDX 19 1 18 2 16 3 17 4 15 6 11 7 12 8 80 9 13 10 14 11 10 12
REMARK SMILES IDX 6 13 7 14 8 15 83 16 9 17 81 18 82 19 4 20 5 21 3 22 2 23
REMARK SMILES IDX 1 24 84 25 85 26 89 27 86 28 88 29 87 30 20 31 21 32 22 33
REMARK SMILES IDX 23 34 24 35 25 37 26 38 27 39 79 40 28 41 78 42 29 43 30 44
REMARK SMILES IDX 31 45 72 46 32 47 77 48 71 49 73 50 33 51 76 52 70 53 69 54
REMARK SMILES IDX 34 56 60 57 43 58 59 59 44 60 47 61 58 62 74 63 45 64 46 65
REMARK SMILES IDX 57 67 75 68 48 69 35 70 36 71 41 72 37 73 38 74 40 75 42 76
REMARK SMILES IDX 39 77 61 78 62 79 67 80 63 81 64 82 66 83 68 84 65 85 49 86
REMARK SMILES IDX 50 87 55 88 51 89 52 90 54 91 56 92 53 93
REMARK H PARENT 18 5 23 36 73 55 47 66
REMARK Flexibility Score: inf
ROOT
ATOM      1  C   UNL     1       7.156   6.211   1.868  1.00  0.00     0.116 C 
ENDROOT
BRANCH   1   2
ATOM      2  N   UNL     1       7.488   7.247   2.825  1.00  0.00    -0.352 N 
ATOM      3  C   UNL     1       6.747   8.327   3.257  1.00  0.00     0.251 C 
ATOM      4  O   UNL     1       7.257   9.095   4.071  1.00  0.00    -0.269 OA
ATOM      5  H   UNL     1       8.382   7.168   3.229  1.00  0.00     0.163 HD
BRANCH   3   6
ATOM      6  C   UNL     1       5.382   8.618   2.735  1.00  0.00     0.041 A 
ATOM      7  C   UNL     1       3.247   7.914   1.780  1.00  0.00     0.064 A 
ATOM      8  C   UNL     1       2.888   9.253   1.628  1.00  0.00     0.028 A 
ATOM      9  C   UNL     1       4.484   7.615   2.365  1.00  0.00     0.042 A 
ATOM     10  C   UNL     1       3.743  10.271   2.061  1.00  0.00     0.003 A 
ATOM     11  C   UNL     1       4.989   9.954   2.607  1.00  0.00     0.014 A 
BRANCH   7  12
ATOM     12  N   UNL     1       2.483   6.918   1.149  1.00  0.00    -0.248 NA
ATOM     13  C   UNL     1       2.606   3.540   1.676  1.00  0.00     0.148 C 
ATOM     14  C   UNL     1       4.005   3.568   1.010  1.00  0.00     0.048 C 
ATOM     15  C   UNL     1       1.730   4.615   0.971  1.00  0.00     0.103 C 
ATOM     16  N   UNL     1       2.674   4.003   3.084  1.00  0.00    -0.290 N 
ATOM     17  C   UNL     1       2.180   5.807   1.741  1.00  0.00     0.109 C 
ATOM     18  C   UNL     1       2.416   5.372   3.162  1.00  0.00     0.273 C 
ATOM     19  O   UNL     1       2.379   6.141   4.098  1.00  0.00    -0.267 OA
BRANCH  13  20
ATOM     20  C   UNL     1       1.996   2.132   1.465  1.00  0.00     0.332 C 
ATOM     21  O   UNL     1       2.653   1.099   1.426  1.00  0.00    -0.249 OA
BRANCH  20  22
ATOM     22  O   UNL     1       0.640   2.166   1.351  1.00  0.00    -0.464 OA
BRANCH  22  23
ATOM     23  C   UNL     1       0.001   0.890   1.176  1.00  0.00     0.229 C 
ATOM     24  C   UNL     1       0.131   0.406  -0.259  1.00  0.00     0.049 C 
ENDBRANCH  22  23
ENDBRANCH  20  22
ENDBRANCH  13  20
BRANCH  16  25
ATOM     25  C   UNL     1       3.011   3.205   4.216  1.00  0.00     0.045 A 
ATOM     26  C   UNL     1       2.600   3.589   5.503  1.00  0.00     0.026 A 
ATOM     27  C   UNL     1       3.764   2.030   4.111  1.00  0.00     0.026 A 
ATOM     28  C   UNL     1       2.915   2.826   6.633  1.00  0.00     0.002 A 
ATOM     29  C   UNL     1       4.091   1.269   5.241  1.00  0.00     0.002 A 
ATOM     30  C   UNL     1       3.663   1.663   6.502  1.00  0.00     0.000 A 
ENDBRANCH  16  25
ENDBRANCH   7  12
ENDBRANCH   3   6
ENDBRANCH   1   2
BRANCH   1  31
ATOM     31  C   UNL     1       8.352   5.500   1.246  1.00  0.00     0.023 C 
BRANCH  31  32
ATOM     32  C   UNL     1       9.341   4.841   2.209  1.00  0.00     0.023 C 
BRANCH  32  33
ATOM     33  C   UNL     1       8.755   4.055   3.381  1.00  0.00     0.116 C 
BRANCH  33  34
ATOM     34  N   UNL     1       7.850   2.989   2.984  1.00  0.00    -0.352 N 
ATOM     35  C   UNL     1       7.929   1.625   3.116  1.00  0.00     0.251 C 
ATOM     36  H   UNL     1       7.029   3.303   2.539  1.00  0.00     0.163 HD
ATOM     37  O   UNL     1       7.036   0.928   2.640  1.00  0.00    -0.269 OA
BRANCH  35  38
ATOM     38  C   UNL     1       9.086   0.972   3.772  1.00  0.00     0.039 A 
ATOM     39  C   UNL     1       9.642  -0.156   3.157  1.00  0.00     0.014 A 
ATOM     40  C   UNL     1       9.612   1.426   4.983  1.00  0.00     0.014 A 
ATOM     41  C   UNL     1      10.780  -0.762   3.697  1.00  0.00     0.010 A 
ATOM     42  C   UNL     1      10.781   0.858   5.493  1.00  0.00     0.010 A 
ATOM     43  C   UNL     1      11.389  -0.227   4.841  1.00  0.00    -0.014 A 
BRANCH  43  44
ATOM     44  C   UNL     1      12.690  -0.746   5.334  1.00  0.00     0.031 A 
ATOM     45  C   UNL     1      12.793  -1.426   6.668  1.00  0.00     0.074 A 
ATOM     46  C   UNL     1      13.805  -0.524   4.612  1.00  0.00     0.049 A 
ATOM     47  N   UNL     1      13.865  -1.793   7.324  1.00  0.00    -0.248 NA
ATOM     48  C   UNL     1      11.530  -1.711   7.365  1.00  0.00     0.031 C 
ATOM     49  C   UNL     1      13.857   0.162   3.319  1.00  0.00     0.029 A 
ATOM     50  N   UNL     1      15.114  -0.839   4.874  1.00  0.00    -0.354 N 
ATOM     51  C   UNL     1      13.412  -2.299   8.534  1.00  0.00     0.074 A 
ATOM     52  C   UNL     1      11.966  -2.213   8.513  1.00  0.00     0.031 C 
ATOM     53  C   UNL     1      15.131   0.204   2.895  1.00  0.00     0.029 A 
ATOM     54  C   UNL     1      15.985  -0.423   3.898  1.00  0.00     0.049 A 
ATOM     55  H   UNL     1      15.402  -1.317   5.685  1.00  0.00     0.167 HD
ATOM     56  C   UNL     1      14.135  -2.782   9.572  1.00  0.00     0.037 A 
ATOM     57  C   UNL     1      17.325  -0.519   3.824  1.00  0.00     0.037 A 
ATOM     58  C   UNL     1      15.566  -2.928   9.583  1.00  0.00     0.049 A 
ATOM     59  C   UNL     1      18.093  -1.151   4.943  1.00  0.00     0.074 A 
ATOM     60  C   UNL     1      16.374  -3.447  10.581  1.00  0.00     0.029 A 
ATOM     61  N   UNL     1      16.401  -2.569   8.538  1.00  0.00    -0.354 N 
ATOM     62  N   UNL     1      17.649  -1.619   6.082  1.00  0.00    -0.248 NA
ATOM     63  C   UNL     1      19.549  -1.262   4.768  1.00  0.00     0.031 C 
ATOM     64  C   UNL     1      17.702  -3.404  10.136  1.00  0.00     0.029 A 
ATOM     65  C   UNL     1      17.715  -2.862   8.862  1.00  0.00     0.049 A 
ATOM     66  H   UNL     1      16.104  -2.165   7.691  1.00  0.00     0.167 HD
ATOM     67  C   UNL     1      18.768  -2.075   6.764  1.00  0.00     0.074 A 
ATOM     68  C   UNL     1      19.911  -1.841   5.905  1.00  0.00     0.031 C 
ATOM     69  C   UNL     1      18.839  -2.630   7.996  1.00  0.00     0.037 A 
BRANCH  56  70
ATOM     70  C   UNL     1      13.378  -3.173  10.800  1.00  0.00     0.057 A 
ATOM     71  C   UNL     1      12.783  -4.432  10.926  1.00  0.00     0.134 A 
ATOM     72  C   UNL     1      13.266  -2.284  11.877  1.00  0.00     0.134 A 
ATOM     73  F   UNL     1      12.847  -5.317   9.921  1.00  0.00    -0.206 F 
ATOM     74  C   UNL     1      12.091  -4.793  12.083  1.00  0.00     0.040 A 
ATOM     75  C   UNL     1      12.584  -2.637  13.041  1.00  0.00     0.040 A 
ATOM     76  F   UNL     1      13.815  -1.062  11.810  1.00  0.00    -0.206 F 
ATOM     77  C   UNL     1      11.993  -3.895  13.146  1.00  0.00     0.006 A 
ENDBRANCH  56  70
BRANCH  57  78
ATOM     78  C   UNL     1      18.027   0.002   2.631  1.00  0.00     0.057 A 
ATOM     79  C   UNL     1      18.376  -0.848   1.578  1.00  0.00     0.134 A 
ATOM     80  C   UNL     1      18.348   1.357   2.514  1.00  0.00     0.134 A 
ATOM     81  F   UNL     1      18.102  -2.159   1.649  1.00  0.00    -0.206 F 
ATOM     82  C   UNL     1      19.027  -0.367   0.442  1.00  0.00     0.040 A 
ATOM     83  C   UNL     1      18.992   1.854   1.381  1.00  0.00     0.040 A 
ATOM     84  F   UNL     1      18.035   2.215   3.496  1.00  0.00    -0.206 F 
ATOM     85  C   UNL     1      19.334   0.990   0.341  1.00  0.00     0.006 A 
ENDBRANCH  57  78
BRANCH  69  86
ATOM     86  C   UNL     1      20.196  -3.026   8.480  1.00  0.00     0.057 A 
ATOM     87  C   UNL     1      21.033  -2.106   9.120  1.00  0.00     0.134 A 
ATOM     88  C   UNL     1      20.662  -4.335   8.319  1.00  0.00     0.134 A 
ATOM     89  F   UNL     1      20.643  -0.834   9.289  1.00  0.00    -0.206 F 
ATOM     90  C   UNL     1      22.297  -2.476   9.582  1.00  0.00     0.040 A 
ATOM     91  C   UNL     1      21.922  -4.718   8.781  1.00  0.00     0.040 A 
ATOM     92  F   UNL     1      19.904  -5.257   7.706  1.00  0.00    -0.206 F 
ATOM     93  C   UNL     1      22.743  -3.786   9.415  1.00  0.00     0.006 A 
ENDBRANCH  69  86
ENDBRANCH  43  44
ENDBRANCH  35  38
ENDBRANCH  33  34
ENDBRANCH  32  33
ENDBRANCH  31  32
ENDBRANCH   1  31
TORSDOF 16
