REMARK SMILES O=C(C[C@H]1C[C@H]2CC[C@@H](C1)N2C(=O)NCc1ncn[nH]1)NCCCCNC(=O)c1ccc(-c2c3nc(c(-c4c(F)cccc4F)c4ccc([nH]4)c(-c4c(F)cccc4F)c4nc(c(-c5c(F)cccc5F)c5ccc2[nH]5)C=C4)C=C3)cc1
REMARK SMILES IDX 22 1 21 2 1 3 2 4 3 6 4 7 5 8 10 9 6 10 9 11 7 12 11 13 8 14
REMARK SMILES IDX 12 15 13 16 14 17 15 19 16 20 17 21 20 22 18 23 19 24 23 26
REMARK SMILES IDX 24 27 25 28 26 29 27 30 28 32 29 33 30 34 82 35 31 36 81 37
REMARK SMILES IDX 32 38 33 39 34 40 75 41 35 42 80 43 74 44 76 45 36 46 79 47
REMARK SMILES IDX 73 48 72 49 37 51 63 52 46 53 62 54 47 55 50 56 61 57 77 58
REMARK SMILES IDX 48 59 49 60 60 62 78 63 51 64 38 65 39 66 44 67 40 68 41 69
REMARK SMILES IDX 43 70 45 71 42 72 64 73 65 74 70 75 66 76 67 77 69 78 71 79
REMARK SMILES IDX 68 80 52 81 53 82 58 83 54 84 55 85 57 86 59 87 56 88
REMARK H PARENT 21 5 14 18 20 25 26 31 76 50 50 61
REMARK Flexibility Score: inf
ROOT
ATOM      1  C   UNL     1       1.542   1.717  -2.079  1.00  0.00     0.116 C 
ENDROOT
BRANCH   1   2
ATOM      2  N   UNL     1       2.247   0.847  -1.160  1.00  0.00    -0.356 N 
ATOM      3  O   UNL     1       0.486  -0.403  -0.420  1.00  0.00    -0.275 OA
ATOM      4  C   UNL     1       1.687  -0.147  -0.394  1.00  0.00     0.220 C 
ATOM      5  H   UNL     1       3.219   0.980  -1.076  1.00  0.00     0.163 HD
BRANCH   4   6
ATOM      6  C   UNL     1       2.630  -0.822   0.621  1.00  0.00     0.103 C 
BRANCH   6   7
ATOM      7  C   UNL     1       3.903  -1.573   0.145  1.00  0.00     0.002 C 
ATOM      8  C   UNL     1       4.678  -0.964  -1.026  1.00  0.00     0.029 C 
ATOM      9  C   UNL     1       4.920  -1.853   1.304  1.00  0.00     0.029 C 
ATOM     10  C   UNL     1       5.638   0.156  -0.587  1.00  0.00     0.087 C 
ATOM     11  C   UNL     1       6.074  -0.809   1.468  1.00  0.00     0.087 C 
ATOM     12  C   UNL     1       5.162   1.176   0.469  1.00  0.00     0.027 C 
ATOM     13  N   UNL     1       6.679  -0.504   0.170  1.00  0.00    -0.319 N 
ATOM     14  C   UNL     1       5.511   0.561   1.834  1.00  0.00     0.027 C 
BRANCH  13  15
ATOM     15  C   UNL     1       7.912  -0.594  -0.378  1.00  0.00     0.318 C 
ATOM     16  O   UNL     1       8.085  -0.426  -1.591  1.00  0.00    -0.249 OA
ATOM     17  N   UNL     1       9.022  -0.785   0.341  1.00  0.00    -0.331 N 
ATOM     18  H   UNL     1       9.826  -0.906  -0.214  1.00  0.00     0.165 HD
BRANCH  17  19
ATOM     19  C   UNL     1       9.295  -0.853   1.752  1.00  0.00     0.194 C 
BRANCH  19  20
ATOM     20  C   UNL     1       9.373  -2.278   2.156  1.00  0.00     0.143 A 
ATOM     21  N   UNL     1       8.612  -3.286   1.778  1.00  0.00    -0.218 NA
ATOM     22  N   UNL     1      10.338  -2.751   2.999  1.00  0.00    -0.262 N 
ATOM     23  C   UNL     1       9.190  -4.362   2.383  1.00  0.00     0.246 A 
ATOM     24  N   UNL     1      10.239  -4.079   3.158  1.00  0.00    -0.162 NA
ATOM     25  H   UNL     1      11.020  -2.189   3.433  1.00  0.00     0.192 HD
ENDBRANCH  19  20
ENDBRANCH  17  19
ENDBRANCH  13  15
ENDBRANCH   6   7
ENDBRANCH   4   6
ENDBRANCH   1   2
BRANCH   1  26
ATOM     26  C   UNL     1       2.021   3.170  -1.950  1.00  0.00     0.023 C 
BRANCH  26  27
ATOM     27  C   UNL     1       3.530   3.427  -2.100  1.00  0.00     0.023 C 
BRANCH  27  28
ATOM     28  C   UNL     1       4.205   2.884  -3.358  1.00  0.00     0.116 C 
BRANCH  28  29
ATOM     29  N   UNL     1       3.791   3.594  -4.553  1.00  0.00    -0.352 N 
ATOM     30  C   UNL     1       4.526   4.298  -5.476  1.00  0.00     0.251 C 
ATOM     31  H   UNL     1       2.823   3.567  -4.732  1.00  0.00     0.163 HD
ATOM     32  O   UNL     1       3.933   4.974  -6.313  1.00  0.00    -0.269 OA
BRANCH  30  33
ATOM     33  C   UNL     1       6.012   4.283  -5.480  1.00  0.00     0.039 A 
ATOM     34  C   UNL     1       6.683   5.471  -5.798  1.00  0.00     0.014 A 
ATOM     35  C   UNL     1       6.754   3.120  -5.256  1.00  0.00     0.014 A 
ATOM     36  C   UNL     1       8.081   5.505  -5.842  1.00  0.00     0.010 A 
ATOM     37  C   UNL     1       8.153   3.168  -5.242  1.00  0.00     0.010 A 
ATOM     38  C   UNL     1       8.833   4.360  -5.538  1.00  0.00    -0.014 A 
BRANCH  38  39
ATOM     39  C   UNL     1      10.322   4.402  -5.523  1.00  0.00     0.031 A 
ATOM     40  C   UNL     1      11.126   3.609  -6.520  1.00  0.00     0.074 A 
ATOM     41  C   UNL     1      10.962   5.124  -4.582  1.00  0.00     0.049 A 
ATOM     42  N   UNL     1      12.427   3.483  -6.622  1.00  0.00    -0.248 NA
ATOM     43  C   UNL     1      10.369   2.847  -7.524  1.00  0.00     0.031 C 
ATOM     44  C   UNL     1      10.312   5.916  -3.537  1.00  0.00     0.029 A 
ATOM     45  N   UNL     1      12.304   5.299  -4.345  1.00  0.00    -0.354 N 
ATOM     46  C   UNL     1      12.643   2.621  -7.691  1.00  0.00     0.074 A 
ATOM     47  C   UNL     1      11.338   2.223  -8.178  1.00  0.00     0.031 C 
ATOM     48  C   UNL     1      11.253   6.501  -2.779  1.00  0.00     0.029 A 
ATOM     49  C   UNL     1      12.572   6.098  -3.259  1.00  0.00     0.049 A 
ATOM     50  H   UNL     1      13.008   4.891  -4.900  1.00  0.00     0.167 HD
ATOM     51  C   UNL     1      13.817   2.212  -8.230  1.00  0.00     0.037 A 
ATOM     52  C   UNL     1      13.745   6.458  -2.703  1.00  0.00     0.037 A 
ATOM     53  C   UNL     1      15.118   2.615  -7.759  1.00  0.00     0.049 A 
ATOM     54  C   UNL     1      15.034   5.976  -3.307  1.00  0.00     0.074 A 
ATOM     55  C   UNL     1      16.361   2.285  -8.273  1.00  0.00     0.029 A 
ATOM     56  N   UNL     1      15.344   3.432  -6.662  1.00  0.00    -0.354 N 
ATOM     57  N   UNL     1      15.221   5.204  -4.349  1.00  0.00    -0.248 NA
ATOM     58  C   UNL     1      16.278   6.419  -2.659  1.00  0.00     0.031 C 
ATOM     59  C   UNL     1      17.340   2.868  -7.462  1.00  0.00     0.029 A 
ATOM     60  C   UNL     1      16.707   3.600  -6.471  1.00  0.00     0.049 A 
ATOM     61  H   UNL     1      14.641   3.833  -6.102  1.00  0.00     0.167 HD
ATOM     62  C   UNL     1      16.598   5.092  -4.498  1.00  0.00     0.074 A 
ATOM     63  C   UNL     1      17.200   5.885  -3.447  1.00  0.00     0.031 C 
ATOM     64  C   UNL     1      17.298   4.394  -5.425  1.00  0.00     0.037 A 
BRANCH  51  65
ATOM     65  C   UNL     1      13.751   1.274  -9.401  1.00  0.00     0.057 A 
ATOM     66  C   UNL     1      13.322   1.701 -10.665  1.00  0.00     0.134 A 
ATOM     67  C   UNL     1      14.163  -0.059  -9.277  1.00  0.00     0.134 A 
ATOM     68  F   UNL     1      12.908   2.964 -10.851  1.00  0.00    -0.206 F 
ATOM     69  C   UNL     1      13.279   0.830 -11.755  1.00  0.00     0.040 A 
ATOM     70  C   UNL     1      14.149  -0.933 -10.366  1.00  0.00     0.040 A 
ATOM     71  F   UNL     1      14.597  -0.531  -8.098  1.00  0.00    -0.206 F 
ATOM     72  C   UNL     1      13.700  -0.490 -11.608  1.00  0.00     0.006 A 
ENDBRANCH  51  65
BRANCH  52  73
ATOM     73  C   UNL     1      13.757   7.335  -1.504  1.00  0.00     0.057 A 
ATOM     74  C   UNL     1      14.205   8.658  -1.582  1.00  0.00     0.134 A 
ATOM     75  C   UNL     1      13.333   6.869  -0.254  1.00  0.00     0.134 A 
ATOM     76  F   UNL     1      14.645   9.155  -2.748  1.00  0.00    -0.206 F 
ATOM     77  C   UNL     1      14.248   9.483  -0.457  1.00  0.00     0.040 A 
ATOM     78  C   UNL     1      13.346   7.690   0.874  1.00  0.00     0.040 A 
ATOM     79  F   UNL     1      12.889   5.611  -0.114  1.00  0.00    -0.206 F 
ATOM     80  C   UNL     1      13.812   9.000   0.776  1.00  0.00     0.006 A 
ENDBRANCH  52  73
BRANCH  64  81
ATOM     81  C   UNL     1      18.796   4.480  -5.365  1.00  0.00     0.057 A 
ATOM     82  C   UNL     1      19.535   3.838  -4.364  1.00  0.00     0.134 A 
ATOM     83  C   UNL     1      19.509   5.187  -6.343  1.00  0.00     0.134 A 
ATOM     84  F   UNL     1      18.913   3.157  -3.390  1.00  0.00    -0.206 F 
ATOM     85  C   UNL     1      20.929   3.912  -4.325  1.00  0.00     0.040 A 
ATOM     86  C   UNL     1      20.903   5.247  -6.329  1.00  0.00     0.040 A 
ATOM     87  F   UNL     1      18.862   5.819  -7.333  1.00  0.00    -0.206 F 
ATOM     88  C   UNL     1      21.617   4.613  -5.314  1.00  0.00     0.006 A 
ENDBRANCH  64  81
ENDBRANCH  38  39
ENDBRANCH  30  33
ENDBRANCH  28  29
ENDBRANCH  27  28
ENDBRANCH  26  27
ENDBRANCH   1  26
TORSDOF 15
