REMARK SMILES CN1C(=O)C[C@@H](C(=O)NCCCCNC(=O)c2ccc(-c3c4nc(c(-c5c(F)cccc5F)c5ccc([nH]5)c(-c5c(F)cccc5F)c5nc(c(-c6c(F)cccc6F)c6ccc3[nH]6)C=C5)C=C4)cc2)C12CCN(C(=O)c1ccccc1-n1cccn1)CC2
REMARK SMILES IDX 11 1 10 2 9 3 7 4 8 5 6 7 1 8 2 9 3 10 71 11 4 12 5 13 72 14
REMARK SMILES IDX 89 15 73 16 88 17 74 18 75 19 76 20 77 21 78 22 82 23 79 24
REMARK SMILES IDX 81 25 80 26 83 27 84 28 87 29 85 30 86 31 12 32 13 33 14 34
REMARK SMILES IDX 15 35 16 37 17 38 18 39 70 40 19 41 69 42 20 43 21 44 22 45
REMARK SMILES IDX 63 46 23 47 68 48 62 49 64 50 24 51 67 52 61 53 60 54 25 56
REMARK SMILES IDX 51 57 34 58 50 59 35 60 38 61 49 62 65 63 36 64 37 65 48 67
REMARK SMILES IDX 66 68 39 69 26 70 27 71 32 72 28 73 29 74 31 75 33 76 30 77
REMARK SMILES IDX 52 78 53 79 58 80 54 81 55 82 57 83 59 84 56 85 40 86 41 87
REMARK SMILES IDX 46 88 42 89 43 90 45 91 47 92 44 93
REMARK H PARENT 9 6 14 36 64 55 38 66
REMARK Flexibility Score: inf
ROOT
ATOM      1  C   UNL     1       0.981   0.210  -3.744  1.00  0.00     0.023 C 
ENDROOT
BRANCH   1   2
ATOM      2  C   UNL     1       0.785   1.713  -3.515  1.00  0.00     0.116 C 
BRANCH   2   3
ATOM      3  N   UNL     1      -0.589   2.169  -3.658  1.00  0.00    -0.356 N 
ATOM      4  C   UNL     1      -1.535   2.603  -2.786  1.00  0.00     0.226 C 
ATOM      5  O   UNL     1      -2.608   2.959  -3.289  1.00  0.00    -0.275 OA
ATOM      6  H   UNL     1      -0.902   2.160  -4.591  1.00  0.00     0.163 HD
BRANCH   4   7
ATOM      7  C   UNL     1      -1.399   2.640  -1.258  1.00  0.00     0.113 C 
ATOM      8  C   UNL     1       1.070   0.178   0.084  1.00  0.00     0.147 C 
ATOM      9  N   UNL     1       0.273   1.323  -0.311  1.00  0.00    -0.339 N 
ATOM     10  C   UNL     1       0.794   2.612  -0.314  1.00  0.00     0.223 C 
ATOM     11  C   UNL     1      -1.183   1.292  -0.532  1.00  0.00     0.058 C 
ATOM     12  O   UNL     1       1.934   2.939  -0.025  1.00  0.00    -0.275 OA
ATOM     13  C   UNL     1      -0.272   3.558  -0.789  1.00  0.00     0.116 C 
ATOM     14  C   UNL     1      -1.690   0.090  -1.357  1.00  0.00     0.051 C 
ATOM     15  C   UNL     1      -1.869   1.264   0.874  1.00  0.00     0.051 C 
ATOM     16  C   UNL     1      -3.208  -0.021  -1.369  1.00  0.00     0.122 C 
ATOM     17  C   UNL     1      -3.371   0.967   0.852  1.00  0.00     0.122 C 
ATOM     18  N   UNL     1      -3.663  -0.179  -0.001  1.00  0.00    -0.338 N 
ATOM     19  C   UNL     1      -4.281  -1.314   0.520  1.00  0.00     0.256 C 
ATOM     20  O   UNL     1      -4.634  -1.427   1.690  1.00  0.00    -0.269 OA
BRANCH  19  21
ATOM     21  C   UNL     1      -4.578  -2.445  -0.392  1.00  0.00     0.065 A 
ATOM     22  C   UNL     1      -5.918  -2.545  -0.803  1.00  0.00     0.016 A 
ATOM     23  C   UNL     1      -3.611  -3.298  -0.950  1.00  0.00     0.077 A 
ATOM     24  C   UNL     1      -6.289  -3.457  -1.791  1.00  0.00     0.001 A 
ATOM     25  C   UNL     1      -3.991  -4.175  -1.984  1.00  0.00     0.029 A 
ATOM     26  C   UNL     1      -5.323  -4.258  -2.394  1.00  0.00     0.002 A 
BRANCH  23  27
ATOM     27  N   UNL     1      -2.257  -3.324  -0.527  1.00  0.00    -0.240 N 
ATOM     28  C   UNL     1      -1.722  -2.989   0.699  1.00  0.00     0.115 A 
ATOM     29  N   UNL     1      -1.282  -3.735  -1.385  1.00  0.00    -0.177 NA
ATOM     30  C   UNL     1      -0.360  -3.155   0.608  1.00  0.00     0.042 A 
ATOM     31  C   UNL     1      -0.146  -3.602  -0.702  1.00  0.00     0.135 A 
ENDBRANCH  23  27
ENDBRANCH  19  21
ENDBRANCH   4   7
ENDBRANCH   2   3
ENDBRANCH   1   2
BRANCH   1  32
ATOM     32  C   UNL     1       0.718  -0.259  -5.173  1.00  0.00     0.023 C 
BRANCH  32  33
ATOM     33  C   UNL     1       1.614   0.397  -6.213  1.00  0.00     0.116 C 
BRANCH  33  34
ATOM     34  N   UNL     1       3.032   0.266  -5.902  1.00  0.00    -0.352 N 
ATOM     35  C   UNL     1       4.074  -0.029  -6.744  1.00  0.00     0.251 C 
ATOM     36  H   UNL     1       3.275   0.408  -4.959  1.00  0.00     0.163 HD
ATOM     37  O   UNL     1       5.198  -0.240  -6.301  1.00  0.00    -0.269 OA
BRANCH  35  38
ATOM     38  C   UNL     1       3.812  -0.117  -8.191  1.00  0.00     0.039 A 
ATOM     39  C   UNL     1       4.267  -1.234  -8.894  1.00  0.00     0.014 A 
ATOM     40  C   UNL     1       3.068   0.877  -8.829  1.00  0.00     0.014 A 
ATOM     41  C   UNL     1       3.910  -1.388 -10.233  1.00  0.00     0.010 A 
ATOM     42  C   UNL     1       2.644   0.681 -10.135  1.00  0.00     0.010 A 
ATOM     43  C   UNL     1       3.064  -0.452 -10.849  1.00  0.00    -0.014 A 
BRANCH  43  44
ATOM     44  C   UNL     1       2.606  -0.627 -12.247  1.00  0.00     0.031 A 
ATOM     45  C   UNL     1       2.992   0.385 -13.288  1.00  0.00     0.074 A 
ATOM     46  C   UNL     1       1.774  -1.640 -12.553  1.00  0.00     0.049 A 
ATOM     47  N   UNL     1       2.611   0.472 -14.536  1.00  0.00    -0.248 NA
ATOM     48  C   UNL     1       3.896   1.464 -12.858  1.00  0.00     0.031 C 
ATOM     49  C   UNL     1       1.278  -2.647 -11.611  1.00  0.00     0.029 A 
ATOM     50  N   UNL     1       1.183  -1.980 -13.743  1.00  0.00    -0.354 N 
ATOM     51  C   UNL     1       3.204   1.627 -15.028  1.00  0.00     0.074 A 
ATOM     52  C   UNL     1       3.928   2.235 -13.934  1.00  0.00     0.031 C 
ATOM     53  C   UNL     1       0.474  -3.501 -12.264  1.00  0.00     0.029 A 
ATOM     54  C   UNL     1       0.371  -3.085 -13.659  1.00  0.00     0.049 A 
ATOM     55  H   UNL     1       1.327  -1.480 -14.579  1.00  0.00     0.167 HD
ATOM     56  C   UNL     1       3.167   2.123 -16.287  1.00  0.00     0.037 A 
ATOM     57  C   UNL     1      -0.377  -3.688 -14.602  1.00  0.00     0.037 A 
ATOM     58  C   UNL     1       2.485   1.487 -17.381  1.00  0.00     0.049 A 
ATOM     59  C   UNL     1      -0.370  -3.139 -16.001  1.00  0.00     0.074 A 
ATOM     60  C   UNL     1       2.457   1.860 -18.713  1.00  0.00     0.029 A 
ATOM     61  N   UNL     1       1.713   0.341 -17.268  1.00  0.00    -0.354 N 
ATOM     62  N   UNL     1       0.258  -2.089 -16.473  1.00  0.00    -0.248 NA
ATOM     63  C   UNL     1      -1.171  -3.860 -17.000  1.00  0.00     0.031 C 
ATOM     64  C   UNL     1       1.639   0.958 -19.401  1.00  0.00     0.029 A 
ATOM     65  C   UNL     1       1.190   0.002 -18.504  1.00  0.00     0.049 A 
ATOM     66  H   UNL     1       1.559  -0.157 -16.433  1.00  0.00     0.167 HD
ATOM     67  C   UNL     1      -0.049  -2.039 -17.826  1.00  0.00     0.074 A 
ATOM     68  C   UNL     1      -0.909  -3.171 -18.102  1.00  0.00     0.031 C 
ATOM     69  C   UNL     1       0.344  -1.136 -18.757  1.00  0.00     0.037 A 
BRANCH  56  70
ATOM     70  C   UNL     1       3.896   3.408 -16.546  1.00  0.00     0.057 A 
ATOM     71  C   UNL     1       5.295   3.475 -16.553  1.00  0.00     0.134 A 
ATOM     72  C   UNL     1       3.190   4.587 -16.817  1.00  0.00     0.134 A 
ATOM     73  F   UNL     1       6.029   2.385 -16.285  1.00  0.00    -0.206 F 
ATOM     74  C   UNL     1       5.967   4.675 -16.795  1.00  0.00     0.040 A 
ATOM     75  C   UNL     1       3.851   5.786 -17.087  1.00  0.00     0.040 A 
ATOM     76  F   UNL     1       1.849   4.591 -16.829  1.00  0.00    -0.206 F 
ATOM     77  C   UNL     1       5.244   5.833 -17.070  1.00  0.00     0.006 A 
ENDBRANCH  56  70
BRANCH  57  78
ATOM     78  C   UNL     1      -1.171  -4.894 -14.262  1.00  0.00     0.057 A 
ATOM     79  C   UNL     1      -0.798  -6.158 -14.733  1.00  0.00     0.134 A 
ATOM     80  C   UNL     1      -2.320  -4.815 -13.466  1.00  0.00     0.134 A 
ATOM     81  F   UNL     1       0.284  -6.294 -15.514  1.00  0.00    -0.206 F 
ATOM     82  C   UNL     1      -1.549  -7.298 -14.443  1.00  0.00     0.040 A 
ATOM     83  C   UNL     1      -3.068  -5.950 -13.149  1.00  0.00     0.040 A 
ATOM     84  F   UNL     1      -2.724  -3.634 -12.976  1.00  0.00    -0.206 F 
ATOM     85  C   UNL     1      -2.687  -7.195 -13.645  1.00  0.00     0.006 A 
ENDBRANCH  57  78
BRANCH  69  86
ATOM     86  C   UNL     1      -0.126  -1.355 -20.163  1.00  0.00     0.057 A 
ATOM     87  C   UNL     1      -1.448  -1.099 -20.546  1.00  0.00     0.134 A 
ATOM     88  C   UNL     1       0.767  -1.781 -21.154  1.00  0.00     0.134 A 
ATOM     89  F   UNL     1      -2.354  -0.701 -19.640  1.00  0.00    -0.206 F 
ATOM     90  C   UNL     1      -1.871  -1.278 -21.864  1.00  0.00     0.040 A 
ATOM     91  C   UNL     1       0.362  -1.940 -22.479  1.00  0.00     0.040 A 
ATOM     92  F   UNL     1       2.050  -2.034 -20.852  1.00  0.00    -0.206 F 
ATOM     93  C   UNL     1      -0.962  -1.693 -22.836  1.00  0.00     0.006 A 
ENDBRANCH  69  86
ENDBRANCH  43  44
ENDBRANCH  35  38
ENDBRANCH  33  34
ENDBRANCH  32  33
ENDBRANCH   1  32
TORSDOF 13
