REMARK SMILES CC(C)C[C@H](NC(=O)[C@H]1CCCCC[C@H]1[NH3+])C(=O)NCCCCNC(=O)c1ccc(-c2c3nc(c(-c4c(F)cccc4F)c4ccc([nH]4)c(-c4c(F)cccc4F)c4nc(c(-c5c(F)cccc5F)c5ccc2[nH]5)C=C4)C=C3)cc1
REMARK SMILES IDX 20 1 19 2 17 3 18 4 5 6 4 7 2 8 1 9 3 10 6 11 7 12 8 14 9 15
REMARK SMILES IDX 10 16 11 17 12 18 15 20 14 21 13 22 16 24 21 28 22 29 23 30
REMARK SMILES IDX 24 31 25 32 26 34 27 35 28 36 80 37 29 38 79 39 30 40 31 41
REMARK SMILES IDX 32 42 73 43 33 44 78 45 72 46 74 47 34 48 77 49 71 50 70 51
REMARK SMILES IDX 35 53 61 54 44 55 60 56 45 57 48 58 59 59 75 60 46 61 47 62
REMARK SMILES IDX 58 64 76 65 49 66 36 67 37 68 42 69 38 70 39 71 41 72 43 73
REMARK SMILES IDX 40 74 62 75 63 76 68 77 64 78 65 79 67 80 69 81 66 82 50 83
REMARK SMILES IDX 51 84 56 85 52 86 53 87 55 88 57 89 54 90
REMARK H PARENT 19 5 6 13 16 25 16 26 16 27 24 33 74 52 48 63
REMARK Flexibility Score: 90.00
ROOT
ATOM      1  C   UNL     1      -2.872   0.779  -2.507  1.00  0.00     0.116 C 
ENDROOT
BRANCH   1   2
ATOM      2  N   UNL     1      -2.568  -0.322  -3.401  1.00  0.00    -0.354 N 
ATOM      3  C   UNL     1      -1.989  -1.533  -3.147  1.00  0.00     0.242 C 
ATOM      4  O   UNL     1      -1.933  -2.341  -4.079  1.00  0.00    -0.273 OA
ATOM      5  H   UNL     1      -2.820  -0.173  -4.341  1.00  0.00     0.163 HD
BRANCH   3   6
ATOM      6  C   UNL     1      -1.484  -1.911  -1.734  1.00  0.00     0.171 C 
BRANCH   6   7
ATOM      7  C   UNL     1      -2.736  -2.023  -0.805  1.00  0.00     0.038 C 
BRANCH   7   8
ATOM      8  C   UNL     1      -2.745  -1.718   0.718  1.00  0.00    -0.015 C 
ATOM      9  C   UNL     1      -2.180  -0.378   1.203  1.00  0.00     0.007 C 
ATOM     10  C   UNL     1      -4.214  -1.774   1.189  1.00  0.00     0.007 C 
ENDBRANCH   7   8
ENDBRANCH   6   7
BRANCH   6  11
ATOM     11  N   UNL     1      -0.393  -1.055  -1.270  1.00  0.00    -0.344 N 
ATOM     12  C   UNL     1       0.904  -0.995  -1.704  1.00  0.00     0.229 C 
ATOM     13  H   UNL     1      -0.625  -0.433  -0.543  1.00  0.00     0.164 HD
ATOM     14  O   UNL     1       1.740  -0.689  -0.847  1.00  0.00    -0.275 OA
BRANCH  12  15
ATOM     15  C   UNL     1       1.289  -1.188  -3.178  1.00  0.00     0.136 C 
BRANCH  15  16
ATOM     16  C   UNL     1       0.977   0.081  -3.990  1.00  0.00     0.020 C 
BRANCH  16  17
ATOM     17  C   UNL     1       1.627   1.367  -3.473  1.00  0.00     0.001 C 
BRANCH  17  18
ATOM     18  C   UNL     1       3.006   1.671  -4.036  1.00  0.00     0.000 CG0
ATOM     19  G   UNL     1       3.914   0.474  -4.270  1.00  0.00     0.000 G0
ENDBRANCH  17  18
ENDBRANCH  16  17
ENDBRANCH  15  16
BRANCH  15  20
ATOM     20  C   UNL     1       2.752  -1.652  -3.399  1.00  0.00     0.193 C 
BRANCH  20  21
ATOM     21  C   UNL     1       3.864  -0.602  -3.184  1.00  0.00     0.066 C 
BRANCH  21  22
ATOM     22  C   UNL     1       3.914   0.474  -4.270  1.00  0.00     0.006 CG0
ATOM     23  G   UNL     1       3.006   1.671  -4.036  1.00  0.00     0.000 G0
ENDBRANCH  21  22
ENDBRANCH  20  21
BRANCH  20  24
ATOM     24  N   UNL     1       3.039  -2.849  -2.592  1.00  0.00    -0.354 N 
ATOM     25  H   UNL     1       2.995  -2.610  -1.602  1.00  0.00     0.344 HD
ATOM     26  H   UNL     1       3.971  -3.195  -2.818  1.00  0.00     0.344 HD
ATOM     27  H   UNL     1       2.349  -3.571  -2.798  1.00  0.00     0.344 HD
ENDBRANCH  20  24
ENDBRANCH  15  20
ENDBRANCH  12  15
ENDBRANCH   6  11
ENDBRANCH   3   6
ENDBRANCH   1   2
BRANCH   1  28
ATOM     28  C   UNL     1      -1.887   1.937  -2.592  1.00  0.00     0.023 C 
BRANCH  28  29
ATOM     29  C   UNL     1      -1.729   2.525  -3.991  1.00  0.00     0.023 C 
BRANCH  29  30
ATOM     30  C   UNL     1      -3.012   3.055  -4.597  1.00  0.00     0.116 C 
BRANCH  30  31
ATOM     31  N   UNL     1      -3.478   4.248  -3.911  1.00  0.00    -0.352 N 
ATOM     32  C   UNL     1      -3.607   5.522  -4.399  1.00  0.00     0.251 C 
ATOM     33  H   UNL     1      -3.735   4.124  -2.968  1.00  0.00     0.163 HD
ATOM     34  O   UNL     1      -3.785   6.463  -3.624  1.00  0.00    -0.269 OA
BRANCH  32  35
ATOM     35  C   UNL     1      -3.519   5.768  -5.854  1.00  0.00     0.039 A 
ATOM     36  C   UNL     1      -2.838   6.896  -6.316  1.00  0.00     0.014 A 
ATOM     37  C   UNL     1      -4.112   4.887  -6.762  1.00  0.00     0.014 A 
ATOM     38  C   UNL     1      -2.717   7.115  -7.690  1.00  0.00     0.010 A 
ATOM     39  C   UNL     1      -3.894   5.044  -8.124  1.00  0.00     0.010 A 
ATOM     40  C   UNL     1      -3.223   6.177  -8.605  1.00  0.00    -0.014 A 
BRANCH  40  41
ATOM     41  C   UNL     1      -3.125   6.384 -10.070  1.00  0.00     0.031 A 
ATOM     42  C   UNL     1      -4.384   6.494 -10.890  1.00  0.00     0.074 A 
ATOM     43  C   UNL     1      -1.920   6.405 -10.671  1.00  0.00     0.049 A 
ATOM     44  N   UNL     1      -4.524   6.571 -12.188  1.00  0.00    -0.248 NA
ATOM     45  C   UNL     1      -5.659   6.472 -10.152  1.00  0.00     0.031 C 
ATOM     46  C   UNL     1      -0.630   6.254  -9.995  1.00  0.00     0.029 A 
ATOM     47  N   UNL     1      -1.586   6.553 -11.993  1.00  0.00    -0.354 N 
ATOM     48  C   UNL     1      -5.894   6.571 -12.419  1.00  0.00     0.074 A 
ATOM     49  C   UNL     1      -6.543   6.428 -11.136  1.00  0.00     0.031 C 
ATOM     50  C   UNL     1       0.355   6.346 -10.903  1.00  0.00     0.029 A 
ATOM     51  C   UNL     1      -0.233   6.526 -12.226  1.00  0.00     0.049 A 
ATOM     52  H   UNL     1      -2.254   6.667 -12.708  1.00  0.00     0.167 HD
ATOM     53  C   UNL     1      -6.556   6.711 -13.592  1.00  0.00     0.037 A 
ATOM     54  C   UNL     1       0.453   6.633 -13.380  1.00  0.00     0.037 A 
ATOM     55  C   UNL     1      -5.908   6.912 -14.859  1.00  0.00     0.049 A 
ATOM     56  C   UNL     1      -0.302   6.823 -14.665  1.00  0.00     0.074 A 
ATOM     57  C   UNL     1      -6.484   7.140 -16.096  1.00  0.00     0.029 A 
ATOM     58  N   UNL     1      -4.534   6.921 -15.047  1.00  0.00    -0.354 N 
ATOM     59  N   UNL     1      -1.597   6.882 -14.862  1.00  0.00    -0.248 NA
ATOM     60  C   UNL     1       0.499   6.967 -15.889  1.00  0.00     0.031 C 
ATOM     61  C   UNL     1      -5.457   7.256 -17.039  1.00  0.00     0.029 A 
ATOM     62  C   UNL     1      -4.243   7.138 -16.382  1.00  0.00     0.049 A 
ATOM     63  H   UNL     1      -3.866   6.791 -14.336  1.00  0.00     0.167 HD
ATOM     64  C   UNL     1      -1.766   7.096 -16.224  1.00  0.00     0.074 A 
ATOM     65  C   UNL     1      -0.440   7.169 -16.802  1.00  0.00     0.031 C 
ATOM     66  C   UNL     1      -2.915   7.219 -16.933  1.00  0.00     0.037 A 
BRANCH  53  67
ATOM     67  C   UNL     1      -8.056   6.666 -13.550  1.00  0.00     0.057 A 
ATOM     68  C   UNL     1      -8.811   7.698 -12.977  1.00  0.00     0.134 A 
ATOM     69  C   UNL     1      -8.755   5.586 -14.103  1.00  0.00     0.134 A 
ATOM     70  F   UNL     1      -8.202   8.754 -12.415  1.00  0.00    -0.206 F 
ATOM     71  C   UNL     1     -10.205   7.645 -12.930  1.00  0.00     0.040 A 
ATOM     72  C   UNL     1     -10.150   5.535 -14.087  1.00  0.00     0.040 A 
ATOM     73  F   UNL     1      -8.095   4.565 -14.670  1.00  0.00    -0.206 F 
ATOM     74  C   UNL     1     -10.878   6.563 -13.492  1.00  0.00     0.006 A 
ENDBRANCH  53  67
BRANCH  54  75
ATOM     75  C   UNL     1       1.937   6.600 -13.367  1.00  0.00     0.057 A 
ATOM     76  C   UNL     1       2.683   7.757 -13.616  1.00  0.00     0.134 A 
ATOM     77  C   UNL     1       2.642   5.420 -13.108  1.00  0.00     0.134 A 
ATOM     78  F   UNL     1       2.063   8.915 -13.887  1.00  0.00    -0.206 F 
ATOM     79  C   UNL     1       4.079   7.740 -13.626  1.00  0.00     0.040 A 
ATOM     80  C   UNL     1       4.038   5.392 -13.091  1.00  0.00     0.040 A 
ATOM     81  F   UNL     1       1.985   4.279 -12.853  1.00  0.00    -0.206 F 
ATOM     82  C   UNL     1       4.760   6.554 -13.358  1.00  0.00     0.006 A 
ENDBRANCH  54  75
BRANCH  66  83
ATOM     83  C   UNL     1      -2.786   7.479 -18.403  1.00  0.00     0.057 A 
ATOM     84  C   UNL     1      -2.397   6.475 -19.298  1.00  0.00     0.134 A 
ATOM     85  C   UNL     1      -3.099   8.737 -18.933  1.00  0.00     0.134 A 
ATOM     86  F   UNL     1      -2.073   5.253 -18.850  1.00  0.00    -0.206 F 
ATOM     87  C   UNL     1      -2.304   6.720 -20.669  1.00  0.00     0.040 A 
ATOM     88  C   UNL     1      -3.033   8.987 -20.304  1.00  0.00     0.040 A 
ATOM     89  F   UNL     1      -3.487   9.738 -18.128  1.00  0.00    -0.206 F 
ATOM     90  C   UNL     1      -2.630   7.977 -21.175  1.00  0.00     0.006 A 
ENDBRANCH  66  83
ENDBRANCH  40  41
ENDBRANCH  32  35
ENDBRANCH  30  31
ENDBRANCH  29  30
ENDBRANCH  28  29
ENDBRANCH   1  28
TORSDOF 16
