REMARK SMILES O=C(Cn1c(SCCOc2ccccc2Cl)nc2ccccc21)NCCCCNC(=O)c1ccc(-c2c3nc(c(-c4c(F)cccc4F)c4ccc([nH]4)c(-c4c(F)cccc4F)c4nc(c(-c5c(F)cccc5F)c5ccc2[nH]5)C=C4)C=C3)cc1
REMARK SMILES IDX 1 1 2 2 24 3 3 5 4 6 5 7 23 8 17 9 18 10 22 11 19 12 21 13
REMARK SMILES IDX 20 14 6 15 7 16 8 17 9 18 10 19 11 20 15 21 12 22 14 23
REMARK SMILES IDX 16 24 13 25 25 26 26 27 27 28 28 29 29 30 30 31 31 33 32 34
REMARK SMILES IDX 33 35 85 36 34 37 84 38 35 39 36 40 37 41 78 42 38 43 83 44
REMARK SMILES IDX 77 45 79 46 39 47 82 48 76 49 75 50 40 52 66 53 49 54 65 55
REMARK SMILES IDX 50 56 53 57 64 58 80 59 51 60 52 61 63 63 81 64 54 65 41 66
REMARK SMILES IDX 42 67 47 68 43 69 44 70 46 71 48 72 45 73 67 74 68 75 73 76
REMARK SMILES IDX 69 77 70 78 72 79 74 80 71 81 55 82 56 83 61 84 57 85 58 86
REMARK SMILES IDX 60 87 62 88 59 89
REMARK H PARENT 24 4 29 32 79 51 53 62
REMARK Flexibility Score: inf
ROOT
ATOM      1  O   UNL     1       0.784  -0.335   0.957  1.00  0.00    -0.273 OA
ATOM      2  C   UNL     1       1.835  -0.435   0.345  1.00  0.00     0.240 C 
ATOM      3  N   UNL     1       2.405  -1.639  -0.012  1.00  0.00    -0.355 N 
ATOM      4  H   UNL     1       3.174  -1.645  -0.628  1.00  0.00     0.163 HD
ENDROOT
BRANCH   2   5
ATOM      5  C   UNL     1       2.651   0.753  -0.093  1.00  0.00     0.224 C 
BRANCH   5   6
ATOM      6  N   UNL     1       3.268   1.426   1.025  1.00  0.00    -0.309 N 
ATOM      7  C   UNL     1       3.080   2.710   1.471  1.00  0.00     0.169 A 
ATOM      8  C   UNL     1       4.252   0.851   1.820  1.00  0.00     0.069 A 
ATOM      9  N   UNL     1       3.733   2.916   2.599  1.00  0.00    -0.222 NA
ATOM     10  C   UNL     1       4.480   1.789   2.818  1.00  0.00     0.090 A 
ATOM     11  C   UNL     1       4.965  -0.356   1.758  1.00  0.00     0.028 A 
ATOM     12  C   UNL     1       5.416   1.509   3.829  1.00  0.00     0.030 A 
ATOM     13  C   UNL     1       5.906  -0.613   2.761  1.00  0.00     0.002 A 
ATOM     14  C   UNL     1       6.124   0.300   3.789  1.00  0.00     0.002 A 
BRANCH   7  15
ATOM     15  S   UNL     1       2.133   3.982   0.767  1.00  0.00    -0.084 SA
BRANCH  15  16
ATOM     16  C   UNL     1       2.086   3.870  -1.044  1.00  0.00     0.119 C 
BRANCH  16  17
ATOM     17  C   UNL     1       3.336   3.841  -1.944  1.00  0.00     0.241 C 
BRANCH  17  18
ATOM     18  O   UNL     1       4.282   2.805  -1.698  1.00  0.00    -0.491 OA
BRANCH  18  19
ATOM     19  C   UNL     1       5.358   3.079  -0.887  1.00  0.00     0.137 A 
ATOM     20  C   UNL     1       5.492   4.253  -0.141  1.00  0.00     0.048 A 
ATOM     21  C   UNL     1       6.300   2.052  -0.698  1.00  0.00     0.083 A 
ATOM     22  C   UNL     1       6.459   4.351   0.861  1.00  0.00     0.004 A 
ATOM     23  C   UNL     1       7.280   2.160   0.293  1.00  0.00     0.024 A 
ATOM     24  Cl  UNL     1       6.249   0.591  -1.626  1.00  0.00    -0.080 Cl
ATOM     25  C   UNL     1       7.338   3.299   1.094  1.00  0.00     0.002 A 
ENDBRANCH  18  19
ENDBRANCH  17  18
ENDBRANCH  16  17
ENDBRANCH  15  16
ENDBRANCH   7  15
ENDBRANCH   5   6
ENDBRANCH   2   5
BRANCH   3  26
ATOM     26  C   UNL     1       1.899  -2.888   0.497  1.00  0.00     0.116 C 
BRANCH  26  27
ATOM     27  C   UNL     1       2.562  -4.072  -0.192  1.00  0.00     0.023 C 
BRANCH  27  28
ATOM     28  C   UNL     1       4.085  -4.155  -0.020  1.00  0.00     0.023 C 
BRANCH  28  29
ATOM     29  C   UNL     1       4.580  -4.140   1.427  1.00  0.00     0.116 C 
BRANCH  29  30
ATOM     30  N   UNL     1       3.968  -5.134   2.276  1.00  0.00    -0.352 N 
ATOM     31  C   UNL     1       4.223  -6.444   2.564  1.00  0.00     0.251 C 
ATOM     32  H   UNL     1       3.185  -4.787   2.761  1.00  0.00     0.163 HD
ATOM     33  O   UNL     1       3.557  -6.936   3.477  1.00  0.00    -0.269 OA
BRANCH  31  34
ATOM     34  C   UNL     1       5.159  -7.320   1.812  1.00  0.00     0.039 A 
ATOM     35  C   UNL     1       6.012  -6.916   0.786  1.00  0.00     0.014 A 
ATOM     36  C   UNL     1       5.089  -8.690   2.130  1.00  0.00     0.014 A 
ATOM     37  C   UNL     1       6.652  -7.866  -0.001  1.00  0.00     0.010 A 
ATOM     38  C   UNL     1       5.749  -9.642   1.366  1.00  0.00     0.010 A 
ATOM     39  C   UNL     1       6.473  -9.230   0.257  1.00  0.00    -0.014 A 
BRANCH  39  40
ATOM     40  C   UNL     1       7.146 -10.186  -0.614  1.00  0.00     0.031 A 
ATOM     41  C   UNL     1       8.624 -10.034  -0.646  1.00  0.00     0.074 A 
ATOM     42  C   UNL     1       6.509 -11.153  -1.305  1.00  0.00     0.049 A 
ATOM     43  N   UNL     1       9.347  -9.596  -1.623  1.00  0.00    -0.248 NA
ATOM     44  C   UNL     1       9.367 -10.242   0.604  1.00  0.00     0.031 C 
ATOM     45  C   UNL     1       5.107 -11.570  -1.210  1.00  0.00     0.029 A 
ATOM     46  N   UNL     1       7.021 -12.017  -2.229  1.00  0.00    -0.354 N 
ATOM     47  C   UNL     1      10.666  -9.652  -1.181  1.00  0.00     0.074 A 
ATOM     48  C   UNL     1      10.605  -9.909   0.234  1.00  0.00     0.031 C 
ATOM     49  C   UNL     1       4.933 -12.729  -1.887  1.00  0.00     0.029 A 
ATOM     50  C   UNL     1       6.164 -13.051  -2.588  1.00  0.00     0.049 A 
ATOM     51  H   UNL     1       7.923 -11.917  -2.610  1.00  0.00     0.167 HD
ATOM     52  C   UNL     1      11.698  -9.708  -2.067  1.00  0.00     0.037 A 
ATOM     53  C   UNL     1       6.448 -14.100  -3.400  1.00  0.00     0.037 A 
ATOM     54  C   UNL     1      11.274  -9.284  -3.378  1.00  0.00     0.049 A 
ATOM     55  C   UNL     1       7.594 -13.705  -4.246  1.00  0.00     0.074 A 
ATOM     56  C   UNL     1      10.850  -8.104  -3.953  1.00  0.00     0.029 A 
ATOM     57  N   UNL     1      10.928 -10.281  -4.252  1.00  0.00    -0.354 N 
ATOM     58  N   UNL     1       7.524 -12.793  -5.173  1.00  0.00    -0.248 NA
ATOM     59  C   UNL     1       8.935 -14.030  -3.790  1.00  0.00     0.031 C 
ATOM     60  C   UNL     1       9.901  -8.490  -4.947  1.00  0.00     0.029 A 
ATOM     61  C   UNL     1       9.827  -9.883  -4.960  1.00  0.00     0.049 A 
ATOM     62  H   UNL     1      11.394 -11.142  -4.353  1.00  0.00     0.167 HD
ATOM     63  C   UNL     1       8.735 -12.124  -5.099  1.00  0.00     0.074 A 
ATOM     64  C   UNL     1       9.606 -13.009  -4.329  1.00  0.00     0.031 C 
ATOM     65  C   UNL     1       8.816 -10.802  -5.429  1.00  0.00     0.037 A 
BRANCH  52  66
ATOM     66  C   UNL     1      12.934 -10.567  -1.880  1.00  0.00     0.057 A 
ATOM     67  C   UNL     1      13.031 -11.636  -0.967  1.00  0.00     0.134 A 
ATOM     68  C   UNL     1      13.927 -10.551  -2.881  1.00  0.00     0.134 A 
ATOM     69  F   UNL     1      12.155 -11.822   0.026  1.00  0.00    -0.206 F 
ATOM     70  C   UNL     1      13.989 -12.648  -1.083  1.00  0.00     0.040 A 
ATOM     71  C   UNL     1      14.861 -11.583  -3.031  1.00  0.00     0.040 A 
ATOM     72  F   UNL     1      13.959  -9.579  -3.805  1.00  0.00    -0.206 F 
ATOM     73  C   UNL     1      14.882 -12.648  -2.141  1.00  0.00     0.006 A 
ENDBRANCH  52  66
BRANCH  53  74
ATOM     74  C   UNL     1       5.974 -15.499  -3.324  1.00  0.00     0.057 A 
ATOM     75  C   UNL     1       5.699 -16.094  -2.082  1.00  0.00     0.134 A 
ATOM     76  C   UNL     1       6.060 -16.370  -4.420  1.00  0.00     0.134 A 
ATOM     77  F   UNL     1       5.674 -15.362  -0.959  1.00  0.00    -0.206 F 
ATOM     78  C   UNL     1       5.537 -17.476  -1.932  1.00  0.00     0.040 A 
ATOM     79  C   UNL     1       5.901 -17.757  -4.284  1.00  0.00     0.040 A 
ATOM     80  F   UNL     1       6.367 -15.903  -5.639  1.00  0.00    -0.206 F 
ATOM     81  C   UNL     1       5.650 -18.315  -3.034  1.00  0.00     0.006 A 
ENDBRANCH  53  74
BRANCH  65  82
ATOM     82  C   UNL     1       7.640 -10.214  -6.160  1.00  0.00     0.057 A 
ATOM     83  C   UNL     1       7.831  -9.721  -7.454  1.00  0.00     0.134 A 
ATOM     84  C   UNL     1       6.369 -10.037  -5.594  1.00  0.00     0.134 A 
ATOM     85  F   UNL     1       9.037  -9.805  -8.037  1.00  0.00    -0.206 F 
ATOM     86  C   UNL     1       6.803  -9.096  -8.163  1.00  0.00     0.040 A 
ATOM     87  C   UNL     1       5.321  -9.443  -6.304  1.00  0.00     0.040 A 
ATOM     88  F   UNL     1       6.118 -10.393  -4.328  1.00  0.00    -0.206 F 
ATOM     89  C   UNL     1       5.538  -8.967  -7.593  1.00  0.00     0.006 A 
ENDBRANCH  65  82
ENDBRANCH  39  40
ENDBRANCH  31  34
ENDBRANCH  29  30
ENDBRANCH  28  29
ENDBRANCH  27  28
ENDBRANCH  26  27
ENDBRANCH   3  26
TORSDOF 17
