REMARK SMILES C[C@H]1CC[C@@](CCOCCO)(C(=O)NCCCCNC(=O)c2ccc(-c3c4nc(c(-c5c(F)cccc5F)c5ccc([nH]5)c(-c5c(F)cccc5F)c5nc(c(-c6c(F)cccc6F)c6ccc3[nH]6)C=C5)C=C4)cc2)C1
REMARK SMILES IDX 12 1 13 2 14 3 5 5 1 6 2 7 3 8 76 9 4 10 6 11 7 12 8 13 9 14
REMARK SMILES IDX 10 15 11 16 15 18 16 19 17 20 18 21 19 22 20 23 21 25 22 26
REMARK SMILES IDX 23 27 75 28 24 29 74 30 25 31 26 32 27 33 68 34 28 35 73 36
REMARK SMILES IDX 67 37 69 38 29 39 72 40 66 41 65 42 30 44 56 45 39 46 55 47
REMARK SMILES IDX 40 48 43 49 54 50 70 51 41 52 42 53 53 55 71 56 44 57 31 58
REMARK SMILES IDX 32 59 37 60 33 61 34 62 36 63 38 64 35 65 57 66 58 67 63 68
REMARK SMILES IDX 59 69 60 70 62 71 64 72 61 73 45 74 46 75 51 76 47 77 48 78
REMARK SMILES IDX 50 79 52 80 49 81
REMARK H PARENT 14 4 11 17 19 24 69 43 43 54
REMARK Flexibility Score: inf
ROOT
ATOM      1  C   UNL     1      -2.379   1.211   0.585  1.00  0.00     0.226 C 
ATOM      2  O   UNL     1      -2.415   1.339   1.821  1.00  0.00    -0.274 OA
ATOM      3  N   UNL     1      -3.572   1.485   0.020  1.00  0.00    -0.356 N 
ATOM      4  H   UNL     1      -4.194   1.866   0.681  1.00  0.00     0.163 HD
ENDROOT
BRANCH   1   5
ATOM      5  C   UNL     1      -1.050   0.745  -0.085  1.00  0.00     0.052 C 
ATOM      6  C   UNL     1       2.334   1.196   1.730  1.00  0.00     0.007 C 
ATOM      7  C   UNL     1       1.300   0.718   0.719  1.00  0.00    -0.013 C 
ATOM      8  C   UNL     1       0.701  -0.622   1.104  1.00  0.00     0.004 C 
ATOM      9  C   UNL     1       0.072   1.621   0.614  1.00  0.00     0.020 C 
ATOM     10  C   UNL     1      -0.679  -0.670   0.448  1.00  0.00     0.017 C 
BRANCH   5  11
ATOM     11  C   UNL     1      -0.851   0.942  -1.617  1.00  0.00     0.045 C 
BRANCH  11  12
ATOM     12  C   UNL     1      -1.317  -0.050  -2.704  1.00  0.00     0.161 C 
BRANCH  12  13
ATOM     13  O   UNL     1      -1.301  -1.424  -2.347  1.00  0.00    -0.379 OA
BRANCH  13  14
ATOM     14  C   UNL     1      -2.604  -1.899  -1.993  1.00  0.00     0.188 C 
BRANCH  14  15
ATOM     15  C   UNL     1      -2.542  -3.324  -1.459  1.00  0.00     0.184 C 
BRANCH  15  16
ATOM     16  O   UNL     1      -1.584  -4.076  -2.188  1.00  0.00    -0.394 OA
ATOM     17  H   UNL     1      -1.837  -4.101  -3.124  1.00  0.00     0.210 HD
ENDBRANCH  15  16
ENDBRANCH  14  15
ENDBRANCH  13  14
ENDBRANCH  12  13
ENDBRANCH  11  12
ENDBRANCH   5  11
ENDBRANCH   1   5
BRANCH   3  18
ATOM     18  C   UNL     1      -4.202   1.379  -1.282  1.00  0.00     0.116 C 
BRANCH  18  19
ATOM     19  C   UNL     1      -5.073   0.119  -1.365  1.00  0.00     0.023 C 
BRANCH  19  20
ATOM     20  C   UNL     1      -6.577   0.350  -1.342  1.00  0.00     0.023 C 
BRANCH  20  21
ATOM     21  C   UNL     1      -7.145   0.927  -2.631  1.00  0.00     0.116 C 
BRANCH  21  22
ATOM     22  N   UNL     1      -6.974   0.075  -3.805  1.00  0.00    -0.352 N 
ATOM     23  C   UNL     1      -7.893  -0.282  -4.777  1.00  0.00     0.251 C 
ATOM     24  H   UNL     1      -6.071  -0.300  -3.922  1.00  0.00     0.163 HD
ATOM     25  O   UNL     1      -7.588  -1.039  -5.676  1.00  0.00    -0.269 OA
BRANCH  23  26
ATOM     26  C   UNL     1      -9.277   0.231  -4.663  1.00  0.00     0.039 A 
ATOM     27  C   UNL     1     -10.343  -0.668  -4.724  1.00  0.00     0.014 A 
ATOM     28  C   UNL     1      -9.499   1.574  -4.367  1.00  0.00     0.014 A 
ATOM     29  C   UNL     1     -11.620  -0.241  -4.350  1.00  0.00     0.010 A 
ATOM     30  C   UNL     1     -10.735   1.960  -3.874  1.00  0.00     0.010 A 
ATOM     31  C   UNL     1     -11.810   1.057  -3.850  1.00  0.00    -0.014 A 
BRANCH  31  32
ATOM     32  C   UNL     1     -13.110   1.507  -3.288  1.00  0.00     0.031 A 
ATOM     33  C   UNL     1     -13.776   2.735  -3.849  1.00  0.00     0.074 A 
ATOM     34  C   UNL     1     -13.630   0.894  -2.204  1.00  0.00     0.049 A 
ATOM     35  N   UNL     1     -14.811   3.396  -3.400  1.00  0.00    -0.248 NA
ATOM     36  C   UNL     1     -13.153   3.337  -5.040  1.00  0.00     0.031 C 
ATOM     37  C   UNL     1     -13.044  -0.253  -1.506  1.00  0.00     0.029 A 
ATOM     38  N   UNL     1     -14.772   1.163  -1.491  1.00  0.00    -0.354 N 
ATOM     39  C   UNL     1     -14.921   4.516  -4.213  1.00  0.00     0.074 A 
ATOM     40  C   UNL     1     -13.815   4.478  -5.143  1.00  0.00     0.031 C 
ATOM     41  C   UNL     1     -13.852  -0.616  -0.496  1.00  0.00     0.029 A 
ATOM     42  C   UNL     1     -14.992   0.292  -0.450  1.00  0.00     0.049 A 
ATOM     43  H   UNL     1     -15.377   1.909  -1.705  1.00  0.00     0.167 HD
ATOM     44  C   UNL     1     -15.877   5.475  -4.212  1.00  0.00     0.037 A 
ATOM     45  C   UNL     1     -16.006   0.231   0.434  1.00  0.00     0.037 A 
ATOM     46  C   UNL     1     -17.030   5.455  -3.355  1.00  0.00     0.049 A 
ATOM     47  C   UNL     1     -17.110   1.248   0.351  1.00  0.00     0.074 A 
ATOM     48  C   UNL     1     -18.114   6.313  -3.347  1.00  0.00     0.029 A 
ATOM     49  N   UNL     1     -17.258   4.507  -2.370  1.00  0.00    -0.354 N 
ATOM     50  N   UNL     1     -17.237   2.264  -0.467  1.00  0.00    -0.248 NA
ATOM     51  C   UNL     1     -18.216   1.105   1.308  1.00  0.00     0.031 C 
ATOM     52  C   UNL     1     -18.995   5.890  -2.346  1.00  0.00     0.029 A 
ATOM     53  C   UNL     1     -18.469   4.756  -1.749  1.00  0.00     0.049 A 
ATOM     54  H   UNL     1     -16.649   3.766  -2.146  1.00  0.00     0.167 HD
ATOM     55  C   UNL     1     -18.446   2.864  -0.143  1.00  0.00     0.074 A 
ATOM     56  C   UNL     1     -19.021   2.091   0.939  1.00  0.00     0.031 C 
ATOM     57  C   UNL     1     -19.029   3.959  -0.690  1.00  0.00     0.037 A 
BRANCH  44  58
ATOM     58  C   UNL     1     -15.722   6.601  -5.191  1.00  0.00     0.057 A 
ATOM     59  C   UNL     1     -15.879   6.407  -6.570  1.00  0.00     0.134 A 
ATOM     60  C   UNL     1     -15.410   7.893  -4.751  1.00  0.00     0.134 A 
ATOM     61  F   UNL     1     -16.161   5.189  -7.058  1.00  0.00    -0.206 F 
ATOM     62  C   UNL     1     -15.691   7.449  -7.480  1.00  0.00     0.040 A 
ATOM     63  C   UNL     1     -15.249   8.950  -5.649  1.00  0.00     0.040 A 
ATOM     64  F   UNL     1     -15.251   8.149  -3.444  1.00  0.00    -0.206 F 
ATOM     65  C   UNL     1     -15.380   8.726  -7.019  1.00  0.00     0.006 A 
ENDBRANCH  44  58
BRANCH  45  66
ATOM     66  C   UNL     1     -16.062  -0.862   1.436  1.00  0.00     0.057 A 
ATOM     67  C   UNL     1     -16.988  -1.904   1.301  1.00  0.00     0.134 A 
ATOM     68  C   UNL     1     -15.216  -0.891   2.549  1.00  0.00     0.134 A 
ATOM     69  F   UNL     1     -17.837  -1.920   0.263  1.00  0.00    -0.206 F 
ATOM     70  C   UNL     1     -17.087  -2.924   2.248  1.00  0.00     0.040 A 
ATOM     71  C   UNL     1     -15.290  -1.917   3.495  1.00  0.00     0.040 A 
ATOM     72  F   UNL     1     -14.302   0.072   2.731  1.00  0.00    -0.206 F 
ATOM     73  C   UNL     1     -16.233  -2.933   3.349  1.00  0.00     0.006 A 
ENDBRANCH  45  66
BRANCH  57  74
ATOM     74  C   UNL     1     -20.369   4.359  -0.155  1.00  0.00     0.057 A 
ATOM     75  C   UNL     1     -20.505   5.001   1.081  1.00  0.00     0.134 A 
ATOM     76  C   UNL     1     -21.529   4.143  -0.909  1.00  0.00     0.134 A 
ATOM     77  F   UNL     1     -19.431   5.223   1.854  1.00  0.00    -0.206 F 
ATOM     78  C   UNL     1     -21.753   5.403   1.556  1.00  0.00     0.040 A 
ATOM     79  C   UNL     1     -22.779   4.559  -0.454  1.00  0.00     0.040 A 
ATOM     80  F   UNL     1     -21.461   3.538  -2.105  1.00  0.00    -0.206 F 
ATOM     81  C   UNL     1     -22.894   5.189   0.784  1.00  0.00     0.006 A 
ENDBRANCH  57  74
ENDBRANCH  31  32
ENDBRANCH  23  26
ENDBRANCH  21  22
ENDBRANCH  20  21
ENDBRANCH  19  20
ENDBRANCH  18  19
ENDBRANCH   3  18
TORSDOF 17
