REMARK SMILES CCN(CC)c1ccc([C@@H]2c3[nH]c4ccccc4c3C[C@@H](C(=O)NCCCCNC(=O)c3ccc(-c4c5nc(c(-c6c(F)cccc6F)c6ccc([nH]6)c(-c6c(F)cccc6F)c6nc(c(-c7c(F)cccc7F)c7ccc4[nH]7)C=C6)C=C5)cc3)N2C(C)=O)cc1
REMARK SMILES IDX 26 1 25 2 24 3 22 4 23 5 21 7 10 8 11 9 86 10 12 11 19 12
REMARK SMILES IDX 13 13 18 15 20 16 14 17 17 18 15 19 16 20 9 21 6 22 7 23
REMARK SMILES IDX 91 24 8 25 90 26 3 27 2 28 1 29 4 30 5 31 87 32 88 33 89 34
REMARK SMILES IDX 27 35 28 36 29 37 30 38 31 40 32 41 33 42 85 43 34 44 84 45
REMARK SMILES IDX 35 46 36 47 37 48 78 49 38 50 83 51 77 52 79 53 39 54 82 55
REMARK SMILES IDX 76 56 75 57 40 59 66 60 49 61 65 62 50 63 53 64 64 65 80 66
REMARK SMILES IDX 51 67 52 68 63 70 81 71 54 72 41 73 42 74 47 75 43 76 44 77
REMARK SMILES IDX 46 78 48 79 45 80 67 81 68 82 73 83 69 84 70 85 72 86 74 87
REMARK SMILES IDX 71 88 55 89 56 90 61 91 57 92 58 93 60 94 62 95 59 96
REMARK H PARENT 24 6 12 14 29 39 79 58 53 69
REMARK Flexibility Score: inf
ROOT
ATOM      1  C   UNL     1       6.416   5.188   3.295  1.00  0.00     0.023 C 
ENDROOT
BRANCH   1   2
ATOM      2  C   UNL     1       7.835   4.604   3.311  1.00  0.00     0.116 C 
BRANCH   2   3
ATOM      3  N   UNL     1       7.976   3.298   2.630  1.00  0.00    -0.354 N 
ATOM      4  C   UNL     1       8.281   2.804   1.392  1.00  0.00     0.243 C 
ATOM      5  O   UNL     1       8.376   1.566   1.355  1.00  0.00    -0.273 OA
ATOM      6  H   UNL     1       7.796   2.562   3.259  1.00  0.00     0.163 HD
BRANCH   4   7
ATOM      7  C   UNL     1       8.335   3.583   0.026  1.00  0.00     0.179 C 
ATOM      8  C   UNL     1       5.897   3.865   0.018  1.00  0.00     0.163 C 
ATOM      9  C   UNL     1       6.189   5.346   0.196  1.00  0.00     0.047 A 
ATOM     10  N   UNL     1       7.057   3.451  -0.769  1.00  0.00    -0.318 N 
ATOM     11  N   UNL     1       5.308   6.372   0.387  1.00  0.00    -0.356 N 
ATOM     12  C   UNL     1       7.472   5.897   0.234  1.00  0.00    -0.014 A 
ATOM     13  C   UNL     1       5.971   7.573   0.263  1.00  0.00     0.046 A 
ATOM     14  H   UNL     1       4.349   6.269   0.582  1.00  0.00     0.166 HD
ATOM     15  C   UNL     1       7.337   7.300   0.206  1.00  0.00     0.003 A 
ATOM     16  C   UNL     1       8.716   5.066   0.161  1.00  0.00     0.073 C 
ATOM     17  C   UNL     1       5.462   8.869   0.190  1.00  0.00     0.026 A 
ATOM     18  C   UNL     1       8.251   8.360   0.097  1.00  0.00     0.010 A 
ATOM     19  C   UNL     1       6.384   9.905   0.025  1.00  0.00     0.002 A 
ATOM     20  C   UNL     1       7.756   9.660  -0.014  1.00  0.00     0.001 A 
BRANCH   8  21
ATOM     21  C   UNL     1       4.524   3.362  -0.365  1.00  0.00    -0.019 A 
ATOM     22  C   UNL     1       1.824   2.432  -0.551  1.00  0.00     0.037 A 
ATOM     23  C   UNL     1       2.188   3.741  -0.875  1.00  0.00     0.026 A 
ATOM     24  C   UNL     1       2.887   1.556  -0.301  1.00  0.00     0.026 A 
ATOM     25  C   UNL     1       3.504   4.193  -0.810  1.00  0.00     0.008 A 
ATOM     26  C   UNL     1       4.212   2.005  -0.202  1.00  0.00     0.008 A 
BRANCH  22  27
ATOM     27  N   UNL     1       0.495   2.037  -0.473  1.00  0.00    -0.372 N 
BRANCH  27  28
ATOM     28  C   UNL     1       0.059   1.169   0.632  1.00  0.00     0.113 C 
ATOM     29  C   UNL     1       0.170  -0.313   0.306  1.00  0.00     0.027 C 
ENDBRANCH  27  28
BRANCH  27  30
ATOM     30  C   UNL     1      -0.556   2.725  -1.238  1.00  0.00     0.113 C 
ATOM     31  C   UNL     1      -0.996   4.049  -0.613  1.00  0.00     0.027 C 
ENDBRANCH  27  30
ENDBRANCH  22  27
ENDBRANCH   8  21
BRANCH  10  32
ATOM     32  C   UNL     1       6.949   3.695  -2.145  1.00  0.00     0.220 C 
ATOM     33  C   UNL     1       8.171   4.023  -2.963  1.00  0.00     0.114 C 
ATOM     34  O   UNL     1       5.868   3.737  -2.741  1.00  0.00    -0.275 OA
ENDBRANCH  10  32
ENDBRANCH   4   7
ENDBRANCH   2   3
ENDBRANCH   1   2
BRANCH   1  35
ATOM     35  C   UNL     1       5.811   5.702   4.596  1.00  0.00     0.023 C 
BRANCH  35  36
ATOM     36  C   UNL     1       6.451   6.947   5.202  1.00  0.00     0.116 C 
BRANCH  36  37
ATOM     37  N   UNL     1       6.324   8.184   4.434  1.00  0.00    -0.352 N 
ATOM     38  C   UNL     1       6.042   9.473   4.871  1.00  0.00     0.251 C 
ATOM     39  H   UNL     1       6.457   8.090   3.463  1.00  0.00     0.163 HD
ATOM     40  O   UNL     1       5.995  10.400   4.082  1.00  0.00    -0.269 OA
BRANCH  38  41
ATOM     41  C   UNL     1       5.721   9.717   6.304  1.00  0.00     0.039 A 
ATOM     42  C   UNL     1       4.630  10.531   6.629  1.00  0.00     0.014 A 
ATOM     43  C   UNL     1       6.430   9.083   7.320  1.00  0.00     0.014 A 
ATOM     44  C   UNL     1       4.168  10.583   7.950  1.00  0.00     0.010 A 
ATOM     45  C   UNL     1       5.895   9.031   8.602  1.00  0.00     0.010 A 
ATOM     46  C   UNL     1       4.747   9.767   8.934  1.00  0.00    -0.014 A 
BRANCH  46  47
ATOM     47  C   UNL     1       4.174   9.641  10.305  1.00  0.00     0.031 A 
ATOM     48  C   UNL     1       5.033   9.920  11.511  1.00  0.00     0.074 A 
ATOM     49  C   UNL     1       2.923   9.162  10.476  1.00  0.00     0.049 A 
ATOM     50  N   UNL     1       4.771   9.727  12.780  1.00  0.00    -0.248 NA
ATOM     51  C   UNL     1       6.386  10.436  11.253  1.00  0.00     0.031 C 
ATOM     52  C   UNL     1       2.005   8.774   9.402  1.00  0.00     0.029 A 
ATOM     53  N   UNL     1       2.211   8.904  11.623  1.00  0.00    -0.354 N 
ATOM     54  C   UNL     1       5.936  10.061  13.460  1.00  0.00     0.074 A 
ATOM     55  C   UNL     1       6.925  10.401  12.462  1.00  0.00     0.031 C 
ATOM     56  C   UNL     1       0.844   8.363   9.939  1.00  0.00     0.029 A 
ATOM     57  C   UNL     1       0.946   8.416  11.393  1.00  0.00     0.049 A 
ATOM     58  H   UNL     1       2.574   9.055  12.526  1.00  0.00     0.167 HD
ATOM     59  C   UNL     1       6.157  10.114  14.795  1.00  0.00     0.037 A 
ATOM     60  C   UNL     1      -0.022   8.049  12.255  1.00  0.00     0.037 A 
ATOM     61  C   UNL     1       5.157   9.834  15.790  1.00  0.00     0.049 A 
ATOM     62  C   UNL     1       0.230   8.158  13.735  1.00  0.00     0.074 A 
ATOM     63  C   UNL     1       5.255   9.944  17.166  1.00  0.00     0.029 A 
ATOM     64  N   UNL     1       3.870   9.398  15.514  1.00  0.00    -0.354 N 
ATOM     65  N   UNL     1       1.313   8.548  14.362  1.00  0.00    -0.248 NA
ATOM     66  C   UNL     1      -0.877   7.781  14.626  1.00  0.00     0.031 C 
ATOM     67  C   UNL     1       4.037   9.541  17.724  1.00  0.00     0.029 A 
ATOM     68  C   UNL     1       3.168   9.222  16.694  1.00  0.00     0.049 A 
ATOM     69  H   UNL     1       3.509   9.238  14.612  1.00  0.00     0.167 HD
ATOM     70  C   UNL     1       1.009   8.493  15.716  1.00  0.00     0.074 A 
ATOM     71  C   UNL     1      -0.364   8.044  15.819  1.00  0.00     0.031 C 
ATOM     72  C   UNL     1       1.797   8.787  16.779  1.00  0.00     0.037 A 
BRANCH  59  73
ATOM     73  C   UNL     1       7.532  10.511  15.252  1.00  0.00     0.057 A 
ATOM     74  C   UNL     1       8.024  11.811  15.071  1.00  0.00     0.134 A 
ATOM     75  C   UNL     1       8.369   9.588  15.890  1.00  0.00     0.134 A 
ATOM     76  F   UNL     1       7.278  12.741  14.455  1.00  0.00    -0.206 F 
ATOM     77  C   UNL     1       9.312  12.168  15.473  1.00  0.00     0.040 A 
ATOM     78  C   UNL     1       9.648   9.942  16.326  1.00  0.00     0.040 A 
ATOM     79  F   UNL     1       7.960   8.328  16.103  1.00  0.00    -0.206 F 
ATOM     80  C   UNL     1      10.126  11.233  16.108  1.00  0.00     0.006 A 
ENDBRANCH  59  73
BRANCH  60  81
ATOM     81  C   UNL     1      -1.338   7.583  11.748  1.00  0.00     0.057 A 
ATOM     82  C   UNL     1      -2.485   8.375  11.889  1.00  0.00     0.134 A 
ATOM     83  C   UNL     1      -1.490   6.339  11.124  1.00  0.00     0.134 A 
ATOM     84  F   UNL     1      -2.408   9.569  12.496  1.00  0.00    -0.206 F 
ATOM     85  C   UNL     1      -3.736   7.940  11.449  1.00  0.00     0.040 A 
ATOM     86  C   UNL     1      -2.731   5.901  10.657  1.00  0.00     0.040 A 
ATOM     87  F   UNL     1      -0.431   5.534  10.951  1.00  0.00    -0.206 F 
ATOM     88  C   UNL     1      -3.860   6.700  10.826  1.00  0.00     0.006 A 
ENDBRANCH  60  81
BRANCH  72  89
ATOM     89  C   UNL     1       1.184   8.672  18.143  1.00  0.00     0.057 A 
ATOM     90  C   UNL     1       0.913   7.430  18.730  1.00  0.00     0.134 A 
ATOM     91  C   UNL     1       0.907   9.820  18.897  1.00  0.00     0.134 A 
ATOM     92  F   UNL     1       1.145   6.294  18.056  1.00  0.00    -0.206 F 
ATOM     93  C   UNL     1       0.368   7.334  20.012  1.00  0.00     0.040 A 
ATOM     94  C   UNL     1       0.386   9.736  20.189  1.00  0.00     0.040 A 
ATOM     95  F   UNL     1       1.152  11.040  18.396  1.00  0.00    -0.206 F 
ATOM     96  C   UNL     1       0.111   8.490  20.747  1.00  0.00     0.006 A 
ENDBRANCH  72  89
ENDBRANCH  46  47
ENDBRANCH  38  41
ENDBRANCH  36  37
ENDBRANCH  35  36
ENDBRANCH   1  35
TORSDOF 16
