REMARK SMILES O=C(NCCCCNC(=O)[C@H]1CC[C@H](CN2C(=O)c3cccnc3C2=O)O1)c1ccc(-c2c3nc(c(-c4c(F)cccc4F)c4ccc([nH]4)c(-c4c(F)cccc4F)c4nc(c(-c5c(F)cccc5F)c5ccc2[nH]5)C=C4)C=C3)cc1
REMARK SMILES IDX 5 1 4 2 3 3 1 4 2 5 28 7 29 8 81 9 30 10 80 11 31 12 32 13
REMARK SMILES IDX 33 14 74 15 34 16 79 17 73 18 75 19 35 20 78 21 72 22 71 23
REMARK SMILES IDX 36 25 62 26 45 27 61 28 46 29 49 30 60 31 76 32 47 33 48 34
REMARK SMILES IDX 59 36 77 37 50 38 37 39 38 40 43 41 39 42 40 43 42 44 44 45
REMARK SMILES IDX 41 46 63 47 64 48 69 49 65 50 66 51 68 52 70 53 67 54 51 55
REMARK SMILES IDX 52 56 57 57 53 58 54 59 56 60 58 61 55 62 6 63 7 64 8 65
REMARK SMILES IDX 9 66 10 68 11 69 12 70 27 71 13 72 14 73 15 74 16 75 17 76
REMARK SMILES IDX 25 77 18 78 19 79 24 80 26 81 20 82 23 83 21 84 22 85
REMARK H PARENT 3 6 75 24 49 35 8 67
REMARK Flexibility Score: inf
ROOT
ATOM      1  C   UNL     1       9.417   0.172   6.647  1.00  0.00     0.023 C 
ENDROOT
BRANCH   1   2
ATOM      2  C   UNL     1      10.886  -0.215   6.777  1.00  0.00     0.116 C 
BRANCH   2   3
ATOM      3  N   UNL     1      11.657   0.119   5.590  1.00  0.00    -0.352 N 
ATOM      4  O   UNL     1      13.229   1.195   4.382  1.00  0.00    -0.269 OA
ATOM      5  C   UNL     1      12.797   0.875   5.484  1.00  0.00     0.251 C 
ATOM      6  H   UNL     1      11.312  -0.248   4.744  1.00  0.00     0.163 HD
BRANCH   5   7
ATOM      7  C   UNL     1      13.490   1.320   6.709  1.00  0.00     0.039 A 
ATOM      8  C   UNL     1      13.742   0.424   7.752  1.00  0.00     0.014 A 
ATOM      9  C   UNL     1      13.893   2.654   6.809  1.00  0.00     0.014 A 
ATOM     10  C   UNL     1      14.286   0.887   8.944  1.00  0.00     0.010 A 
ATOM     11  C   UNL     1      14.511   3.099   7.977  1.00  0.00     0.010 A 
ATOM     12  C   UNL     1      14.691   2.225   9.062  1.00  0.00    -0.014 A 
BRANCH  12  13
ATOM     13  C   UNL     1      15.363   2.695  10.297  1.00  0.00     0.031 A 
ATOM     14  C   UNL     1      14.738   3.753  11.158  1.00  0.00     0.074 A 
ATOM     15  C   UNL     1      16.570   2.191  10.611  1.00  0.00     0.049 A 
ATOM     16  N   UNL     1      15.229   4.357  12.210  1.00  0.00    -0.248 NA
ATOM     17  C   UNL     1      13.390   4.200  10.779  1.00  0.00     0.031 C 
ATOM     18  C   UNL     1      17.277   1.163   9.845  1.00  0.00     0.029 A 
ATOM     19  N   UNL     1      17.425   2.489  11.641  1.00  0.00    -0.354 N 
ATOM     20  C   UNL     1      14.263   5.273  12.606  1.00  0.00     0.074 A 
ATOM     21  C   UNL     1      13.169   5.163  11.663  1.00  0.00     0.031 C 
ATOM     22  C   UNL     1      18.457   0.915  10.430  1.00  0.00     0.029 A 
ATOM     23  C   UNL     1      18.618   1.813  11.569  1.00  0.00     0.049 A 
ATOM     24  H   UNL     1      17.206   3.124  12.360  1.00  0.00     0.167 HD
ATOM     25  C   UNL     1      14.290   6.125  13.659  1.00  0.00     0.037 A 
ATOM     26  C   UNL     1      19.737   1.931  12.306  1.00  0.00     0.037 A 
ATOM     27  C   UNL     1      15.390   6.226  14.585  1.00  0.00     0.049 A 
ATOM     28  C   UNL     1      19.768   2.916  13.437  1.00  0.00     0.074 A 
ATOM     29  C   UNL     1      15.498   7.022  15.712  1.00  0.00     0.029 A 
ATOM     30  N   UNL     1      16.582   5.522  14.479  1.00  0.00    -0.354 N 
ATOM     31  N   UNL     1      18.832   3.744  13.832  1.00  0.00    -0.248 NA
ATOM     32  C   UNL     1      21.005   2.983  14.225  1.00  0.00     0.031 C 
ATOM     33  C   UNL     1      16.779   6.853  16.246  1.00  0.00     0.029 A 
ATOM     34  C   UNL     1      17.445   5.894  15.498  1.00  0.00     0.049 A 
ATOM     35  H   UNL     1      16.785   4.856  13.783  1.00  0.00     0.167 HD
ATOM     36  C   UNL     1      19.354   4.412  14.931  1.00  0.00     0.074 A 
ATOM     37  C   UNL     1      20.690   3.891  15.140  1.00  0.00     0.031 C 
ATOM     38  C   UNL     1      18.771   5.364  15.700  1.00  0.00     0.037 A 
BRANCH  25  39
ATOM     39  C   UNL     1      13.115   7.045  13.836  1.00  0.00     0.057 A 
ATOM     40  C   UNL     1      11.841   6.575  14.185  1.00  0.00     0.134 A 
ATOM     41  C   UNL     1      13.262   8.428  13.658  1.00  0.00     0.134 A 
ATOM     42  F   UNL     1      11.625   5.263  14.365  1.00  0.00    -0.206 F 
ATOM     43  C   UNL     1      10.750   7.439  14.305  1.00  0.00     0.040 A 
ATOM     44  C   UNL     1      12.186   9.305  13.808  1.00  0.00     0.040 A 
ATOM     45  F   UNL     1      14.455   8.951  13.337  1.00  0.00    -0.206 F 
ATOM     46  C   UNL     1      10.922   8.809  14.119  1.00  0.00     0.006 A 
ENDBRANCH  25  39
BRANCH  26  47
ATOM     47  C   UNL     1      20.916   1.099  11.963  1.00  0.00     0.057 A 
ATOM     48  C   UNL     1      21.315   0.035  12.777  1.00  0.00     0.134 A 
ATOM     49  C   UNL     1      21.632   1.311  10.777  1.00  0.00     0.134 A 
ATOM     50  F   UNL     1      20.675  -0.210  13.930  1.00  0.00    -0.206 F 
ATOM     51  C   UNL     1      22.387  -0.788  12.427  1.00  0.00     0.040 A 
ATOM     52  C   UNL     1      22.687   0.479  10.401  1.00  0.00     0.040 A 
ATOM     53  F   UNL     1      21.288   2.307   9.947  1.00  0.00    -0.206 F 
ATOM     54  C   UNL     1      23.069  -0.573  11.230  1.00  0.00     0.006 A 
ENDBRANCH  26  47
BRANCH  38  55
ATOM     55  C   UNL     1      19.549   5.881  16.876  1.00  0.00     0.057 A 
ATOM     56  C   UNL     1      20.640   6.745  16.726  1.00  0.00     0.134 A 
ATOM     57  C   UNL     1      19.142   5.572  18.181  1.00  0.00     0.134 A 
ATOM     58  F   UNL     1      21.090   7.068  15.505  1.00  0.00    -0.206 F 
ATOM     59  C   UNL     1      21.302   7.280  17.834  1.00  0.00     0.040 A 
ATOM     60  C   UNL     1      19.778   6.122  19.294  1.00  0.00     0.040 A 
ATOM     61  F   UNL     1      18.100   4.753  18.394  1.00  0.00    -0.206 F 
ATOM     62  C   UNL     1      20.862   6.979  19.122  1.00  0.00     0.006 A 
ENDBRANCH  38  55
ENDBRANCH  12  13
ENDBRANCH   5   7
ENDBRANCH   2   3
ENDBRANCH   1   2
BRANCH   1  63
ATOM     63  C   UNL     1       8.678  -0.488   5.481  1.00  0.00     0.023 C 
BRANCH  63  64
ATOM     64  C   UNL     1       8.791  -2.010   5.449  1.00  0.00     0.116 C 
BRANCH  64  65
ATOM     65  N   UNL     1       8.160  -2.610   6.607  1.00  0.00    -0.354 N 
ATOM     66  C   UNL     1       7.020  -3.353   6.698  1.00  0.00     0.249 C 
ATOM     67  H   UNL     1       8.626  -2.458   7.461  1.00  0.00     0.163 HD
ATOM     68  O   UNL     1       6.648  -3.688   7.825  1.00  0.00    -0.272 OA
BRANCH  66  69
ATOM     69  C   UNL     1       6.271  -3.780   5.424  1.00  0.00     0.207 C 
ATOM     70  C   UNL     1       6.368  -5.287   5.249  1.00  0.00     0.045 C 
ATOM     71  O   UNL     1       4.880  -3.448   5.506  1.00  0.00    -0.363 OA
ATOM     72  C   UNL     1       5.102  -5.776   5.906  1.00  0.00     0.037 C 
ATOM     73  C   UNL     1       4.110  -4.660   5.612  1.00  0.00     0.139 C 
BRANCH  73  74
ATOM     74  C   UNL     1       3.330  -4.846   4.297  1.00  0.00     0.161 C 
BRANCH  74  75
ATOM     75  N   UNL     1       2.531  -6.055   4.285  1.00  0.00    -0.270 N 
ATOM     76  C   UNL     1       2.785  -7.142   3.496  1.00  0.00     0.263 C 
ATOM     77  C   UNL     1       1.456  -6.263   5.111  1.00  0.00     0.280 C 
ATOM     78  O   UNL     1       3.661  -7.307   2.671  1.00  0.00    -0.269 OA
ATOM     79  C   UNL     1       1.801  -8.154   3.853  1.00  0.00     0.071 A 
ATOM     80  C   UNL     1       0.998  -7.630   4.838  1.00  0.00     0.141 A 
ATOM     81  O   UNL     1       0.982  -5.493   5.926  1.00  0.00    -0.267 OA
ATOM     82  C   UNL     1       1.610  -9.449   3.423  1.00  0.00     0.018 A 
ATOM     83  N   UNL     1       0.005  -8.278   5.471  1.00  0.00    -0.250 NA
ATOM     84  C   UNL     1       0.587 -10.168   4.046  1.00  0.00     0.021 A 
ATOM     85  C   UNL     1      -0.174  -9.553   5.051  1.00  0.00     0.112 A 
ENDBRANCH  74  75
ENDBRANCH  73  74
ENDBRANCH  66  69
ENDBRANCH  64  65
ENDBRANCH  63  64
ENDBRANCH   1  63
TORSDOF 13
