REMARK SMILES O=C(NCCCCNC(=O)[C@H]1[C@@H](C(=O)NNC(=O)c2ccccc2Cl)[C@H]2C=C[C@@H]1C2)c1ccc(-c2c3nc(c(-c4c(F)cccc4F)c4ccc([nH]4)c(-c4c(F)cccc4F)c4nc(c(-c5c(F)cccc5F)c5ccc2[nH]5)C=C4)C=C3)cc1
REMARK SMILES IDX 6 1 5 2 4 3 3 4 1 5 2 6 31 8 32 9 84 10 33 11 83 12 34 13
REMARK SMILES IDX 35 14 36 15 77 16 37 17 82 18 76 19 78 20 38 21 81 22 75 23
REMARK SMILES IDX 74 24 39 26 65 27 48 28 64 29 49 30 52 31 63 32 79 33 50 34
REMARK SMILES IDX 51 35 62 37 80 38 53 39 40 40 41 41 46 42 42 43 43 44 45 45
REMARK SMILES IDX 47 46 44 47 66 48 67 49 72 50 68 51 69 52 71 53 73 54 70 55
REMARK SMILES IDX 54 56 55 57 60 58 56 59 57 60 59 61 61 62 58 63 7 64 8 65
REMARK SMILES IDX 9 66 10 68 11 69 12 70 29 71 26 72 28 73 30 74 27 75 13 76
REMARK SMILES IDX 14 77 15 78 16 80 17 81 18 83 19 84 20 85 24 86 21 87 23 88
REMARK SMILES IDX 25 89 22 90
REMARK H PARENT 3 7 78 25 52 36 8 67 15 79 16 82
REMARK Flexibility Score: inf
ROOT
ATOM      1  C   UNL     1       2.975   7.927   0.377  1.00  0.00     0.023 C 
ENDROOT
BRANCH   1   2
ATOM      2  C   UNL     1       1.599   8.629   0.356  1.00  0.00     0.023 C 
BRANCH   2   3
ATOM      3  C   UNL     1       1.242   9.525   1.551  1.00  0.00     0.116 C 
BRANCH   3   4
ATOM      4  N   UNL     1       1.452  10.944   1.317  1.00  0.00    -0.352 N 
ATOM      5  O   UNL     1       0.888  13.146   1.285  1.00  0.00    -0.269 OA
ATOM      6  C   UNL     1       0.552  11.983   1.462  1.00  0.00     0.251 C 
ATOM      7  H   UNL     1       2.354  11.199   1.014  1.00  0.00     0.163 HD
BRANCH   6   8
ATOM      8  C   UNL     1      -0.841  11.682   1.861  1.00  0.00     0.039 A 
ATOM      9  C   UNL     1      -1.092  11.244   3.152  1.00  0.00     0.014 A 
ATOM     10  C   UNL     1      -1.898  11.814   0.967  1.00  0.00     0.014 A 
ATOM     11  C   UNL     1      -2.361  10.766   3.495  1.00  0.00     0.010 A 
ATOM     12  C   UNL     1      -3.198  11.430   1.355  1.00  0.00     0.010 A 
ATOM     13  C   UNL     1      -3.450  10.837   2.608  1.00  0.00    -0.014 A 
BRANCH  13  14
ATOM     14  C   UNL     1      -4.796  10.248   2.973  1.00  0.00     0.031 A 
ATOM     15  C   UNL     1      -5.552   9.361   1.997  1.00  0.00     0.074 A 
ATOM     16  C   UNL     1      -5.357  10.436   4.192  1.00  0.00     0.049 A 
ATOM     17  N   UNL     1      -6.794   8.936   2.049  1.00  0.00    -0.248 NA
ATOM     18  C   UNL     1      -4.828   8.903   0.800  1.00  0.00     0.031 C 
ATOM     19  C   UNL     1      -4.787  11.227   5.283  1.00  0.00     0.029 A 
ATOM     20  N   UNL     1      -6.530   9.949   4.733  1.00  0.00    -0.354 N 
ATOM     21  C   UNL     1      -7.024   8.255   0.857  1.00  0.00     0.074 A 
ATOM     22  C   UNL     1      -5.787   8.302   0.107  1.00  0.00     0.031 C 
ATOM     23  C   UNL     1      -5.545  11.088   6.381  1.00  0.00     0.029 A 
ATOM     24  C   UNL     1      -6.740  10.326   6.041  1.00  0.00     0.049 A 
ATOM     25  H   UNL     1      -7.159   9.383   4.230  1.00  0.00     0.167 HD
ATOM     26  C   UNL     1      -8.156   7.650   0.419  1.00  0.00     0.037 A 
ATOM     27  C   UNL     1      -7.791  10.152   6.870  1.00  0.00     0.037 A 
ATOM     28  C   UNL     1      -9.360   7.491   1.196  1.00  0.00     0.049 A 
ATOM     29  C   UNL     1      -9.037   9.479   6.365  1.00  0.00     0.074 A 
ATOM     30  C   UNL     1     -10.539   6.856   0.835  1.00  0.00     0.029 A 
ATOM     31  N   UNL     1      -9.533   7.936   2.495  1.00  0.00    -0.354 N 
ATOM     32  N   UNL     1      -9.263   8.930   5.198  1.00  0.00    -0.248 NA
ATOM     33  C   UNL     1     -10.191   9.445   7.278  1.00  0.00     0.031 C 
ATOM     34  C   UNL     1     -11.437   6.949   1.903  1.00  0.00     0.029 A 
ATOM     35  C   UNL     1     -10.802   7.603   2.944  1.00  0.00     0.049 A 
ATOM     36  H   UNL     1      -8.855   8.417   3.023  1.00  0.00     0.167 HD
ATOM     37  C   UNL     1     -10.583   8.497   5.234  1.00  0.00     0.074 A 
ATOM     38  C   UNL     1     -11.096   8.807   6.550  1.00  0.00     0.031 C 
ATOM     39  C   UNL     1     -11.311   7.913   4.252  1.00  0.00     0.037 A 
BRANCH  26  40
ATOM     40  C   UNL     1      -8.183   7.130  -0.991  1.00  0.00     0.057 A 
ATOM     41  C   UNL     1      -7.535   5.950  -1.372  1.00  0.00     0.134 A 
ATOM     42  C   UNL     1      -8.962   7.780  -1.960  1.00  0.00     0.134 A 
ATOM     43  F   UNL     1      -6.767   5.284  -0.496  1.00  0.00    -0.206 F 
ATOM     44  C   UNL     1      -7.651   5.441  -2.668  1.00  0.00     0.040 A 
ATOM     45  C   UNL     1      -9.106   7.268  -3.250  1.00  0.00     0.040 A 
ATOM     46  F   UNL     1      -9.622   8.908  -1.657  1.00  0.00    -0.206 F 
ATOM     47  C   UNL     1      -8.447   6.095  -3.607  1.00  0.00     0.006 A 
ENDBRANCH  26  40
BRANCH  27  48
ATOM     48  C   UNL     1      -7.761  10.715   8.250  1.00  0.00     0.057 A 
ATOM     49  C   UNL     1      -7.803   9.887   9.378  1.00  0.00     0.134 A 
ATOM     50  C   UNL     1      -7.723  12.098   8.472  1.00  0.00     0.134 A 
ATOM     51  F   UNL     1      -7.883   8.555   9.237  1.00  0.00    -0.206 F 
ATOM     52  C   UNL     1      -7.813  10.413  10.673  1.00  0.00     0.040 A 
ATOM     53  C   UNL     1      -7.691  12.635   9.759  1.00  0.00     0.040 A 
ATOM     54  F   UNL     1      -7.693  12.949   7.436  1.00  0.00    -0.206 F 
ATOM     55  C   UNL     1      -7.745  11.791  10.865  1.00  0.00     0.006 A 
ENDBRANCH  27  48
BRANCH  39  56
ATOM     56  C   UNL     1     -12.732   7.557   4.571  1.00  0.00     0.057 A 
ATOM     57  C   UNL     1     -13.728   8.537   4.678  1.00  0.00     0.134 A 
ATOM     58  C   UNL     1     -13.114   6.223   4.759  1.00  0.00     0.134 A 
ATOM     59  F   UNL     1     -13.424   9.835   4.523  1.00  0.00    -0.206 F 
ATOM     60  C   UNL     1     -15.049   8.204   4.985  1.00  0.00     0.040 A 
ATOM     61  C   UNL     1     -14.436   5.876   5.044  1.00  0.00     0.040 A 
ATOM     62  F   UNL     1     -12.211   5.236   4.664  1.00  0.00    -0.206 F 
ATOM     63  C   UNL     1     -15.406   6.870   5.165  1.00  0.00     0.006 A 
ENDBRANCH  39  56
ENDBRANCH  13  14
ENDBRANCH   6   8
ENDBRANCH   3   4
ENDBRANCH   2   3
ENDBRANCH   1   2
BRANCH   1  64
ATOM     64  C   UNL     1       3.294   7.282   1.722  1.00  0.00     0.116 C 
BRANCH  64  65
ATOM     65  N   UNL     1       4.332   6.265   1.706  1.00  0.00    -0.356 N 
ATOM     66  C   UNL     1       5.224   6.073   2.745  1.00  0.00     0.224 C 
ATOM     67  H   UNL     1       4.404   5.684   0.914  1.00  0.00     0.163 HD
ATOM     68  O   UNL     1       5.076   5.106   3.490  1.00  0.00    -0.275 OA
BRANCH  66  69
ATOM     69  C   UNL     1       6.559   6.774   2.634  1.00  0.00     0.098 C 
ATOM     70  C   UNL     1       6.763   8.296   2.509  1.00  0.00     0.100 C 
ATOM     71  C   UNL     1       7.662   6.359   3.657  1.00  0.00     0.025 C 
ATOM     72  C   UNL     1       8.123   8.516   3.249  1.00  0.00     0.025 C 
ATOM     73  C   UNL     1       7.603   7.111   4.971  1.00  0.00    -0.027 C 
ATOM     74  C   UNL     1       8.831   7.158   3.055  1.00  0.00     0.017 C 
ATOM     75  C   UNL     1       7.928   8.392   4.731  1.00  0.00    -0.027 C 
BRANCH  70  76
ATOM     76  C   UNL     1       5.654   9.312   2.805  1.00  0.00     0.242 C 
ATOM     77  O   UNL     1       5.464  10.226   1.987  1.00  0.00    -0.273 OA
ATOM     78  N   UNL     1       4.834   9.320   3.905  1.00  0.00    -0.267 N 
ATOM     79  H   UNL     1       4.122   9.999   3.920  1.00  0.00     0.191 HD
BRANCH  78  80
ATOM     80  N   UNL     1       4.906   8.475   4.992  1.00  0.00    -0.263 N 
ATOM     81  C   UNL     1       3.893   7.789   5.625  1.00  0.00     0.271 C 
ATOM     82  H   UNL     1       5.806   8.343   5.367  1.00  0.00     0.191 HD
ATOM     83  O   UNL     1       4.150   7.095   6.607  1.00  0.00    -0.267 OA
BRANCH  81  84
ATOM     84  C   UNL     1       2.482   7.981   5.267  1.00  0.00     0.060 A 
ATOM     85  C   UNL     1       1.904   9.214   5.597  1.00  0.00     0.015 A 
ATOM     86  C   UNL     1       1.662   6.915   4.870  1.00  0.00     0.053 A 
ATOM     87  C   UNL     1       0.521   9.370   5.523  1.00  0.00     0.001 A 
ATOM     88  C   UNL     1       0.290   7.114   4.701  1.00  0.00     0.021 A 
ATOM     89  Cl  UNL     1       2.235   5.312   4.620  1.00  0.00    -0.083 Cl
ATOM     90  C   UNL     1      -0.281   8.333   5.048  1.00  0.00     0.002 A 
ENDBRANCH  81  84
ENDBRANCH  78  80
ENDBRANCH  70  76
ENDBRANCH  66  69
ENDBRANCH  64  65
ENDBRANCH   1  64
TORSDOF 14
