REMARK SMILES CC[NH+]1CC[NH+]([C@@H]2CC(=O)N(c3ccc(C(=O)NCCCCNC(=O)c4ccc(-c5c6nc(c(-c7c(F)cccc7F)c7ccc([nH]7)c(-c7c(F)cccc7F)c7nc(c(-c8c(F)cccc8F)c8ccc5[nH]8)C=C7)C=C6)cc4)cc3)C2=O)CC1
REMARK SMILES IDX 20 1 19 2 18 3 16 4 17 5 15 7 12 8 13 9 81 10 14 11 80 12
REMARK SMILES IDX 11 13 7 14 8 15 82 16 9 17 83 18 10 19 6 20 3 21 4 22 85 23
REMARK SMILES IDX 5 25 84 26 2 28 1 29 21 30 22 31 23 32 24 33 25 35 26 36
REMARK SMILES IDX 27 37 79 38 28 39 78 40 29 41 30 42 31 43 72 44 32 45 77 46
REMARK SMILES IDX 71 47 73 48 33 49 76 50 70 51 69 52 34 54 60 55 43 56 59 57
REMARK SMILES IDX 44 58 47 59 58 60 74 61 45 62 46 63 57 65 75 66 48 67 35 68
REMARK SMILES IDX 36 69 41 70 37 71 38 72 40 73 42 74 39 75 61 76 62 77 67 78
REMARK SMILES IDX 63 79 64 80 66 81 68 82 65 83 49 84 50 85 55 86 51 87 52 88
REMARK SMILES IDX 54 89 56 90 53 91
REMARK H PARENT 18 6 3 24 6 27 23 34 73 53 47 64
REMARK Flexibility Score: inf
ROOT
ATOM      1  C   UNL     1      -2.256   7.910  10.153  1.00  0.00     0.023 C 
ENDROOT
BRANCH   1   2
ATOM      2  C   UNL     1      -2.755   6.466  10.279  1.00  0.00     0.116 C 
BRANCH   2   3
ATOM      3  N   UNL     1      -3.997   6.289   9.556  1.00  0.00    -0.352 N 
ATOM      4  C   UNL     1      -4.255   5.915   8.260  1.00  0.00     0.251 C 
ATOM      5  O   UNL     1      -5.436   5.817   7.926  1.00  0.00    -0.269 OA
ATOM      6  H   UNL     1      -4.804   6.468  10.091  1.00  0.00     0.163 HD
BRANCH   4   7
ATOM      7  C   UNL     1      -3.189   5.593   7.265  1.00  0.00     0.039 A 
ATOM      8  C   UNL     1      -1.282   4.863   5.318  1.00  0.00     0.052 A 
ATOM      9  C   UNL     1      -2.621   4.494   5.164  1.00  0.00     0.027 A 
ATOM     10  C   UNL     1      -0.908   5.620   6.422  1.00  0.00     0.027 A 
ATOM     11  C   UNL     1      -3.560   4.831   6.147  1.00  0.00     0.016 A 
ATOM     12  C   UNL     1      -1.864   6.021   7.351  1.00  0.00     0.016 A 
BRANCH   8  13
ATOM     13  N   UNL     1      -0.309   4.502   4.372  1.00  0.00    -0.245 N 
ATOM     14  C   UNL     1       0.729   4.050   2.322  1.00  0.00     0.285 C 
ATOM     15  C   UNL     1       1.718   3.795   3.452  1.00  0.00     0.176 C 
ATOM     16  C   UNL     1      -0.489   4.639   3.018  1.00  0.00     0.292 C 
ATOM     17  C   UNL     1       0.942   4.049   4.703  1.00  0.00     0.240 C 
ATOM     18  O   UNL     1      -1.441   5.152   2.443  1.00  0.00    -0.267 OA
ATOM     19  O   UNL     1       1.404   3.848   5.819  1.00  0.00    -0.274 OA
BRANCH  14  20
ATOM     20  N   UNL     1       0.333   2.945   1.435  1.00  0.00    -0.315 N 
ATOM     21  N   UNL     1       1.197   0.096   1.814  1.00  0.00    -0.326 N 
ATOM     22  C   UNL     1       2.097   1.102   1.233  1.00  0.00     0.324 C 
ATOM     23  C   UNL     1       0.198   0.739   2.685  1.00  0.00     0.324 C 
ATOM     24  H   UNL     1       1.826  -0.498   2.354  1.00  0.00     0.348 HD
ATOM     25  C   UNL     1       1.426   2.367   0.643  1.00  0.00     0.325 C 
ATOM     26  C   UNL     1      -0.540   1.903   1.994  1.00  0.00     0.325 C 
ATOM     27  H   UNL     1      -0.274   3.454   0.791  1.00  0.00     0.349 HD
BRANCH  21  28
ATOM     28  C   UNL     1       0.562  -0.863   0.897  1.00  0.00     0.259 C 
ATOM     29  C   UNL     1       0.960  -0.865  -0.574  1.00  0.00     0.071 C 
ENDBRANCH  21  28
ENDBRANCH  14  20
ENDBRANCH   8  13
ENDBRANCH   4   7
ENDBRANCH   2   3
ENDBRANCH   1   2
BRANCH   1  30
ATOM     30  C   UNL     1      -2.915   8.892  11.118  1.00  0.00     0.023 C 
BRANCH  30  31
ATOM     31  C   UNL     1      -2.651   8.597  12.585  1.00  0.00     0.116 C 
BRANCH  31  32
ATOM     32  N   UNL     1      -1.237   8.566  12.925  1.00  0.00    -0.352 N 
ATOM     33  C   UNL     1      -0.655   8.835  14.142  1.00  0.00     0.251 C 
ATOM     34  H   UNL     1      -0.622   8.324  12.196  1.00  0.00     0.163 HD
ATOM     35  O   UNL     1       0.558   8.872  14.265  1.00  0.00    -0.269 OA
BRANCH  33  36
ATOM     36  C   UNL     1      -1.536   9.132  15.289  1.00  0.00     0.039 A 
ATOM     37  C   UNL     1      -1.317  10.303  16.017  1.00  0.00     0.014 A 
ATOM     38  C   UNL     1      -2.610   8.291  15.594  1.00  0.00     0.014 A 
ATOM     39  C   UNL     1      -2.219  10.665  17.016  1.00  0.00     0.010 A 
ATOM     40  C   UNL     1      -3.549   8.693  16.535  1.00  0.00     0.010 A 
ATOM     41  C   UNL     1      -3.359   9.880  17.257  1.00  0.00    -0.014 A 
BRANCH  41  42
ATOM     42  C   UNL     1      -4.364  10.285  18.267  1.00  0.00     0.031 A 
ATOM     43  C   UNL     1      -4.581   9.441  19.489  1.00  0.00     0.074 A 
ATOM     44  C   UNL     1      -5.120  11.377  18.051  1.00  0.00     0.049 A 
ATOM     45  N   UNL     1      -5.428   9.613  20.472  1.00  0.00    -0.248 NA
ATOM     46  C   UNL     1      -3.758   8.228  19.609  1.00  0.00     0.031 C 
ATOM     47  C   UNL     1      -5.038  12.246  16.875  1.00  0.00     0.029 A 
ATOM     48  N   UNL     1      -6.107  11.943  18.815  1.00  0.00    -0.354 N 
ATOM     49  C   UNL     1      -5.250   8.524  21.315  1.00  0.00     0.074 A 
ATOM     50  C   UNL     1      -4.259   7.669  20.699  1.00  0.00     0.031 C 
ATOM     51  C   UNL     1      -5.909  13.258  17.017  1.00  0.00     0.029 A 
ATOM     52  C   UNL     1      -6.630  13.092  18.275  1.00  0.00     0.049 A 
ATOM     53  H   UNL     1      -6.413  11.562  19.671  1.00  0.00     0.167 HD
ATOM     54  C   UNL     1      -5.839   8.272  22.508  1.00  0.00     0.037 A 
ATOM     55  C   UNL     1      -7.578  13.921  18.748  1.00  0.00     0.037 A 
ATOM     56  C   UNL     1      -6.806   9.139  23.128  1.00  0.00     0.049 A 
ATOM     57  C   UNL     1      -8.222  13.619  20.071  1.00  0.00     0.074 A 
ATOM     58  C   UNL     1      -7.409   9.014  24.366  1.00  0.00     0.029 A 
ATOM     59  N   UNL     1      -7.314  10.292  22.548  1.00  0.00    -0.354 N 
ATOM     60  N   UNL     1      -7.989  12.629  20.898  1.00  0.00    -0.248 NA
ATOM     61  C   UNL     1      -9.259  14.555  20.528  1.00  0.00     0.031 C 
ATOM     62  C   UNL     1      -8.315  10.071  24.519  1.00  0.00     0.029 A 
ATOM     63  C   UNL     1      -8.243  10.877  23.393  1.00  0.00     0.049 A 
ATOM     64  H   UNL     1      -7.053  10.644  21.666  1.00  0.00     0.167 HD
ATOM     65  C   UNL     1      -8.828  12.835  21.985  1.00  0.00     0.074 A 
ATOM     66  C   UNL     1      -9.568  14.052  21.715  1.00  0.00     0.031 C 
ATOM     67  C   UNL     1      -8.970  12.088  23.107  1.00  0.00     0.037 A 
BRANCH  54  68
ATOM     68  C   UNL     1      -5.447   7.004  23.208  1.00  0.00     0.057 A 
ATOM     69  C   UNL     1      -4.169   6.828  23.759  1.00  0.00     0.134 A 
ATOM     70  C   UNL     1      -6.352   5.943  23.326  1.00  0.00     0.134 A 
ATOM     71  F   UNL     1      -3.249   7.800  23.666  1.00  0.00    -0.206 F 
ATOM     72  C   UNL     1      -3.794   5.628  24.365  1.00  0.00     0.040 A 
ATOM     73  C   UNL     1      -5.997   4.748  23.956  1.00  0.00     0.040 A 
ATOM     74  F   UNL     1      -7.592   6.045  22.826  1.00  0.00    -0.206 F 
ATOM     75  C   UNL     1      -4.712   4.585  24.468  1.00  0.00     0.006 A 
ENDBRANCH  54  68
BRANCH  55  76
ATOM     76  C   UNL     1      -7.933  15.147  17.992  1.00  0.00     0.057 A 
ATOM     77  C   UNL     1      -7.538  16.408  18.453  1.00  0.00     0.134 A 
ATOM     78  C   UNL     1      -8.657  15.093  16.796  1.00  0.00     0.134 A 
ATOM     79  F   UNL     1      -6.855  16.522  19.602  1.00  0.00    -0.206 F 
ATOM     80  C   UNL     1      -7.860  17.574  17.759  1.00  0.00     0.040 A 
ATOM     81  C   UNL     1      -8.969  16.250  16.080  1.00  0.00     0.040 A 
ATOM     82  F   UNL     1      -9.057  13.913  16.299  1.00  0.00    -0.206 F 
ATOM     83  C   UNL     1      -8.574  17.496  16.564  1.00  0.00     0.006 A 
ENDBRANCH  55  76
BRANCH  67  84
ATOM     84  C   UNL     1      -9.942  12.584  24.136  1.00  0.00     0.057 A 
ATOM     85  C   UNL     1     -11.327  12.505  23.944  1.00  0.00     0.134 A 
ATOM     86  C   UNL     1      -9.485  13.122  25.346  1.00  0.00     0.134 A 
ATOM     87  F   UNL     1     -11.827  12.013  22.800  1.00  0.00    -0.206 F 
ATOM     88  C   UNL     1     -12.223  12.966  24.909  1.00  0.00     0.040 A 
ATOM     89  C   UNL     1     -10.372  13.564  26.328  1.00  0.00     0.040 A 
ATOM     90  F   UNL     1      -8.170  13.220  25.595  1.00  0.00    -0.206 F 
ATOM     91  C   UNL     1     -11.746  13.492  26.108  1.00  0.00     0.006 A 
ENDBRANCH  67  84
ENDBRANCH  41  42
ENDBRANCH  33  36
ENDBRANCH  31  32
ENDBRANCH  30  31
ENDBRANCH   1  30
TORSDOF 14
