REMARK SMILES COC1CCN(c2nc(C(C)C)c(C(=O)NCCCCNC(=O)c3ccc(-c4c5nc(c(-c6c(F)cccc6F)c6ccc([nH]6)c(-c6c(F)cccc6F)c6nc(c(-c7c(F)cccc7F)c7ccc4[nH]7)C=C6)C=C5)cc3)s2)CC1
REMARK SMILES IDX 18 1 17 2 16 3 14 4 15 5 13 7 7 8 8 9 78 10 9 11 6 12 3 13
REMARK SMILES IDX 4 14 80 15 5 16 79 17 2 18 1 19 10 20 11 21 12 22 19 23
REMARK SMILES IDX 20 24 21 25 22 26 23 28 24 29 25 30 77 31 26 32 76 33 27 34
REMARK SMILES IDX 28 35 29 36 70 37 30 38 75 39 69 40 71 41 31 42 74 43 68 44
REMARK SMILES IDX 67 45 32 47 58 48 41 49 57 50 42 51 45 52 56 53 72 54 43 55
REMARK SMILES IDX 44 56 55 58 73 59 46 60 33 61 34 62 39 63 35 64 36 65 38 66
REMARK SMILES IDX 40 67 37 68 59 69 60 70 65 71 61 72 62 73 64 74 66 75 63 76
REMARK SMILES IDX 47 77 48 78 53 79 49 80 50 81 52 82 54 83 51 84
REMARK H PARENT 16 6 21 27 71 46 45 57
REMARK Flexibility Score: inf
ROOT
ATOM      1  C   UNL     1      -1.012  10.656  -0.975  1.00  0.00     0.023 C 
ENDROOT
BRANCH   1   2
ATOM      2  C   UNL     1      -0.957   9.932  -2.317  1.00  0.00     0.116 C 
BRANCH   2   3
ATOM      3  N   UNL     1       0.341   9.382  -2.574  1.00  0.00    -0.351 N 
ATOM      4  C   UNL     1       0.881   8.130  -2.649  1.00  0.00     0.263 C 
ATOM      5  O   UNL     1       2.092   8.210  -2.911  1.00  0.00    -0.268 OA
ATOM      6  H   UNL     1       1.012  10.083  -2.738  1.00  0.00     0.163 HD
BRANCH   4   7
ATOM      7  C   UNL     1       0.210   6.837  -2.471  1.00  0.00     0.117 A 
ATOM      8  C   UNL     1       0.138   4.351  -2.328  1.00  0.00     0.186 A 
ATOM      9  N   UNL     1      -1.050   4.866  -2.177  1.00  0.00    -0.224 NA
ATOM     10  S   UNL     1       1.342   5.503  -2.662  1.00  0.00    -0.091 S 
ATOM     11  C   UNL     1      -1.033   6.264  -2.168  1.00  0.00     0.069 A 
BRANCH   8  12
ATOM     12  N   UNL     1       0.406   3.023  -2.263  1.00  0.00    -0.348 N 
ATOM     13  C   UNL     1       0.938   0.212  -2.065  1.00  0.00     0.121 C 
ATOM     14  C   UNL     1       2.001   1.265  -1.734  1.00  0.00     0.053 C 
ATOM     15  C   UNL     1      -0.068   0.778  -3.072  1.00  0.00     0.053 C 
ATOM     16  C   UNL     1       1.359   2.560  -1.257  1.00  0.00     0.121 C 
ATOM     17  C   UNL     1      -0.675   2.089  -2.570  1.00  0.00     0.121 C 
BRANCH  13  18
ATOM     18  O   UNL     1       0.193  -0.221  -0.919  1.00  0.00    -0.381 OA
ATOM     19  C   UNL     1       0.979  -0.813   0.104  1.00  0.00     0.195 C 
ENDBRANCH  13  18
ENDBRANCH   8  12
BRANCH  11  20
ATOM     20  C   UNL     1      -2.390   6.796  -1.778  1.00  0.00     0.034 C 
ATOM     21  C   UNL     1      -2.364   7.545  -0.445  1.00  0.00     0.014 C 
ATOM     22  C   UNL     1      -3.166   7.436  -2.932  1.00  0.00     0.014 C 
ENDBRANCH  11  20
ENDBRANCH   4   7
ENDBRANCH   2   3
ENDBRANCH   1   2
BRANCH   1  23
ATOM     23  C   UNL     1      -0.970  12.175  -1.078  1.00  0.00     0.023 C 
BRANCH  23  24
ATOM     24  C   UNL     1      -2.077  12.790  -1.924  1.00  0.00     0.116 C 
BRANCH  24  25
ATOM     25  N   UNL     1      -3.428  12.402  -1.535  1.00  0.00    -0.352 N 
ATOM     26  C   UNL     1      -4.574  13.156  -1.661  1.00  0.00     0.251 C 
ATOM     27  H   UNL     1      -3.533  11.506  -1.141  1.00  0.00     0.163 HD
ATOM     28  O   UNL     1      -5.660  12.749  -1.267  1.00  0.00    -0.269 OA
BRANCH  26  29
ATOM     29  C   UNL     1      -4.439  14.504  -2.241  1.00  0.00     0.039 A 
ATOM     30  C   UNL     1      -4.733  15.613  -1.446  1.00  0.00     0.014 A 
ATOM     31  C   UNL     1      -3.844  14.652  -3.496  1.00  0.00     0.014 A 
ATOM     32  C   UNL     1      -4.338  16.881  -1.875  1.00  0.00     0.010 A 
ATOM     33  C   UNL     1      -3.380  15.902  -3.879  1.00  0.00     0.010 A 
ATOM     34  C   UNL     1      -3.610  17.025  -3.067  1.00  0.00    -0.014 A 
BRANCH  34  35
ATOM     35  C   UNL     1      -3.071  18.337  -3.501  1.00  0.00     0.031 A 
ATOM     36  C   UNL     1      -3.527  18.921  -4.807  1.00  0.00     0.074 A 
ATOM     37  C   UNL     1      -2.099  18.942  -2.790  1.00  0.00     0.049 A 
ATOM     38  N   UNL     1      -3.056  19.948  -5.466  1.00  0.00    -0.248 NA
ATOM     39  C   UNL     1      -4.633  18.226  -5.485  1.00  0.00     0.031 C 
ATOM     40  C   UNL     1      -1.531  18.452  -1.532  1.00  0.00     0.029 A 
ATOM     41  N   UNL     1      -1.402  20.098  -3.038  1.00  0.00    -0.354 N 
ATOM     42  C   UNL     1      -3.773  19.990  -6.654  1.00  0.00     0.074 A 
ATOM     43  C   UNL     1      -4.684  18.867  -6.642  1.00  0.00     0.031 C 
ATOM     44  C   UNL     1      -0.589  19.311  -1.110  1.00  0.00     0.029 A 
ATOM     45  C   UNL     1      -0.458  20.390  -2.084  1.00  0.00     0.049 A 
ATOM     46  H   UNL     1      -1.563  20.665  -3.827  1.00  0.00     0.167 HD
ATOM     47  C   UNL     1      -3.693  20.895  -7.656  1.00  0.00     0.037 A 
ATOM     48  C   UNL     1       0.418  21.410  -2.010  1.00  0.00     0.037 A 
ATOM     49  C   UNL     1      -2.835  22.047  -7.635  1.00  0.00     0.049 A 
ATOM     50  C   UNL     1       0.442  22.440  -3.104  1.00  0.00     0.074 A 
ATOM     51  C   UNL     1      -2.726  23.060  -8.571  1.00  0.00     0.029 A 
ATOM     52  N   UNL     1      -1.951  22.349  -6.611  1.00  0.00    -0.354 N 
ATOM     53  N   UNL     1      -0.269  22.490  -4.205  1.00  0.00    -0.248 NA
ATOM     54  C   UNL     1       1.384  23.558  -2.946  1.00  0.00     0.031 C 
ATOM     55  C   UNL     1      -1.765  23.970  -8.118  1.00  0.00     0.029 A 
ATOM     56  C   UNL     1      -1.297  23.536  -6.888  1.00  0.00     0.049 A 
ATOM     57  H   UNL     1      -1.809  21.800  -5.805  1.00  0.00     0.167 HD
ATOM     58  C   UNL     1       0.116  23.657  -4.853  1.00  0.00     0.074 A 
ATOM     59  C   UNL     1       1.121  24.287  -4.022  1.00  0.00     0.031 C 
ATOM     60  C   UNL     1      -0.325  24.160  -6.030  1.00  0.00     0.037 A 
BRANCH  47  61
ATOM     61  C   UNL     1      -4.569  20.673  -8.851  1.00  0.00     0.057 A 
ATOM     62  C   UNL     1      -5.955  20.864  -8.795  1.00  0.00     0.134 A 
ATOM     63  C   UNL     1      -4.020  20.268 -10.074  1.00  0.00     0.134 A 
ATOM     64  F   UNL     1      -6.544  21.233  -7.647  1.00  0.00    -0.206 F 
ATOM     65  C   UNL     1      -6.769  20.631  -9.904  1.00  0.00     0.040 A 
ATOM     66  C   UNL     1      -4.820  20.057 -11.197  1.00  0.00     0.040 A 
ATOM     67  F   UNL     1      -2.698  20.070 -10.195  1.00  0.00    -0.206 F 
ATOM     68  C   UNL     1      -6.200  20.232 -11.112  1.00  0.00     0.006 A 
ENDBRANCH  47  61
BRANCH  48  69
ATOM     69  C   UNL     1       1.323  21.532  -0.840  1.00  0.00     0.057 A 
ATOM     70  C   UNL     1       1.104  22.513   0.134  1.00  0.00     0.134 A 
ATOM     71  C   UNL     1       2.424  20.686  -0.670  1.00  0.00     0.134 A 
ATOM     72  F   UNL     1       0.074  23.364   0.015  1.00  0.00    -0.206 F 
ATOM     73  C   UNL     1       1.959  22.662   1.227  1.00  0.00     0.040 A 
ATOM     74  C   UNL     1       3.277  20.812   0.428  1.00  0.00     0.040 A 
ATOM     75  F   UNL     1       2.682  19.722  -1.565  1.00  0.00    -0.206 F 
ATOM     76  C   UNL     1       3.049  21.807   1.377  1.00  0.00     0.006 A 
ENDBRANCH  48  69
BRANCH  60  77
ATOM     77  C   UNL     1       0.230  25.482  -6.464  1.00  0.00     0.057 A 
ATOM     78  C   UNL     1       1.507  25.597  -7.024  1.00  0.00     0.134 A 
ATOM     79  C   UNL     1      -0.554  26.639  -6.381  1.00  0.00     0.134 A 
ATOM     80  F   UNL     1       2.308  24.525  -7.119  1.00  0.00    -0.206 F 
ATOM     81  C   UNL     1       1.991  26.824  -7.479  1.00  0.00     0.040 A 
ATOM     82  C   UNL     1      -0.088  27.868  -6.849  1.00  0.00     0.040 A 
ATOM     83  F   UNL     1      -1.789  26.589  -5.860  1.00  0.00    -0.206 F 
ATOM     84  C   UNL     1       1.189  27.962  -7.400  1.00  0.00     0.006 A 
ENDBRANCH  60  77
ENDBRANCH  34  35
ENDBRANCH  26  29
ENDBRANCH  24  25
ENDBRANCH  23  24
ENDBRANCH   1  23
TORSDOF 14
