REMARK SMILES CC[C@@]1(C(=O)NCCCCNC(=O)c2ccc(-c3c4nc(c(-c5c(F)cccc5F)c5ccc([nH]5)c(-c5c(F)cccc5F)c5nc(c(-c6c(F)cccc6F)c6ccc3[nH]6)C=C5)C=C4)cc2)CCN(C(=O)N(C)CCc2cccs2)C1
REMARK SMILES IDX 7 1 6 2 4 3 5 4 3 6 68 7 82 8 69 9 70 10 2 11 1 12 71 13
REMARK SMILES IDX 72 14 73 15 74 16 75 17 76 18 77 19 78 20 81 21 79 22 80 23
REMARK SMILES IDX 8 24 9 25 10 26 11 27 12 28 13 30 14 31 15 32 67 33 16 34
REMARK SMILES IDX 66 35 17 36 18 37 19 38 60 39 20 40 65 41 59 42 61 43 21 44
REMARK SMILES IDX 64 45 58 46 57 47 22 49 48 50 31 51 47 52 32 53 35 54 46 55
REMARK SMILES IDX 62 56 33 57 34 58 45 60 63 61 36 62 23 63 24 64 29 65 25 66
REMARK SMILES IDX 26 67 28 68 30 69 27 70 49 71 50 72 55 73 51 74 52 75 54 76
REMARK SMILES IDX 56 77 53 78 37 79 38 80 43 81 39 82 40 83 42 84 44 85 41 86
REMARK H PARENT 6 5 11 29 61 48 35 59
REMARK Flexibility Score: inf
ROOT
ATOM      1  C   UNL     1      -1.323  -0.277  -1.440  1.00  0.00     0.116 C 
ENDROOT
BRANCH   1   2
ATOM      2  N   UNL     1      -0.583   0.454  -0.423  1.00  0.00    -0.356 N 
ATOM      3  C   UNL     1       0.244   1.541  -0.541  1.00  0.00     0.228 C 
ATOM      4  O   UNL     1       0.545   2.112   0.512  1.00  0.00    -0.274 OA
ATOM      5  H   UNL     1      -0.693   0.115   0.494  1.00  0.00     0.163 HD
BRANCH   3   6
ATOM      6  C   UNL     1       0.894   1.950  -1.884  1.00  0.00     0.068 C 
ATOM      7  C   UNL     1       1.485   3.384  -1.810  1.00  0.00     0.040 C 
ATOM      8  C   UNL     1      -0.133   2.088  -3.003  1.00  0.00     0.138 C 
ATOM      9  C   UNL     1       0.396   4.311  -2.340  1.00  0.00     0.122 C 
ATOM     10  N   UNL     1      -0.431   3.491  -3.199  1.00  0.00    -0.324 N 
BRANCH   6  11
ATOM     11  C   UNL     1       2.021   0.914  -2.152  1.00  0.00     0.015 C 
ATOM     12  C   UNL     1       2.736   0.993  -3.499  1.00  0.00     0.005 C 
ENDBRANCH   6  11
BRANCH  10  13
ATOM     13  C   UNL     1      -1.468   3.768  -4.056  1.00  0.00     0.319 C 
ATOM     14  O   UNL     1      -2.204   2.843  -4.419  1.00  0.00    -0.248 OA
BRANCH  13  15
ATOM     15  N   UNL     1      -1.631   5.019  -4.595  1.00  0.00    -0.327 N 
ATOM     16  C   UNL     1      -1.209   6.279  -4.017  1.00  0.00     0.148 C 
BRANCH  15  17
ATOM     17  C   UNL     1      -2.348   5.089  -5.884  1.00  0.00     0.126 C 
BRANCH  17  18
ATOM     18  C   UNL     1      -1.506   4.658  -7.106  1.00  0.00     0.068 C 
BRANCH  18  19
ATOM     19  C   UNL     1      -1.374   3.166  -7.274  1.00  0.00     0.006 A 
ATOM     20  C   UNL     1      -0.318   2.351  -6.911  1.00  0.00     0.015 A 
ATOM     21  S   UNL     1      -2.646   2.257  -7.981  1.00  0.00    -0.149 S 
ATOM     22  C   UNL     1      -0.600   0.970  -7.121  1.00  0.00     0.012 A 
ATOM     23  C   UNL     1      -1.838   0.778  -7.689  1.00  0.00     0.065 A 
ENDBRANCH  18  19
ENDBRANCH  17  18
ENDBRANCH  15  17
ENDBRANCH  13  15
ENDBRANCH  10  13
ENDBRANCH   3   6
ENDBRANCH   1   2
BRANCH   1  24
ATOM     24  C   UNL     1      -1.760  -1.683  -1.050  1.00  0.00     0.023 C 
BRANCH  24  25
ATOM     25  C   UNL     1      -2.618  -1.795   0.207  1.00  0.00     0.023 C 
BRANCH  25  26
ATOM     26  C   UNL     1      -3.836  -0.878   0.272  1.00  0.00     0.116 C 
BRANCH  26  27
ATOM     27  N   UNL     1      -4.818  -1.142  -0.770  1.00  0.00    -0.352 N 
ATOM     28  C   UNL     1      -6.101  -1.631  -0.681  1.00  0.00     0.251 C 
ATOM     29  H   UNL     1      -4.516  -0.938  -1.684  1.00  0.00     0.163 HD
ATOM     30  O   UNL     1      -6.724  -1.910  -1.702  1.00  0.00    -0.269 OA
BRANCH  28  31
ATOM     31  C   UNL     1      -6.728  -1.862   0.639  1.00  0.00     0.039 A 
ATOM     32  C   UNL     1      -7.421  -3.057   0.858  1.00  0.00     0.014 A 
ATOM     33  C   UNL     1      -6.636  -0.916   1.661  1.00  0.00     0.014 A 
ATOM     34  C   UNL     1      -7.933  -3.341   2.127  1.00  0.00     0.010 A 
ATOM     35  C   UNL     1      -7.066  -1.238   2.946  1.00  0.00     0.010 A 
ATOM     36  C   UNL     1      -7.713  -2.458   3.196  1.00  0.00    -0.014 A 
BRANCH  36  37
ATOM     37  C   UNL     1      -8.133  -2.802   4.582  1.00  0.00     0.031 A 
ATOM     38  C   UNL     1      -9.126  -1.939   5.313  1.00  0.00     0.074 A 
ATOM     39  C   UNL     1      -7.560  -3.848   5.212  1.00  0.00     0.049 A 
ATOM     40  N   UNL     1      -9.551  -2.034   6.548  1.00  0.00    -0.248 NA
ATOM     41  C   UNL     1      -9.697  -0.804   4.570  1.00  0.00     0.031 C 
ATOM     42  C   UNL     1      -6.539  -4.728   4.637  1.00  0.00     0.029 A 
ATOM     43  N   UNL     1      -7.741  -4.340   6.481  1.00  0.00    -0.354 N 
ATOM     44  C   UNL     1     -10.417  -0.963   6.734  1.00  0.00     0.074 A 
ATOM     45  C   UNL     1     -10.423  -0.205   5.503  1.00  0.00     0.031 C 
ATOM     46  C   UNL     1      -6.198  -5.659   5.543  1.00  0.00     0.029 A 
ATOM     47  C   UNL     1      -6.941  -5.420   6.775  1.00  0.00     0.049 A 
ATOM     48  H   UNL     1      -8.384  -3.957   7.121  1.00  0.00     0.167 HD
ATOM     49  C   UNL     1     -11.155  -0.651   7.826  1.00  0.00     0.037 A 
ATOM     50  C   UNL     1      -6.808  -6.127   7.914  1.00  0.00     0.037 A 
ATOM     51  C   UNL     1     -11.175  -1.427   9.039  1.00  0.00     0.049 A 
ATOM     52  C   UNL     1      -7.649  -5.764   9.107  1.00  0.00     0.074 A 
ATOM     53  C   UNL     1     -11.955  -1.239  10.166  1.00  0.00     0.029 A 
ATOM     54  N   UNL     1     -10.376  -2.533   9.284  1.00  0.00    -0.354 N 
ATOM     55  N   UNL     1      -8.530  -4.802   9.236  1.00  0.00    -0.248 NA
ATOM     56  C   UNL     1      -7.482  -6.588  10.313  1.00  0.00     0.031 C 
ATOM     57  C   UNL     1     -11.588  -2.196  11.117  1.00  0.00     0.029 A 
ATOM     58  C   UNL     1     -10.624  -3.018  10.558  1.00  0.00     0.049 A 
ATOM     59  H   UNL     1      -9.730  -2.916   8.649  1.00  0.00     0.167 HD
ATOM     60  C   UNL     1      -9.044  -4.925  10.521  1.00  0.00     0.074 A 
ATOM     61  C   UNL     1      -8.389  -6.065  11.126  1.00  0.00     0.031 C 
ATOM     62  C   UNL     1      -9.973  -4.161  11.145  1.00  0.00     0.037 A 
BRANCH  49  63
ATOM     63  C   UNL     1     -12.011   0.581   7.768  1.00  0.00     0.057 A 
ATOM     64  C   UNL     1     -13.164   0.646   6.976  1.00  0.00     0.134 A 
ATOM     65  C   UNL     1     -11.716   1.690   8.571  1.00  0.00     0.134 A 
ATOM     66  F   UNL     1     -13.499  -0.378   6.177  1.00  0.00    -0.206 F 
ATOM     67  C   UNL     1     -13.984   1.776   6.972  1.00  0.00     0.040 A 
ATOM     68  C   UNL     1     -12.543   2.814   8.597  1.00  0.00     0.040 A 
ATOM     69  F   UNL     1     -10.630   1.692   9.360  1.00  0.00    -0.206 F 
ATOM     70  C   UNL     1     -13.680   2.860   7.793  1.00  0.00     0.006 A 
ENDBRANCH  49  63
BRANCH  50  71
ATOM     71  C   UNL     1      -5.839  -7.253   7.989  1.00  0.00     0.057 A 
ATOM     72  C   UNL     1      -6.273  -8.577   8.127  1.00  0.00     0.134 A 
ATOM     73  C   UNL     1      -4.457  -7.029   7.963  1.00  0.00     0.134 A 
ATOM     74  F   UNL     1      -7.583  -8.857   8.179  1.00  0.00    -0.206 F 
ATOM     75  C   UNL     1      -5.370  -9.633   8.268  1.00  0.00     0.040 A 
ATOM     76  C   UNL     1      -3.543  -8.078   8.071  1.00  0.00     0.040 A 
ATOM     77  F   UNL     1      -3.975  -5.785   7.825  1.00  0.00    -0.206 F 
ATOM     78  C   UNL     1      -3.999  -9.384   8.237  1.00  0.00     0.006 A 
ENDBRANCH  50  71
BRANCH  62  79
ATOM     79  C   UNL     1     -10.369  -4.556  12.538  1.00  0.00     0.057 A 
ATOM     80  C   UNL     1      -9.506  -4.392  13.630  1.00  0.00     0.134 A 
ATOM     81  C   UNL     1     -11.647  -5.069  12.796  1.00  0.00     0.134 A 
ATOM     82  F   UNL     1      -8.264  -3.917  13.450  1.00  0.00    -0.206 F 
ATOM     83  C   UNL     1      -9.892  -4.748  14.923  1.00  0.00     0.040 A 
ATOM     84  C   UNL     1     -12.055  -5.399  14.088  1.00  0.00     0.040 A 
ATOM     85  F   UNL     1     -12.526  -5.241  11.797  1.00  0.00    -0.206 F 
ATOM     86  C   UNL     1     -11.173  -5.245  15.156  1.00  0.00     0.006 A 
ENDBRANCH  62  79
ENDBRANCH  36  37
ENDBRANCH  28  31
ENDBRANCH  26  27
ENDBRANCH  25  26
ENDBRANCH  24  25
ENDBRANCH   1  24
TORSDOF 17
