REMARK SMILES CC1(C)[C@H](C(=O)NCCCCNC(=O)c2ccc(-c3c4nc(c(-c5c(F)cccc5F)c5ccc([nH]5)c(-c5c(F)cccc5F)c5nc(c(-c6c(F)cccc6F)c6ccc3[nH]6)C=C5)C=C4)cc2)[C@@H]1C(=O)Nc1ccc(NC(=O)C2CCC2)cc1
REMARK SMILES IDX 8 1 7 2 5 3 6 4 4 6 1 7 2 8 3 9 69 10 70 11 71 12 72 13
REMARK SMILES IDX 73 15 74 16 85 17 75 18 84 19 76 20 77 21 78 22 79 24 80 25
REMARK SMILES IDX 81 26 83 27 82 28 9 29 10 30 11 31 12 32 13 33 14 35 15 36
REMARK SMILES IDX 16 37 68 38 17 39 67 40 18 41 19 42 20 43 61 44 21 45 66 46
REMARK SMILES IDX 60 47 62 48 22 49 65 50 59 51 58 52 23 54 49 55 32 56 48 57
REMARK SMILES IDX 33 58 36 59 47 60 63 61 34 62 35 63 46 65 64 66 37 67 24 68
REMARK SMILES IDX 25 69 30 70 26 71 27 72 29 73 31 74 28 75 50 76 51 77 56 78
REMARK SMILES IDX 52 79 53 80 55 81 57 82 54 83 38 84 39 85 44 86 40 87 41 88
REMARK SMILES IDX 43 89 45 90 42 91
REMARK H PARENT 7 5 72 14 77 23 12 34 62 53 36 64
REMARK Flexibility Score: inf
ROOT
ATOM      1  C   UNL     1      -0.492   3.068  -0.351  1.00  0.00     0.116 C 
ENDROOT
BRANCH   1   2
ATOM      2  N   UNL     1      -0.798   2.227  -1.487  1.00  0.00    -0.356 N 
ATOM      3  C   UNL     1      -0.876   0.884  -1.713  1.00  0.00     0.224 C 
ATOM      4  O   UNL     1      -1.160   0.572  -2.872  1.00  0.00    -0.275 OA
ATOM      5  H   UNL     1      -0.998   2.752  -2.295  1.00  0.00     0.163 HD
BRANCH   3   6
ATOM      6  C   UNL     1      -0.673  -0.236  -0.760  1.00  0.00     0.098 C 
ATOM      7  C   UNL     1       1.156  -1.811   0.120  1.00  0.00     0.013 C 
ATOM      8  C   UNL     1       0.507  -0.444   0.174  1.00  0.00    -0.011 C 
ATOM      9  C   UNL     1       1.524   0.649   0.385  1.00  0.00     0.013 C 
ATOM     10  C   UNL     1      -0.941  -0.380   0.706  1.00  0.00     0.098 C 
BRANCH  10  11
ATOM     11  C   UNL     1      -1.477   0.647   1.621  1.00  0.00     0.228 C 
ATOM     12  O   UNL     1      -0.805   1.045   2.568  1.00  0.00    -0.274 OA
ATOM     13  N   UNL     1      -2.755   1.134   1.448  1.00  0.00    -0.326 N 
ATOM     14  H   UNL     1      -3.145   1.632   2.202  1.00  0.00     0.169 HD
BRANCH  13  15
ATOM     15  C   UNL     1      -3.551   0.991   0.308  1.00  0.00     0.041 A 
ATOM     16  C   UNL     1      -3.807   2.157  -0.398  1.00  0.00     0.028 A 
ATOM     17  C   UNL     1      -3.985  -0.231  -0.197  1.00  0.00     0.028 A 
ATOM     18  C   UNL     1      -4.309   2.079  -1.688  1.00  0.00     0.028 A 
ATOM     19  C   UNL     1      -4.673  -0.264  -1.421  1.00  0.00     0.028 A 
ATOM     20  C   UNL     1      -4.844   0.905  -2.178  1.00  0.00     0.041 A 
BRANCH  20  21
ATOM     21  N   UNL     1      -5.536   0.828  -3.390  1.00  0.00    -0.326 N 
ATOM     22  C   UNL     1      -6.018   1.769  -4.279  1.00  0.00     0.227 C 
ATOM     23  H   UNL     1      -5.720  -0.097  -3.671  1.00  0.00     0.169 HD
ATOM     24  O   UNL     1      -6.560   1.285  -5.290  1.00  0.00    -0.274 OA
BRANCH  22  25
ATOM     25  C   UNL     1      -5.933   3.309  -4.101  1.00  0.00     0.079 C 
ATOM     26  C   UNL     1      -7.187   4.073  -4.665  1.00  0.00     0.013 C 
ATOM     27  C   UNL     1      -6.241   4.092  -2.784  1.00  0.00     0.013 C 
ATOM     28  C   UNL     1      -6.905   5.176  -3.641  1.00  0.00     0.002 C 
ENDBRANCH  22  25
ENDBRANCH  20  21
ENDBRANCH  13  15
ENDBRANCH  10  11
ENDBRANCH   3   6
ENDBRANCH   1   2
BRANCH   1  29
ATOM     29  C   UNL     1       0.488   4.174  -0.730  1.00  0.00     0.023 C 
BRANCH  29  30
ATOM     30  C   UNL     1      -0.119   5.291  -1.587  1.00  0.00     0.023 C 
BRANCH  30  31
ATOM     31  C   UNL     1      -1.310   6.022  -0.968  1.00  0.00     0.116 C 
BRANCH  31  32
ATOM     32  N   UNL     1      -1.012   6.587   0.341  1.00  0.00    -0.352 N 
ATOM     33  C   UNL     1      -1.106   7.890   0.768  1.00  0.00     0.251 C 
ATOM     34  H   UNL     1      -0.698   5.944   1.016  1.00  0.00     0.163 HD
ATOM     35  O   UNL     1      -0.673   8.221   1.867  1.00  0.00    -0.269 OA
BRANCH  33  36
ATOM     36  C   UNL     1      -1.708   8.899  -0.123  1.00  0.00     0.039 A 
ATOM     37  C   UNL     1      -0.982  10.053  -0.428  1.00  0.00     0.014 A 
ATOM     38  C   UNL     1      -2.961   8.671  -0.696  1.00  0.00     0.014 A 
ATOM     39  C   UNL     1      -1.472  10.936  -1.391  1.00  0.00     0.010 A 
ATOM     40  C   UNL     1      -3.419   9.521  -1.697  1.00  0.00     0.010 A 
ATOM     41  C   UNL     1      -2.666  10.646  -2.070  1.00  0.00    -0.014 A 
BRANCH  41  42
ATOM     42  C   UNL     1      -3.122  11.467  -3.219  1.00  0.00     0.031 A 
ATOM     43  C   UNL     1      -4.405  12.238  -3.137  1.00  0.00     0.074 A 
ATOM     44  C   UNL     1      -2.426  11.428  -4.372  1.00  0.00     0.049 A 
ATOM     45  N   UNL     1      -5.030  12.902  -4.075  1.00  0.00    -0.248 NA
ATOM     46  C   UNL     1      -5.089  12.243  -1.835  1.00  0.00     0.031 C 
ATOM     47  C   UNL     1      -1.184  10.681  -4.588  1.00  0.00     0.029 A 
ATOM     48  N   UNL     1      -2.676  12.013  -5.588  1.00  0.00    -0.354 N 
ATOM     49  C   UNL     1      -6.186  13.392  -3.483  1.00  0.00     0.074 A 
ATOM     50  C   UNL     1      -6.197  12.913  -2.117  1.00  0.00     0.031 C 
ATOM     51  C   UNL     1      -0.776  10.863  -5.854  1.00  0.00     0.029 A 
ATOM     52  C   UNL     1      -1.747  11.700  -6.550  1.00  0.00     0.049 A 
ATOM     53  H   UNL     1      -3.447  12.601  -5.754  1.00  0.00     0.167 HD
ATOM     54  C   UNL     1      -7.141  14.184  -4.025  1.00  0.00     0.037 A 
ATOM     55  C   UNL     1      -1.694  12.033  -7.854  1.00  0.00     0.037 A 
ATOM     56  C   UNL     1      -7.114  14.675  -5.378  1.00  0.00     0.049 A 
ATOM     57  C   UNL     1      -2.785  12.882  -8.441  1.00  0.00     0.074 A 
ATOM     58  C   UNL     1      -7.996  15.544  -5.997  1.00  0.00     0.029 A 
ATOM     59  N   UNL     1      -6.160  14.332  -6.323  1.00  0.00    -0.354 N 
ATOM     60  N   UNL     1      -3.839  13.393  -7.852  1.00  0.00    -0.248 NA
ATOM     61  C   UNL     1      -2.685  13.194  -9.874  1.00  0.00     0.031 C 
ATOM     62  C   UNL     1      -7.598  15.694  -7.330  1.00  0.00     0.029 A 
ATOM     63  C   UNL     1      -6.448  14.948  -7.530  1.00  0.00     0.049 A 
ATOM     64  H   UNL     1      -5.390  13.740  -6.160  1.00  0.00     0.167 HD
ATOM     65  C   UNL     1      -4.518  14.099  -8.836  1.00  0.00     0.074 A 
ATOM     66  C   UNL     1      -3.750  13.963 -10.056  1.00  0.00     0.031 C 
ATOM     67  C   UNL     1      -5.676  14.796  -8.736  1.00  0.00     0.037 A 
BRANCH  54  68
ATOM     68  C   UNL     1      -8.296  14.569  -3.150  1.00  0.00     0.057 A 
ATOM     69  C   UNL     1      -8.149  15.480  -2.096  1.00  0.00     0.134 A 
ATOM     70  C   UNL     1      -9.574  14.047  -3.381  1.00  0.00     0.134 A 
ATOM     71  F   UNL     1      -6.948  16.007  -1.815  1.00  0.00    -0.206 F 
ATOM     72  C   UNL     1      -9.229  15.840  -1.288  1.00  0.00     0.040 A 
ATOM     73  C   UNL     1     -10.666  14.418  -2.595  1.00  0.00     0.040 A 
ATOM     74  F   UNL     1      -9.784  13.174  -4.378  1.00  0.00    -0.206 F 
ATOM     75  C   UNL     1     -10.493  15.312  -1.540  1.00  0.00     0.006 A 
ENDBRANCH  54  68
BRANCH  55  76
ATOM     76  C   UNL     1      -0.564  11.563  -8.693  1.00  0.00     0.057 A 
ATOM     77  C   UNL     1       0.420  12.453  -9.135  1.00  0.00     0.134 A 
ATOM     78  C   UNL     1      -0.438  10.220  -9.067  1.00  0.00     0.134 A 
ATOM     79  F   UNL     1       0.341  13.755  -8.824  1.00  0.00    -0.206 F 
ATOM     80  C   UNL     1       1.485  12.027  -9.930  1.00  0.00     0.040 A 
ATOM     81  C   UNL     1       0.633   9.777  -9.844  1.00  0.00     0.040 A 
ATOM     82  F   UNL     1      -1.346   9.317  -8.669  1.00  0.00    -0.206 F 
ATOM     83  C   UNL     1       1.597  10.684 -10.282  1.00  0.00     0.006 A 
ENDBRANCH  55  76
BRANCH  67  84
ATOM     84  C   UNL     1      -6.176  15.473  -9.976  1.00  0.00     0.057 A 
ATOM     85  C   UNL     1      -6.777  14.750 -11.014  1.00  0.00     0.134 A 
ATOM     86  C   UNL     1      -6.102  16.865 -10.112  1.00  0.00     0.134 A 
ATOM     87  F   UNL     1      -6.864  13.413 -10.949  1.00  0.00    -0.206 F 
ATOM     88  C   UNL     1      -7.279  15.388 -12.150  1.00  0.00     0.040 A 
ATOM     89  C   UNL     1      -6.619  17.516 -11.233  1.00  0.00     0.040 A 
ATOM     90  F   UNL     1      -5.543  17.614  -9.150  1.00  0.00    -0.206 F 
ATOM     91  C   UNL     1      -7.207  16.776 -12.257  1.00  0.00     0.006 A 
ENDBRANCH  67  84
ENDBRANCH  41  42
ENDBRANCH  33  36
ENDBRANCH  31  32
ENDBRANCH  30  31
ENDBRANCH  29  30
ENDBRANCH   1  29
TORSDOF 15
