REMARK SMILES CC(C)Cc1cc(C(=O)N[C@@H](CO)C(=O)NCCCCNC(=O)c2ccc(-c3c4nc(c(-c5c(F)cccc5F)c5ccc([nH]5)c(-c5c(F)cccc5F)c5nc(c(-c6c(F)cccc6F)c6ccc3[nH]6)C=C5)C=C4)cc2)n(C)n1
REMARK SMILES IDX 17 1 16 2 14 3 15 4 11 6 10 7 8 8 9 9 7 11 5 12 6 13 80 14
REMARK SMILES IDX 78 15 79 16 4 17 2 18 1 19 3 20 12 21 13 22 18 24 19 25
REMARK SMILES IDX 20 26 21 27 22 28 23 30 24 31 25 32 77 33 26 34 76 35 27 36
REMARK SMILES IDX 28 37 29 38 70 39 30 40 75 41 69 42 71 43 31 44 74 45 68 46
REMARK SMILES IDX 67 47 32 49 58 50 41 51 57 52 42 53 45 54 56 55 72 56 43 57
REMARK SMILES IDX 44 58 55 60 73 61 46 62 33 63 34 64 39 65 35 66 36 67 38 68
REMARK SMILES IDX 40 69 37 70 59 71 60 72 65 73 61 74 62 75 64 76 66 77 63 78
REMARK SMILES IDX 47 79 48 80 53 81 49 82 50 83 52 84 54 85 51 86
REMARK H PARENT 16 5 10 10 13 23 21 29 71 48 45 59
REMARK Flexibility Score: inf
ROOT
ATOM      1  C   UNL     1      -5.050   7.425  -1.923  1.00  0.00     0.116 C 
ENDROOT
BRANCH   1   2
ATOM      2  N   UNL     1      -4.303   7.186  -0.711  1.00  0.00    -0.354 N 
ATOM      3  C   UNL     1      -3.239   6.382  -0.485  1.00  0.00     0.244 C 
ATOM      4  O   UNL     1      -2.686   6.481   0.616  1.00  0.00    -0.273 OA
ATOM      5  H   UNL     1      -4.618   7.687   0.076  1.00  0.00     0.163 HD
BRANCH   3   6
ATOM      6  C   UNL     1      -2.644   5.468  -1.561  1.00  0.00     0.197 C 
BRANCH   6   7
ATOM      7  N   UNL     1      -3.527   4.497  -2.188  1.00  0.00    -0.337 N 
ATOM      8  C   UNL     1      -3.451   3.142  -2.358  1.00  0.00     0.270 C 
ATOM      9  O   UNL     1      -4.405   2.677  -2.991  1.00  0.00    -0.268 OA
ATOM     10  H   UNL     1      -4.343   4.896  -2.567  1.00  0.00     0.164 HD
BRANCH   8  11
ATOM     11  C   UNL     1      -2.420   2.270  -1.821  1.00  0.00     0.126 A 
ATOM     12  C   UNL     1      -1.403   0.371  -1.144  1.00  0.00     0.064 A 
ATOM     13  C   UNL     1      -2.527   0.871  -1.827  1.00  0.00     0.059 A 
ATOM     14  N   UNL     1      -0.712   1.383  -0.634  1.00  0.00    -0.178 NA
ATOM     15  N   UNL     1      -1.173   2.462  -1.270  1.00  0.00    -0.263 N 
ATOM     16  C   UNL     1      -0.176   3.491  -1.424  1.00  0.00     0.174 C 
BRANCH  12  17
ATOM     17  C   UNL     1      -0.936  -1.029  -0.916  1.00  0.00     0.061 C 
BRANCH  17  18
ATOM     18  C   UNL     1       0.609  -1.190  -0.952  1.00  0.00    -0.011 C 
ATOM     19  C   UNL     1       1.325  -0.549   0.249  1.00  0.00     0.008 C 
ATOM     20  C   UNL     1       0.982  -2.672  -0.998  1.00  0.00     0.008 C 
ENDBRANCH  17  18
ENDBRANCH  12  17
ENDBRANCH   8  11
ENDBRANCH   6   7
BRANCH   6  21
ATOM     21  C   UNL     1      -1.828   6.263  -2.599  1.00  0.00     0.191 C 
BRANCH  21  22
ATOM     22  O   UNL     1      -2.621   7.019  -3.510  1.00  0.00    -0.394 OA
ATOM     23  H   UNL     1      -3.178   6.419  -4.030  1.00  0.00     0.210 HD
ENDBRANCH  21  22
ENDBRANCH   6  21
ENDBRANCH   3   6
ENDBRANCH   1   2
BRANCH   1  24
ATOM     24  C   UNL     1      -6.546   7.291  -1.685  1.00  0.00     0.023 C 
BRANCH  24  25
ATOM     25  C   UNL     1      -7.106   8.270  -0.657  1.00  0.00     0.023 C 
BRANCH  25  26
ATOM     26  C   UNL     1      -6.677   9.718  -0.857  1.00  0.00     0.116 C 
BRANCH  26  27
ATOM     27  N   UNL     1      -6.959  10.207  -2.198  1.00  0.00    -0.352 N 
ATOM     28  C   UNL     1      -7.587  11.363  -2.581  1.00  0.00     0.251 C 
ATOM     29  H   UNL     1      -6.656   9.626  -2.933  1.00  0.00     0.163 HD
ATOM     30  O   UNL     1      -7.881  11.548  -3.759  1.00  0.00    -0.269 OA
BRANCH  28  31
ATOM     31  C   UNL     1      -7.938  12.366  -1.560  1.00  0.00     0.039 A 
ATOM     32  C   UNL     1      -9.219  12.915  -1.574  1.00  0.00     0.014 A 
ATOM     33  C   UNL     1      -7.016  12.734  -0.574  1.00  0.00     0.014 A 
ATOM     34  C   UNL     1      -9.593  13.799  -0.565  1.00  0.00     0.010 A 
ATOM     35  C   UNL     1      -7.424  13.538   0.484  1.00  0.00     0.010 A 
ATOM     36  C   UNL     1      -8.711  14.091   0.491  1.00  0.00    -0.014 A 
BRANCH  36  37
ATOM     37  C   UNL     1      -9.139  14.982   1.597  1.00  0.00     0.031 A 
ATOM     38  C   UNL     1      -8.439  16.291   1.836  1.00  0.00     0.074 A 
ATOM     39  C   UNL     1     -10.153  14.598   2.397  1.00  0.00     0.049 A 
ATOM     40  N   UNL     1      -8.714  17.224   2.713  1.00  0.00    -0.248 NA
ATOM     41  C   UNL     1      -7.262  16.582   1.003  1.00  0.00     0.031 C 
ATOM     42  C   UNL     1     -10.858  13.316   2.312  1.00  0.00     0.029 A 
ATOM     43  N   UNL     1     -10.775  15.251   3.429  1.00  0.00    -0.354 N 
ATOM     44  C   UNL     1      -7.745  18.204   2.538  1.00  0.00     0.074 A 
ATOM     45  C   UNL     1      -6.835  17.723   1.522  1.00  0.00     0.031 C 
ATOM     46  C   UNL     1     -11.847  13.299   3.220  1.00  0.00     0.029 A 
ATOM     47  C   UNL     1     -11.826  14.550   3.969  1.00  0.00     0.049 A 
ATOM     48  H   UNL     1     -10.496  16.138   3.752  1.00  0.00     0.167 HD
ATOM     49  C   UNL     1      -7.641  19.409   3.146  1.00  0.00     0.037 A 
ATOM     50  C   UNL     1     -12.683  14.886   4.951  1.00  0.00     0.037 A 
ATOM     51  C   UNL     1      -8.559  19.889   4.145  1.00  0.00     0.049 A 
ATOM     52  C   UNL     1     -12.558  16.238   5.595  1.00  0.00     0.074 A 
ATOM     53  C   UNL     1      -8.579  21.118   4.779  1.00  0.00     0.029 A 
ATOM     54  N   UNL     1      -9.618  19.156   4.660  1.00  0.00    -0.354 N 
ATOM     55  N   UNL     1     -11.693  17.194   5.354  1.00  0.00    -0.248 NA
ATOM     56  C   UNL     1     -13.541  16.565   6.635  1.00  0.00     0.031 C 
ATOM     57  C   UNL     1      -9.618  21.109   5.717  1.00  0.00     0.029 A 
ATOM     58  C   UNL     1     -10.284  19.898   5.622  1.00  0.00     0.049 A 
ATOM     59  H   UNL     1      -9.861  18.243   4.382  1.00  0.00     0.167 HD
ATOM     60  C   UNL     1     -12.042  18.244   6.194  1.00  0.00     0.074 A 
ATOM     61  C   UNL     1     -13.216  17.815   6.927  1.00  0.00     0.031 C 
ATOM     62  C   UNL     1     -11.446  19.452   6.349  1.00  0.00     0.037 A 
BRANCH  49  63
ATOM     63  C   UNL     1      -6.494  20.292   2.742  1.00  0.00     0.057 A 
ATOM     64  C   UNL     1      -6.422  20.880   1.470  1.00  0.00     0.134 A 
ATOM     65  C   UNL     1      -5.464  20.585   3.644  1.00  0.00     0.134 A 
ATOM     66  F   UNL     1      -7.367  20.630   0.551  1.00  0.00    -0.206 F 
ATOM     67  C   UNL     1      -5.355  21.703   1.104  1.00  0.00     0.040 A 
ATOM     68  C   UNL     1      -4.408  21.431   3.300  1.00  0.00     0.040 A 
ATOM     69  F   UNL     1      -5.470  20.060   4.879  1.00  0.00    -0.206 F 
ATOM     70  C   UNL     1      -4.348  21.987   2.023  1.00  0.00     0.006 A 
ENDBRANCH  49  63
BRANCH  50  71
ATOM     71  C   UNL     1     -13.755  13.943   5.361  1.00  0.00     0.057 A 
ATOM     72  C   UNL     1     -15.104  14.223   5.110  1.00  0.00     0.134 A 
ATOM     73  C   UNL     1     -13.459  12.746   6.025  1.00  0.00     0.134 A 
ATOM     74  F   UNL     1     -15.454  15.360   4.491  1.00  0.00    -0.206 F 
ATOM     75  C   UNL     1     -16.120  13.364   5.530  1.00  0.00     0.040 A 
ATOM     76  C   UNL     1     -14.463  11.863   6.424  1.00  0.00     0.040 A 
ATOM     77  F   UNL     1     -12.186  12.413   6.285  1.00  0.00    -0.206 F 
ATOM     78  C   UNL     1     -15.800  12.177   6.186  1.00  0.00     0.006 A 
ENDBRANCH  50  71
BRANCH  62  79
ATOM     79  C   UNL     1     -12.078  20.399   7.330  1.00  0.00     0.057 A 
ATOM     80  C   UNL     1     -12.064  20.158   8.710  1.00  0.00     0.134 A 
ATOM     81  C   UNL     1     -12.715  21.565   6.885  1.00  0.00     0.134 A 
ATOM     82  F   UNL     1     -11.480  19.055   9.203  1.00  0.00    -0.206 F 
ATOM     83  C   UNL     1     -12.702  21.016   9.607  1.00  0.00     0.040 A 
ATOM     84  C   UNL     1     -13.326  22.448   7.776  1.00  0.00     0.040 A 
ATOM     85  F   UNL     1     -12.754  21.865   5.578  1.00  0.00    -0.206 F 
ATOM     86  C   UNL     1     -13.333  22.167   9.140  1.00  0.00     0.006 A 
ENDBRANCH  62  79
ENDBRANCH  36  37
ENDBRANCH  28  31
ENDBRANCH  26  27
ENDBRANCH  25  26
ENDBRANCH  24  25
ENDBRANCH   1  24
TORSDOF 17
