REMARK SMILES Cc1ccc(S(=O)(=O)N[C@@H](C)C(=O)Oc2csc(C(=O)NCCCCNC(=O)c3ccc(-c4c5nc(c(-c6c(F)cccc6F)c6ccc([nH]6)c(-c6c(F)cccc6F)c6nc(c(-c7c(F)cccc7F)c7ccc4[nH]7)C=C6)C=C5)cc3)c2C)cc1
REMARK SMILES IDX 19 1 20 2 21 3 18 5 15 6 16 7 83 8 17 9 84 10 14 11 12 12
REMARK SMILES IDX 13 13 10 14 11 15 9 16 6 18 7 19 8 20 5 21 1 22 2 23 3 24
REMARK SMILES IDX 86 25 4 26 85 27 22 28 23 29 24 30 25 31 26 32 27 33 28 35
REMARK SMILES IDX 29 36 30 37 82 38 31 39 81 40 32 41 33 42 34 43 75 44 35 45
REMARK SMILES IDX 80 46 74 47 76 48 36 49 79 50 73 51 72 52 37 54 63 55 46 56
REMARK SMILES IDX 62 57 47 58 50 59 61 60 77 61 48 62 49 63 60 65 78 66 51 67
REMARK SMILES IDX 38 68 39 69 44 70 40 71 41 72 43 73 45 74 42 75 64 76 65 77
REMARK SMILES IDX 70 78 66 79 67 80 69 81 71 82 68 83 52 84 53 85 58 86 54 87
REMARK SMILES IDX 55 88 57 89 59 90 56 91
REMARK H PARENT 21 4 9 17 26 34 76 53 50 64
REMARK Flexibility Score: inf
ROOT
ATOM      1  C   UNL     1      -6.069   8.520  -2.657  1.00  0.00     0.261 C 
ATOM      2  O   UNL     1      -6.898   9.419  -2.455  1.00  0.00    -0.268 OA
ATOM      3  N   UNL     1      -5.112   8.909  -3.563  1.00  0.00    -0.351 N 
ATOM      4  H   UNL     1      -5.265   9.820  -3.902  1.00  0.00     0.163 HD
ENDROOT
BRANCH   1   5
ATOM      5  C   UNL     1      -6.133   7.223  -1.962  1.00  0.00     0.099 A 
ATOM      6  C   UNL     1      -5.988   5.056  -1.047  1.00  0.00     0.145 A 
ATOM      7  C   UNL     1      -6.944   5.586  -0.228  1.00  0.00     0.113 A 
ATOM      8  C   UNL     1      -5.592   5.942  -2.118  1.00  0.00     0.015 A 
ATOM      9  S   UNL     1      -7.240   7.213  -0.604  1.00  0.00    -0.134 S 
ATOM     10  C   UNL     1      -4.752   5.410  -3.220  1.00  0.00     0.050 C 
BRANCH   6  11
ATOM     11  O   UNL     1      -5.589   3.765  -0.912  1.00  0.00    -0.424 OA
BRANCH  11  12
ATOM     12  C   UNL     1      -4.235   3.553  -0.842  1.00  0.00     0.329 C 
ATOM     13  O   UNL     1      -3.400   4.385  -0.502  1.00  0.00    -0.250 OA
BRANCH  12  14
ATOM     14  C   UNL     1      -3.873   2.111  -1.197  1.00  0.00     0.177 C 
ATOM     15  C   UNL     1      -4.583   1.627  -2.451  1.00  0.00     0.038 C 
BRANCH  14  16
ATOM     16  N   UNL     1      -4.131   1.275  -0.023  1.00  0.00    -0.197 NA
ATOM     17  H   UNL     1      -3.778   1.803   0.775  1.00  0.00     0.142 HD
BRANCH  16  18
ATOM     18  S   UNL     1      -3.545  -0.270   0.161  1.00  0.00     0.241 S 
ATOM     19  O   UNL     1      -3.881  -1.006  -1.048  1.00  0.00    -0.207 OA
ATOM     20  O   UNL     1      -3.993  -0.704   1.454  1.00  0.00    -0.207 OA
BRANCH  18  21
ATOM     21  C   UNL     1      -1.778  -0.142   0.224  1.00  0.00     0.082 A 
ATOM     22  C   UNL     1       2.513   0.006   0.017  1.00  0.00     0.044 C 
ATOM     23  C   UNL     1       1.015  -0.036   0.097  1.00  0.00    -0.051 A 
ATOM     24  C   UNL     1       0.347  -1.254  -0.073  1.00  0.00     0.005 A 
ATOM     25  C   UNL     1       0.273   1.123   0.364  1.00  0.00     0.005 A 
ATOM     26  C   UNL     1      -1.046  -1.307  -0.023  1.00  0.00     0.022 A 
ATOM     27  C   UNL     1      -1.123   1.071   0.442  1.00  0.00     0.022 A 
ENDBRANCH  18  21
ENDBRANCH  16  18
ENDBRANCH  14  16
ENDBRANCH  12  14
ENDBRANCH  11  12
ENDBRANCH   6  11
ENDBRANCH   1   5
BRANCH   3  28
ATOM     28  C   UNL     1      -3.935   8.299  -4.138  1.00  0.00     0.116 C 
BRANCH  28  29
ATOM     29  C   UNL     1      -4.261   7.599  -5.468  1.00  0.00     0.023 C 
BRANCH  29  30
ATOM     30  C   UNL     1      -4.250   8.485  -6.707  1.00  0.00     0.023 C 
BRANCH  30  31
ATOM     31  C   UNL     1      -2.852   8.867  -7.153  1.00  0.00     0.116 C 
BRANCH  31  32
ATOM     32  N   UNL     1      -2.164   7.892  -7.991  1.00  0.00    -0.352 N 
ATOM     33  C   UNL     1      -0.858   7.903  -8.461  1.00  0.00     0.251 C 
ATOM     34  H   UNL     1      -2.704   7.115  -8.263  1.00  0.00     0.163 HD
ATOM     35  O   UNL     1      -0.486   7.024  -9.235  1.00  0.00    -0.269 OA
BRANCH  33  36
ATOM     36  C   UNL     1       0.137   8.855  -7.895  1.00  0.00     0.039 A 
ATOM     37  C   UNL     1       1.413   8.352  -7.607  1.00  0.00     0.014 A 
ATOM     38  C   UNL     1      -0.266  10.060  -7.340  1.00  0.00     0.014 A 
ATOM     39  C   UNL     1       2.105   8.851  -6.510  1.00  0.00     0.010 A 
ATOM     40  C   UNL     1       0.318  10.446  -6.159  1.00  0.00     0.010 A 
ATOM     41  C   UNL     1       1.461   9.785  -5.708  1.00  0.00    -0.014 A 
BRANCH  41  42
ATOM     42  C   UNL     1       1.873  10.130  -4.361  1.00  0.00     0.031 A 
ATOM     43  C   UNL     1       2.548  11.418  -4.148  1.00  0.00     0.074 A 
ATOM     44  C   UNL     1       1.475   9.347  -3.335  1.00  0.00     0.049 A 
ATOM     45  N   UNL     1       3.222  11.725  -3.098  1.00  0.00    -0.248 NA
ATOM     46  C   UNL     1       2.558  12.464  -5.163  1.00  0.00     0.031 C 
ATOM     47  C   UNL     1       1.512   9.646  -1.907  1.00  0.00     0.029 A 
ATOM     48  N   UNL     1       1.135   7.988  -3.393  1.00  0.00    -0.354 N 
ATOM     49  C   UNL     1       3.485  13.076  -3.154  1.00  0.00     0.074 A 
ATOM     50  C   UNL     1       3.155  13.456  -4.502  1.00  0.00     0.031 C 
ATOM     51  C   UNL     1       1.524   8.488  -1.225  1.00  0.00     0.029 A 
ATOM     52  C   UNL     1       1.647   7.421  -2.204  1.00  0.00     0.049 A 
ATOM     53  H   UNL     1       0.644   7.526  -4.111  1.00  0.00     0.167 HD
ATOM     54  C   UNL     1       3.805  13.714  -1.991  1.00  0.00     0.037 A 
ATOM     55  C   UNL     1       2.680   6.529  -2.257  1.00  0.00     0.037 A 
ATOM     56  C   UNL     1       4.056  12.723  -0.935  1.00  0.00     0.049 A 
ATOM     57  C   UNL     1       3.930   7.029  -1.563  1.00  0.00     0.074 A 
ATOM     58  C   UNL     1       3.291  12.250   0.119  1.00  0.00     0.029 A 
ATOM     59  N   UNL     1       5.099  11.812  -1.097  1.00  0.00    -0.354 N 
ATOM     60  N   UNL     1       4.175   8.288  -1.313  1.00  0.00    -0.248 NA
ATOM     61  C   UNL     1       4.990   6.150  -1.083  1.00  0.00     0.031 C 
ATOM     62  C   UNL     1       3.824  10.994   0.518  1.00  0.00     0.029 A 
ATOM     63  C   UNL     1       4.933  10.721  -0.265  1.00  0.00     0.049 A 
ATOM     64  H   UNL     1       5.853  11.930  -1.720  1.00  0.00     0.167 HD
ATOM     65  C   UNL     1       5.375   8.405  -0.659  1.00  0.00     0.074 A 
ATOM     66  C   UNL     1       5.838   7.034  -0.526  1.00  0.00     0.031 C 
ATOM     67  C   UNL     1       5.887   9.616  -0.280  1.00  0.00     0.037 A 
BRANCH  54  68
ATOM     68  C   UNL     1       3.601  15.200  -1.730  1.00  0.00     0.057 A 
ATOM     69  C   UNL     1       3.524  15.683  -0.406  1.00  0.00     0.134 A 
ATOM     70  C   UNL     1       3.376  16.196  -2.700  1.00  0.00     0.134 A 
ATOM     71  F   UNL     1       3.787  14.896   0.646  1.00  0.00    -0.206 F 
ATOM     72  C   UNL     1       3.166  17.002  -0.084  1.00  0.00     0.040 A 
ATOM     73  C   UNL     1       2.994  17.512  -2.394  1.00  0.00     0.040 A 
ATOM     74  F   UNL     1       3.549  15.984  -4.004  1.00  0.00    -0.206 F 
ATOM     75  C   UNL     1       2.873  17.918  -1.080  1.00  0.00     0.006 A 
ENDBRANCH  54  68
BRANCH  55  76
ATOM     76  C   UNL     1       2.630   5.674  -3.478  1.00  0.00     0.057 A 
ATOM     77  C   UNL     1       1.506   4.841  -3.656  1.00  0.00     0.134 A 
ATOM     78  C   UNL     1       3.386   5.963  -4.617  1.00  0.00     0.134 A 
ATOM     79  F   UNL     1       0.741   4.509  -2.603  1.00  0.00    -0.206 F 
ATOM     80  C   UNL     1       1.067   4.447  -4.923  1.00  0.00     0.040 A 
ATOM     81  C   UNL     1       2.968   5.550  -5.890  1.00  0.00     0.040 A 
ATOM     82  F   UNL     1       4.463   6.758  -4.538  1.00  0.00    -0.206 F 
ATOM     83  C   UNL     1       1.780   4.838  -6.051  1.00  0.00     0.006 A 
ENDBRANCH  55  76
BRANCH  67  84
ATOM     84  C   UNL     1       7.302   9.877   0.196  1.00  0.00     0.057 A 
ATOM     85  C   UNL     1       8.409   9.073  -0.116  1.00  0.00     0.134 A 
ATOM     86  C   UNL     1       7.618  11.072   0.885  1.00  0.00     0.134 A 
ATOM     87  F   UNL     1       8.292   7.974  -0.873  1.00  0.00    -0.206 F 
ATOM     88  C   UNL     1       9.714   9.396   0.283  1.00  0.00     0.040 A 
ATOM     89  C   UNL     1       8.923  11.436   1.230  1.00  0.00     0.040 A 
ATOM     90  F   UNL     1       6.676  11.961   1.233  1.00  0.00    -0.206 F 
ATOM     91  C   UNL     1       9.978  10.586   0.946  1.00  0.00     0.006 A 
ENDBRANCH  67  84
ENDBRANCH  41  42
ENDBRANCH  33  36
ENDBRANCH  31  32
ENDBRANCH  30  31
ENDBRANCH  29  30
ENDBRANCH  28  29
ENDBRANCH   3  28
TORSDOF 17
