REMARK SMILES O=C(NCCCCNC(=O)C1(Cc2nccs2)CC1)c1ccc(-c2c3nc(c(-c4c(F)cccc4F)c4ccc([nH]4)c(-c4c(F)cccc4F)c4nc(c(-c5c(F)cccc5F)c5ccc2[nH]5)C=C4)C=C3)cc1
REMARK SMILES IDX 5 1 4 2 3 3 1 4 2 5 20 7 21 8 73 9 22 10 72 11 23 12 24 13
REMARK SMILES IDX 25 14 66 15 26 16 71 17 65 18 67 19 27 20 70 21 64 22 63 23
REMARK SMILES IDX 28 25 54 26 37 27 53 28 38 29 41 30 52 31 68 32 39 33 40 34
REMARK SMILES IDX 51 36 69 37 42 38 29 39 30 40 35 41 31 42 32 43 34 44 36 45
REMARK SMILES IDX 33 46 55 47 56 48 61 49 57 50 58 51 60 52 62 53 59 54 43 55
REMARK SMILES IDX 44 56 49 57 45 58 46 59 48 60 50 61 47 62 6 63 7 64 8 65
REMARK SMILES IDX 9 66 10 68 11 69 18 70 19 71 12 72 13 73 14 74 17 75 15 76
REMARK SMILES IDX 16 77
REMARK H PARENT 3 6 67 24 41 35 8 67
REMARK Flexibility Score: inf
ROOT
ATOM      1  C   UNL     1       4.712  -1.899  -1.321  1.00  0.00     0.023 C 
ENDROOT
BRANCH   1   2
ATOM      2  C   UNL     1       4.328  -0.471  -0.986  1.00  0.00     0.116 C 
BRANCH   2   3
ATOM      3  N   UNL     1       2.882  -0.282  -0.894  1.00  0.00    -0.352 N 
ATOM      4  O   UNL     1       0.924   0.373   0.021  1.00  0.00    -0.269 OA
ATOM      5  C   UNL     1       2.151   0.423   0.033  1.00  0.00     0.251 C 
ATOM      6  H   UNL     1       2.355  -0.725  -1.598  1.00  0.00     0.163 HD
BRANCH   5   7
ATOM      7  C   UNL     1       2.852   1.206   1.073  1.00  0.00     0.039 A 
ATOM      8  C   UNL     1       4.003   1.923   0.755  1.00  0.00     0.014 A 
ATOM      9  C   UNL     1       2.383   1.183   2.390  1.00  0.00     0.014 A 
ATOM     10  C   UNL     1       4.796   2.429   1.771  1.00  0.00     0.010 A 
ATOM     11  C   UNL     1       3.117   1.815   3.399  1.00  0.00     0.010 A 
ATOM     12  C   UNL     1       4.355   2.404   3.104  1.00  0.00    -0.014 A 
BRANCH  12  13
ATOM     13  C   UNL     1       5.204   3.046   4.140  1.00  0.00     0.031 A 
ATOM     14  C   UNL     1       5.775   2.259   5.287  1.00  0.00     0.074 A 
ATOM     15  C   UNL     1       5.521   4.347   3.986  1.00  0.00     0.049 A 
ATOM     16  N   UNL     1       6.564   2.666   6.249  1.00  0.00    -0.248 NA
ATOM     17  C   UNL     1       5.406   0.838   5.380  1.00  0.00     0.031 C 
ATOM     18  C   UNL     1       5.019   5.213   2.913  1.00  0.00     0.029 A 
ATOM     19  N   UNL     1       6.373   5.157   4.689  1.00  0.00    -0.354 N 
ATOM     20  C   UNL     1       6.748   1.571   7.084  1.00  0.00     0.074 A 
ATOM     21  C   UNL     1       5.984   0.480   6.519  1.00  0.00     0.031 C 
ATOM     22  C   UNL     1       5.645   6.395   2.970  1.00  0.00     0.029 A 
ATOM     23  C   UNL     1       6.521   6.405   4.134  1.00  0.00     0.049 A 
ATOM     24  H   UNL     1       6.834   4.873   5.511  1.00  0.00     0.167 HD
ATOM     25  C   UNL     1       7.485   1.488   8.218  1.00  0.00     0.037 A 
ATOM     26  C   UNL     1       7.271   7.452   4.522  1.00  0.00     0.037 A 
ATOM     27  C   UNL     1       8.279   2.569   8.747  1.00  0.00     0.049 A 
ATOM     28  C   UNL     1       8.099   7.322   5.764  1.00  0.00     0.074 A 
ATOM     29  C   UNL     1       9.082   2.579   9.874  1.00  0.00     0.029 A 
ATOM     30  N   UNL     1       8.378   3.829   8.176  1.00  0.00    -0.354 N 
ATOM     31  N   UNL     1       8.252   6.282   6.547  1.00  0.00    -0.248 NA
ATOM     32  C   UNL     1       8.844   8.514   6.186  1.00  0.00     0.031 C 
ATOM     33  C   UNL     1       9.641   3.856  10.003  1.00  0.00     0.029 A 
ATOM     34  C   UNL     1       9.219   4.628   8.933  1.00  0.00     0.049 A 
ATOM     35  H   UNL     1       7.918   4.114   7.353  1.00  0.00     0.167 HD
ATOM     36  C   UNL     1       9.114   6.690   7.553  1.00  0.00     0.074 A 
ATOM     37  C   UNL     1       9.473   8.065   7.263  1.00  0.00     0.031 C 
ATOM     38  C   UNL     1       9.562   5.993   8.625  1.00  0.00     0.037 A 
BRANCH  25  39
ATOM     39  C   UNL     1       7.444   0.197   8.984  1.00  0.00     0.057 A 
ATOM     40  C   UNL     1       8.095  -0.959   8.536  1.00  0.00     0.134 A 
ATOM     41  C   UNL     1       6.774   0.124  10.213  1.00  0.00     0.134 A 
ATOM     42  F   UNL     1       8.743  -0.962   7.362  1.00  0.00    -0.206 F 
ATOM     43  C   UNL     1       8.063  -2.147   9.271  1.00  0.00     0.040 A 
ATOM     44  C   UNL     1       6.755  -1.050  10.968  1.00  0.00     0.040 A 
ATOM     45  F   UNL     1       6.135   1.196  10.705  1.00  0.00    -0.206 F 
ATOM     46  C   UNL     1       7.397  -2.192  10.495  1.00  0.00     0.006 A 
ENDBRANCH  25  39
BRANCH  26  47
ATOM     47  C   UNL     1       7.260   8.704   3.727  1.00  0.00     0.057 A 
ATOM     48  C   UNL     1       8.386   9.108   3.001  1.00  0.00     0.134 A 
ATOM     49  C   UNL     1       6.117   9.508   3.647  1.00  0.00     0.134 A 
ATOM     50  F   UNL     1       9.516   8.388   3.048  1.00  0.00    -0.206 F 
ATOM     51  C   UNL     1       8.377  10.272   2.229  1.00  0.00     0.040 A 
ATOM     52  C   UNL     1       6.084  10.657   2.857  1.00  0.00     0.040 A 
ATOM     53  F   UNL     1       5.002   9.168   4.311  1.00  0.00    -0.206 F 
ATOM     54  C   UNL     1       7.220  11.045   2.150  1.00  0.00     0.006 A 
ENDBRANCH  26  47
BRANCH  38  55
ATOM     55  C   UNL     1      10.508   6.708   9.541  1.00  0.00     0.057 A 
ATOM     56  C   UNL     1      10.070   7.710  10.415  1.00  0.00     0.134 A 
ATOM     57  C   UNL     1      11.870   6.387   9.548  1.00  0.00     0.134 A 
ATOM     58  F   UNL     1       8.779   8.074  10.441  1.00  0.00    -0.206 F 
ATOM     59  C   UNL     1      10.961   8.389  11.247  1.00  0.00     0.040 A 
ATOM     60  C   UNL     1      12.767   7.042  10.392  1.00  0.00     0.040 A 
ATOM     61  F   UNL     1      12.350   5.433   8.737  1.00  0.00    -0.206 F 
ATOM     62  C   UNL     1      12.314   8.052  11.239  1.00  0.00     0.006 A 
ENDBRANCH  38  55
ENDBRANCH  12  13
ENDBRANCH   5   7
ENDBRANCH   2   3
ENDBRANCH   1   2
BRANCH   1  63
ATOM     63  C   UNL     1       4.326  -2.300  -2.743  1.00  0.00     0.023 C 
BRANCH  63  64
ATOM     64  C   UNL     1       5.396  -2.057  -3.808  1.00  0.00     0.116 C 
BRANCH  64  65
ATOM     65  N   UNL     1       6.660  -2.692  -3.504  1.00  0.00    -0.356 N 
ATOM     66  C   UNL     1       7.175  -3.933  -3.760  1.00  0.00     0.226 C 
ATOM     67  H   UNL     1       7.279  -2.108  -3.009  1.00  0.00     0.163 HD
ATOM     68  O   UNL     1       8.323  -4.146  -3.369  1.00  0.00    -0.274 OA
BRANCH  66  69
ATOM     69  C   UNL     1       6.457  -4.977  -4.593  1.00  0.00     0.056 C 
ATOM     70  C   UNL     1       6.945  -5.136  -6.033  1.00  0.00     0.018 C 
ATOM     71  C   UNL     1       7.308  -6.179  -5.025  1.00  0.00     0.018 C 
BRANCH  69  72
ATOM     72  C   UNL     1       5.002  -5.336  -4.314  1.00  0.00     0.084 C 
BRANCH  72  73
ATOM     73  C   UNL     1       4.667  -5.719  -2.899  1.00  0.00     0.094 A 
ATOM     74  N   UNL     1       5.512  -5.706  -1.890  1.00  0.00    -0.250 NA
ATOM     75  S   UNL     1       3.030  -6.073  -2.477  1.00  0.00    -0.127 S 
ATOM     76  C   UNL     1       4.837  -5.915  -0.707  1.00  0.00     0.123 A 
ATOM     77  C   UNL     1       3.477  -6.092  -0.823  1.00  0.00     0.087 A 
ENDBRANCH  72  73
ENDBRANCH  69  72
ENDBRANCH  66  69
ENDBRANCH  64  65
ENDBRANCH  63  64
ENDBRANCH   1  63
TORSDOF 13
