REMARK SMILES CC1(C)CCCC[C@@]1(C(=O)NCCCCNC(=O)c1ccc(-c2c3nc(c(-c4c(F)cccc4F)c4ccc([nH]4)c(-c4c(F)cccc4F)c4nc(c(-c5c(F)cccc5F)c5ccc2[nH]5)C=C4)C=C3)cc1)[NH+]1CC[NH2+]CC1
REMARK SMILES IDX 14 1 13 2 12 3 11 4 9 5 10 6 8 8 1 9 2 10 3 11 4 12 5 13
REMARK SMILES IDX 7 14 6 15 73 16 74 17 78 18 75 20 77 21 76 22 15 25 16 26
REMARK SMILES IDX 17 27 18 29 19 30 20 31 72 32 21 33 71 34 22 35 23 36 24 37
REMARK SMILES IDX 65 38 25 39 70 40 64 41 66 42 26 43 69 44 63 45 62 46 27 48
REMARK SMILES IDX 53 49 36 50 52 51 37 52 40 53 51 54 67 55 38 56 39 57 50 59
REMARK SMILES IDX 68 60 41 61 28 62 29 63 34 64 30 65 31 66 33 67 35 68 32 69
REMARK SMILES IDX 54 70 55 71 60 72 56 73 57 74 59 75 61 76 58 77 42 78 43 79
REMARK SMILES IDX 48 80 44 81 45 82 47 83 49 84 46 85
REMARK H PARENT 11 7 73 19 76 23 76 24 16 28 66 47 40 58
REMARK Flexibility Score: inf
ROOT
ATOM      1  C   UNL     1      -0.493   6.845  -2.442  1.00  0.00     0.023 C 
ENDROOT
BRANCH   1   2
ATOM      2  C   UNL     1       0.123   5.760  -1.561  1.00  0.00     0.023 C 
BRANCH   2   3
ATOM      3  C   UNL     1      -0.409   4.355  -1.807  1.00  0.00     0.116 C 
BRANCH   3   4
ATOM      4  N   UNL     1       0.358   3.589  -2.759  1.00  0.00    -0.351 N 
ATOM      5  C   UNL     1       0.895   2.340  -2.725  1.00  0.00     0.281 C 
ATOM      6  O   UNL     1       0.905   1.806  -3.850  1.00  0.00    -0.268 OA
ATOM      7  H   UNL     1       0.527   4.067  -3.603  1.00  0.00     0.163 HD
BRANCH   5   8
ATOM      8  C   UNL     1       1.551   1.571  -1.440  1.00  0.00     0.182 C 
ATOM      9  C   UNL     1       0.955  -0.397   0.290  1.00  0.00     0.018 C 
ATOM     10  C   UNL     1       0.446   0.581  -0.810  1.00  0.00     0.029 C 
ATOM     11  C   UNL     1      -0.234  -0.282  -1.898  1.00  0.00     0.018 C 
ATOM     12  C   UNL     1      -0.652   1.410  -0.104  1.00  0.00     0.013 C 
ATOM     13  C   UNL     1      -0.102   2.240   1.056  1.00  0.00     0.001 C 
ATOM     14  C   UNL     1       2.088   2.553  -0.357  1.00  0.00     0.080 C 
ATOM     15  C   UNL     1       1.166   3.036   0.767  1.00  0.00     0.007 C 
BRANCH   8  16
ATOM     16  N   UNL     1       2.766   0.870  -2.082  1.00  0.00    -0.313 N 
ATOM     17  C   UNL     1       3.457  -0.194  -1.339  1.00  0.00     0.325 C 
ATOM     18  C   UNL     1       3.762   1.800  -2.675  1.00  0.00     0.325 C 
ATOM     19  H   UNL     1       2.269   0.367  -2.818  1.00  0.00     0.349 HD
ATOM     20  C   UNL     1       4.686  -0.823  -2.048  1.00  0.00     0.322 C 
ATOM     21  C   UNL     1       4.897   1.079  -3.439  1.00  0.00     0.322 C 
ATOM     22  N   UNL     1       5.644   0.157  -2.571  1.00  0.00    -0.337 N 
ATOM     23  H   UNL     1       6.370  -0.318  -3.109  1.00  0.00     0.346 HD
ATOM     24  H   UNL     1       6.096   0.663  -1.809  1.00  0.00     0.346 HD
ENDBRANCH   8  16
ENDBRANCH   5   8
ENDBRANCH   3   4
ENDBRANCH   2   3
ENDBRANCH   1   2
BRANCH   1  25
ATOM     25  C   UNL     1      -2.019   6.936  -2.428  1.00  0.00     0.116 C 
BRANCH  25  26
ATOM     26  N   UNL     1      -2.615   7.016  -1.101  1.00  0.00    -0.352 N 
ATOM     27  C   UNL     1      -3.739   7.716  -0.714  1.00  0.00     0.251 C 
ATOM     28  H   UNL     1      -2.159   6.507  -0.393  1.00  0.00     0.163 HD
ATOM     29  O   UNL     1      -4.108   7.721   0.452  1.00  0.00    -0.269 OA
BRANCH  27  30
ATOM     30  C   UNL     1      -4.458   8.511  -1.729  1.00  0.00     0.039 A 
ATOM     31  C   UNL     1      -4.624   9.882  -1.516  1.00  0.00     0.014 A 
ATOM     32  C   UNL     1      -4.857   7.923  -2.932  1.00  0.00     0.014 A 
ATOM     33  C   UNL     1      -5.089  10.685  -2.558  1.00  0.00     0.010 A 
ATOM     34  C   UNL     1      -5.252   8.734  -3.989  1.00  0.00     0.010 A 
ATOM     35  C   UNL     1      -5.348  10.125  -3.820  1.00  0.00    -0.014 A 
BRANCH  35  36
ATOM     36  C   UNL     1      -5.669  10.978  -4.991  1.00  0.00     0.031 A 
ATOM     37  C   UNL     1      -6.995  10.845  -5.682  1.00  0.00     0.074 A 
ATOM     38  C   UNL     1      -4.724  11.797  -5.493  1.00  0.00     0.049 A 
ATOM     39  N   UNL     1      -7.418  11.428  -6.775  1.00  0.00    -0.248 NA
ATOM     40  C   UNL     1      -7.959   9.907  -5.087  1.00  0.00     0.031 C 
ATOM     41  C   UNL     1      -3.371  11.962  -4.958  1.00  0.00     0.029 A 
ATOM     42  N   UNL     1      -4.753  12.634  -6.581  1.00  0.00    -0.354 N 
ATOM     43  C   UNL     1      -8.683  10.907  -7.013  1.00  0.00     0.074 A 
ATOM     44  C   UNL     1      -8.941   9.931  -5.976  1.00  0.00     0.031 C 
ATOM     45  C   UNL     1      -2.707  12.857  -5.707  1.00  0.00     0.029 A 
ATOM     46  C   UNL     1      -3.574  13.306  -6.791  1.00  0.00     0.049 A 
ATOM     47  H   UNL     1      -5.544  12.742  -7.157  1.00  0.00     0.167 HD
ATOM     48  C   UNL     1      -9.558  11.228  -7.994  1.00  0.00     0.037 A 
ATOM     49  C   UNL     1      -3.228  14.183  -7.753  1.00  0.00     0.037 A 
ATOM     50  C   UNL     1      -9.319  12.230  -8.998  1.00  0.00     0.049 A 
ATOM     51  C   UNL     1      -4.231  14.553  -8.807  1.00  0.00     0.074 A 
ATOM     52  C   UNL     1     -10.181  12.696  -9.974  1.00  0.00     0.029 A 
ATOM     53  N   UNL     1      -8.127  12.922  -9.152  1.00  0.00    -0.354 N 
ATOM     54  N   UNL     1      -5.455  14.114  -8.970  1.00  0.00    -0.248 NA
ATOM     55  C   UNL     1      -3.807  15.541  -9.809  1.00  0.00     0.031 C 
ATOM     56  C   UNL     1      -9.500  13.649 -10.739  1.00  0.00     0.029 A 
ATOM     57  C   UNL     1      -8.225  13.798 -10.220  1.00  0.00     0.049 A 
ATOM     58  H   UNL     1      -7.330  12.807  -8.586  1.00  0.00     0.167 HD
ATOM     59  C   UNL     1      -5.953  14.783 -10.080  1.00  0.00     0.074 A 
ATOM     60  C   UNL     1      -4.904  15.668 -10.542  1.00  0.00     0.031 C 
ATOM     61  C   UNL     1      -7.170  14.671 -10.666  1.00  0.00     0.037 A 
BRANCH  48  62
ATOM     62  C   UNL     1     -10.863  10.489  -8.019  1.00  0.00     0.057 A 
ATOM     63  C   UNL     1     -11.859  10.723  -7.063  1.00  0.00     0.134 A 
ATOM     64  C   UNL     1     -11.132   9.548  -9.019  1.00  0.00     0.134 A 
ATOM     65  F   UNL     1     -11.656  11.602  -6.070  1.00  0.00    -0.206 F 
ATOM     66  C   UNL     1     -13.068  10.025  -7.084  1.00  0.00     0.040 A 
ATOM     67  C   UNL     1     -12.346   8.861  -9.065  1.00  0.00     0.040 A 
ATOM     68  F   UNL     1     -10.221   9.281  -9.967  1.00  0.00    -0.206 F 
ATOM     69  C   UNL     1     -13.316   9.094  -8.091  1.00  0.00     0.006 A 
ENDBRANCH  48  62
BRANCH  49  70
ATOM     70  C   UNL     1      -1.876  14.793  -7.746  1.00  0.00     0.057 A 
ATOM     71  C   UNL     1      -1.693  16.130  -7.375  1.00  0.00     0.134 A 
ATOM     72  C   UNL     1      -0.739  14.060  -8.107  1.00  0.00     0.134 A 
ATOM     73  F   UNL     1      -2.748  16.886  -7.037  1.00  0.00    -0.206 F 
ATOM     74  C   UNL     1      -0.430  16.722  -7.375  1.00  0.00     0.040 A 
ATOM     75  C   UNL     1       0.533  14.634  -8.092  1.00  0.00     0.040 A 
ATOM     76  F   UNL     1      -0.849  12.773  -8.465  1.00  0.00    -0.206 F 
ATOM     77  C   UNL     1       0.689  15.971  -7.731  1.00  0.00     0.006 A 
ENDBRANCH  49  70
BRANCH  61  78
ATOM     78  C   UNL     1      -7.436  15.537 -11.860  1.00  0.00     0.057 A 
ATOM     79  C   UNL     1      -6.882  15.247 -13.112  1.00  0.00     0.134 A 
ATOM     80  C   UNL     1      -8.286  16.645 -11.764  1.00  0.00     0.134 A 
ATOM     81  F   UNL     1      -6.048  14.207 -13.263  1.00  0.00    -0.206 F 
ATOM     82  C   UNL     1      -7.153  16.041 -14.228  1.00  0.00     0.040 A 
ATOM     83  C   UNL     1      -8.581  17.433 -12.877  1.00  0.00     0.040 A 
ATOM     84  F   UNL     1      -8.851  16.971 -10.592  1.00  0.00    -0.206 F 
ATOM     85  C   UNL     1      -8.011  17.134 -14.112  1.00  0.00     0.006 A 
ENDBRANCH  61  78
ENDBRANCH  35  36
ENDBRANCH  27  30
ENDBRANCH  25  26
ENDBRANCH   1  25
TORSDOF 12
