REMARK SMILES C[C@@H]1Cc2ccccc2N1S(=O)(=O)c1cccc(C(=O)NCCCCNC(=O)c2ccc(-c3c4nc(c(-c5c(F)cccc5F)c5ccc([nH]5)c(-c5c(F)cccc5F)c5nc(c(-c6c(F)cccc6F)c6ccc3[nH]6)C=C5)C=C4)cc2)c1
REMARK SMILES IDX 23 1 22 2 21 3 19 4 20 5 18 7 14 8 15 9 83 10 16 11 17 12
REMARK SMILES IDX 11 13 12 14 13 15 10 16 1 17 2 18 3 19 4 20 9 21 5 22 8 23
REMARK SMILES IDX 6 24 7 25 24 26 25 27 26 28 27 29 28 31 29 32 30 33 82 34
REMARK SMILES IDX 31 35 81 36 32 37 33 38 34 39 75 40 35 41 80 42 74 43 76 44
REMARK SMILES IDX 36 45 79 46 73 47 72 48 37 50 63 51 46 52 62 53 47 54 50 55
REMARK SMILES IDX 61 56 77 57 48 58 49 59 60 61 78 62 51 63 38 64 39 65 44 66
REMARK SMILES IDX 40 67 41 68 43 69 45 70 42 71 64 72 65 73 70 74 66 75 67 76
REMARK SMILES IDX 69 77 71 78 68 79 52 80 53 81 58 82 54 83 55 84 57 85 59 86
REMARK SMILES IDX 56 87
REMARK H PARENT 21 6 26 30 76 49 50 60
REMARK Flexibility Score: inf
ROOT
ATOM      1  C   UNL     1      -5.933  -1.761  -1.664  1.00  0.00     0.023 C 
ENDROOT
BRANCH   1   2
ATOM      2  C   UNL     1      -5.689  -0.800  -0.511  1.00  0.00     0.116 C 
BRANCH   2   3
ATOM      3  N   UNL     1      -6.563  -0.959   0.639  1.00  0.00    -0.352 N 
ATOM      4  C   UNL     1      -6.328  -0.793   1.989  1.00  0.00     0.251 C 
ATOM      5  O   UNL     1      -7.274  -0.943   2.761  1.00  0.00    -0.269 OA
ATOM      6  H   UNL     1      -7.482  -1.232   0.417  1.00  0.00     0.163 HD
BRANCH   4   7
ATOM      7  C   UNL     1      -4.967  -0.537   2.552  1.00  0.00     0.041 A 
ATOM      8  C   UNL     1      -2.616  -0.099   2.289  1.00  0.00     0.088 A 
ATOM      9  C   UNL     1      -2.357  -0.503   3.601  1.00  0.00     0.022 A 
ATOM     10  C   UNL     1      -3.924   0.033   1.825  1.00  0.00     0.036 A 
ATOM     11  C   UNL     1      -3.416  -0.925   4.399  1.00  0.00     0.002 A 
ATOM     12  C   UNL     1      -4.707  -0.985   3.861  1.00  0.00     0.014 A 
BRANCH   8  13
ATOM     13  S   UNL     1      -1.259   0.135   1.169  1.00  0.00     0.264 S 
ATOM     14  O   UNL     1      -0.116   0.513   1.969  1.00  0.00    -0.201 OA
ATOM     15  O   UNL     1      -1.729   1.010   0.107  1.00  0.00    -0.201 OA
BRANCH  13  16
ATOM     16  N   UNL     1      -0.938  -1.400   0.427  1.00  0.00    -0.263 N 
ATOM     17  C   UNL     1       0.218  -1.208  -1.785  1.00  0.00     0.032 C 
ATOM     18  C   UNL     1       0.417  -1.381  -0.287  1.00  0.00     0.101 C 
ATOM     19  C   UNL     1       1.136  -2.704   0.060  1.00  0.00     0.063 C 
ATOM     20  C   UNL     1       0.232  -3.327   1.068  1.00  0.00    -0.021 A 
ATOM     21  C   UNL     1      -0.942  -2.601   1.220  1.00  0.00     0.055 A 
ATOM     22  C   UNL     1       0.434  -4.533   1.731  1.00  0.00     0.006 A 
ATOM     23  C   UNL     1      -2.000  -3.159   1.918  1.00  0.00     0.027 A 
ATOM     24  C   UNL     1      -0.591  -5.035   2.533  1.00  0.00     0.000 A 
ATOM     25  C   UNL     1      -1.813  -4.360   2.609  1.00  0.00     0.002 A 
ENDBRANCH  13  16
ENDBRANCH   8  13
ENDBRANCH   4   7
ENDBRANCH   2   3
ENDBRANCH   1   2
BRANCH   1  26
ATOM     26  C   UNL     1      -7.304  -1.717  -2.313  1.00  0.00     0.023 C 
BRANCH  26  27
ATOM     27  C   UNL     1      -7.812  -0.335  -2.694  1.00  0.00     0.116 C 
BRANCH  27  28
ATOM     28  N   UNL     1      -6.970   0.371  -3.655  1.00  0.00    -0.352 N 
ATOM     29  C   UNL     1      -7.272   0.847  -4.913  1.00  0.00     0.251 C 
ATOM     30  H   UNL     1      -6.045   0.532  -3.359  1.00  0.00     0.163 HD
ATOM     31  O   UNL     1      -6.404   1.357  -5.613  1.00  0.00    -0.269 OA
BRANCH  29  32
ATOM     32  C   UNL     1      -8.643   0.681  -5.440  1.00  0.00     0.039 A 
ATOM     33  C   UNL     1      -9.744   0.986  -4.642  1.00  0.00     0.014 A 
ATOM     34  C   UNL     1      -8.825   0.117  -6.705  1.00  0.00     0.014 A 
ATOM     35  C   UNL     1     -10.992   0.489  -4.990  1.00  0.00     0.010 A 
ATOM     36  C   UNL     1     -10.107  -0.269  -7.109  1.00  0.00     0.010 A 
ATOM     37  C   UNL     1     -11.188  -0.161  -6.221  1.00  0.00    -0.014 A 
BRANCH  37  38
ATOM     38  C   UNL     1     -12.520  -0.746  -6.532  1.00  0.00     0.031 A 
ATOM     39  C   UNL     1     -12.680  -2.228  -6.763  1.00  0.00     0.074 A 
ATOM     40  C   UNL     1     -13.605   0.052  -6.537  1.00  0.00     0.049 A 
ATOM     41  N   UNL     1     -13.764  -2.909  -7.045  1.00  0.00    -0.248 NA
ATOM     42  C   UNL     1     -11.467  -3.056  -6.673  1.00  0.00     0.031 C 
ATOM     43  C   UNL     1     -13.590   1.498  -6.305  1.00  0.00     0.029 A 
ATOM     44  N   UNL     1     -14.932  -0.240  -6.722  1.00  0.00    -0.354 N 
ATOM     45  C   UNL     1     -13.361  -4.232  -7.190  1.00  0.00     0.074 A 
ATOM     46  C   UNL     1     -11.927  -4.256  -6.996  1.00  0.00     0.031 C 
ATOM     47  C   UNL     1     -14.849   1.958  -6.307  1.00  0.00     0.029 A 
ATOM     48  C   UNL     1     -15.752   0.857  -6.622  1.00  0.00     0.049 A 
ATOM     49  H   UNL     1     -15.264  -1.147  -6.908  1.00  0.00     0.167 HD
ATOM     50  C   UNL     1     -14.116  -5.329  -7.449  1.00  0.00     0.037 A 
ATOM     51  C   UNL     1     -17.081   0.974  -6.793  1.00  0.00     0.037 A 
ATOM     52  C   UNL     1     -15.546  -5.306  -7.624  1.00  0.00     0.049 A 
ATOM     53  C   UNL     1     -17.882  -0.245  -7.146  1.00  0.00     0.074 A 
ATOM     54  C   UNL     1     -16.403  -6.366  -7.868  1.00  0.00     0.029 A 
ATOM     55  N   UNL     1     -16.331  -4.163  -7.579  1.00  0.00    -0.354 N 
ATOM     56  N   UNL     1     -17.486  -1.489  -7.271  1.00  0.00    -0.248 NA
ATOM     57  C   UNL     1     -19.315  -0.040  -7.392  1.00  0.00     0.031 C 
ATOM     58  C   UNL     1     -17.697  -5.857  -8.026  1.00  0.00     0.029 A 
ATOM     59  C   UNL     1     -17.657  -4.488  -7.821  1.00  0.00     0.049 A 
ATOM     60  H   UNL     1     -15.995  -3.255  -7.402  1.00  0.00     0.167 HD
ATOM     61  C   UNL     1     -18.624  -2.217  -7.591  1.00  0.00     0.074 A 
ATOM     62  C   UNL     1     -19.727  -1.279  -7.615  1.00  0.00     0.031 C 
ATOM     63  C   UNL     1     -18.745  -3.543  -7.846  1.00  0.00     0.037 A 
BRANCH  50  64
ATOM     64  C   UNL     1     -13.403  -6.646  -7.587  1.00  0.00     0.057 A 
ATOM     65  C   UNL     1     -13.326  -7.286  -8.832  1.00  0.00     0.134 A 
ATOM     66  C   UNL     1     -12.819  -7.298  -6.493  1.00  0.00     0.134 A 
ATOM     67  F   UNL     1     -13.871  -6.726  -9.921  1.00  0.00    -0.206 F 
ATOM     68  C   UNL     1     -12.693  -8.521  -8.982  1.00  0.00     0.040 A 
ATOM     69  C   UNL     1     -12.158  -8.520  -6.636  1.00  0.00     0.040 A 
ATOM     70  F   UNL     1     -12.847  -6.738  -5.274  1.00  0.00    -0.206 F 
ATOM     71  C   UNL     1     -12.098  -9.138  -7.884  1.00  0.00     0.006 A 
ENDBRANCH  50  64
BRANCH  51  72
ATOM     72  C   UNL     1     -17.734   2.301  -6.664  1.00  0.00     0.057 A 
ATOM     73  C   UNL     1     -17.484   3.328  -7.583  1.00  0.00     0.134 A 
ATOM     74  C   UNL     1     -18.639   2.567  -5.631  1.00  0.00     0.134 A 
ATOM     75  F   UNL     1     -16.621   3.139  -8.593  1.00  0.00    -0.206 F 
ATOM     76  C   UNL     1     -18.103   4.573  -7.475  1.00  0.00     0.040 A 
ATOM     77  C   UNL     1     -19.290   3.797  -5.529  1.00  0.00     0.040 A 
ATOM     78  F   UNL     1     -18.933   1.617  -4.730  1.00  0.00    -0.206 F 
ATOM     79  C   UNL     1     -19.018   4.806  -6.451  1.00  0.00     0.006 A 
ENDBRANCH  51  72
BRANCH  63  80
ATOM     80  C   UNL     1     -20.125  -4.054  -8.140  1.00  0.00     0.057 A 
ATOM     81  C   UNL     1     -20.796  -4.867  -7.217  1.00  0.00     0.134 A 
ATOM     82  C   UNL     1     -20.793  -3.745  -9.333  1.00  0.00     0.134 A 
ATOM     83  F   UNL     1     -20.212  -5.207  -6.058  1.00  0.00    -0.206 F 
ATOM     84  C   UNL     1     -22.080  -5.351  -7.468  1.00  0.00     0.040 A 
ATOM     85  C   UNL     1     -22.090  -4.198  -9.582  1.00  0.00     0.040 A 
ATOM     86  F   UNL     1     -20.213  -2.958 -10.252  1.00  0.00    -0.206 F 
ATOM     87  C   UNL     1     -22.735  -5.008  -8.649  1.00  0.00     0.006 A 
ENDBRANCH  63  80
ENDBRANCH  37  38
ENDBRANCH  29  32
ENDBRANCH  27  28
ENDBRANCH  26  27
ENDBRANCH   1  26
TORSDOF 13
