REMARK SMILES CCOc1ccc2nc(S[C@@H](C(=O)NCCCCNC(=O)c3ccc(-c4c5nc(c(-c6c(F)cccc6F)c6ccc([nH]6)c(-c6c(F)cccc6F)c6nc(c(-c7c(F)cccc7F)c7ccc4[nH]7)C=C6)C=C5)cc3)c3ccccc3)[nH]c2c1
REMARK SMILES IDX 15 1 14 2 12 3 13 4 11 6 10 7 9 8 4 9 5 10 84 11 6 12 83 13
REMARK SMILES IDX 7 14 82 15 8 16 3 18 2 19 1 20 76 21 77 22 81 23 78 24 80 25
REMARK SMILES IDX 79 26 16 27 17 28 18 29 19 30 20 31 21 33 22 34 23 35 75 36
REMARK SMILES IDX 24 37 74 38 25 39 26 40 27 41 68 42 28 43 73 44 67 45 69 46
REMARK SMILES IDX 29 47 72 48 66 49 65 50 30 52 56 53 39 54 55 55 40 56 43 57
REMARK SMILES IDX 54 58 70 59 41 60 42 61 53 63 71 64 44 65 31 66 32 67 37 68
REMARK SMILES IDX 33 69 34 70 36 71 38 72 35 73 57 74 58 75 63 76 59 77 60 78
REMARK SMILES IDX 62 79 64 80 61 81 45 82 46 83 51 84 47 85 48 86 50 87 52 88
REMARK SMILES IDX 49 89
REMARK H PARENT 14 5 82 17 19 32 69 51 43 62
REMARK Flexibility Score: inf
ROOT
ATOM      1  C   UNL     1       8.228  -7.039  -4.351  1.00  0.00     0.116 C 
ENDROOT
BRANCH   1   2
ATOM      2  N   UNL     1       6.903  -6.844  -4.914  1.00  0.00    -0.355 N 
ATOM      3  C   UNL     1       6.337  -5.697  -5.405  1.00  0.00     0.238 C 
ATOM      4  O   UNL     1       5.104  -5.678  -5.478  1.00  0.00    -0.273 OA
ATOM      5  H   UNL     1       6.333  -7.646  -4.949  1.00  0.00     0.163 HD
BRANCH   3   6
ATOM      6  C   UNL     1       7.218  -4.495  -5.831  1.00  0.00     0.174 C 
BRANCH   6   7
ATOM      7  S   UNL     1       7.816  -3.670  -4.307  1.00  0.00    -0.070 SA
BRANCH   7   8
ATOM      8  C   UNL     1       6.412  -3.127  -3.464  1.00  0.00     0.167 A 
ATOM      9  C   UNL     1       2.454  -1.864  -1.690  1.00  0.00     0.121 A 
ATOM     10  C   UNL     1       3.315  -1.532  -0.642  1.00  0.00     0.049 A 
ATOM     11  C   UNL     1       2.928  -2.453  -2.870  1.00  0.00     0.074 A 
ATOM     12  C   UNL     1       4.695  -1.715  -0.763  1.00  0.00     0.034 A 
ATOM     13  C   UNL     1       4.311  -2.644  -2.955  1.00  0.00     0.070 A 
ATOM     14  C   UNL     1       5.191  -2.282  -1.941  1.00  0.00     0.090 A 
ATOM     15  N   UNL     1       5.122  -3.195  -3.919  1.00  0.00    -0.333 N 
ATOM     16  N   UNL     1       6.483  -2.580  -2.275  1.00  0.00    -0.223 NA
ATOM     17  H   UNL     1       4.829  -3.571  -4.780  1.00  0.00     0.169 HD
BRANCH   9  18
ATOM     18  O   UNL     1       1.099  -1.738  -1.535  1.00  0.00    -0.494 OA
BRANCH  18  19
ATOM     19  C   UNL     1       0.654  -0.374  -1.557  1.00  0.00     0.226 C 
ATOM     20  C   UNL     1       0.631   0.245  -0.167  1.00  0.00     0.049 C 
ENDBRANCH  18  19
ENDBRANCH   9  18
ENDBRANCH   7   8
ENDBRANCH   6   7
BRANCH   6  21
ATOM     21  C   UNL     1       6.582  -3.515  -6.832  1.00  0.00    -0.025 A 
ATOM     22  C   UNL     1       7.013  -2.174  -6.917  1.00  0.00     0.005 A 
ATOM     23  C   UNL     1       5.588  -3.921  -7.739  1.00  0.00     0.005 A 
ATOM     24  C   UNL     1       6.401  -1.260  -7.776  1.00  0.00     0.000 A 
ATOM     25  C   UNL     1       4.975  -3.007  -8.603  1.00  0.00     0.000 A 
ATOM     26  C   UNL     1       5.369  -1.673  -8.608  1.00  0.00     0.000 A 
ENDBRANCH   6  21
ENDBRANCH   3   6
ENDBRANCH   1   2
BRANCH   1  27
ATOM     27  C   UNL     1       8.197  -6.931  -2.821  1.00  0.00     0.023 C 
BRANCH  27  28
ATOM     28  C   UNL     1       7.404  -8.033  -2.114  1.00  0.00     0.023 C 
BRANCH  28  29
ATOM     29  C   UNL     1       7.883  -9.451  -2.390  1.00  0.00     0.116 C 
BRANCH  29  30
ATOM     30  N   UNL     1       9.264  -9.671  -1.992  1.00  0.00    -0.352 N 
ATOM     31  C   UNL     1       9.811 -10.746  -1.335  1.00  0.00     0.251 C 
ATOM     32  H   UNL     1       9.893  -8.950  -2.224  1.00  0.00     0.163 HD
ATOM     33  O   UNL     1      10.978 -10.712  -0.958  1.00  0.00    -0.269 OA
BRANCH  31  34
ATOM     34  C   UNL     1       8.977 -11.933  -1.056  1.00  0.00     0.039 A 
ATOM     35  C   UNL     1       9.009 -12.493   0.223  1.00  0.00     0.014 A 
ATOM     36  C   UNL     1       8.155 -12.481  -2.044  1.00  0.00     0.014 A 
ATOM     37  C   UNL     1       8.167 -13.565   0.529  1.00  0.00     0.010 A 
ATOM     38  C   UNL     1       7.261 -13.496  -1.716  1.00  0.00     0.010 A 
ATOM     39  C   UNL     1       7.261 -14.051  -0.427  1.00  0.00    -0.014 A 
BRANCH  39  40
ATOM     40  C   UNL     1       6.314 -15.149  -0.104  1.00  0.00     0.031 A 
ATOM     41  C   UNL     1       6.406 -16.460  -0.837  1.00  0.00     0.074 A 
ATOM     42  C   UNL     1       5.341 -14.951   0.808  1.00  0.00     0.049 A 
ATOM     43  N   UNL     1       5.625 -17.508  -0.760  1.00  0.00    -0.248 NA
ATOM     44  C   UNL     1       7.508 -16.605  -1.801  1.00  0.00     0.031 C 
ATOM     45  C   UNL     1       5.124 -13.715   1.563  1.00  0.00     0.029 A 
ATOM     46  N   UNL     1       4.346 -15.787   1.249  1.00  0.00    -0.354 N 
ATOM     47  C   UNL     1       6.139 -18.430  -1.662  1.00  0.00     0.074 A 
ATOM     48  C   UNL     1       7.258 -17.797  -2.324  1.00  0.00     0.031 C 
ATOM     49  C   UNL     1       4.078 -13.883   2.390  1.00  0.00     0.029 A 
ATOM     50  C   UNL     1       3.525 -15.218   2.194  1.00  0.00     0.049 A 
ATOM     51  H   UNL     1       4.230 -16.708   0.920  1.00  0.00     0.167 HD
ATOM     52  C   UNL     1       5.736 -19.701  -1.897  1.00  0.00     0.037 A 
ATOM     53  C   UNL     1       2.442 -15.715   2.821  1.00  0.00     0.037 A 
ATOM     54  C   UNL     1       4.633 -20.338  -1.228  1.00  0.00     0.049 A 
ATOM     55  C   UNL     1       1.992 -17.118   2.508  1.00  0.00     0.074 A 
ATOM     56  C   UNL     1       4.161 -21.630  -1.383  1.00  0.00     0.029 A 
ATOM     57  N   UNL     1       3.834 -19.731  -0.272  1.00  0.00    -0.354 N 
ATOM     58  N   UNL     1       2.519 -17.994   1.687  1.00  0.00    -0.248 NA
ATOM     59  C   UNL     1       0.797 -17.603   3.214  1.00  0.00     0.031 C 
ATOM     60  C   UNL     1       3.051 -21.792  -0.547  1.00  0.00     0.029 A 
ATOM     61  C   UNL     1       2.865 -20.619   0.165  1.00  0.00     0.049 A 
ATOM     62  H   UNL     1       3.940 -18.806   0.050  1.00  0.00     0.167 HD
ATOM     63  C   UNL     1       1.748 -19.143   1.811  1.00  0.00     0.074 A 
ATOM     64  C   UNL     1       0.726 -18.858   2.795  1.00  0.00     0.031 C 
ATOM     65  C   UNL     1       1.874 -20.329   1.168  1.00  0.00     0.037 A 
BRANCH  52  66
ATOM     66  C   UNL     1       6.508 -20.499  -2.908  1.00  0.00     0.057 A 
ATOM     67  C   UNL     1       7.810 -20.946  -2.648  1.00  0.00     0.134 A 
ATOM     68  C   UNL     1       5.928 -20.873  -4.126  1.00  0.00     0.134 A 
ATOM     69  F   UNL     1       8.429 -20.612  -1.505  1.00  0.00    -0.206 F 
ATOM     70  C   UNL     1       8.514 -21.722  -3.571  1.00  0.00     0.040 A 
ATOM     71  C   UNL     1       6.612 -21.672  -5.045  1.00  0.00     0.040 A 
ATOM     72  F   UNL     1       4.682 -20.484  -4.437  1.00  0.00    -0.206 F 
ATOM     73  C   UNL     1       7.910 -22.095  -4.769  1.00  0.00     0.006 A 
ENDBRANCH  52  66
BRANCH  53  74
ATOM     74  C   UNL     1       1.701 -14.899   3.818  1.00  0.00     0.057 A 
ATOM     75  C   UNL     1       1.672 -15.261   5.171  1.00  0.00     0.134 A 
ATOM     76  C   UNL     1       0.957 -13.775   3.439  1.00  0.00     0.134 A 
ATOM     77  F   UNL     1       2.348 -16.340   5.595  1.00  0.00    -0.206 F 
ATOM     78  C   UNL     1       0.901 -14.562   6.101  1.00  0.00     0.040 A 
ATOM     79  C   UNL     1       0.206 -13.048   4.364  1.00  0.00     0.040 A 
ATOM     80  F   UNL     1       0.947 -13.369   2.161  1.00  0.00    -0.206 F 
ATOM     81  C   UNL     1       0.166 -13.450   5.698  1.00  0.00     0.006 A 
ENDBRANCH  53  74
BRANCH  65  82
ATOM     82  C   UNL     1       0.925 -21.427   1.553  1.00  0.00     0.057 A 
ATOM     83  C   UNL     1      -0.431 -21.394   1.208  1.00  0.00     0.134 A 
ATOM     84  C   UNL     1       1.388 -22.550   2.250  1.00  0.00     0.134 A 
ATOM     85  F   UNL     1      -0.941 -20.341   0.551  1.00  0.00    -0.206 F 
ATOM     86  C   UNL     1      -1.299 -22.427   1.565  1.00  0.00     0.040 A 
ATOM     87  C   UNL     1       0.537 -23.603   2.587  1.00  0.00     0.040 A 
ATOM     88  F   UNL     1       2.679 -22.650   2.603  1.00  0.00    -0.206 F 
ATOM     89  C   UNL     1      -0.813 -23.539   2.251  1.00  0.00     0.006 A 
ENDBRANCH  65  82
ENDBRANCH  39  40
ENDBRANCH  31  34
ENDBRANCH  29  30
ENDBRANCH  28  29
ENDBRANCH  27  28
ENDBRANCH   1  27
TORSDOF 16
