REMARK SMILES COc1cccc([C@@H]2C[N@@H+](Cc3nccn3C)C[C@H]2C(=O)NCCCCNC(=O)c2ccc(-c3c4nc(c(-c5c(F)cccc5F)c5ccc([nH]5)c(-c5c(F)cccc5F)c5nc(c(-c6c(F)cccc6F)c6ccc3[nH]6)C=C5)C=C4)cc2)c1
REMARK SMILES IDX 24 1 23 2 22 3 20 4 21 5 19 7 8 8 9 9 10 10 18 11 7 13 3 14
REMARK SMILES IDX 4 15 84 16 5 17 6 18 2 19 1 20 11 21 12 22 13 23 16 24 14 25
REMARK SMILES IDX 15 26 17 27 25 28 26 29 27 30 28 31 29 33 30 34 31 35 83 36
REMARK SMILES IDX 32 37 82 38 33 39 34 40 35 41 76 42 36 43 81 44 75 45 77 46
REMARK SMILES IDX 37 47 80 48 74 49 73 50 38 52 64 53 47 54 63 55 48 56 51 57
REMARK SMILES IDX 62 58 78 59 49 60 50 61 61 63 79 64 52 65 39 66 40 67 45 68
REMARK SMILES IDX 41 69 42 70 44 71 46 72 43 73 65 74 66 75 71 76 67 77 68 78
REMARK SMILES IDX 70 79 72 80 69 81 53 82 54 83 59 84 55 85 56 86 58 87 60 88
REMARK SMILES IDX 57 89
REMARK H PARENT 22 6 10 12 27 32 77 51 51 62
REMARK Flexibility Score: inf
ROOT
ATOM      1  C   UNL     1       3.893  -4.884   6.807  1.00  0.00     0.023 C 
ENDROOT
BRANCH   1   2
ATOM      2  C   UNL     1       4.591  -4.923   5.439  1.00  0.00     0.116 C 
BRANCH   2   3
ATOM      3  N   UNL     1       3.683  -4.697   4.316  1.00  0.00    -0.356 N 
ATOM      4  C   UNL     1       3.663  -3.970   3.175  1.00  0.00     0.229 C 
ATOM      5  O   UNL     1       3.146  -4.591   2.229  1.00  0.00    -0.275 OA
ATOM      6  H   UNL     1       2.855  -5.219   4.419  1.00  0.00     0.163 HD
BRANCH   4   7
ATOM      7  C   UNL     1       4.102  -2.526   2.894  1.00  0.00     0.146 C 
ATOM      8  C   UNL     1       3.611  -1.404   3.805  1.00  0.00     0.092 C 
ATOM      9  C   UNL     1       4.502  -0.214   3.383  1.00  0.00     0.271 C 
ATOM     10  N   UNL     1       5.768  -0.776   2.885  1.00  0.00    -0.327 N 
ATOM     11  C   UNL     1       5.560  -2.204   2.598  1.00  0.00     0.277 C 
ATOM     12  H   UNL     1       6.030  -0.341   2.001  1.00  0.00     0.348 HD
BRANCH   8  13
ATOM     13  C   UNL     1       2.140  -1.065   3.617  1.00  0.00    -0.035 A 
ATOM     14  C   UNL     1       0.310  -0.299   2.180  1.00  0.00     0.119 A 
ATOM     15  C   UNL     1      -0.551  -0.357   3.272  1.00  0.00     0.046 A 
ATOM     16  C   UNL     1       1.646  -0.652   2.360  1.00  0.00     0.050 A 
ATOM     17  C   UNL     1      -0.087  -0.774   4.522  1.00  0.00     0.004 A 
ATOM     18  C   UNL     1       1.254  -1.125   4.696  1.00  0.00     0.004 A 
BRANCH  14  19
ATOM     19  O   UNL     1      -0.250   0.131   1.009  1.00  0.00    -0.497 OA
ATOM     20  C   UNL     1       0.539  -0.011  -0.169  1.00  0.00     0.278 C 
ENDBRANCH  14  19
ENDBRANCH   8  13
BRANCH  10  21
ATOM     21  C   UNL     1       6.933  -0.420   3.708  1.00  0.00     0.339 C 
BRANCH  21  22
ATOM     22  C   UNL     1       6.743  -0.738   5.158  1.00  0.00     0.164 A 
ATOM     23  N   UNL     1       6.142   0.054   6.031  1.00  0.00    -0.236 NA
ATOM     24  N   UNL     1       6.989  -1.963   5.721  1.00  0.00    -0.333 N 
ATOM     25  C   UNL     1       5.793  -0.741   7.079  1.00  0.00     0.131 A 
ATOM     26  C   UNL     1       6.250  -2.014   6.867  1.00  0.00     0.107 A 
ATOM     27  C   UNL     1       7.821  -3.022   5.205  1.00  0.00     0.151 C 
ENDBRANCH  21  22
ENDBRANCH  10  21
ENDBRANCH   4   7
ENDBRANCH   2   3
ENDBRANCH   1   2
BRANCH   1  28
ATOM     28  C   UNL     1       4.349  -5.903   7.871  1.00  0.00     0.023 C 
BRANCH  28  29
ATOM     29  C   UNL     1       5.833  -6.222   8.048  1.00  0.00     0.116 C 
BRANCH  29  30
ATOM     30  N   UNL     1       6.619  -5.237   8.779  1.00  0.00    -0.352 N 
ATOM     31  C   UNL     1       7.542  -5.411   9.793  1.00  0.00     0.251 C 
ATOM     32  H   UNL     1       6.470  -4.303   8.508  1.00  0.00     0.163 HD
ATOM     33  O   UNL     1       8.132  -4.459  10.270  1.00  0.00    -0.269 OA
BRANCH  31  34
ATOM     34  C   UNL     1       7.743  -6.767  10.338  1.00  0.00     0.039 A 
ATOM     35  C   UNL     1       7.525  -6.981  11.701  1.00  0.00     0.014 A 
ATOM     36  C   UNL     1       7.990  -7.833   9.477  1.00  0.00     0.014 A 
ATOM     37  C   UNL     1       7.429  -8.289  12.178  1.00  0.00     0.010 A 
ATOM     38  C   UNL     1       7.777  -9.126   9.932  1.00  0.00     0.010 A 
ATOM     39  C   UNL     1       7.486  -9.372  11.285  1.00  0.00    -0.014 A 
BRANCH  39  40
ATOM     40  C   UNL     1       7.248 -10.768  11.737  1.00  0.00     0.031 A 
ATOM     41  C   UNL     1       8.303 -11.816  11.503  1.00  0.00     0.074 A 
ATOM     42  C   UNL     1       6.058 -11.119  12.268  1.00  0.00     0.049 A 
ATOM     43  N   UNL     1       8.251 -13.107  11.713  1.00  0.00    -0.248 NA
ATOM     44  C   UNL     1       9.565 -11.360  10.898  1.00  0.00     0.031 C 
ATOM     45  C   UNL     1       4.914 -10.226  12.469  1.00  0.00     0.029 A 
ATOM     46  N   UNL     1       5.611 -12.332  12.733  1.00  0.00    -0.354 N 
ATOM     47  C   UNL     1       9.450 -13.613  11.226  1.00  0.00     0.074 A 
ATOM     48  C   UNL     1      10.172 -12.506  10.641  1.00  0.00     0.031 C 
ATOM     49  C   UNL     1       3.918 -10.908  13.058  1.00  0.00     0.029 A 
ATOM     50  C   UNL     1       4.337 -12.293  13.248  1.00  0.00     0.049 A 
ATOM     51  H   UNL     1       6.153 -13.153  12.701  1.00  0.00     0.167 HD
ATOM     52  C   UNL     1       9.931 -14.876  11.299  1.00  0.00     0.037 A 
ATOM     53  C   UNL     1       3.598 -13.263  13.819  1.00  0.00     0.037 A 
ATOM     54  C   UNL     1       9.250 -15.958  11.954  1.00  0.00     0.049 A 
ATOM     55  C   UNL     1       4.183 -14.642  13.959  1.00  0.00     0.074 A 
ATOM     56  C   UNL     1       9.687 -17.253  12.166  1.00  0.00     0.029 A 
ATOM     57  N   UNL     1       7.989 -15.861  12.524  1.00  0.00    -0.354 N 
ATOM     58  N   UNL     1       5.350 -15.089  13.563  1.00  0.00    -0.248 NA
ATOM     59  C   UNL     1       3.352 -15.649  14.634  1.00  0.00     0.031 C 
ATOM     60  C   UNL     1       8.681 -17.946  12.848  1.00  0.00     0.029 A 
ATOM     61  C   UNL     1       7.631 -17.073  13.086  1.00  0.00     0.049 A 
ATOM     62  H   UNL     1       7.431 -15.049  12.527  1.00  0.00     0.167 HD
ATOM     63  C   UNL     1       5.405 -16.418  13.963  1.00  0.00     0.074 A 
ATOM     64  C   UNL     1       4.161 -16.700  14.649  1.00  0.00     0.031 C 
ATOM     65  C   UNL     1       6.394 -17.326  13.777  1.00  0.00     0.037 A 
BRANCH  52  66
ATOM     66  C   UNL     1      11.275 -15.133  10.682  1.00  0.00     0.057 A 
ATOM     67  C   UNL     1      12.451 -14.597  11.227  1.00  0.00     0.134 A 
ATOM     68  C   UNL     1      11.397 -15.915   9.527  1.00  0.00     0.134 A 
ATOM     69  F   UNL     1      12.401 -13.824  12.323  1.00  0.00    -0.206 F 
ATOM     70  C   UNL     1      13.693 -14.792  10.621  1.00  0.00     0.040 A 
ATOM     71  C   UNL     1      12.639 -16.143   8.930  1.00  0.00     0.040 A 
ATOM     72  F   UNL     1      10.314 -16.463   8.957  1.00  0.00    -0.206 F 
ATOM     73  C   UNL     1      13.789 -15.572   9.471  1.00  0.00     0.006 A 
ENDBRANCH  52  66
BRANCH  53  74
ATOM     74  C   UNL     1       2.247 -12.960  14.360  1.00  0.00     0.057 A 
ATOM     75  C   UNL     1       2.019 -12.925  15.741  1.00  0.00     0.134 A 
ATOM     76  C   UNL     1       1.153 -12.722  13.521  1.00  0.00     0.134 A 
ATOM     77  F   UNL     1       3.025 -13.164  16.596  1.00  0.00    -0.206 F 
ATOM     78  C   UNL     1       0.749 -12.690  16.270  1.00  0.00     0.040 A 
ATOM     79  C   UNL     1      -0.120 -12.462  14.037  1.00  0.00     0.040 A 
ATOM     80  F   UNL     1       1.305 -12.732  12.189  1.00  0.00    -0.206 F 
ATOM     81  C   UNL     1      -0.325 -12.455  15.415  1.00  0.00     0.006 A 
ENDBRANCH  53  74
BRANCH  65  82
ATOM     82  C   UNL     1       6.183 -18.695  14.349  1.00  0.00     0.057 A 
ATOM     83  C   UNL     1       5.295 -19.607  13.767  1.00  0.00     0.134 A 
ATOM     84  C   UNL     1       6.911 -19.119  15.467  1.00  0.00     0.134 A 
ATOM     85  F   UNL     1       4.560 -19.255  12.701  1.00  0.00    -0.206 F 
ATOM     86  C   UNL     1       5.124 -20.890  14.289  1.00  0.00     0.040 A 
ATOM     87  C   UNL     1       6.766 -20.407  15.984  1.00  0.00     0.040 A 
ATOM     88  F   UNL     1       7.784 -18.295  16.066  1.00  0.00    -0.206 F 
ATOM     89  C   UNL     1       5.867 -21.295  15.397  1.00  0.00     0.006 A 
ENDBRANCH  65  82
ENDBRANCH  39  40
ENDBRANCH  31  34
ENDBRANCH  29  30
ENDBRANCH  28  29
ENDBRANCH   1  28
TORSDOF 15
