REMARK SMILES CC#CC[C@H](C(=O)NCCCCNC(=O)c1ccc(-c2c3nc(c(-c4c(F)cccc4F)c4ccc([nH]4)c(-c4c(F)cccc4F)c4nc(c(-c5c(F)cccc5F)c5ccc2[nH]5)C=C4)C=C3)cc1)c1cccc(Br)c1
REMARK SMILES IDX 10 1 9 2 8 3 6 4 7 5 5 7 4 8 3 9 1 10 2 11 70 12 71 13 76 14
REMARK SMILES IDX 72 15 74 16 73 17 75 18 11 19 12 20 13 21 14 22 15 24 16 25
REMARK SMILES IDX 17 26 69 27 18 28 68 29 19 30 20 31 21 32 62 33 22 34 67 35
REMARK SMILES IDX 61 36 63 37 23 38 66 39 60 40 59 41 24 43 50 44 33 45 49 46
REMARK SMILES IDX 34 47 37 48 48 49 64 50 35 51 36 52 47 54 65 55 38 56 25 57
REMARK SMILES IDX 26 58 31 59 27 60 28 61 30 62 32 63 29 64 51 65 52 66 57 67
REMARK SMILES IDX 53 68 54 69 56 70 58 71 55 72 39 73 40 74 45 75 41 76 42 77
REMARK SMILES IDX 44 78 46 79 43 80
REMARK H PARENT 8 6 13 23 63 42 37 53
REMARK Flexibility Score: inf
ROOT
ATOM      1  C   UNL     1      -0.395  -2.420   0.323  1.00  0.00     0.023 C 
ENDROOT
BRANCH   1   2
ATOM      2  C   UNL     1      -1.225  -2.933  -0.877  1.00  0.00     0.116 C 
BRANCH   2   3
ATOM      3  N   UNL     1      -1.272  -1.956  -1.965  1.00  0.00    -0.356 N 
ATOM      4  C   UNL     1      -0.778  -1.774  -3.208  1.00  0.00     0.228 C 
ATOM      5  O   UNL     1      -1.268  -0.770  -3.762  1.00  0.00    -0.274 OA
ATOM      6  H   UNL     1      -1.842  -1.194  -1.711  1.00  0.00     0.163 HD
BRANCH   4   7
ATOM      7  C   UNL     1       0.253  -2.597  -4.022  1.00  0.00     0.120 C 
BRANCH   7   8
ATOM      8  C   UNL     1       1.627  -2.953  -3.430  1.00  0.00     0.107 C 
BRANCH   8   9
ATOM      9  C   UNL     1       1.611  -4.060  -2.484  1.00  0.00    -0.102 C 
ATOM     10  C   UNL     1       1.048  -5.522  -0.134  1.00  0.00     0.107 C 
ATOM     11  C   UNL     1       1.351  -4.735  -1.399  1.00  0.00    -0.107 C 
ENDBRANCH   8   9
ENDBRANCH   7   8
BRANCH   7  12
ATOM     12  C   UNL     1      -0.339  -3.567  -5.054  1.00  0.00    -0.034 A 
ATOM     13  C   UNL     1      -1.127  -3.043  -6.099  1.00  0.00     0.004 A 
ATOM     14  C   UNL     1      -0.004  -4.930  -5.114  1.00  0.00     0.020 A 
ATOM     15  C   UNL     1      -1.523  -3.835  -7.181  1.00  0.00     0.001 A 
ATOM     16  C   UNL     1      -0.400  -5.716  -6.201  1.00  0.00     0.018 A 
ATOM     17  C   UNL     1      -1.148  -5.173  -7.239  1.00  0.00     0.016 A 
ATOM     18  Br  UNL     1       0.138  -7.529  -6.287  1.00  0.00    -0.051 Br
ENDBRANCH   7  12
ENDBRANCH   4   7
ENDBRANCH   2   3
ENDBRANCH   1   2
BRANCH   1  19
ATOM     19  C   UNL     1      -0.965  -2.679   1.740  1.00  0.00     0.023 C 
BRANCH  19  20
ATOM     20  C   UNL     1      -0.989  -4.118   2.266  1.00  0.00     0.116 C 
BRANCH  20  21
ATOM     21  N   UNL     1       0.332  -4.667   2.549  1.00  0.00    -0.352 N 
ATOM     22  C   UNL     1       0.732  -5.918   2.989  1.00  0.00     0.251 C 
ATOM     23  H   UNL     1       1.072  -4.035   2.402  1.00  0.00     0.163 HD
ATOM     24  O   UNL     1       1.925  -6.197   3.005  1.00  0.00    -0.269 OA
BRANCH  22  25
ATOM     25  C   UNL     1      -0.241  -6.874   3.567  1.00  0.00     0.039 A 
ATOM     26  C   UNL     1       0.140  -7.491   4.766  1.00  0.00     0.014 A 
ATOM     27  C   UNL     1      -1.545  -7.002   3.100  1.00  0.00     0.014 A 
ATOM     28  C   UNL     1      -0.840  -7.978   5.624  1.00  0.00     0.010 A 
ATOM     29  C   UNL     1      -2.535  -7.413   3.982  1.00  0.00     0.010 A 
ATOM     30  C   UNL     1      -2.186  -7.786   5.287  1.00  0.00    -0.014 A 
BRANCH  30  31
ATOM     31  C   UNL     1      -3.200  -7.660   6.358  1.00  0.00     0.031 A 
ATOM     32  C   UNL     1      -4.348  -8.605   6.460  1.00  0.00     0.074 A 
ATOM     33  C   UNL     1      -3.130  -6.568   7.149  1.00  0.00     0.049 A 
ATOM     34  N   UNL     1      -5.352  -8.582   7.295  1.00  0.00    -0.248 NA
ATOM     35  C   UNL     1      -4.397  -9.695   5.475  1.00  0.00     0.031 C 
ATOM     36  C   UNL     1      -2.115  -5.511   7.049  1.00  0.00     0.029 A 
ATOM     37  N   UNL     1      -3.929  -6.152   8.181  1.00  0.00    -0.354 N 
ATOM     38  C   UNL     1      -6.171  -9.636   6.925  1.00  0.00     0.074 A 
ATOM     39  C   UNL     1      -5.556 -10.267   5.774  1.00  0.00     0.031 C 
ATOM     40  C   UNL     1      -2.331  -4.592   8.001  1.00  0.00     0.029 A 
ATOM     41  C   UNL     1      -3.511  -4.978   8.761  1.00  0.00     0.049 A 
ATOM     42  H   UNL     1      -4.726  -6.647   8.479  1.00  0.00     0.167 HD
ATOM     43  C   UNL     1      -7.327 -10.039   7.500  1.00  0.00     0.037 A 
ATOM     44  C   UNL     1      -4.019  -4.290   9.798  1.00  0.00     0.037 A 
ATOM     45  C   UNL     1      -7.914  -9.417   8.657  1.00  0.00     0.049 A 
ATOM     46  C   UNL     1      -5.230  -4.831  10.492  1.00  0.00     0.074 A 
ATOM     47  C   UNL     1      -9.049  -9.786   9.357  1.00  0.00     0.029 A 
ATOM     48  N   UNL     1      -7.402  -8.293   9.289  1.00  0.00    -0.354 N 
ATOM     49  N   UNL     1      -5.947  -5.884  10.187  1.00  0.00    -0.248 NA
ATOM     50  C   UNL     1      -5.696  -4.101  11.678  1.00  0.00     0.031 C 
ATOM     51  C   UNL     1      -9.228  -8.878  10.409  1.00  0.00     0.029 A 
ATOM     52  C   UNL     1      -8.195  -7.955  10.371  1.00  0.00     0.049 A 
ATOM     53  H   UNL     1      -6.593  -7.806   9.008  1.00  0.00     0.167 HD
ATOM     54  C   UNL     1      -6.943  -5.953  11.147  1.00  0.00     0.074 A 
ATOM     55  C   UNL     1      -6.728  -4.843  12.055  1.00  0.00     0.031 C 
ATOM     56  C   UNL     1      -7.950  -6.851  11.263  1.00  0.00     0.037 A 
BRANCH  43  57
ATOM     57  C   UNL     1      -8.019 -11.209   6.876  1.00  0.00     0.057 A 
ATOM     58  C   UNL     1      -7.544 -12.515   7.046  1.00  0.00     0.134 A 
ATOM     59  C   UNL     1      -9.160 -11.029   6.085  1.00  0.00     0.134 A 
ATOM     60  F   UNL     1      -6.443 -12.748   7.776  1.00  0.00    -0.206 F 
ATOM     61  C   UNL     1      -8.166 -13.602   6.430  1.00  0.00     0.040 A 
ATOM     62  C   UNL     1      -9.801 -12.110   5.478  1.00  0.00     0.040 A 
ATOM     63  F   UNL     1      -9.660  -9.801   5.881  1.00  0.00    -0.206 F 
ATOM     64  C   UNL     1      -9.300 -13.400   5.644  1.00  0.00     0.006 A 
ENDBRANCH  43  57
BRANCH  44  65
ATOM     65  C   UNL     1      -3.348  -3.056  10.268  1.00  0.00     0.057 A 
ATOM     66  C   UNL     1      -2.553  -3.069  11.419  1.00  0.00     0.134 A 
ATOM     67  C   UNL     1      -3.463  -1.848   9.572  1.00  0.00     0.134 A 
ATOM     68  F   UNL     1      -2.412  -4.198  12.129  1.00  0.00    -0.206 F 
ATOM     69  C   UNL     1      -1.907  -1.919  11.873  1.00  0.00     0.040 A 
ATOM     70  C   UNL     1      -2.811  -0.693  10.007  1.00  0.00     0.040 A 
ATOM     71  F   UNL     1      -4.198  -1.780   8.452  1.00  0.00    -0.206 F 
ATOM     72  C   UNL     1      -2.034  -0.726  11.164  1.00  0.00     0.006 A 
ENDBRANCH  44  65
BRANCH  56  73
ATOM     73  C   UNL     1      -8.875  -6.670  12.423  1.00  0.00     0.057 A 
ATOM     74  C   UNL     1      -9.902  -5.720  12.394  1.00  0.00     0.134 A 
ATOM     75  C   UNL     1      -8.750  -7.468  13.565  1.00  0.00     0.134 A 
ATOM     76  F   UNL     1     -10.055  -4.917  11.331  1.00  0.00    -0.206 F 
ATOM     77  C   UNL     1     -10.772  -5.563  13.472  1.00  0.00     0.040 A 
ATOM     78  C   UNL     1      -9.623  -7.329  14.643  1.00  0.00     0.040 A 
ATOM     79  F   UNL     1      -7.781  -8.392  13.648  1.00  0.00    -0.206 F 
ATOM     80  C   UNL     1     -10.636  -6.373  14.599  1.00  0.00     0.006 A 
ENDBRANCH  56  73
ENDBRANCH  30  31
ENDBRANCH  22  25
ENDBRANCH  20  21
ENDBRANCH  19  20
ENDBRANCH   1  19
TORSDOF 14
