REMARK SMILES Cc1csc([C@H](C)Nc2cc(C)c(N)c(C(=O)NCCCCNC(=O)c3ccc(-c4c5nc(c(-c6c(F)cccc6F)c6ccc([nH]6)c(-c6c(F)cccc6F)c6nc(c(-c7c(F)cccc7F)c7ccc4[nH]7)C=C6)C=C5)cc3)c2)n1
REMARK SMILES IDX 20 1 19 2 18 3 16 4 17 5 15 7 9 8 10 9 80 10 11 11 12 12
REMARK SMILES IDX 13 13 8 14 6 16 7 17 5 18 1 19 2 20 3 21 81 22 4 23 14 24
REMARK SMILES IDX 21 27 22 28 23 29 24 30 25 32 26 33 27 34 79 35 28 36 78 37
REMARK SMILES IDX 29 38 30 39 31 40 72 41 32 42 77 43 71 44 73 45 33 46 76 47
REMARK SMILES IDX 70 48 69 49 34 51 60 52 43 53 59 54 44 55 47 56 58 57 74 58
REMARK SMILES IDX 45 59 46 60 57 62 75 63 48 64 35 65 36 66 41 67 37 68 38 69
REMARK SMILES IDX 40 70 42 71 39 72 61 73 62 74 67 75 63 76 64 77 66 78 68 79
REMARK SMILES IDX 65 80 49 81 50 82 55 83 51 84 52 85 54 86 56 87 53 88
REMARK H PARENT 18 6 8 15 14 25 14 26 23 31 73 50 47 61
REMARK Flexibility Score: inf
ROOT
ATOM      1  C   UNL     1      -0.012   1.687   5.545  1.00  0.00     0.023 C 
ENDROOT
BRANCH   1   2
ATOM      2  C   UNL     1       0.228   3.186   5.753  1.00  0.00     0.116 C 
BRANCH   2   3
ATOM      3  N   UNL     1       1.543   3.416   6.317  1.00  0.00    -0.352 N 
ATOM      4  C   UNL     1       2.780   3.653   5.765  1.00  0.00     0.253 C 
ATOM      5  O   UNL     1       3.707   3.764   6.576  1.00  0.00    -0.269 OA
ATOM      6  H   UNL     1       1.553   3.399   7.301  1.00  0.00     0.163 HD
BRANCH   4   7
ATOM      7  C   UNL     1       3.053   3.805   4.291  1.00  0.00     0.065 A 
ATOM      8  C   UNL     1       2.398   3.471   1.948  1.00  0.00     0.036 A 
ATOM      9  C   UNL     1       3.531   4.162   1.539  1.00  0.00     0.031 A 
ATOM     10  C   UNL     1       2.191   3.290   3.317  1.00  0.00     0.041 A 
ATOM     11  C   UNL     1       4.466   4.637   2.476  1.00  0.00    -0.025 A 
ATOM     12  C   UNL     1       5.689   5.357   1.971  1.00  0.00     0.046 C 
ATOM     13  C   UNL     1       4.241   4.452   3.861  1.00  0.00     0.047 A 
BRANCH   8  14
ATOM     14  N   UNL     1       1.357   3.136   1.094  1.00  0.00    -0.376 N 
ATOM     15  H   UNL     1       0.437   3.376   1.349  1.00  0.00     0.161 HD
BRANCH  14  16
ATOM     16  C   UNL     1       1.579   2.436  -0.180  1.00  0.00     0.135 C 
ATOM     17  C   UNL     1       0.648   1.213  -0.139  1.00  0.00     0.039 C 
BRANCH  16  18
ATOM     18  C   UNL     1       1.330   3.316  -1.405  1.00  0.00     0.115 A 
ATOM     19  C   UNL     1       1.157   6.634  -2.813  1.00  0.00     0.067 C 
ATOM     20  C   UNL     1       1.120   5.160  -2.636  1.00  0.00     0.049 A 
ATOM     21  C   UNL     1       0.893   4.216  -3.617  1.00  0.00     0.090 A 
ATOM     22  N   UNL     1       1.343   4.638  -1.373  1.00  0.00    -0.244 NA
ATOM     23  S   UNL     1       1.044   2.642  -2.967  1.00  0.00    -0.125 S 
ENDBRANCH  16  18
ENDBRANCH  14  16
ENDBRANCH   8  14
BRANCH  13  24
ATOM     24  N   UNL     1       5.111   5.058   4.778  1.00  0.00    -0.398 N 
ATOM     25  H   UNL     1       5.930   5.502   4.461  1.00  0.00     0.156 HD
ATOM     26  H   UNL     1       4.903   5.039   5.740  1.00  0.00     0.156 HD
ENDBRANCH  13  24
ENDBRANCH   4   7
ENDBRANCH   2   3
ENDBRANCH   1   2
BRANCH   1  27
ATOM     27  C   UNL     1      -0.402   0.927   6.816  1.00  0.00     0.023 C 
BRANCH  27  28
ATOM     28  C   UNL     1      -1.722   1.362   7.441  1.00  0.00     0.116 C 
BRANCH  28  29
ATOM     29  N   UNL     1      -2.853   1.257   6.532  1.00  0.00    -0.352 N 
ATOM     30  C   UNL     1      -4.177   1.049   6.836  1.00  0.00     0.251 C 
ATOM     31  H   UNL     1      -2.642   1.347   5.574  1.00  0.00     0.163 HD
ATOM     32  O   UNL     1      -5.002   0.886   5.948  1.00  0.00    -0.269 OA
BRANCH  30  33
ATOM     33  C   UNL     1      -4.585   0.976   8.254  1.00  0.00     0.039 A 
ATOM     34  C   UNL     1      -5.359  -0.108   8.672  1.00  0.00     0.014 A 
ATOM     35  C   UNL     1      -4.177   1.951   9.168  1.00  0.00     0.014 A 
ATOM     36  C   UNL     1      -5.672  -0.250  10.024  1.00  0.00     0.010 A 
ATOM     37  C   UNL     1      -4.432   1.772  10.524  1.00  0.00     0.010 A 
ATOM     38  C   UNL     1      -5.180   0.670  10.964  1.00  0.00    -0.014 A 
BRANCH  38  39
ATOM     39  C   UNL     1      -5.436   0.493  12.414  1.00  0.00     0.031 A 
ATOM     40  C   UNL     1      -6.271   1.494  13.160  1.00  0.00     0.074 A 
ATOM     41  C   UNL     1      -4.858  -0.532  13.069  1.00  0.00     0.049 A 
ATOM     42  N   UNL     1      -6.555   1.545  14.437  1.00  0.00    -0.248 NA
ATOM     43  C   UNL     1      -6.838   2.600  12.373  1.00  0.00     0.031 C 
ATOM     44  C   UNL     1      -3.980  -1.536  12.465  1.00  0.00     0.029 A 
ATOM     45  N   UNL     1      -4.914  -0.891  14.392  1.00  0.00    -0.354 N 
ATOM     46  C   UNL     1      -7.317   2.693  14.607  1.00  0.00     0.074 A 
ATOM     47  C   UNL     1      -7.410   3.336  13.315  1.00  0.00     0.031 C 
ATOM     48  C   UNL     1      -3.597  -2.410  13.410  1.00  0.00     0.029 A 
ATOM     49  C   UNL     1      -4.176  -2.011  14.689  1.00  0.00     0.049 A 
ATOM     50  H   UNL     1      -5.434  -0.394  15.063  1.00  0.00     0.167 HD
ATOM     51  C   UNL     1      -7.906   3.156  15.735  1.00  0.00     0.037 A 
ATOM     52  C   UNL     1      -3.986  -2.642  15.863  1.00  0.00     0.037 A 
ATOM     53  C   UNL     1      -7.836   2.498  17.013  1.00  0.00     0.049 A 
ATOM     54  C   UNL     1      -4.665  -2.117  17.097  1.00  0.00     0.074 A 
ATOM     55  C   UNL     1      -8.453   2.852  18.200  1.00  0.00     0.029 A 
ATOM     56  N   UNL     1      -7.105   1.348  17.269  1.00  0.00    -0.354 N 
ATOM     57  N   UNL     1      -5.443  -1.071  17.230  1.00  0.00    -0.248 NA
ATOM     58  C   UNL     1      -4.446  -2.866  18.342  1.00  0.00     0.031 C 
ATOM     59  C   UNL     1      -8.065   1.936  19.184  1.00  0.00     0.029 A 
ATOM     60  C   UNL     1      -7.241   0.988  18.599  1.00  0.00     0.049 A 
ATOM     61  H   UNL     1      -6.568   0.860  16.603  1.00  0.00     0.167 HD
ATOM     62  C   UNL     1      -5.827  -1.050  18.564  1.00  0.00     0.074 A 
ATOM     63  C   UNL     1      -5.207  -2.196  19.196  1.00  0.00     0.031 C 
ATOM     64  C   UNL     1      -6.622  -0.161  19.209  1.00  0.00     0.037 A 
BRANCH  51  65
ATOM     65  C   UNL     1      -8.683   4.435  15.631  1.00  0.00     0.057 A 
ATOM     66  C   UNL     1      -9.909   4.500  14.956  1.00  0.00     0.134 A 
ATOM     67  C   UNL     1      -8.216   5.609  16.235  1.00  0.00     0.134 A 
ATOM     68  F   UNL     1     -10.407   3.414  14.344  1.00  0.00    -0.206 F 
ATOM     69  C   UNL     1     -10.629   5.692  14.862  1.00  0.00     0.040 A 
ATOM     70  C   UNL     1      -8.939   6.801  16.171  1.00  0.00     0.040 A 
ATOM     71  F   UNL     1      -7.051   5.615  16.902  1.00  0.00    -0.206 F 
ATOM     72  C   UNL     1     -10.147   6.846  15.476  1.00  0.00     0.006 A 
ENDBRANCH  51  65
BRANCH  52  73
ATOM     73  C   UNL     1      -3.141  -3.860  15.922  1.00  0.00     0.057 A 
ATOM     74  C   UNL     1      -3.710  -5.122  16.125  1.00  0.00     0.134 A 
ATOM     75  C   UNL     1      -1.750  -3.793  15.783  1.00  0.00     0.134 A 
ATOM     76  F   UNL     1      -5.036  -5.247  16.282  1.00  0.00    -0.206 F 
ATOM     77  C   UNL     1      -2.926  -6.274  16.206  1.00  0.00     0.040 A 
ATOM     78  C   UNL     1      -0.955  -4.939  15.839  1.00  0.00     0.040 A 
ATOM     79  F   UNL     1      -1.145  -2.614  15.579  1.00  0.00    -0.206 F 
ATOM     80  C   UNL     1      -1.543  -6.184  16.058  1.00  0.00     0.006 A 
ENDBRANCH  52  73
BRANCH  64  81
ATOM     81  C   UNL     1      -6.892  -0.413  20.662  1.00  0.00     0.057 A 
ATOM     82  C   UNL     1      -5.917  -0.194  21.643  1.00  0.00     0.134 A 
ATOM     83  C   UNL     1      -8.154  -0.845  21.087  1.00  0.00     0.134 A 
ATOM     84  F   UNL     1      -4.683   0.206  21.298  1.00  0.00    -0.206 F 
ATOM     85  C   UNL     1      -6.181  -0.417  22.995  1.00  0.00     0.040 A 
ATOM     86  C   UNL     1      -8.438  -1.047  22.438  1.00  0.00     0.040 A 
ATOM     87  F   UNL     1      -9.135  -1.065  20.198  1.00  0.00    -0.206 F 
ATOM     88  C   UNL     1      -7.448  -0.839  23.396  1.00  0.00     0.006 A 
ENDBRANCH  64  81
ENDBRANCH  38  39
ENDBRANCH  30  33
ENDBRANCH  28  29
ENDBRANCH  27  28
ENDBRANCH   1  27
TORSDOF 15
