REMARK SMILES C=CC[NH2+][C@@]1(C(=O)NCCCCNC(=O)c2ccc(-c3c4nc(c(-c5c(F)cccc5F)c5ccc([nH]5)c(-c5c(F)cccc5F)c5nc(c(-c6c(F)cccc6F)c6ccc3[nH]6)C=C5)C=C4)cc2)CSCCC1(C)C
REMARK SMILES IDX 10 1 9 2 8 3 6 4 7 5 5 7 70 8 74 9 71 10 73 11 75 12 76 13
REMARK SMILES IDX 72 14 4 15 3 18 2 19 1 20 11 21 12 22 13 23 14 24 15 26
REMARK SMILES IDX 16 27 17 28 69 29 18 30 68 31 19 32 20 33 21 34 62 35 22 36
REMARK SMILES IDX 67 37 61 38 63 39 23 40 66 41 60 42 59 43 24 45 50 46 33 47
REMARK SMILES IDX 49 48 34 49 37 50 48 51 64 52 35 53 36 54 47 56 65 57 38 58
REMARK SMILES IDX 25 59 26 60 31 61 27 62 28 63 30 64 32 65 29 66 51 67 52 68
REMARK SMILES IDX 57 69 53 70 54 71 56 72 58 73 55 74 39 75 40 76 45 77 41 78
REMARK SMILES IDX 42 79 44 80 46 81 43 82
REMARK H PARENT 8 6 4 16 4 17 13 25 63 44 37 55
REMARK Flexibility Score: inf
ROOT
ATOM      1  C   UNL     1      -7.135  -1.683  -0.072  1.00  0.00     0.023 C 
ENDROOT
BRANCH   1   2
ATOM      2  C   UNL     1      -6.296  -1.017  -1.164  1.00  0.00     0.116 C 
BRANCH   2   3
ATOM      3  N   UNL     1      -5.113  -0.410  -0.599  1.00  0.00    -0.351 N 
ATOM      4  C   UNL     1      -3.783  -0.670  -0.593  1.00  0.00     0.282 C 
ATOM      5  O   UNL     1      -3.203   0.070   0.213  1.00  0.00    -0.268 OA
ATOM      6  H   UNL     1      -5.329   0.401  -0.085  1.00  0.00     0.163 HD
BRANCH   4   7
ATOM      7  C   UNL     1      -3.015  -1.727  -1.517  1.00  0.00     0.189 C 
ATOM      8  C   UNL     1      -3.470  -1.411  -2.982  1.00  0.00     0.149 C 
ATOM      9  C   UNL     1      -3.206  -3.276  -1.149  1.00  0.00     0.031 C 
ATOM     10  S   UNL     1      -2.697  -2.406  -4.303  1.00  0.00    -0.155 SA
ATOM     11  C   UNL     1      -2.529  -4.203  -2.211  1.00  0.00     0.024 C 
ATOM     12  C   UNL     1      -2.583  -3.616   0.230  1.00  0.00     0.018 C 
ATOM     13  C   UNL     1      -4.660  -3.761  -1.039  1.00  0.00     0.018 C 
ATOM     14  C   UNL     1      -3.056  -4.048  -3.635  1.00  0.00     0.070 C 
BRANCH   7  15
ATOM     15  N   UNL     1      -1.512  -1.462  -1.533  1.00  0.00    -0.329 N 
ATOM     16  H   UNL     1      -1.057  -2.351  -1.739  1.00  0.00     0.347 HD
ATOM     17  H   UNL     1      -1.407  -0.718  -2.222  1.00  0.00     0.347 HD
BRANCH  15  18
ATOM     18  C   UNL     1      -0.867  -0.921  -0.342  1.00  0.00     0.289 C 
BRANCH  18  19
ATOM     19  C   UNL     1       0.616  -1.134  -0.430  1.00  0.00     0.025 C 
ATOM     20  C   UNL     1       1.516  -0.160  -0.234  1.00  0.00     0.010 C 
ENDBRANCH  18  19
ENDBRANCH  15  18
ENDBRANCH   7  15
ENDBRANCH   4   7
ENDBRANCH   2   3
ENDBRANCH   1   2
BRANCH   1  21
ATOM     21  C   UNL     1      -7.928  -0.720   0.798  1.00  0.00     0.023 C 
BRANCH  21  22
ATOM     22  C   UNL     1      -8.863   0.191   0.028  1.00  0.00     0.116 C 
BRANCH  22  23
ATOM     23  N   UNL     1      -9.730  -0.532  -0.890  1.00  0.00    -0.352 N 
ATOM     24  C   UNL     1     -11.086  -0.404  -1.077  1.00  0.00     0.251 C 
ATOM     25  H   UNL     1      -9.286  -1.206  -1.454  1.00  0.00     0.163 HD
ATOM     26  O   UNL     1     -11.697  -1.195  -1.775  1.00  0.00    -0.269 OA
BRANCH  24  27
ATOM     27  C   UNL     1     -11.789   0.692  -0.383  1.00  0.00     0.039 A 
ATOM     28  C   UNL     1     -12.973   0.409   0.294  1.00  0.00     0.014 A 
ATOM     29  C   UNL     1     -11.234   1.974  -0.349  1.00  0.00     0.014 A 
ATOM     30  C   UNL     1     -13.569   1.407   1.063  1.00  0.00     0.010 A 
ATOM     31  C   UNL     1     -11.762   2.927   0.509  1.00  0.00     0.010 A 
ATOM     32  C   UNL     1     -12.945   2.659   1.209  1.00  0.00    -0.014 A 
BRANCH  32  33
ATOM     33  C   UNL     1     -13.536   3.698   2.084  1.00  0.00     0.031 A 
ATOM     34  C   UNL     1     -13.984   5.009   1.501  1.00  0.00     0.074 A 
ATOM     35  C   UNL     1     -13.643   3.462   3.406  1.00  0.00     0.049 A 
ATOM     36  N   UNL     1     -14.554   6.024   2.099  1.00  0.00    -0.248 NA
ATOM     37  C   UNL     1     -13.734   5.225   0.066  1.00  0.00     0.031 C 
ATOM     38  C   UNL     1     -13.163   2.262   4.095  1.00  0.00     0.029 A 
ATOM     39  N   UNL     1     -14.199   4.218   4.405  1.00  0.00    -0.354 N 
ATOM     40  C   UNL     1     -14.732   6.988   1.115  1.00  0.00     0.074 A 
ATOM     41  C   UNL     1     -14.136   6.476  -0.097  1.00  0.00     0.031 C 
ATOM     42  C   UNL     1     -13.487   2.342   5.396  1.00  0.00     0.029 A 
ATOM     43  C   UNL     1     -14.168   3.609   5.636  1.00  0.00     0.049 A 
ATOM     44  H   UNL     1     -14.584   5.111   4.255  1.00  0.00     0.167 HD
ATOM     45  C   UNL     1     -15.373   8.176   1.202  1.00  0.00     0.037 A 
ATOM     46  C   UNL     1     -14.646   4.025   6.824  1.00  0.00     0.037 A 
ATOM     47  C   UNL     1     -15.978   8.673   2.408  1.00  0.00     0.049 A 
ATOM     48  C   UNL     1     -15.370   5.341   6.889  1.00  0.00     0.074 A 
ATOM     49  C   UNL     1     -16.686   9.846   2.600  1.00  0.00     0.029 A 
ATOM     50  N   UNL     1     -15.946   8.020   3.631  1.00  0.00    -0.354 N 
ATOM     51  N   UNL     1     -15.602   6.207   5.931  1.00  0.00    -0.248 NA
ATOM     52  C   UNL     1     -15.913   5.731   8.197  1.00  0.00     0.031 C 
ATOM     53  C   UNL     1     -17.048   9.921   3.949  1.00  0.00     0.029 A 
ATOM     54  C   UNL     1     -16.610   8.771   4.586  1.00  0.00     0.049 A 
ATOM     55  H   UNL     1     -15.515   7.150   3.796  1.00  0.00     0.167 HD
ATOM     56  C   UNL     1     -16.332   7.233   6.515  1.00  0.00     0.074 A 
ATOM     57  C   UNL     1     -16.534   6.863   7.902  1.00  0.00     0.031 C 
ATOM     58  C   UNL     1     -16.790   8.384   5.962  1.00  0.00     0.037 A 
BRANCH  45  59
ATOM     59  C   UNL     1     -15.472   9.002  -0.048  1.00  0.00     0.057 A 
ATOM     60  C   UNL     1     -16.269   8.604  -1.131  1.00  0.00     0.134 A 
ATOM     61  C   UNL     1     -14.791  10.220  -0.163  1.00  0.00     0.134 A 
ATOM     62  F   UNL     1     -16.934   7.439  -1.094  1.00  0.00    -0.206 F 
ATOM     63  C   UNL     1     -16.369   9.376  -2.289  1.00  0.00     0.040 A 
ATOM     64  C   UNL     1     -14.905  11.015  -1.305  1.00  0.00     0.040 A 
ATOM     65  F   UNL     1     -14.010  10.661   0.834  1.00  0.00    -0.206 F 
ATOM     66  C   UNL     1     -15.692  10.591  -2.375  1.00  0.00     0.006 A 
ENDBRANCH  45  59
BRANCH  46  67
ATOM     67  C   UNL     1     -14.482   3.182   8.035  1.00  0.00     0.057 A 
ATOM     68  C   UNL     1     -15.582   2.580   8.658  1.00  0.00     0.134 A 
ATOM     69  C   UNL     1     -13.223   2.972   8.611  1.00  0.00     0.134 A 
ATOM     70  F   UNL     1     -16.817   2.753   8.163  1.00  0.00    -0.206 F 
ATOM     71  C   UNL     1     -15.441   1.828   9.826  1.00  0.00     0.040 A 
ATOM     72  C   UNL     1     -13.064   2.198   9.762  1.00  0.00     0.040 A 
ATOM     73  F   UNL     1     -12.127   3.509   8.056  1.00  0.00    -0.206 F 
ATOM     74  C   UNL     1     -14.178   1.633  10.379  1.00  0.00     0.006 A 
ENDBRANCH  46  67
BRANCH  58  75
ATOM     75  C   UNL     1     -17.563   9.305   6.860  1.00  0.00     0.057 A 
ATOM     76  C   UNL     1     -16.947  10.011   7.901  1.00  0.00     0.134 A 
ATOM     77  C   UNL     1     -18.939   9.489   6.678  1.00  0.00     0.134 A 
ATOM     78  F   UNL     1     -15.633   9.869   8.134  1.00  0.00    -0.206 F 
ATOM     79  C   UNL     1     -17.679  10.835   8.756  1.00  0.00     0.040 A 
ATOM     80  C   UNL     1     -19.676  10.336   7.506  1.00  0.00     0.040 A 
ATOM     81  F   UNL     1     -19.589   8.853   5.692  1.00  0.00    -0.206 F 
ATOM     82  C   UNL     1     -19.048  11.002   8.556  1.00  0.00     0.006 A 
ENDBRANCH  58  75
ENDBRANCH  32  33
ENDBRANCH  24  27
ENDBRANCH  22  23
ENDBRANCH  21  22
ENDBRANCH   1  21
TORSDOF 14
