REMARK SMILES Cc1nc(C(=O)NCCCCNC(=O)c2ccc(-c3c4nc(c(-c5c(F)cccc5F)c5ccc([nH]5)c(-c5c(F)cccc5F)c5nc(c(-c6c(F)cccc6F)c6ccc3[nH]6)C=C5)C=C4)cc2)nn1-c1cccc(C(F)(F)F)c1
REMARK SMILES IDX 9 1 8 2 7 3 5 4 6 5 4 7 1 8 2 9 3 10 70 11 69 12 71 13 72 14
REMARK SMILES IDX 80 15 73 16 75 17 74 18 76 19 77 20 78 21 79 22 10 23 11 24
REMARK SMILES IDX 12 25 13 26 14 28 15 29 16 30 68 31 17 32 67 33 18 34 19 35
REMARK SMILES IDX 20 36 61 37 21 38 66 39 60 40 62 41 22 42 65 43 59 44 58 45
REMARK SMILES IDX 23 47 49 48 32 49 48 50 33 51 36 52 47 53 63 54 34 55 35 56
REMARK SMILES IDX 46 58 64 59 37 60 24 61 25 62 30 63 26 64 27 65 29 66 31 67
REMARK SMILES IDX 28 68 50 69 51 70 56 71 52 72 53 73 55 74 57 75 54 76 38 77
REMARK SMILES IDX 39 78 44 79 40 80 41 81 43 82 45 83 42 84
REMARK H PARENT 7 6 12 27 62 46 36 57
REMARK Flexibility Score: inf
ROOT
ATOM      1  C   UNL     1      -2.795   1.640   5.896  1.00  0.00     0.023 C 
ENDROOT
BRANCH   1   2
ATOM      2  C   UNL     1      -1.322   1.213   5.904  1.00  0.00     0.116 C 
BRANCH   2   3
ATOM      3  N   UNL     1      -1.141  -0.228   5.798  1.00  0.00    -0.349 N 
ATOM      4  C   UNL     1      -0.623  -1.001   4.769  1.00  0.00     0.290 C 
ATOM      5  O   UNL     1      -0.667  -2.225   4.915  1.00  0.00    -0.266 OA
ATOM      6  H   UNL     1      -1.435  -0.738   6.587  1.00  0.00     0.163 HD
BRANCH   4   7
ATOM      7  C   UNL     1      -0.080  -0.369   3.544  1.00  0.00     0.239 A 
ATOM      8  C   UNL     1       0.813  -0.268   0.081  1.00  0.00     0.090 C 
ATOM      9  C   UNL     1       0.373  -0.065   1.483  1.00  0.00     0.130 A 
ATOM     10  N   UNL     1      -0.045  -1.001   2.313  1.00  0.00    -0.207 NA
ATOM     11  N   UNL     1       0.490   1.121   2.180  1.00  0.00    -0.217 N 
ATOM     12  N   UNL     1       0.460   0.861   3.503  1.00  0.00    -0.140 NA
BRANCH  11  13
ATOM     13  C   UNL     1       0.471   2.465   1.739  1.00  0.00     0.067 A 
ATOM     14  C   UNL     1       1.109   3.443   2.514  1.00  0.00     0.028 A 
ATOM     15  C   UNL     1      -0.296   2.841   0.629  1.00  0.00     0.041 A 
ATOM     16  C   UNL     1       1.028   4.785   2.147  1.00  0.00     0.003 A 
ATOM     17  C   UNL     1      -0.421   4.198   0.284  1.00  0.00     0.058 A 
ATOM     18  C   UNL     1       0.269   5.160   1.040  1.00  0.00     0.013 A 
BRANCH  17  19
ATOM     19  C   UNL     1      -1.313   4.636  -0.854  1.00  0.00     0.416 C 
ATOM     20  F   UNL     1      -2.244   5.549  -0.462  1.00  0.00    -0.166 F 
ATOM     21  F   UNL     1      -0.616   5.217  -1.867  1.00  0.00    -0.166 F 
ATOM     22  F   UNL     1      -2.011   3.611  -1.417  1.00  0.00    -0.166 F 
ENDBRANCH  17  19
ENDBRANCH  11  13
ENDBRANCH   4   7
ENDBRANCH   2   3
ENDBRANCH   1   2
BRANCH   1  23
ATOM     23  C   UNL     1      -3.607   1.343   7.165  1.00  0.00     0.023 C 
BRANCH  23  24
ATOM     24  C   UNL     1      -3.089   2.012   8.431  1.00  0.00     0.116 C 
BRANCH  24  25
ATOM     25  N   UNL     1      -3.082   3.483   8.377  1.00  0.00    -0.352 N 
ATOM     26  C   UNL     1      -2.622   4.394   9.329  1.00  0.00     0.251 C 
ATOM     27  H   UNL     1      -3.454   3.880   7.557  1.00  0.00     0.163 HD
ATOM     28  O   UNL     1      -2.996   5.552   9.334  1.00  0.00    -0.269 OA
BRANCH  26  29
ATOM     29  C   UNL     1      -1.636   3.925  10.322  1.00  0.00     0.039 A 
ATOM     30  C   UNL     1      -1.582   4.356  11.653  1.00  0.00     0.014 A 
ATOM     31  C   UNL     1      -0.757   2.961   9.867  1.00  0.00     0.014 A 
ATOM     32  C   UNL     1      -0.637   3.773  12.501  1.00  0.00     0.010 A 
ATOM     33  C   UNL     1      -0.153   2.152  10.769  1.00  0.00     0.010 A 
ATOM     34  C   UNL     1       0.084   2.674  12.026  1.00  0.00    -0.014 A 
BRANCH  34  35
ATOM     35  C   UNL     1       1.111   1.962  12.763  1.00  0.00     0.031 A 
ATOM     36  C   UNL     1       0.592   1.126  13.865  1.00  0.00     0.074 A 
ATOM     37  C   UNL     1       2.338   1.784  12.218  1.00  0.00     0.049 A 
ATOM     38  N   UNL     1       0.742   1.316  15.131  1.00  0.00    -0.248 NA
ATOM     39  C   UNL     1      -0.365   0.056  13.532  1.00  0.00     0.031 C 
ATOM     40  C   UNL     1       2.839   2.249  10.914  1.00  0.00     0.029 A 
ATOM     41  N   UNL     1       3.356   0.997  12.659  1.00  0.00    -0.354 N 
ATOM     42  C   UNL     1       0.106   0.241  15.743  1.00  0.00     0.074 A 
ATOM     43  C   UNL     1      -0.771  -0.312  14.749  1.00  0.00     0.031 C 
ATOM     44  C   UNL     1       3.947   1.552  10.577  1.00  0.00     0.029 A 
ATOM     45  C   UNL     1       4.314   0.699  11.688  1.00  0.00     0.049 A 
ATOM     46  H   UNL     1       3.412   0.665  13.584  1.00  0.00     0.167 HD
ATOM     47  C   UNL     1       0.588  -0.291  16.901  1.00  0.00     0.037 A 
ATOM     48  C   UNL     1       5.273  -0.256  11.803  1.00  0.00     0.037 A 
ATOM     49  C   UNL     1       1.578   0.586  17.489  1.00  0.00     0.049 A 
ATOM     50  C   UNL     1       5.412  -0.545  13.261  1.00  0.00     0.074 A 
ATOM     51  C   UNL     1       1.592   1.916  17.867  1.00  0.00     0.029 A 
ATOM     52  N   UNL     1       2.902   0.225  17.366  1.00  0.00    -0.354 N 
ATOM     53  N   UNL     1       5.854   0.328  14.130  1.00  0.00    -0.248 NA
ATOM     54  C   UNL     1       4.568  -1.597  13.814  1.00  0.00     0.031 C 
ATOM     55  C   UNL     1       2.861   2.404  17.432  1.00  0.00     0.029 A 
ATOM     56  C   UNL     1       3.582   1.327  16.915  1.00  0.00     0.049 A 
ATOM     57  H   UNL     1       3.287  -0.659  17.565  1.00  0.00     0.167 HD
ATOM     58  C   UNL     1       5.011   0.198  15.227  1.00  0.00     0.074 A 
ATOM     59  C   UNL     1       4.276  -1.046  14.996  1.00  0.00     0.031 C 
ATOM     60  C   UNL     1       4.744   1.252  16.057  1.00  0.00     0.037 A 
BRANCH  47  61
ATOM     61  C   UNL     1       0.498  -1.753  17.289  1.00  0.00     0.057 A 
ATOM     62  C   UNL     1       0.991  -2.138  18.551  1.00  0.00     0.134 A 
ATOM     63  C   UNL     1       0.233  -2.823  16.409  1.00  0.00     0.134 A 
ATOM     64  F   UNL     1       1.265  -1.222  19.493  1.00  0.00    -0.206 F 
ATOM     65  C   UNL     1       1.310  -3.463  18.864  1.00  0.00     0.040 A 
ATOM     66  C   UNL     1       0.499  -4.156  16.733  1.00  0.00     0.040 A 
ATOM     67  F   UNL     1      -0.204  -2.652  15.159  1.00  0.00    -0.206 F 
ATOM     68  C   UNL     1       1.080  -4.478  17.946  1.00  0.00     0.006 A 
ENDBRANCH  47  61
BRANCH  48  69
ATOM     69  C   UNL     1       5.784  -1.157  10.737  1.00  0.00     0.057 A 
ATOM     70  C   UNL     1       6.925  -1.951  10.928  1.00  0.00     0.134 A 
ATOM     71  C   UNL     1       5.025  -1.454   9.588  1.00  0.00     0.134 A 
ATOM     72  F   UNL     1       7.694  -1.786  12.014  1.00  0.00    -0.206 F 
ATOM     73  C   UNL     1       7.281  -2.979  10.040  1.00  0.00     0.040 A 
ATOM     74  C   UNL     1       5.374  -2.469   8.689  1.00  0.00     0.040 A 
ATOM     75  F   UNL     1       3.868  -0.826   9.336  1.00  0.00    -0.206 F 
ATOM     76  C   UNL     1       6.500  -3.246   8.919  1.00  0.00     0.006 A 
ENDBRANCH  48  69
BRANCH  60  77
ATOM     77  C   UNL     1       5.538   2.524  15.906  1.00  0.00     0.057 A 
ATOM     78  C   UNL     1       5.543   3.320  14.750  1.00  0.00     0.134 A 
ATOM     79  C   UNL     1       6.150   3.068  17.040  1.00  0.00     0.134 A 
ATOM     80  F   UNL     1       4.895   2.940  13.643  1.00  0.00    -0.206 F 
ATOM     81  C   UNL     1       6.151   4.579  14.716  1.00  0.00     0.040 A 
ATOM     82  C   UNL     1       6.733   4.338  17.030  1.00  0.00     0.040 A 
ATOM     83  F   UNL     1       6.136   2.397  18.202  1.00  0.00    -0.206 F 
ATOM     84  C   UNL     1       6.741   5.096  15.863  1.00  0.00     0.006 A 
ENDBRANCH  60  77
ENDBRANCH  34  35
ENDBRANCH  26  29
ENDBRANCH  24  25
ENDBRANCH  23  24
ENDBRANCH   1  23
TORSDOF 13
