REMARK SMILES CCC(CC)C(O)(C(=O)NCCCCNC(=O)c1ccc(-c2c3nc(c(-c4c(F)cccc4F)c4ccc([nH]4)c(-c4c(F)cccc4F)c4nc(c(-c5c(F)cccc5F)c5ccc2[nH]5)C=C4)C=C3)cc1)C(CC)CC
REMARK SMILES IDX 12 1 11 2 10 3 8 4 9 5 6 7 3 8 2 9 1 10 4 11 5 12 7 13 72 15
REMARK SMILES IDX 73 16 74 17 75 18 76 19 13 20 14 21 15 22 16 23 17 25 18 26
REMARK SMILES IDX 19 27 71 28 20 29 70 30 21 31 22 32 23 33 64 34 24 35 69 36
REMARK SMILES IDX 63 37 65 38 25 39 68 40 62 41 61 42 26 44 52 45 35 46 51 47
REMARK SMILES IDX 36 48 39 49 50 50 66 51 37 52 38 53 49 55 67 56 40 57 27 58
REMARK SMILES IDX 28 59 33 60 29 61 30 62 32 63 34 64 31 65 53 66 54 67 59 68
REMARK SMILES IDX 55 69 56 70 58 71 60 72 57 73 41 74 42 75 47 76 43 77 44 78
REMARK SMILES IDX 46 79 48 80 45 81
REMARK H PARENT 10 6 7 14 15 24 65 43 39 54
REMARK Flexibility Score: inf
ROOT
ATOM      1  C   UNL     1       4.185   0.831   3.543  1.00  0.00     0.023 C 
ENDROOT
BRANCH   1   2
ATOM      2  C   UNL     1       3.269  -0.033   4.413  1.00  0.00     0.116 C 
BRANCH   2   3
ATOM      3  N   UNL     1       2.123   0.680   4.958  1.00  0.00    -0.354 N 
ATOM      4  C   UNL     1       0.778   0.619   4.676  1.00  0.00     0.252 C 
ATOM      5  O   UNL     1       0.041   1.235   5.452  1.00  0.00    -0.272 OA
ATOM      6  H   UNL     1       2.354   1.329   5.662  1.00  0.00     0.163 HD
BRANCH   4   7
ATOM      7  C   UNL     1       0.219  -0.137   3.413  1.00  0.00     0.148 C 
BRANCH   7   8
ATOM      8  C   UNL     1       0.863   0.471   2.109  1.00  0.00     0.030 C 
BRANCH   8   9
ATOM      9  C   UNL     1       0.410  -0.215   0.799  1.00  0.00     0.004 C 
ATOM     10  C   UNL     1       1.241   0.147  -0.426  1.00  0.00     0.004 C 
ENDBRANCH   8   9
BRANCH   8  11
ATOM     11  C   UNL     1       1.095   2.016   2.030  1.00  0.00     0.004 C 
ATOM     12  C   UNL     1       0.050   3.039   2.412  1.00  0.00     0.004 C 
ENDBRANCH   8  11
ENDBRANCH   7   8
BRANCH   7  13
ATOM     13  O   UNL     1       0.749  -1.479   3.615  1.00  0.00    -0.379 OA
ATOM     14  H   UNL     1       1.718  -1.452   3.580  1.00  0.00     0.212 HD
ENDBRANCH   7  13
BRANCH   7  15
ATOM     15  C   UNL     1      -1.357  -0.361   3.498  1.00  0.00     0.030 C 
BRANCH  15  16
ATOM     16  C   UNL     1      -2.280   0.881   3.370  1.00  0.00     0.004 C 
ATOM     17  C   UNL     1      -2.712   1.291   1.967  1.00  0.00     0.004 C 
ENDBRANCH  15  16
BRANCH  15  18
ATOM     18  C   UNL     1      -1.993  -1.522   2.668  1.00  0.00     0.004 C 
ATOM     19  C   UNL     1      -1.456  -2.930   2.875  1.00  0.00     0.004 C 
ENDBRANCH  15  18
ENDBRANCH   7  15
ENDBRANCH   4   7
ENDBRANCH   2   3
ENDBRANCH   1   2
BRANCH   1  20
ATOM     20  C   UNL     1       4.941   1.921   4.298  1.00  0.00     0.023 C 
BRANCH  20  21
ATOM     21  C   UNL     1       5.991   1.378   5.254  1.00  0.00     0.116 C 
BRANCH  21  22
ATOM     22  N   UNL     1       6.983   0.553   4.580  1.00  0.00    -0.352 N 
ATOM     23  C   UNL     1       8.338   0.485   4.776  1.00  0.00     0.251 C 
ATOM     24  H   UNL     1       6.630  -0.042   3.880  1.00  0.00     0.163 HD
ATOM     25  O   UNL     1       9.038  -0.157   4.002  1.00  0.00    -0.269 OA
BRANCH  23  26
ATOM     26  C   UNL     1       8.947   1.203   5.912  1.00  0.00     0.039 A 
ATOM     27  C   UNL     1      10.163   1.859   5.714  1.00  0.00     0.014 A 
ATOM     28  C   UNL     1       8.332   1.216   7.166  1.00  0.00     0.014 A 
ATOM     29  C   UNL     1      10.748   2.551   6.773  1.00  0.00     0.010 A 
ATOM     30  C   UNL     1       8.864   1.987   8.190  1.00  0.00     0.010 A 
ATOM     31  C   UNL     1      10.095   2.633   8.013  1.00  0.00    -0.014 A 
BRANCH  31  32
ATOM     32  C   UNL     1      10.718   3.341   9.155  1.00  0.00     0.031 A 
ATOM     33  C   UNL     1      11.106   2.574  10.390  1.00  0.00     0.074 A 
ATOM     34  C   UNL     1      10.906   4.673   9.089  1.00  0.00     0.049 A 
ATOM     35  N   UNL     1      11.664   3.008  11.491  1.00  0.00    -0.248 NA
ATOM     36  C   UNL     1      10.798   1.134  10.404  1.00  0.00     0.031 C 
ATOM     37  C   UNL     1      10.520   5.529   7.966  1.00  0.00     0.029 A 
ATOM     38  N   UNL     1      11.475   5.537   9.987  1.00  0.00    -0.354 N 
ATOM     39  C   UNL     1      11.757   1.903  12.327  1.00  0.00     0.074 A 
ATOM     40  C   UNL     1      11.137   0.794  11.637  1.00  0.00     0.031 C 
ATOM     41  C   UNL     1      10.903   6.789   8.224  1.00  0.00     0.029 A 
ATOM     42  C   UNL     1      11.528   6.835   9.541  1.00  0.00     0.049 A 
ATOM     43  H   UNL     1      11.813   5.255  10.868  1.00  0.00     0.167 HD
ATOM     44  C   UNL     1      12.334   1.811  13.548  1.00  0.00     0.037 A 
ATOM     45  C   UNL     1      12.035   7.934  10.130  1.00  0.00     0.037 A 
ATOM     46  C   UNL     1      12.975   2.913  14.215  1.00  0.00     0.049 A 
ATOM     47  C   UNL     1      12.679   7.804  11.483  1.00  0.00     0.074 A 
ATOM     48  C   UNL     1      13.647   2.916  15.424  1.00  0.00     0.029 A 
ATOM     49  N   UNL     1      13.020   4.210  13.727  1.00  0.00    -0.354 N 
ATOM     50  N   UNL     1      12.833   6.737  12.229  1.00  0.00    -0.248 NA
ATOM     51  C   UNL     1      13.232   9.032  12.069  1.00  0.00     0.031 C 
ATOM     52  C   UNL     1      14.053   4.227  15.692  1.00  0.00     0.029 A 
ATOM     53  C   UNL     1      13.689   5.028  14.621  1.00  0.00     0.049 A 
ATOM     54  H   UNL     1      12.634   4.506  12.871  1.00  0.00     0.167 HD
ATOM     55  C   UNL     1      13.535   7.156  13.352  1.00  0.00     0.074 A 
ATOM     56  C   UNL     1      13.785   8.572  13.181  1.00  0.00     0.031 C 
ATOM     57  C   UNL     1      13.939   6.434  14.427  1.00  0.00     0.037 A 
BRANCH  44  58
ATOM     58  C   UNL     1      12.293   0.476  14.236  1.00  0.00     0.057 A 
ATOM     59  C   UNL     1      13.016  -0.628  13.761  1.00  0.00     0.134 A 
ATOM     60  C   UNL     1      11.537   0.296  15.400  1.00  0.00     0.134 A 
ATOM     61  F   UNL     1      13.750  -0.530  12.642  1.00  0.00    -0.206 F 
ATOM     62  C   UNL     1      12.961  -1.868  14.399  1.00  0.00     0.040 A 
ATOM     63  C   UNL     1      11.500  -0.931  16.066  1.00  0.00     0.040 A 
ATOM     64  F   UNL     1      10.824   1.310  15.914  1.00  0.00    -0.206 F 
ATOM     65  C   UNL     1      12.206  -2.020  15.560  1.00  0.00     0.006 A 
ENDBRANCH  44  58
BRANCH  45  66
ATOM     66  C   UNL     1      11.998   9.242   9.427  1.00  0.00     0.057 A 
ATOM     67  C   UNL     1      13.175   9.845   8.964  1.00  0.00     0.134 A 
ATOM     68  C   UNL     1      10.797   9.926   9.213  1.00  0.00     0.134 A 
ATOM     69  F   UNL     1      14.359   9.245   9.151  1.00  0.00    -0.206 F 
ATOM     70  C   UNL     1      13.161  11.092   8.339  1.00  0.00     0.040 A 
ATOM     71  C   UNL     1      10.765  11.162   8.564  1.00  0.00     0.040 A 
ATOM     72  F   UNL     1       9.634   9.398   9.621  1.00  0.00    -0.206 F 
ATOM     73  C   UNL     1      11.951  11.753   8.134  1.00  0.00     0.006 A 
ENDBRANCH  45  66
BRANCH  57  74
ATOM     74  C   UNL     1      14.741   7.155  15.472  1.00  0.00     0.057 A 
ATOM     75  C   UNL     1      14.175   8.120  16.314  1.00  0.00     0.134 A 
ATOM     76  C   UNL     1      16.099   6.858  15.652  1.00  0.00     0.134 A 
ATOM     77  F   UNL     1      12.883   8.460  16.188  1.00  0.00    -0.206 F 
ATOM     78  C   UNL     1      14.938   8.791  17.271  1.00  0.00     0.040 A 
ATOM     79  C   UNL     1      16.864   7.497  16.627  1.00  0.00     0.040 A 
ATOM     80  F   UNL     1      16.702   5.934  14.888  1.00  0.00    -0.206 F 
ATOM     81  C   UNL     1      16.286   8.475  17.433  1.00  0.00     0.006 A 
ENDBRANCH  57  74
ENDBRANCH  31  32
ENDBRANCH  23  26
ENDBRANCH  21  22
ENDBRANCH  20  21
ENDBRANCH   1  20
TORSDOF 18
