REMARK SMILES C[C@H]1[C@@H](C(=O)NCCCCNC(=O)c2ccc(-c3c4nc(c(-c5c(F)cccc5F)c5ccc([nH]5)c(-c5c(F)cccc5F)c5nc(c(-c6c(F)cccc6F)c6ccc3[nH]6)C=C5)C=C4)cc2)CC[N@@H+]1CC1(O)CCCC1
REMARK SMILES IDX 8 1 7 2 6 3 4 4 5 5 3 7 1 8 2 9 70 10 68 11 69 12 71 14
REMARK SMILES IDX 72 15 74 16 77 17 75 18 76 19 73 20 9 22 10 23 11 24 12 25
REMARK SMILES IDX 13 27 14 28 15 29 67 30 16 31 66 32 17 33 18 34 19 35 60 36
REMARK SMILES IDX 20 37 65 38 59 39 61 40 21 41 64 42 58 43 57 44 22 46 48 47
REMARK SMILES IDX 31 48 47 49 32 50 35 51 46 52 62 53 33 54 34 55 45 57 63 58
REMARK SMILES IDX 36 59 23 60 24 61 29 62 25 63 26 64 28 65 30 66 27 67 49 68
REMARK SMILES IDX 50 69 55 70 51 71 52 72 54 73 56 74 53 75 37 76 38 77 43 78
REMARK SMILES IDX 39 79 40 80 42 81 44 82 41 83
REMARK H PARENT 6 6 70 13 73 21 11 26 61 45 35 56
REMARK Flexibility Score: inf
ROOT
ATOM      1  C   UNL     1       3.582   0.257  -1.886  1.00  0.00     0.023 C 
ENDROOT
BRANCH   1   2
ATOM      2  C   UNL     1       2.868   1.423  -1.196  1.00  0.00     0.116 C 
BRANCH   2   3
ATOM      3  N   UNL     1       1.656   1.717  -1.924  1.00  0.00    -0.356 N 
ATOM      4  C   UNL     1       0.402   1.224  -1.718  1.00  0.00     0.229 C 
ATOM      5  O   UNL     1      -0.359   1.244  -2.688  1.00  0.00    -0.275 OA
ATOM      6  H   UNL     1       1.748   2.357  -2.667  1.00  0.00     0.163 HD
BRANCH   4   7
ATOM      7  C   UNL     1      -0.054   0.835  -0.310  1.00  0.00     0.142 C 
ATOM      8  C   UNL     1       1.319  -1.440  -0.387  1.00  0.00     0.076 C 
ATOM      9  C   UNL     1       0.402  -0.483   0.356  1.00  0.00     0.193 C 
ATOM     10  N   UNL     1      -0.806  -1.264   0.626  1.00  0.00    -0.330 N 
ATOM     11  C   UNL     1      -1.591   0.767  -0.251  1.00  0.00     0.081 C 
ATOM     12  C   UNL     1      -1.897  -0.711  -0.157  1.00  0.00     0.263 C 
ATOM     13  H   UNL     1      -0.656  -2.220   0.302  1.00  0.00     0.348 HD
BRANCH  10  14
ATOM     14  C   UNL     1      -1.072  -1.602   2.026  1.00  0.00     0.297 C 
BRANCH  14  15
ATOM     15  C   UNL     1      -1.606  -0.541   3.022  1.00  0.00     0.113 C 
ATOM     16  C   UNL     1      -0.689   0.656   3.292  1.00  0.00     0.041 C 
ATOM     17  C   UNL     1      -1.733  -1.141   4.429  1.00  0.00     0.041 C 
ATOM     18  C   UNL     1      -1.161   1.217   4.636  1.00  0.00     0.003 C 
ATOM     19  C   UNL     1      -1.880   0.071   5.344  1.00  0.00     0.003 C 
BRANCH  15  20
ATOM     20  O   UNL     1      -2.909  -0.114   2.610  1.00  0.00    -0.384 OA
ATOM     21  H   UNL     1      -2.857   0.270   1.721  1.00  0.00     0.211 HD
ENDBRANCH  15  20
ENDBRANCH  14  15
ENDBRANCH  10  14
ENDBRANCH   4   7
ENDBRANCH   2   3
ENDBRANCH   1   2
BRANCH   1  22
ATOM     22  C   UNL     1       4.361   0.629  -3.136  1.00  0.00     0.023 C 
BRANCH  22  23
ATOM     23  C   UNL     1       5.577   1.489  -2.863  1.00  0.00     0.116 C 
BRANCH  23  24
ATOM     24  N   UNL     1       6.515   0.884  -1.923  1.00  0.00    -0.352 N 
ATOM     25  C   UNL     1       7.883   0.801  -2.021  1.00  0.00     0.251 C 
ATOM     26  H   UNL     1       6.117   0.484  -1.117  1.00  0.00     0.163 HD
ATOM     27  O   UNL     1       8.542   0.173  -1.202  1.00  0.00    -0.269 OA
BRANCH  25  28
ATOM     28  C   UNL     1       8.531   1.455  -3.170  1.00  0.00     0.039 A 
ATOM     29  C   UNL     1       9.366   0.704  -3.997  1.00  0.00     0.014 A 
ATOM     30  C   UNL     1       8.188   2.769  -3.493  1.00  0.00     0.014 A 
ATOM     31  C   UNL     1       9.792   1.251  -5.206  1.00  0.00     0.010 A 
ATOM     32  C   UNL     1       8.518   3.265  -4.743  1.00  0.00     0.010 A 
ATOM     33  C   UNL     1       9.330   2.515  -5.608  1.00  0.00    -0.014 A 
BRANCH  33  34
ATOM     34  C   UNL     1       9.700   3.098  -6.919  1.00  0.00     0.031 A 
ATOM     35  C   UNL     1      10.454   4.397  -6.958  1.00  0.00     0.074 A 
ATOM     36  C   UNL     1       9.284   2.514  -8.059  1.00  0.00     0.049 A 
ATOM     37  N   UNL     1      10.774   5.138  -7.986  1.00  0.00    -0.248 NA
ATOM     38  C   UNL     1      10.859   4.965  -5.660  1.00  0.00     0.031 C 
ATOM     39  C   UNL     1       8.482   1.291  -8.148  1.00  0.00     0.029 A 
ATOM     40  N   UNL     1       9.472   2.881  -9.367  1.00  0.00    -0.354 N 
ATOM     41  C   UNL     1      11.380   6.269  -7.457  1.00  0.00     0.074 A 
ATOM     42  C   UNL     1      11.328   6.149  -6.018  1.00  0.00     0.031 C 
ATOM     43  C   UNL     1       8.277   0.992  -9.441  1.00  0.00     0.029 A 
ATOM     44  C   UNL     1       8.903   2.017 -10.270  1.00  0.00     0.049 A 
ATOM     45  H   UNL     1       9.967   3.689  -9.633  1.00  0.00     0.167 HD
ATOM     46  C   UNL     1      11.960   7.302  -8.111  1.00  0.00     0.037 A 
ATOM     47  C   UNL     1       8.895   2.050 -11.615  1.00  0.00     0.037 A 
ATOM     48  C   UNL     1      12.069   7.383  -9.541  1.00  0.00     0.049 A 
ATOM     49  C   UNL     1       9.599   3.175 -12.321  1.00  0.00     0.074 A 
ATOM     50  C   UNL     1      12.710   8.340 -10.306  1.00  0.00     0.029 A 
ATOM     51  N   UNL     1      11.531   6.456 -10.422  1.00  0.00    -0.354 N 
ATOM     52  N   UNL     1      10.228   4.205 -11.809  1.00  0.00    -0.248 NA
ATOM     53  C   UNL     1       9.598   3.139 -13.790  1.00  0.00     0.031 C 
ATOM     54  C   UNL     1      12.541   8.004 -11.653  1.00  0.00     0.029 A 
ATOM     55  C   UNL     1      11.822   6.821 -11.724  1.00  0.00     0.049 A 
ATOM     56  H   UNL     1      11.020   5.657 -10.159  1.00  0.00     0.167 HD
ATOM     57  C   UNL     1      10.718   4.926 -12.890  1.00  0.00     0.074 A 
ATOM     58  C   UNL     1      10.324   4.208 -14.085  1.00  0.00     0.031 C 
ATOM     59  C   UNL     1      11.428   6.080 -12.895  1.00  0.00     0.037 A 
BRANCH  46  60
ATOM     60  C   UNL     1      12.537   8.406  -7.277  1.00  0.00     0.057 A 
ATOM     61  C   UNL     1      13.690   8.219  -6.503  1.00  0.00     0.134 A 
ATOM     62  C   UNL     1      11.934   9.668  -7.245  1.00  0.00     0.134 A 
ATOM     63  F   UNL     1      14.304   7.026  -6.474  1.00  0.00    -0.206 F 
ATOM     64  C   UNL     1      14.205   9.239  -5.702  1.00  0.00     0.040 A 
ATOM     65  C   UNL     1      12.455  10.705  -6.470  1.00  0.00     0.040 A 
ATOM     66  F   UNL     1      10.827   9.914  -7.962  1.00  0.00    -0.206 F 
ATOM     67  C   UNL     1      13.590  10.489  -5.689  1.00  0.00     0.006 A 
ENDBRANCH  46  60
BRANCH  47  68
ATOM     68  C   UNL     1       8.241   0.962 -12.384  1.00  0.00     0.057 A 
ATOM     69  C   UNL     1       9.004   0.015 -13.076  1.00  0.00     0.134 A 
ATOM     70  C   UNL     1       6.848   0.843 -12.450  1.00  0.00     0.134 A 
ATOM     71  F   UNL     1      10.343   0.087 -13.062  1.00  0.00    -0.206 F 
ATOM     72  C   UNL     1       8.407  -1.002 -13.822  1.00  0.00     0.040 A 
ATOM     73  C   UNL     1       6.237  -0.181 -13.176  1.00  0.00     0.040 A 
ATOM     74  F   UNL     1       6.063   1.715 -11.801  1.00  0.00    -0.206 F 
ATOM     75  C   UNL     1       7.018  -1.104 -13.870  1.00  0.00     0.006 A 
ENDBRANCH  47  68
BRANCH  59  76
ATOM     76  C   UNL     1      11.850   6.617 -14.228  1.00  0.00     0.057 A 
ATOM     77  C   UNL     1      10.943   7.250 -15.085  1.00  0.00     0.134 A 
ATOM     78  C   UNL     1      13.188   6.541 -14.635  1.00  0.00     0.134 A 
ATOM     79  F   UNL     1       9.646   7.342 -14.755  1.00  0.00    -0.206 F 
ATOM     80  C   UNL     1      11.349   7.776 -16.311  1.00  0.00     0.040 A 
ATOM     81  C   UNL     1      13.610   7.082 -15.848  1.00  0.00     0.040 A 
ATOM     82  F   UNL     1      14.105   5.953 -13.853  1.00  0.00    -0.206 F 
ATOM     83  C   UNL     1      12.688   7.699 -16.692  1.00  0.00     0.006 A 
ENDBRANCH  59  76
ENDBRANCH  33  34
ENDBRANCH  25  28
ENDBRANCH  23  24
ENDBRANCH  22  23
ENDBRANCH   1  22
TORSDOF 14
