REMARK SMILES Cc1ccoc1C(=O)N1CCO[C@H](CC(=O)NCCCCNC(=O)c2ccc(-c3c4nc(c(-c5c(F)cccc5F)c5ccc([nH]5)c(-c5c(F)cccc5F)c5nc(c(-c6c(F)cccc6F)c6ccc3[nH]6)C=C5)C=C4)cc2)C1
REMARK SMILES IDX 19 1 18 2 17 3 15 4 16 5 14 7 13 8 9 9 10 10 79 11 11 12
REMARK SMILES IDX 12 13 7 14 8 15 6 16 1 17 2 18 3 19 4 20 5 21 20 22 21 23
REMARK SMILES IDX 22 24 23 25 24 27 25 28 26 29 78 30 27 31 77 32 28 33 29 34
REMARK SMILES IDX 30 35 71 36 31 37 76 38 70 39 72 40 32 41 75 42 69 43 68 44
REMARK SMILES IDX 33 46 59 47 42 48 58 49 43 50 46 51 57 52 73 53 44 54 45 55
REMARK SMILES IDX 56 57 74 58 47 59 34 60 35 61 40 62 36 63 37 64 39 65 41 66
REMARK SMILES IDX 38 67 60 68 61 69 66 70 62 71 63 72 65 73 67 74 64 75 48 76
REMARK SMILES IDX 49 77 54 78 50 79 51 80 53 81 55 82 52 83
REMARK H PARENT 17 6 22 26 72 45 46 56
REMARK Flexibility Score: inf
ROOT
ATOM      1  C   UNL     1      -7.000  -1.893   2.365  1.00  0.00     0.023 C 
ENDROOT
BRANCH   1   2
ATOM      2  C   UNL     1      -5.895  -0.844   2.435  1.00  0.00     0.116 C 
BRANCH   2   3
ATOM      3  N   UNL     1      -5.062  -1.067   3.598  1.00  0.00    -0.356 N 
ATOM      4  C   UNL     1      -3.849  -1.683   3.651  1.00  0.00     0.222 C 
ATOM      5  O   UNL     1      -3.385  -2.001   4.744  1.00  0.00    -0.275 OA
ATOM      6  H   UNL     1      -5.415  -0.733   4.454  1.00  0.00     0.163 HD
BRANCH   4   7
ATOM      7  C   UNL     1      -3.075  -1.887   2.376  1.00  0.00     0.133 C 
BRANCH   7   8
ATOM      8  C   UNL     1      -3.361  -3.219   1.665  1.00  0.00     0.147 C 
ATOM      9  N   UNL     1      -1.665  -2.743   0.016  1.00  0.00    -0.331 N 
ATOM     10  C   UNL     1      -2.624  -2.586  -1.067  1.00  0.00     0.148 C 
ATOM     11  C   UNL     1      -2.074  -3.732   1.009  1.00  0.00     0.152 C 
ATOM     12  C   UNL     1      -4.058  -2.399  -0.536  1.00  0.00     0.182 C 
ATOM     13  O   UNL     1      -4.393  -3.142   0.651  1.00  0.00    -0.374 OA
BRANCH   9  14
ATOM     14  C   UNL     1      -0.324  -2.389  -0.046  1.00  0.00     0.289 C 
ATOM     15  O   UNL     1       0.517  -3.255   0.208  1.00  0.00    -0.265 OA
BRANCH  14  16
ATOM     16  C   UNL     1       0.052  -0.986  -0.238  1.00  0.00     0.194 A 
ATOM     17  C   UNL     1      -1.999   0.659  -0.276  1.00  0.00     0.049 C 
ATOM     18  C   UNL     1      -0.574   0.264  -0.294  1.00  0.00     0.000 A 
ATOM     19  C   UNL     1       0.472   1.239  -0.317  1.00  0.00     0.046 A 
ATOM     20  C   UNL     1       1.653   0.553  -0.287  1.00  0.00     0.196 A 
ATOM     21  O   UNL     1       1.416  -0.774  -0.261  1.00  0.00    -0.459 OA
ENDBRANCH  14  16
ENDBRANCH   9  14
ENDBRANCH   7   8
ENDBRANCH   4   7
ENDBRANCH   2   3
ENDBRANCH   1   2
BRANCH   1  22
ATOM     22  C   UNL     1      -8.048  -1.744   3.469  1.00  0.00     0.023 C 
BRANCH  22  23
ATOM     23  C   UNL     1      -8.751  -0.392   3.494  1.00  0.00     0.116 C 
BRANCH  23  24
ATOM     24  N   UNL     1      -9.458  -0.103   2.256  1.00  0.00    -0.352 N 
ATOM     25  C   UNL     1     -10.704   0.448   2.093  1.00  0.00     0.251 C 
ATOM     26  H   UNL     1      -8.980  -0.333   1.427  1.00  0.00     0.163 HD
ATOM     27  O   UNL     1     -11.225   0.492   0.982  1.00  0.00    -0.269 OA
BRANCH  25  28
ATOM     28  C   UNL     1     -11.429   0.956   3.275  1.00  0.00     0.039 A 
ATOM     29  C   UNL     1     -12.758   0.573   3.466  1.00  0.00     0.014 A 
ATOM     30  C   UNL     1     -10.786   1.775   4.207  1.00  0.00     0.014 A 
ATOM     31  C   UNL     1     -13.425   0.964   4.627  1.00  0.00     0.010 A 
ATOM     32  C   UNL     1     -11.427   2.098   5.399  1.00  0.00     0.010 A 
ATOM     33  C   UNL     1     -12.754   1.699   5.619  1.00  0.00    -0.014 A 
BRANCH  33  34
ATOM     34  C   UNL     1     -13.426   2.051   6.895  1.00  0.00     0.031 A 
ATOM     35  C   UNL     1     -13.666   3.492   7.252  1.00  0.00     0.074 A 
ATOM     36  C   UNL     1     -13.774   1.075   7.755  1.00  0.00     0.049 A 
ATOM     37  N   UNL     1     -14.203   3.996   8.334  1.00  0.00    -0.248 NA
ATOM     38  C   UNL     1     -13.223   4.500   6.276  1.00  0.00     0.031 C 
ATOM     39  C   UNL     1     -13.550  -0.357   7.547  1.00  0.00     0.029 A 
ATOM     40  N   UNL     1     -14.387   1.139   8.981  1.00  0.00    -0.354 N 
ATOM     41  C   UNL     1     -14.154   5.375   8.172  1.00  0.00     0.074 A 
ATOM     42  C   UNL     1     -13.481   5.630   6.918  1.00  0.00     0.031 C 
ATOM     43  C   UNL     1     -14.046  -1.036   8.594  1.00  0.00     0.029 A 
ATOM     44  C   UNL     1     -14.588  -0.089   9.563  1.00  0.00     0.049 A 
ATOM     45  H   UNL     1     -14.659   1.986   9.404  1.00  0.00     0.167 HD
ATOM     46  C   UNL     1     -14.649   6.341   8.982  1.00  0.00     0.037 A 
ATOM     47  C   UNL     1     -15.142  -0.415  10.746  1.00  0.00     0.037 A 
ATOM     48  C   UNL     1     -15.332   6.084  10.223  1.00  0.00     0.049 A 
ATOM     49  C   UNL     1     -15.668   0.678  11.635  1.00  0.00     0.074 A 
ATOM     50  C   UNL     1     -15.915   6.992  11.091  1.00  0.00     0.029 A 
ATOM     51  N   UNL     1     -15.520   4.826  10.776  1.00  0.00    -0.354 N 
ATOM     52  N   UNL     1     -15.678   1.974  11.436  1.00  0.00    -0.248 NA
ATOM     53  C   UNL     1     -16.267   0.261  12.910  1.00  0.00     0.031 C 
ATOM     54  C   UNL     1     -16.412   6.287  12.192  1.00  0.00     0.029 A 
ATOM     55  C   UNL     1     -16.189   4.936  11.984  1.00  0.00     0.049 A 
ATOM     56  H   UNL     1     -15.222   3.980  10.370  1.00  0.00     0.167 HD
ATOM     57  C   UNL     1     -16.310   2.524  12.545  1.00  0.00     0.074 A 
ATOM     58  C   UNL     1     -16.683   1.419  13.403  1.00  0.00     0.031 C 
ATOM     59  C   UNL     1     -16.559   3.826  12.826  1.00  0.00     0.037 A 
BRANCH  46  60
ATOM     60  C   UNL     1     -14.473   7.767   8.546  1.00  0.00     0.057 A 
ATOM     61  C   UNL     1     -15.161   8.293   7.444  1.00  0.00     0.134 A 
ATOM     62  C   UNL     1     -13.631   8.634   9.254  1.00  0.00     0.134 A 
ATOM     63  F   UNL     1     -15.973   7.513   6.714  1.00  0.00    -0.206 F 
ATOM     64  C   UNL     1     -14.998   9.621   7.046  1.00  0.00     0.040 A 
ATOM     65  C   UNL     1     -13.482   9.972   8.883  1.00  0.00     0.040 A 
ATOM     66  F   UNL     1     -12.946   8.199  10.322  1.00  0.00    -0.206 F 
ATOM     67  C   UNL     1     -14.162  10.467   7.771  1.00  0.00     0.006 A 
ENDBRANCH  46  60
BRANCH  47  68
ATOM     68  C   UNL     1     -15.252  -1.839  11.151  1.00  0.00     0.057 A 
ATOM     69  C   UNL     1     -16.498  -2.473  11.227  1.00  0.00     0.134 A 
ATOM     70  C   UNL     1     -14.123  -2.596  11.483  1.00  0.00     0.134 A 
ATOM     71  F   UNL     1     -17.619  -1.795  10.939  1.00  0.00    -0.206 F 
ATOM     72  C   UNL     1     -16.620  -3.800  11.643  1.00  0.00     0.040 A 
ATOM     73  C   UNL     1     -14.227  -3.932  11.874  1.00  0.00     0.040 A 
ATOM     74  F   UNL     1     -12.899  -2.051  11.422  1.00  0.00    -0.206 F 
ATOM     75  C   UNL     1     -15.481  -4.535  11.963  1.00  0.00     0.006 A 
ENDBRANCH  47  68
BRANCH  59  76
ATOM     76  C   UNL     1     -17.303   4.124  14.096  1.00  0.00     0.057 A 
ATOM     77  C   UNL     1     -16.714   3.963  15.357  1.00  0.00     0.134 A 
ATOM     78  C   UNL     1     -18.618   4.607  14.054  1.00  0.00     0.134 A 
ATOM     79  F   UNL     1     -15.462   3.493  15.468  1.00  0.00    -0.206 F 
ATOM     80  C   UNL     1     -17.415   4.245  16.531  1.00  0.00     0.040 A 
ATOM     81  C   UNL     1     -19.318   4.920  15.220  1.00  0.00     0.040 A 
ATOM     82  F   UNL     1     -19.238   4.793  12.880  1.00  0.00    -0.206 F 
ATOM     83  C   UNL     1     -18.719   4.732  16.463  1.00  0.00     0.006 A 
ENDBRANCH  59  76
ENDBRANCH  33  34
ENDBRANCH  25  28
ENDBRANCH  23  24
ENDBRANCH  22  23
ENDBRANCH   1  22
TORSDOF 14
