REMARK SMILES O=C(Cc1cccn1-c1ccccc1F)NCCCCNC(=O)c1ccc(-c2c3nc(c(-c4c(F)cccc4F)c4ccc([nH]4)c(-c4c(F)cccc4F)c4nc(c(-c5c(F)cccc5F)c5ccc2[nH]5)C=C4)C=C3)cc1
REMARK SMILES IDX 18 1 17 2 16 3 1 4 2 5 3 7 4 8 5 9 8 10 6 11 7 12 9 13 10 14
REMARK SMILES IDX 14 15 11 16 13 17 15 18 12 19 19 20 20 21 21 22 22 23 23 25
REMARK SMILES IDX 24 26 25 27 77 28 26 29 76 30 27 31 28 32 29 33 70 34 30 35
REMARK SMILES IDX 75 36 69 37 71 38 31 39 74 40 68 41 67 42 32 44 58 45 41 46
REMARK SMILES IDX 57 47 42 48 45 49 56 50 72 51 43 52 44 53 55 55 73 56 46 57
REMARK SMILES IDX 33 58 34 59 39 60 35 61 36 62 38 63 40 64 37 65 59 66 60 67
REMARK SMILES IDX 65 68 61 69 62 70 64 71 66 72 63 73 47 74 48 75 53 76 49 77
REMARK SMILES IDX 50 78 52 79 54 80 51 81
REMARK H PARENT 16 6 21 24 71 43 45 54
REMARK Flexibility Score: inf
ROOT
ATOM      1  C   UNL     1       2.228  -3.266   1.649  1.00  0.00     0.023 C 
ENDROOT
BRANCH   1   2
ATOM      2  C   UNL     1       1.967  -1.763   1.779  1.00  0.00     0.116 C 
BRANCH   2   3
ATOM      3  N   UNL     1       2.666  -0.987   0.774  1.00  0.00    -0.356 N 
ATOM      4  O   UNL     1       0.960   0.501   0.388  1.00  0.00    -0.275 OA
ATOM      5  C   UNL     1       2.106   0.120   0.163  1.00  0.00     0.225 C 
ATOM      6  H   UNL     1       3.576  -1.259   0.515  1.00  0.00     0.163 HD
BRANCH   5   7
ATOM      7  C   UNL     1       3.027   0.830  -0.825  1.00  0.00     0.154 C 
BRANCH   7   8
ATOM      8  C   UNL     1       3.814   1.910  -0.135  1.00  0.00     0.032 A 
ATOM      9  C   UNL     1       3.513   3.264  -0.100  1.00  0.00     0.024 A 
ATOM     10  N   UNL     1       4.926   1.710   0.677  1.00  0.00    -0.318 N 
ATOM     11  C   UNL     1       4.381   3.884   0.819  1.00  0.00     0.020 A 
ATOM     12  C   UNL     1       5.197   2.901   1.325  1.00  0.00     0.091 A 
BRANCH  10  13
ATOM     13  C   UNL     1       5.663   0.521   0.891  1.00  0.00     0.081 A 
ATOM     14  C   UNL     1       6.005   0.151   2.198  1.00  0.00     0.030 A 
ATOM     15  C   UNL     1       6.072  -0.274  -0.180  1.00  0.00     0.147 A 
ATOM     16  C   UNL     1       6.706  -1.035   2.419  1.00  0.00     0.002 A 
ATOM     17  C   UNL     1       6.772  -1.457   0.043  1.00  0.00     0.041 A 
ATOM     18  F   UNL     1       5.858   0.099  -1.449  1.00  0.00    -0.205 F 
ATOM     19  C   UNL     1       7.084  -1.843   1.345  1.00  0.00     0.003 A 
ENDBRANCH  10  13
ENDBRANCH   7   8
ENDBRANCH   5   7
ENDBRANCH   2   3
ENDBRANCH   1   2
BRANCH   1  20
ATOM     20  C   UNL     1       3.692  -3.705   1.801  1.00  0.00     0.023 C 
BRANCH  20  21
ATOM     21  C   UNL     1       4.310  -3.428   3.172  1.00  0.00     0.116 C 
BRANCH  21  22
ATOM     22  N   UNL     1       3.803  -4.320   4.196  1.00  0.00    -0.352 N 
ATOM     23  C   UNL     1       4.266  -4.508   5.478  1.00  0.00     0.251 C 
ATOM     24  H   UNL     1       3.023  -4.864   3.941  1.00  0.00     0.163 HD
ATOM     25  O   UNL     1       4.019  -5.566   6.048  1.00  0.00    -0.269 OA
BRANCH  23  26
ATOM     26  C   UNL     1       5.063  -3.474   6.183  1.00  0.00     0.039 A 
ATOM     27  C   UNL     1       6.054  -3.906   7.076  1.00  0.00     0.014 A 
ATOM     28  C   UNL     1       4.777  -2.108   6.075  1.00  0.00     0.014 A 
ATOM     29  C   UNL     1       6.784  -2.978   7.817  1.00  0.00     0.010 A 
ATOM     30  C   UNL     1       5.521  -1.173   6.796  1.00  0.00     0.010 A 
ATOM     31  C   UNL     1       6.533  -1.607   7.661  1.00  0.00    -0.014 A 
BRANCH  31  32
ATOM     32  C   UNL     1       7.476  -0.641   8.284  1.00  0.00     0.031 A 
ATOM     33  C   UNL     1       8.804  -0.556   7.497  1.00  0.00     0.074 A 
ATOM     34  C   UNL     1       7.070  -0.013   9.430  1.00  0.00     0.049 A 
ATOM     35  N   UNL     1      10.000  -0.233   7.885  1.00  0.00    -0.248 NA
ATOM     36  C   UNL     1       8.806  -0.955   6.062  1.00  0.00     0.031 C 
ATOM     37  C   UNL     1       5.729  -0.155  10.034  1.00  0.00     0.029 A 
ATOM     38  N   UNL     1       7.674   0.858  10.320  1.00  0.00    -0.354 N 
ATOM     39  C   UNL     1      10.836  -0.213   6.742  1.00  0.00     0.074 A 
ATOM     40  C   UNL     1      10.067  -0.765   5.671  1.00  0.00     0.031 C 
ATOM     41  C   UNL     1       5.650   0.517  11.203  1.00  0.00     0.029 A 
ATOM     42  C   UNL     1       6.916   1.165  11.485  1.00  0.00     0.049 A 
ATOM     43  H   UNL     1       8.568   1.239  10.159  1.00  0.00     0.167 HD
ATOM     44  C   UNL     1      12.076   0.365   6.724  1.00  0.00     0.037 A 
ATOM     45  C   UNL     1       7.296   1.843  12.616  1.00  0.00     0.037 A 
ATOM     46  C   UNL     1      12.411   0.827   8.026  1.00  0.00     0.049 A 
ATOM     47  C   UNL     1       8.644   2.350  12.328  1.00  0.00     0.074 A 
ATOM     48  C   UNL     1      12.742   0.175   9.183  1.00  0.00     0.029 A 
ATOM     49  N   UNL     1      12.074   2.123   8.319  1.00  0.00    -0.354 N 
ATOM     50  N   UNL     1       8.916   3.344  11.536  1.00  0.00    -0.248 NA
ATOM     51  C   UNL     1       9.791   1.637  12.907  1.00  0.00     0.031 C 
ATOM     52  C   UNL     1      12.118   0.950  10.182  1.00  0.00     0.029 A 
ATOM     53  C   UNL     1      11.633   2.135   9.617  1.00  0.00     0.049 A 
ATOM     54  H   UNL     1      12.136   2.897   7.714  1.00  0.00     0.167 HD
ATOM     55  C   UNL     1      10.249   3.143  11.273  1.00  0.00     0.074 A 
ATOM     56  C   UNL     1      10.775   2.335  12.349  1.00  0.00     0.031 C 
ATOM     57  C   UNL     1      10.688   3.156   9.992  1.00  0.00     0.037 A 
BRANCH  44  58
ATOM     58  C   UNL     1      12.983   0.788   5.598  1.00  0.00     0.057 A 
ATOM     59  C   UNL     1      12.526   1.233   4.354  1.00  0.00     0.134 A 
ATOM     60  C   UNL     1      14.335   1.091   5.895  1.00  0.00     0.134 A 
ATOM     61  F   UNL     1      11.262   1.029   3.961  1.00  0.00    -0.206 F 
ATOM     62  C   UNL     1      13.333   1.998   3.498  1.00  0.00     0.040 A 
ATOM     63  C   UNL     1      15.132   1.890   5.071  1.00  0.00     0.040 A 
ATOM     64  F   UNL     1      14.903   0.681   7.042  1.00  0.00    -0.206 F 
ATOM     65  C   UNL     1      14.623   2.363   3.872  1.00  0.00     0.006 A 
ENDBRANCH  44  58
BRANCH  45  66
ATOM     66  C   UNL     1       6.785   2.089  14.025  1.00  0.00     0.057 A 
ATOM     67  C   UNL     1       7.659   2.616  15.023  1.00  0.00     0.134 A 
ATOM     68  C   UNL     1       5.518   1.769  14.518  1.00  0.00     0.134 A 
ATOM     69  F   UNL     1       8.855   3.138  14.718  1.00  0.00    -0.206 F 
ATOM     70  C   UNL     1       7.374   2.641  16.392  1.00  0.00     0.040 A 
ATOM     71  C   UNL     1       5.197   1.837  15.892  1.00  0.00     0.040 A 
ATOM     72  F   UNL     1       4.525   1.399  13.704  1.00  0.00    -0.206 F 
ATOM     73  C   UNL     1       6.138   2.227  16.839  1.00  0.00     0.006 A 
ENDBRANCH  45  66
BRANCH  57  74
ATOM     74  C   UNL     1       9.860   3.986   9.040  1.00  0.00     0.057 A 
ATOM     75  C   UNL     1       8.995   3.457   8.070  1.00  0.00     0.134 A 
ATOM     76  C   UNL     1       9.875   5.380   9.150  1.00  0.00     0.134 A 
ATOM     77  F   UNL     1       8.879   2.141   7.901  1.00  0.00    -0.206 F 
ATOM     78  C   UNL     1       8.205   4.262   7.240  1.00  0.00     0.040 A 
ATOM     79  C   UNL     1       9.086   6.201   8.334  1.00  0.00     0.040 A 
ATOM     80  F   UNL     1      10.670   5.974  10.052  1.00  0.00    -0.206 F 
ATOM     81  C   UNL     1       8.249   5.643   7.371  1.00  0.00     0.006 A 
ENDBRANCH  57  74
ENDBRANCH  31  32
ENDBRANCH  23  26
ENDBRANCH  21  22
ENDBRANCH  20  21
ENDBRANCH   1  20
TORSDOF 13
