REMARK SMILES CCCC[C@H](C(=O)NCCCCNC(=O)c1ccc(-c2c3nc(c(-c4c(F)cccc4F)c4ccc([nH]4)c(-c4c(F)cccc4F)c4nc(c(-c5c(F)cccc5F)c5ccc2[nH]5)C=C4)C=C3)cc1)[C@](C)(O)c1ccc(Cl)c(Cl)c1
REMARK SMILES IDX 10 1 9 2 8 3 6 4 7 5 5 7 4 8 3 9 2 10 1 11 70 12 71 13 72 14
REMARK SMILES IDX 73 16 74 17 80 18 75 19 78 20 76 21 79 22 77 23 11 24 12 25
REMARK SMILES IDX 13 26 14 27 15 29 16 30 17 31 69 32 18 33 68 34 19 35 20 36
REMARK SMILES IDX 21 37 62 38 22 39 67 40 61 41 63 42 23 43 66 44 60 45 59 46
REMARK SMILES IDX 24 48 50 49 33 50 49 51 34 52 37 53 48 54 64 55 35 56 36 57
REMARK SMILES IDX 47 59 65 60 38 61 25 62 26 63 31 64 27 65 28 66 30 67 32 68
REMARK SMILES IDX 29 69 51 70 52 71 57 72 53 73 54 74 56 75 58 76 55 77 39 78
REMARK SMILES IDX 40 79 45 80 41 81 42 82 44 83 46 84 43 85
REMARK H PARENT 8 6 72 15 13 28 63 47 37 58
REMARK Flexibility Score: inf
ROOT
ATOM      1  C   UNL     1      -3.633   5.136  -3.368  1.00  0.00     0.023 C 
ENDROOT
BRANCH   1   2
ATOM      2  C   UNL     1      -2.357   4.552  -2.770  1.00  0.00     0.116 C 
BRANCH   2   3
ATOM      3  N   UNL     1      -1.680   5.448  -1.852  1.00  0.00    -0.356 N 
ATOM      4  C   UNL     1      -0.799   5.165  -0.850  1.00  0.00     0.226 C 
ATOM      5  O   UNL     1      -0.069   6.090  -0.485  1.00  0.00    -0.275 OA
ATOM      6  H   UNL     1      -1.887   6.403  -1.970  1.00  0.00     0.163 HD
BRANCH   4   7
ATOM      7  C   UNL     1      -0.717   3.772  -0.222  1.00  0.00     0.114 C 
BRANCH   7   8
ATOM      8  C   UNL     1       0.765   3.312  -0.228  1.00  0.00     0.017 C 
BRANCH   8   9
ATOM      9  C   UNL     1       1.240   2.724  -1.576  1.00  0.00     0.001 C 
BRANCH   9  10
ATOM     10  C   UNL     1       1.327   3.664  -2.778  1.00  0.00    -0.003 C 
ATOM     11  C   UNL     1       2.272   4.839  -2.604  1.00  0.00     0.004 C 
ENDBRANCH   9  10
ENDBRANCH   8   9
ENDBRANCH   7   8
BRANCH   7  12
ATOM     12  C   UNL     1      -1.435   3.726   1.191  1.00  0.00     0.098 C 
ATOM     13  C   UNL     1      -1.258   2.328   1.838  1.00  0.00     0.048 C 
BRANCH  12  14
ATOM     14  O   UNL     1      -2.857   3.825   0.931  1.00  0.00    -0.385 OA
ATOM     15  H   UNL     1      -3.342   3.801   1.771  1.00  0.00     0.211 HD
ENDBRANCH  12  14
BRANCH  12  16
ATOM     16  C   UNL     1      -1.137   4.858   2.190  1.00  0.00    -0.014 A 
ATOM     17  C   UNL     1      -0.427   4.669   3.389  1.00  0.00     0.008 A 
ATOM     18  C   UNL     1      -1.638   6.157   1.954  1.00  0.00     0.028 A 
ATOM     19  C   UNL     1      -0.198   5.729   4.280  1.00  0.00     0.022 A 
ATOM     20  C   UNL     1      -1.375   7.231   2.815  1.00  0.00     0.060 A 
ATOM     21  C   UNL     1      -0.652   7.015   3.986  1.00  0.00     0.059 A 
ATOM     22  Cl  UNL     1      -1.969   8.791   2.365  1.00  0.00    -0.083 Cl
ATOM     23  Cl  UNL     1      -0.298   8.277   5.111  1.00  0.00    -0.083 Cl
ENDBRANCH  12  16
ENDBRANCH   7  12
ENDBRANCH   4   7
ENDBRANCH   2   3
ENDBRANCH   1   2
BRANCH   1  24
ATOM     24  C   UNL     1      -3.497   6.499  -4.053  1.00  0.00     0.023 C 
BRANCH  24  25
ATOM     25  C   UNL     1      -2.363   6.642  -5.066  1.00  0.00     0.116 C 
BRANCH  25  26
ATOM     26  N   UNL     1      -2.483   5.738  -6.199  1.00  0.00    -0.352 N 
ATOM     27  C   UNL     1      -2.596   6.011  -7.541  1.00  0.00     0.251 C 
ATOM     28  H   UNL     1      -2.482   4.781  -5.968  1.00  0.00     0.163 HD
ATOM     29  O   UNL     1      -2.811   5.095  -8.332  1.00  0.00    -0.269 OA
BRANCH  27  30
ATOM     30  C   UNL     1      -2.498   7.401  -8.041  1.00  0.00     0.039 A 
ATOM     31  C   UNL     1      -3.437   7.845  -8.977  1.00  0.00     0.014 A 
ATOM     32  C   UNL     1      -1.491   8.263  -7.603  1.00  0.00     0.014 A 
ATOM     33  C   UNL     1      -3.414   9.175  -9.409  1.00  0.00     0.010 A 
ATOM     34  C   UNL     1      -1.518   9.608  -7.972  1.00  0.00     0.010 A 
ATOM     35  C   UNL     1      -2.481  10.080  -8.877  1.00  0.00    -0.014 A 
BRANCH  35  36
ATOM     36  C   UNL     1      -2.515  11.522  -9.243  1.00  0.00     0.031 A 
ATOM     37  C   UNL     1      -1.349  12.160  -9.948  1.00  0.00     0.074 A 
ATOM     38  C   UNL     1      -3.574  12.277  -8.884  1.00  0.00     0.049 A 
ATOM     39  N   UNL     1      -1.177  13.410 -10.299  1.00  0.00    -0.248 NA
ATOM     40  C   UNL     1      -0.215  11.284 -10.281  1.00  0.00     0.031 C 
ATOM     41  C   UNL     1      -4.746  11.796  -8.149  1.00  0.00     0.029 A 
ATOM     42  N   UNL     1      -3.831  13.612  -9.078  1.00  0.00    -0.354 N 
ATOM     43  C   UNL     1       0.085  13.473 -10.877  1.00  0.00     0.074 A 
ATOM     44  C   UNL     1       0.656  12.146 -10.785  1.00  0.00     0.031 C 
ATOM     45  C   UNL     1      -5.604  12.813  -7.974  1.00  0.00     0.029 A 
ATOM     46  C   UNL     1      -5.029  14.027  -8.546  1.00  0.00     0.049 A 
ATOM     47  H   UNL     1      -3.216  14.215  -9.554  1.00  0.00     0.167 HD
ATOM     48  C   UNL     1       0.703  14.532 -11.452  1.00  0.00     0.037 A 
ATOM     49  C   UNL     1      -5.596  15.248  -8.511  1.00  0.00     0.037 A 
ATOM     50  C   UNL     1       0.126  15.847 -11.563  1.00  0.00     0.049 A 
ATOM     51  C   UNL     1      -4.886  16.408  -9.154  1.00  0.00     0.074 A 
ATOM     52  C   UNL     1       0.647  16.966 -12.188  1.00  0.00     0.029 A 
ATOM     53  N   UNL     1      -1.098  16.221 -11.029  1.00  0.00    -0.354 N 
ATOM     54  N   UNL     1      -3.729  16.432  -9.770  1.00  0.00    -0.248 NA
ATOM     55  C   UNL     1      -5.567  17.710  -9.105  1.00  0.00     0.031 C 
ATOM     56  C   UNL     1      -0.235  18.032 -11.985  1.00  0.00     0.029 A 
ATOM     57  C   UNL     1      -1.335  17.562 -11.287  1.00  0.00     0.049 A 
ATOM     58  H   UNL     1      -1.708  15.624 -10.539  1.00  0.00     0.167 HD
ATOM     59  C   UNL     1      -3.558  17.740 -10.208  1.00  0.00     0.074 A 
ATOM     60  C   UNL     1      -4.738  18.474  -9.802  1.00  0.00     0.031 C 
ATOM     61  C   UNL     1      -2.517  18.282 -10.885  1.00  0.00     0.037 A 
BRANCH  48  62
ATOM     62  C   UNL     1       2.082  14.316 -12.008  1.00  0.00     0.057 A 
ATOM     63  C   UNL     1       2.308  13.536 -13.151  1.00  0.00     0.134 A 
ATOM     64  C   UNL     1       3.194  14.935 -11.422  1.00  0.00     0.134 A 
ATOM     65  F   UNL     1       1.289  12.907 -13.757  1.00  0.00    -0.206 F 
ATOM     66  C   UNL     1       3.590  13.360 -13.674  1.00  0.00     0.040 A 
ATOM     67  C   UNL     1       4.476  14.791 -11.954  1.00  0.00     0.040 A 
ATOM     68  F   UNL     1       3.050  15.703 -10.332  1.00  0.00    -0.206 F 
ATOM     69  C   UNL     1       4.678  13.995 -13.080  1.00  0.00     0.006 A 
ENDBRANCH  48  62
BRANCH  49  70
ATOM     70  C   UNL     1      -6.915  15.440  -7.854  1.00  0.00     0.057 A 
ATOM     71  C   UNL     1      -8.058  15.757  -8.598  1.00  0.00     0.134 A 
ATOM     72  C   UNL     1      -7.061  15.333  -6.465  1.00  0.00     0.134 A 
ATOM     73  F   UNL     1      -7.979  15.893  -9.930  1.00  0.00    -0.206 F 
ATOM     74  C   UNL     1      -9.291  15.987  -7.985  1.00  0.00     0.040 A 
ATOM     75  C   UNL     1      -8.294  15.531  -5.842  1.00  0.00     0.040 A 
ATOM     76  F   UNL     1      -6.008  15.024  -5.695  1.00  0.00    -0.206 F 
ATOM     77  C   UNL     1      -9.412  15.869  -6.602  1.00  0.00     0.006 A 
ENDBRANCH  49  70
BRANCH  61  78
ATOM     78  C   UNL     1      -2.625  19.731 -11.270  1.00  0.00     0.057 A 
ATOM     79  C   UNL     1      -2.555  20.760 -10.323  1.00  0.00     0.134 A 
ATOM     80  C   UNL     1      -2.771  20.100 -12.614  1.00  0.00     0.134 A 
ATOM     81  F   UNL     1      -2.428  20.476  -9.018  1.00  0.00    -0.206 F 
ATOM     82  C   UNL     1      -2.656  22.102 -10.695  1.00  0.00     0.040 A 
ATOM     83  C   UNL     1      -2.841  21.438 -13.001  1.00  0.00     0.040 A 
ATOM     84  F   UNL     1      -2.834  19.165 -13.575  1.00  0.00    -0.206 F 
ATOM     85  C   UNL     1      -2.792  22.444 -12.039  1.00  0.00     0.006 A 
ENDBRANCH  61  78
ENDBRANCH  35  36
ENDBRANCH  27  30
ENDBRANCH  25  26
ENDBRANCH  24  25
ENDBRANCH   1  24
TORSDOF 17
