REMARK SMILES O=C(NCCCCNC(=O)[C@@H]1CC=CC[C@H]1C(=O)N1CC[NH+](Cc2ccc3c(c2)OCO3)CC1)c1ccc(-c2c3nc(c(-c4c(F)cccc4F)c4ccc([nH]4)c(-c4c(F)cccc4F)c4nc(c(-c5c(F)cccc5F)c5ccc2[nH]5)C=C4)C=C3)cc1
REMARK SMILES IDX 6 1 5 2 4 3 3 4 1 5 2 6 35 8 36 9 88 10 37 11 87 12 38 13
REMARK SMILES IDX 39 14 40 15 81 16 41 17 86 18 80 19 82 20 42 21 85 22 79 23
REMARK SMILES IDX 78 24 43 26 69 27 52 28 68 29 53 30 56 31 67 32 83 33 54 34
REMARK SMILES IDX 55 35 66 37 84 38 57 39 44 40 45 41 50 42 46 43 47 44 49 45
REMARK SMILES IDX 51 46 48 47 70 48 71 49 76 50 72 51 73 52 75 53 77 54 74 55
REMARK SMILES IDX 58 56 59 57 64 58 60 59 61 60 63 61 65 62 62 63 7 64 8 65
REMARK SMILES IDX 9 66 10 68 11 69 12 70 16 71 13 72 15 73 14 74 17 75 18 76
REMARK SMILES IDX 19 77 20 78 34 79 21 80 33 81 22 82 23 84 24 85 25 86 29 87
REMARK SMILES IDX 26 88 28 89 27 90 30 91 32 92 31 93
REMARK H PARENT 3 7 82 25 56 36 8 67 22 83
REMARK Flexibility Score: inf
ROOT
ATOM      1  C   UNL     1       4.642   7.173  -3.865  1.00  0.00     0.023 C 
ENDROOT
BRANCH   1   2
ATOM      2  C   UNL     1       3.147   7.479  -3.865  1.00  0.00     0.023 C 
BRANCH   2   3
ATOM      3  C   UNL     1       2.490   7.413  -2.500  1.00  0.00     0.116 C 
BRANCH   3   4
ATOM      4  N   UNL     1       3.084   8.323  -1.530  1.00  0.00    -0.352 N 
ATOM      5  O   UNL     1       3.069   9.839   0.149  1.00  0.00    -0.269 OA
ATOM      6  C   UNL     1       2.453   9.027  -0.533  1.00  0.00     0.251 C 
ATOM      7  H   UNL     1       4.058   8.450  -1.598  1.00  0.00     0.163 HD
BRANCH   6   8
ATOM      8  C   UNL     1       1.008   8.814  -0.322  1.00  0.00     0.039 A 
ATOM      9  C   UNL     1       0.498   7.516  -0.270  1.00  0.00     0.014 A 
ATOM     10  C   UNL     1       0.156   9.917  -0.240  1.00  0.00     0.014 A 
ATOM     11  C   UNL     1      -0.873   7.321  -0.295  1.00  0.00     0.010 A 
ATOM     12  C   UNL     1      -1.225   9.717  -0.163  1.00  0.00     0.010 A 
ATOM     13  C   UNL     1      -1.749   8.417  -0.223  1.00  0.00    -0.014 A 
BRANCH  13  14
ATOM     14  C   UNL     1      -3.204   8.148  -0.136  1.00  0.00     0.031 A 
ATOM     15  C   UNL     1      -4.146   8.553  -1.231  1.00  0.00     0.074 A 
ATOM     16  C   UNL     1      -3.650   7.453   0.928  1.00  0.00     0.049 A 
ATOM     17  N   UNL     1      -5.431   8.320  -1.334  1.00  0.00    -0.248 NA
ATOM     18  C   UNL     1      -3.586   9.325  -2.350  1.00  0.00     0.031 C 
ATOM     19  C   UNL     1      -2.821   7.027   2.060  1.00  0.00     0.029 A 
ATOM     20  N   UNL     1      -4.889   6.947   1.216  1.00  0.00    -0.354 N 
ATOM     21  C   UNL     1      -5.835   8.925  -2.516  1.00  0.00     0.074 A 
ATOM     22  C   UNL     1      -4.665   9.558  -3.087  1.00  0.00     0.031 C 
ATOM     23  C   UNL     1      -3.556   6.267   2.882  1.00  0.00     0.029 A 
ATOM     24  C   UNL     1      -4.919   6.204   2.371  1.00  0.00     0.049 A 
ATOM     25  H   UNL     1      -5.681   7.101   0.651  1.00  0.00     0.167 HD
ATOM     26  C   UNL     1      -7.070   8.944  -3.074  1.00  0.00     0.037 A 
ATOM     27  C   UNL     1      -5.934   5.548   2.959  1.00  0.00     0.037 A 
ATOM     28  C   UNL     1      -8.227   8.300  -2.503  1.00  0.00     0.049 A 
ATOM     29  C   UNL     1      -7.283   5.570   2.308  1.00  0.00     0.074 A 
ATOM     30  C   UNL     1      -9.523   8.262  -2.990  1.00  0.00     0.029 A 
ATOM     31  N   UNL     1      -8.225   7.575  -1.321  1.00  0.00    -0.354 N 
ATOM     32  N   UNL     1      -7.647   6.147   1.189  1.00  0.00    -0.248 NA
ATOM     33  C   UNL     1      -8.361   4.856   3.001  1.00  0.00     0.031 C 
ATOM     34  C   UNL     1     -10.310   7.537  -2.087  1.00  0.00     0.029 A 
ATOM     35  C   UNL     1      -9.497   7.092  -1.058  1.00  0.00     0.049 A 
ATOM     36  H   UNL     1      -7.435   7.425  -0.752  1.00  0.00     0.167 HD
ATOM     37  C   UNL     1      -8.999   5.872   1.046  1.00  0.00     0.074 A 
ATOM     38  C   UNL     1      -9.378   5.042   2.172  1.00  0.00     0.031 C 
ATOM     39  C   UNL     1      -9.853   6.281   0.077  1.00  0.00     0.037 A 
BRANCH  26  40
ATOM     40  C   UNL     1      -7.242   9.691  -4.364  1.00  0.00     0.057 A 
ATOM     41  C   UNL     1      -6.765   9.182  -5.578  1.00  0.00     0.134 A 
ATOM     42  C   UNL     1      -7.940  10.904  -4.401  1.00  0.00     0.134 A 
ATOM     43  F   UNL     1      -6.077   8.031  -5.610  1.00  0.00    -0.206 F 
ATOM     44  C   UNL     1      -6.968   9.858  -6.783  1.00  0.00     0.040 A 
ATOM     45  C   UNL     1      -8.167  11.580  -5.602  1.00  0.00     0.040 A 
ATOM     46  F   UNL     1      -8.427  11.445  -3.274  1.00  0.00    -0.206 F 
ATOM     47  C   UNL     1      -7.679  11.058  -6.798  1.00  0.00     0.006 A 
ENDBRANCH  26  40
BRANCH  27  48
ATOM     48  C   UNL     1      -5.702   4.829   4.235  1.00  0.00     0.057 A 
ATOM     49  C   UNL     1      -5.718   3.432   4.295  1.00  0.00     0.134 A 
ATOM     50  C   UNL     1      -5.432   5.525   5.419  1.00  0.00     0.134 A 
ATOM     51  F   UNL     1      -5.983   2.711   3.195  1.00  0.00    -0.206 F 
ATOM     52  C   UNL     1      -5.485   2.752   5.491  1.00  0.00     0.040 A 
ATOM     53  C   UNL     1      -5.171   4.858   6.616  1.00  0.00     0.040 A 
ATOM     54  F   UNL     1      -5.391   6.866   5.422  1.00  0.00    -0.206 F 
ATOM     55  C   UNL     1      -5.203   3.466   6.654  1.00  0.00     0.006 A 
ENDBRANCH  27  48
BRANCH  39  56
ATOM     56  C   UNL     1     -11.276   5.832   0.210  1.00  0.00     0.057 A 
ATOM     57  C   UNL     1     -12.133   6.390   1.168  1.00  0.00     0.134 A 
ATOM     58  C   UNL     1     -11.793   4.833  -0.623  1.00  0.00     0.134 A 
ATOM     59  F   UNL     1     -11.689   7.339   2.006  1.00  0.00    -0.206 F 
ATOM     60  C   UNL     1     -13.448   5.948   1.313  1.00  0.00     0.040 A 
ATOM     61  C   UNL     1     -13.114   4.399  -0.502  1.00  0.00     0.040 A 
ATOM     62  F   UNL     1     -11.024   4.263  -1.563  1.00  0.00    -0.206 F 
ATOM     63  C   UNL     1     -13.942   4.951   0.474  1.00  0.00     0.006 A 
ENDBRANCH  39  56
ENDBRANCH  13  14
ENDBRANCH   6   8
ENDBRANCH   3   4
ENDBRANCH   2   3
ENDBRANCH   1   2
BRANCH   1  64
ATOM     64  C   UNL     1       5.016   5.756  -3.417  1.00  0.00     0.116 C 
BRANCH  64  65
ATOM     65  N   UNL     1       4.532   4.758  -4.347  1.00  0.00    -0.356 N 
ATOM     66  C   UNL     1       5.107   4.210  -5.452  1.00  0.00     0.224 C 
ATOM     67  H   UNL     1       3.631   4.418  -4.146  1.00  0.00     0.163 HD
ATOM     68  O   UNL     1       4.400   3.428  -6.089  1.00  0.00    -0.275 OA
BRANCH  66  69
ATOM     69  C   UNL     1       6.573   4.479  -5.826  1.00  0.00     0.095 C 
ATOM     70  C   UNL     1       6.840   5.979  -6.056  1.00  0.00     0.041 C 
ATOM     71  C   UNL     1       6.942   3.704  -7.108  1.00  0.00     0.095 C 
ATOM     72  C   UNL     1       8.123   6.306  -6.752  1.00  0.00    -0.030 C 
ATOM     73  C   UNL     1       8.393   3.977  -7.563  1.00  0.00     0.041 C 
ATOM     74  C   UNL     1       8.836   5.395  -7.418  1.00  0.00    -0.030 C 
BRANCH  71  75
ATOM     75  C   UNL     1       6.784   2.181  -7.114  1.00  0.00     0.227 C 
ATOM     76  O   UNL     1       6.266   1.618  -8.082  1.00  0.00    -0.275 OA
ATOM     77  N   UNL     1       7.562   1.479  -6.204  1.00  0.00    -0.331 N 
ATOM     78  C   UNL     1       8.291   0.334  -6.735  1.00  0.00     0.181 C 
ATOM     79  C   UNL     1       7.163   1.323  -4.811  1.00  0.00     0.181 C 
ATOM     80  C   UNL     1       9.477  -0.061  -5.838  1.00  0.00     0.284 C 
ATOM     81  C   UNL     1       8.360   0.942  -3.914  1.00  0.00     0.284 C 
ATOM     82  N   UNL     1       9.201  -0.167  -4.397  1.00  0.00    -0.328 N 
ATOM     83  H   UNL     1      10.100  -0.041  -3.931  1.00  0.00     0.348 HD
BRANCH  82  84
ATOM     84  C   UNL     1       8.839  -1.506  -3.919  1.00  0.00     0.299 C 
BRANCH  84  85
ATOM     85  C   UNL     1       7.450  -1.995  -4.253  1.00  0.00     0.010 A 
ATOM     86  C   UNL     1       7.191  -2.642  -5.484  1.00  0.00     0.013 A 
ATOM     87  C   UNL     1       6.386  -1.747  -3.368  1.00  0.00     0.060 A 
ATOM     88  C   UNL     1       5.885  -2.951  -5.876  1.00  0.00     0.051 A 
ATOM     89  C   UNL     1       5.109  -2.054  -3.785  1.00  0.00     0.166 A 
ATOM     90  C   UNL     1       4.864  -2.625  -5.011  1.00  0.00     0.165 A 
ATOM     91  O   UNL     1       3.968  -1.796  -3.093  1.00  0.00    -0.454 OA
ATOM     92  O   UNL     1       3.537  -2.797  -5.245  1.00  0.00    -0.454 OA
ATOM     93  C   UNL     1       2.975  -2.192  -4.063  1.00  0.00     0.468 C 
ENDBRANCH  84  85
ENDBRANCH  82  84
ENDBRANCH  71  75
ENDBRANCH  66  69
ENDBRANCH  64  65
ENDBRANCH   1  64
TORSDOF 14
