REMARK SMILES N#CCCn1cc(C(=O)NCCCCNC(=O)c2ccc(-c3c4nc(c(-c5c(F)cccc5F)c5ccc([nH]5)c(-c5c(F)cccc5F)c5nc(c(-c6c(F)cccc6F)c6ccc3[nH]6)C=C5)C=C4)cc2)c(-c2cccc([N+](=O)[O-])c2)n1
REMARK SMILES IDX 12 1 11 2 10 3 8 4 9 5 7 7 5 8 6 9 82 10 72 11 4 12 3 13
REMARK SMILES IDX 2 14 1 15 73 16 74 17 81 18 75 19 77 20 76 21 78 22 79 23
REMARK SMILES IDX 80 24 13 25 14 26 15 27 16 28 17 30 18 31 19 32 71 33 20 34
REMARK SMILES IDX 70 35 21 36 22 37 23 38 64 39 24 40 69 41 63 42 65 43 25 44
REMARK SMILES IDX 68 45 62 46 61 47 26 49 52 50 35 51 51 52 36 53 39 54 50 55
REMARK SMILES IDX 66 56 37 57 38 58 49 60 67 61 40 62 27 63 28 64 33 65 29 66
REMARK SMILES IDX 30 67 32 68 34 69 31 70 53 71 54 72 59 73 55 74 56 75 58 76
REMARK SMILES IDX 60 77 57 78 41 79 42 80 47 81 43 82 44 83 46 84 48 85 45 86
REMARK H PARENT 10 6 15 29 65 48 39 59
REMARK Flexibility Score: inf
ROOT
ATOM      1  C   UNL     1       3.435  -1.286   4.797  1.00  0.00     0.023 C 
ENDROOT
BRANCH   1   2
ATOM      2  C   UNL     1       2.226  -0.410   4.451  1.00  0.00     0.116 C 
BRANCH   2   3
ATOM      3  N   UNL     1       2.285   0.872   5.122  1.00  0.00    -0.352 N 
ATOM      4  C   UNL     1       2.770   2.094   4.732  1.00  0.00     0.255 C 
ATOM      5  O   UNL     1       2.603   3.018   5.534  1.00  0.00    -0.269 OA
ATOM      6  H   UNL     1       1.906   0.865   6.031  1.00  0.00     0.163 HD
BRANCH   4   7
ATOM      7  C   UNL     1       3.393   2.295   3.431  1.00  0.00     0.085 A 
ATOM      8  N   UNL     1       4.115   2.004   1.374  1.00  0.00    -0.270 N 
ATOM      9  C   UNL     1       3.890   1.358   2.549  1.00  0.00     0.123 A 
ATOM     10  N   UNL     1       4.091   3.342   1.504  1.00  0.00    -0.172 NA
ATOM     11  C   UNL     1       3.695   3.540   2.777  1.00  0.00     0.105 A 
BRANCH   8  12
ATOM     12  C   UNL     1       4.377   1.385   0.084  1.00  0.00     0.159 C 
BRANCH  12  13
ATOM     13  C   UNL     1       3.834  -0.044  -0.073  1.00  0.00     0.144 C 
BRANCH  13  14
ATOM     14  C   UNL     1       2.314  -0.044  -0.073  1.00  0.00     0.064 C 
ATOM     15  N   UNL     1       1.053  -0.044  -0.073  1.00  0.00    -0.198 NA
ENDBRANCH  13  14
ENDBRANCH  12  13
ENDBRANCH   8  12
BRANCH  11  16
ATOM     16  C   UNL     1       3.632   4.880   3.363  1.00  0.00     0.010 A 
ATOM     17  C   UNL     1       4.369   5.146   4.532  1.00  0.00     0.011 A 
ATOM     18  C   UNL     1       2.814   5.878   2.827  1.00  0.00     0.096 A 
ATOM     19  C   UNL     1       4.244   6.362   5.202  1.00  0.00     0.008 A 
ATOM     20  C   UNL     1       2.693   7.102   3.507  1.00  0.00     0.270 A 
ATOM     21  C   UNL     1       3.396   7.343   4.698  1.00  0.00     0.085 A 
BRANCH  20  22
ATOM     22  N   UNL     1       1.792   8.140   2.990  1.00  0.00     0.062 N 
ATOM     23  O   UNL     1       1.697   9.195   3.635  1.00  0.00    -0.258 OA
ATOM     24  O   UNL     1       1.174   7.902   1.943  1.00  0.00    -0.258 OA
ENDBRANCH  20  22
ENDBRANCH  11  16
ENDBRANCH   4   7
ENDBRANCH   2   3
ENDBRANCH   1   2
BRANCH   1  25
ATOM     25  C   UNL     1       3.433  -1.873   6.217  1.00  0.00     0.023 C 
BRANCH  25  26
ATOM     26  C   UNL     1       2.308  -2.860   6.494  1.00  0.00     0.116 C 
BRANCH  26  27
ATOM     27  N   UNL     1       2.344  -4.040   5.619  1.00  0.00    -0.352 N 
ATOM     28  C   UNL     1       1.383  -5.025   5.475  1.00  0.00     0.251 C 
ATOM     29  H   UNL     1       3.152  -4.143   5.067  1.00  0.00     0.163 HD
ATOM     30  O   UNL     1       1.665  -6.137   5.027  1.00  0.00    -0.269 OA
BRANCH  28  31
ATOM     31  C   UNL     1      -0.004  -4.697   5.827  1.00  0.00     0.039 A 
ATOM     32  C   UNL     1      -0.867  -5.565   6.505  1.00  0.00     0.014 A 
ATOM     33  C   UNL     1      -0.405  -3.414   5.487  1.00  0.00     0.014 A 
ATOM     34  C   UNL     1      -2.127  -5.094   6.874  1.00  0.00     0.010 A 
ATOM     35  C   UNL     1      -1.498  -2.880   6.090  1.00  0.00     0.010 A 
ATOM     36  C   UNL     1      -2.425  -3.744   6.653  1.00  0.00    -0.014 A 
BRANCH  36  37
ATOM     37  C   UNL     1      -3.685  -3.116   7.006  1.00  0.00     0.031 A 
ATOM     38  C   UNL     1      -3.914  -2.977   8.465  1.00  0.00     0.074 A 
ATOM     39  C   UNL     1      -4.362  -2.411   6.068  1.00  0.00     0.049 A 
ATOM     40  N   UNL     1      -4.810  -3.565   9.184  1.00  0.00    -0.248 NA
ATOM     41  C   UNL     1      -2.920  -2.230   9.257  1.00  0.00     0.031 C 
ATOM     42  C   UNL     1      -4.006  -2.185   4.657  1.00  0.00     0.029 A 
ATOM     43  N   UNL     1      -5.452  -1.616   6.223  1.00  0.00    -0.354 N 
ATOM     44  C   UNL     1      -4.641  -3.075  10.478  1.00  0.00     0.074 A 
ATOM     45  C   UNL     1      -3.336  -2.475  10.501  1.00  0.00     0.031 C 
ATOM     46  C   UNL     1      -4.714  -1.144   4.166  1.00  0.00     0.029 A 
ATOM     47  C   UNL     1      -5.682  -0.737   5.163  1.00  0.00     0.049 A 
ATOM     48  H   UNL     1      -6.032  -1.655   7.018  1.00  0.00     0.167 HD
ATOM     49  C   UNL     1      -5.702  -2.955  11.327  1.00  0.00     0.037 A 
ATOM     50  C   UNL     1      -6.584   0.278   5.163  1.00  0.00     0.037 A 
ATOM     51  C   UNL     1      -6.845  -3.665  10.800  1.00  0.00     0.049 A 
ATOM     52  C   UNL     1      -7.544  -0.006   6.265  1.00  0.00     0.074 A 
ATOM     53  C   UNL     1      -7.101  -4.978  10.455  1.00  0.00     0.029 A 
ATOM     54  N   UNL     1      -7.812  -2.915  10.171  1.00  0.00    -0.354 N 
ATOM     55  N   UNL     1      -8.364  -1.024   6.256  1.00  0.00    -0.248 NA
ATOM     56  C   UNL     1      -7.216   0.519   7.584  1.00  0.00     0.031 C 
ATOM     57  C   UNL     1      -7.871  -4.894   9.258  1.00  0.00     0.029 A 
ATOM     58  C   UNL     1      -8.123  -3.547   8.996  1.00  0.00     0.049 A 
ATOM     59  H   UNL     1      -8.208  -2.078  10.504  1.00  0.00     0.167 HD
ATOM     60  C   UNL     1      -8.319  -1.529   7.549  1.00  0.00     0.074 A 
ATOM     61  C   UNL     1      -7.638  -0.501   8.337  1.00  0.00     0.031 C 
ATOM     62  C   UNL     1      -8.548  -2.852   7.802  1.00  0.00     0.037 A 
BRANCH  49  63
ATOM     63  C   UNL     1      -5.870  -1.885  12.387  1.00  0.00     0.057 A 
ATOM     64  C   UNL     1      -7.040  -1.907  13.175  1.00  0.00     0.134 A 
ATOM     65  C   UNL     1      -5.128  -0.691  12.472  1.00  0.00     0.134 A 
ATOM     66  F   UNL     1      -7.822  -2.997  13.220  1.00  0.00    -0.206 F 
ATOM     67  C   UNL     1      -7.505  -0.786  13.870  1.00  0.00     0.040 A 
ATOM     68  C   UNL     1      -5.560   0.420  13.204  1.00  0.00     0.040 A 
ATOM     69  F   UNL     1      -3.996  -0.484  11.794  1.00  0.00    -0.206 F 
ATOM     70  C   UNL     1      -6.774   0.392  13.868  1.00  0.00     0.006 A 
ENDBRANCH  49  63
BRANCH  50  71
ATOM     71  C   UNL     1      -6.486   1.602   4.502  1.00  0.00     0.057 A 
ATOM     72  C   UNL     1      -7.612   2.416   4.314  1.00  0.00     0.134 A 
ATOM     73  C   UNL     1      -5.241   2.217   4.274  1.00  0.00     0.134 A 
ATOM     74  F   UNL     1      -8.842   1.937   4.548  1.00  0.00    -0.206 F 
ATOM     75  C   UNL     1      -7.507   3.763   3.936  1.00  0.00     0.040 A 
ATOM     76  C   UNL     1      -5.121   3.559   3.892  1.00  0.00     0.040 A 
ATOM     77  F   UNL     1      -4.094   1.560   4.500  1.00  0.00    -0.206 F 
ATOM     78  C   UNL     1      -6.257   4.342   3.734  1.00  0.00     0.006 A 
ENDBRANCH  50  71
BRANCH  62  79
ATOM     79  C   UNL     1      -9.053  -3.724   6.685  1.00  0.00     0.057 A 
ATOM     80  C   UNL     1      -8.305  -4.051   5.544  1.00  0.00     0.134 A 
ATOM     81  C   UNL     1     -10.240  -4.435   6.885  1.00  0.00     0.134 A 
ATOM     82  F   UNL     1      -7.111  -3.495   5.315  1.00  0.00    -0.206 F 
ATOM     83  C   UNL     1      -8.727  -5.028   4.636  1.00  0.00     0.040 A 
ATOM     84  C   UNL     1     -10.658  -5.435   6.004  1.00  0.00     0.040 A 
ATOM     85  F   UNL     1     -10.978  -4.218   7.985  1.00  0.00    -0.206 F 
ATOM     86  C   UNL     1      -9.902  -5.733   4.873  1.00  0.00     0.006 A 
ENDBRANCH  62  79
ENDBRANCH  36  37
ENDBRANCH  28  31
ENDBRANCH  26  27
ENDBRANCH  25  26
ENDBRANCH   1  25
TORSDOF 16
