REMARK SMILES CCCOC(=O)c1c(NC(=O)[C@@H]2CC=CC[C@H]2C(=O)NCCCCNC(=O)c2ccc(-c3c4nc(c(-c5c(F)cccc5F)c5ccc([nH]5)c(-c5c(F)cccc5F)c5nc(c(-c6c(F)cccc6F)c6ccc3[nH]6)C=C5)C=C4)cc2)sc2c1CCCC2
REMARK SMILES IDX 18 1 19 2 20 3 17 5 12 6 13 7 14 8 16 9 15 10 10 11 9 12
REMARK SMILES IDX 11 14 8 15 7 16 84 17 82 18 83 19 85 20 88 21 86 22 87 23
REMARK SMILES IDX 5 24 6 25 4 26 3 27 2 28 1 29 21 30 22 31 23 32 24 33 25 34
REMARK SMILES IDX 26 35 27 37 28 38 29 39 81 40 30 41 80 42 31 43 32 44 33 45
REMARK SMILES IDX 74 46 34 47 79 48 73 49 75 50 35 51 78 52 72 53 71 54 36 56
REMARK SMILES IDX 62 57 45 58 61 59 46 60 49 61 60 62 76 63 47 64 48 65 59 67
REMARK SMILES IDX 77 68 50 69 37 70 38 71 43 72 39 73 40 74 42 75 44 76 41 77
REMARK SMILES IDX 63 78 64 79 69 80 65 81 66 82 68 83 70 84 67 85 51 86 52 87
REMARK SMILES IDX 57 88 53 89 54 90 56 91 58 92 55 93
REMARK H PARENT 20 4 9 13 25 36 75 55 49 66
REMARK Flexibility Score: inf
ROOT
ATOM      1  C   UNL     1      -0.121  -1.708  -1.352  1.00  0.00     0.224 C 
ATOM      2  O   UNL     1       0.254  -2.119  -2.459  1.00  0.00    -0.275 OA
ATOM      3  N   UNL     1      -1.163  -2.412  -0.878  1.00  0.00    -0.356 N 
ATOM      4  H   UNL     1      -1.012  -3.360  -0.659  1.00  0.00     0.163 HD
ENDROOT
BRANCH   1   5
ATOM      5  C   UNL     1       0.590  -0.492  -0.696  1.00  0.00     0.095 C 
ATOM      6  C   UNL     1       0.255   0.753  -1.465  1.00  0.00     0.095 C 
ATOM      7  C   UNL     1       0.775   2.062  -0.842  1.00  0.00     0.041 C 
ATOM      8  C   UNL     1       0.637   2.114   0.652  1.00  0.00    -0.030 C 
ATOM      9  C   UNL     1       1.069  -0.293   0.750  1.00  0.00     0.041 C 
ATOM     10  C   UNL     1       0.741   1.007   1.393  1.00  0.00    -0.030 C 
BRANCH   6  11
ATOM     11  C   UNL     1       0.751   0.640  -2.901  1.00  0.00     0.229 C 
ATOM     12  N   UNL     1       1.917   0.079  -3.326  1.00  0.00    -0.317 N 
ATOM     13  H   UNL     1       2.059   0.315  -4.271  1.00  0.00     0.170 HD
ATOM     14  O   UNL     1       0.106   1.260  -3.763  1.00  0.00    -0.274 OA
BRANCH  12  15
ATOM     15  C   UNL     1       2.980  -0.713  -2.893  1.00  0.00     0.110 A 
ATOM     16  C   UNL     1       3.384  -1.791  -2.064  1.00  0.00     0.098 A 
ATOM     17  C   UNL     1       4.840  -1.953  -2.162  1.00  0.00    -0.017 A 
ATOM     18  S   UNL     1       4.287  -0.154  -3.877  1.00  0.00    -0.122 S 
ATOM     19  C   UNL     1       5.401  -1.163  -3.141  1.00  0.00     0.011 A 
ATOM     20  C   UNL     1       5.668  -2.982  -1.437  1.00  0.00     0.038 C 
ATOM     21  C   UNL     1       6.827  -1.187  -3.590  1.00  0.00     0.047 C 
ATOM     22  C   UNL     1       7.177  -2.756  -1.643  1.00  0.00     0.005 C 
ATOM     23  C   UNL     1       7.510  -2.471  -3.113  1.00  0.00     0.006 C 
BRANCH  16  24
ATOM     24  C   UNL     1       2.606  -2.912  -1.427  1.00  0.00     0.341 C 
ATOM     25  O   UNL     1       2.477  -3.986  -2.012  1.00  0.00    -0.246 OA
BRANCH  24  26
ATOM     26  O   UNL     1       2.196  -2.761  -0.091  1.00  0.00    -0.462 OA
BRANCH  26  27
ATOM     27  C   UNL     1       1.467  -3.913   0.429  1.00  0.00     0.233 C 
BRANCH  27  28
ATOM     28  C   UNL     1       0.782  -3.839   1.830  1.00  0.00     0.038 C 
ATOM     29  C   UNL     1      -0.366  -2.882   2.169  1.00  0.00     0.007 C 
ENDBRANCH  27  28
ENDBRANCH  26  27
ENDBRANCH  24  26
ENDBRANCH  16  24
ENDBRANCH  12  15
ENDBRANCH   6  11
ENDBRANCH   1   5
BRANCH   3  30
ATOM     30  C   UNL     1      -2.483  -1.881  -0.666  1.00  0.00     0.116 C 
BRANCH  30  31
ATOM     31  C   UNL     1      -3.163  -1.562  -2.002  1.00  0.00     0.023 C 
BRANCH  31  32
ATOM     32  C   UNL     1      -3.493  -2.761  -2.905  1.00  0.00     0.023 C 
BRANCH  32  33
ATOM     33  C   UNL     1      -4.335  -3.875  -2.289  1.00  0.00     0.116 C 
BRANCH  33  34
ATOM     34  N   UNL     1      -5.435  -3.404  -1.460  1.00  0.00    -0.352 N 
ATOM     35  C   UNL     1      -6.653  -3.996  -1.241  1.00  0.00     0.251 C 
ATOM     36  H   UNL     1      -5.286  -2.548  -0.997  1.00  0.00     0.163 HD
ATOM     37  O   UNL     1      -7.489  -3.472  -0.510  1.00  0.00    -0.269 OA
BRANCH  35  38
ATOM     38  C   UNL     1      -6.961  -5.251  -1.943  1.00  0.00     0.039 A 
ATOM     39  C   UNL     1      -8.046  -5.276  -2.823  1.00  0.00     0.014 A 
ATOM     40  C   UNL     1      -6.120  -6.357  -1.802  1.00  0.00     0.014 A 
ATOM     41  C   UNL     1      -8.244  -6.394  -3.630  1.00  0.00     0.010 A 
ATOM     42  C   UNL     1      -6.286  -7.445  -2.648  1.00  0.00     0.010 A 
ATOM     43  C   UNL     1      -7.341  -7.466  -3.576  1.00  0.00    -0.014 A 
BRANCH  43  44
ATOM     44  C   UNL     1      -7.467  -8.627  -4.487  1.00  0.00     0.031 A 
ATOM     45  C   UNL     1      -7.766  -9.982  -3.922  1.00  0.00     0.074 A 
ATOM     46  C   UNL     1      -7.204  -8.476  -5.799  1.00  0.00     0.049 A 
ATOM     47  N   UNL     1      -7.779 -11.145  -4.520  1.00  0.00    -0.248 NA
ATOM     48  C   UNL     1      -8.050 -10.040  -2.480  1.00  0.00     0.031 C 
ATOM     49  C   UNL     1      -6.845  -7.215  -6.451  1.00  0.00     0.029 A 
ATOM     50  N   UNL     1      -7.173  -9.398  -6.814  1.00  0.00    -0.354 N 
ATOM     51  C   UNL     1      -8.041 -12.074  -3.522  1.00  0.00     0.074 A 
ATOM     52  C   UNL     1      -8.132 -11.345  -2.276  1.00  0.00     0.031 C 
ATOM     53  C   UNL     1      -6.632  -7.443  -7.758  1.00  0.00     0.029 A 
ATOM     54  C   UNL     1      -6.809  -8.867  -8.027  1.00  0.00     0.049 A 
ATOM     55  H   UNL     1      -7.391 -10.349  -6.685  1.00  0.00     0.167 HD
ATOM     56  C   UNL     1      -8.207 -13.413  -3.639  1.00  0.00     0.037 A 
ATOM     57  C   UNL     1      -6.627  -9.465  -9.219  1.00  0.00     0.037 A 
ATOM     58  C   UNL     1      -8.144 -14.124  -4.888  1.00  0.00     0.049 A 
ATOM     59  C   UNL     1      -6.851 -10.946  -9.335  1.00  0.00     0.074 A 
ATOM     60  C   UNL     1      -8.368 -15.467  -5.130  1.00  0.00     0.029 A 
ATOM     61  N   UNL     1      -7.833 -13.542  -6.109  1.00  0.00    -0.354 N 
ATOM     62  N   UNL     1      -7.165 -11.808  -8.398  1.00  0.00    -0.248 NA
ATOM     63  C   UNL     1      -6.706 -11.536 -10.672  1.00  0.00     0.031 C 
ATOM     64  C   UNL     1      -8.161 -15.704  -6.494  1.00  0.00     0.029 A 
ATOM     65  C   UNL     1      -7.846 -14.501  -7.107  1.00  0.00     0.049 A 
ATOM     66  H   UNL     1      -7.633 -12.588  -6.245  1.00  0.00     0.167 HD
ATOM     67  C   UNL     1      -7.277 -13.038  -9.033  1.00  0.00     0.074 A 
ATOM     68  C   UNL     1      -7.006 -12.807 -10.438  1.00  0.00     0.031 C 
ATOM     69  C   UNL     1      -7.579 -14.248  -8.501  1.00  0.00     0.037 A 
BRANCH  56  70
ATOM     70  C   UNL     1      -8.465 -14.179  -2.376  1.00  0.00     0.057 A 
ATOM     71  C   UNL     1      -9.665 -14.050  -1.664  1.00  0.00     0.134 A 
ATOM     72  C   UNL     1      -7.493 -15.039  -1.850  1.00  0.00     0.134 A 
ATOM     73  F   UNL     1     -10.631 -13.229  -2.104  1.00  0.00    -0.206 F 
ATOM     74  C   UNL     1      -9.873 -14.714  -0.454  1.00  0.00     0.040 A 
ATOM     75  C   UNL     1      -7.700 -15.732  -0.656  1.00  0.00     0.040 A 
ATOM     76  F   UNL     1      -6.322 -15.213  -2.482  1.00  0.00    -0.206 F 
ATOM     77  C   UNL     1      -8.889 -15.560   0.052  1.00  0.00     0.006 A 
ENDBRANCH  56  70
BRANCH  57  78
ATOM     78  C   UNL     1      -6.238  -8.651 -10.396  1.00  0.00     0.057 A 
ATOM     79  C   UNL     1      -7.163  -8.355 -11.403  1.00  0.00     0.134 A 
ATOM     80  C   UNL     1      -4.948  -8.123 -10.526  1.00  0.00     0.134 A 
ATOM     81  F   UNL     1      -8.410  -8.845 -11.339  1.00  0.00    -0.206 F 
ATOM     82  C   UNL     1      -6.819  -7.567 -12.502  1.00  0.00     0.040 A 
ATOM     83  C   UNL     1      -4.596  -7.318 -11.611  1.00  0.00     0.040 A 
ATOM     84  F   UNL     1      -4.020  -8.365  -9.589  1.00  0.00    -0.206 F 
ATOM     85  C   UNL     1      -5.532  -7.040 -12.604  1.00  0.00     0.006 A 
ENDBRANCH  57  78
BRANCH  69  86
ATOM     86  C   UNL     1      -7.662 -15.409  -9.445  1.00  0.00     0.057 A 
ATOM     87  C   UNL     1      -6.516 -16.004  -9.985  1.00  0.00     0.134 A 
ATOM     88  C   UNL     1      -8.903 -15.970  -9.774  1.00  0.00     0.134 A 
ATOM     89  F   UNL     1      -5.300 -15.505  -9.718  1.00  0.00    -0.206 F 
ATOM     90  C   UNL     1      -6.602 -17.111 -10.831  1.00  0.00     0.040 A 
ATOM     91  C   UNL     1      -9.000 -17.089 -10.600  1.00  0.00     0.040 A 
ATOM     92  F   UNL     1     -10.037 -15.449  -9.283  1.00  0.00    -0.206 F 
ATOM     93  C   UNL     1      -7.846 -17.661 -11.134  1.00  0.00     0.006 A 
ENDBRANCH  69  86
ENDBRANCH  43  44
ENDBRANCH  35  38
ENDBRANCH  33  34
ENDBRANCH  32  33
ENDBRANCH  31  32
ENDBRANCH  30  31
ENDBRANCH   3  30
TORSDOF 17
