REMARK SMILES CC1(C)[C@H](O)CC[C@@]2(C)[C@H]3Cc4c(oc(C(=O)NCCCCNC(=O)c5ccc(-c6c7nc(c(-c8c(F)cccc8F)c8ccc([nH]8)c(-c8c(F)cccc8F)c8nc(c(-c9c(F)cccc9F)c9ccc6[nH]9)C=C8)C=C7)cc5)cc4=O)O[C@@]3(C)CC[C@@H]12
REMARK SMILES IDX 21 1 20 2 19 3 18 4 16 5 17 6 15 8 1 9 2 10 3 11 4 12 88 13
REMARK SMILES IDX 6 14 8 15 87 16 7 17 9 18 10 19 86 20 84 21 11 22 85 23
REMARK SMILES IDX 83 24 12 25 13 26 81 27 14 28 80 29 82 30 5 31 22 33 23 34
REMARK SMILES IDX 24 35 25 37 26 38 27 39 79 40 28 41 78 42 29 43 30 44 31 45
REMARK SMILES IDX 72 46 32 47 77 48 71 49 73 50 33 51 76 52 70 53 69 54 34 56
REMARK SMILES IDX 60 57 43 58 59 59 44 60 47 61 58 62 74 63 45 64 46 65 57 67
REMARK SMILES IDX 75 68 48 69 35 70 36 71 41 72 37 73 38 74 40 75 42 76 39 77
REMARK SMILES IDX 61 78 62 79 67 80 63 81 64 82 66 83 68 84 65 85 49 86 50 87
REMARK SMILES IDX 55 88 51 89 52 90 54 91 56 92 53 93
REMARK H PARENT 18 7 5 32 23 36 73 55 47 66
REMARK Flexibility Score: inf
ROOT
ATOM      1  C   UNL     1       0.952   8.687   5.603  1.00  0.00     0.023 C 
ENDROOT
BRANCH   1   2
ATOM      2  C   UNL     1       0.864   7.861   4.314  1.00  0.00     0.023 C 
BRANCH   2   3
ATOM      3  C   UNL     1      -0.336   8.231   3.417  1.00  0.00     0.116 C 
BRANCH   3   4
ATOM      4  N   UNL     1      -0.041   9.170   2.309  1.00  0.00    -0.349 N 
ATOM      5  C   UNL     1       0.383   9.126   0.992  1.00  0.00     0.287 C 
ATOM      6  O   UNL     1       0.333  10.185   0.364  1.00  0.00    -0.266 OA
ATOM      7  H   UNL     1      -0.190  10.101   2.594  1.00  0.00     0.163 HD
BRANCH   5   8
ATOM      8  C   UNL     1       0.978   7.911   0.329  1.00  0.00     0.199 A 
ATOM      9  C   UNL     1       2.335  -0.906  -2.209  1.00  0.00     0.014 C 
ATOM     10  C   UNL     1       1.485   0.397  -2.383  1.00  0.00    -0.006 C 
ATOM     11  C   UNL     1       0.105  -0.139  -2.891  1.00  0.00     0.014 C 
ATOM     12  C   UNL     1       1.123   0.851  -0.831  1.00  0.00     0.120 C 
ATOM     13  C   UNL     1       2.303   1.680  -3.526  1.00  0.00     0.004 C 
ATOM     14  C   UNL     1       2.368   1.370  -0.196  1.00  0.00     0.033 C 
ATOM     15  C   UNL     1       1.995   2.718  -2.491  1.00  0.00    -0.022 C 
ATOM     16  C   UNL     1       3.671   2.578  -4.012  1.00  0.00     0.009 C 
ATOM     17  C   UNL     1       3.028   2.019  -1.369  1.00  0.00     0.010 C 
ATOM     18  C   UNL     1       0.513   2.791  -3.149  1.00  0.00     0.012 C 
ATOM     19  C   UNL     1       2.107   4.230  -2.269  1.00  0.00     0.044 C 
ATOM     20  C   UNL     1       3.947   4.209  -3.745  1.00  0.00     0.049 C 
ATOM     21  C   UNL     1       2.709   5.102  -3.341  1.00  0.00     0.113 C 
ATOM     22  C   UNL     1       2.879   4.518  -0.984  1.00  0.00     0.055 C 
ATOM     23  C   UNL     1       1.947   5.345  -4.659  1.00  0.00     0.057 C 
ATOM     24  O   UNL     1       2.832   6.527  -2.754  1.00  0.00    -0.458 OA
ATOM     25  C   UNL     1       2.436   5.794  -0.530  1.00  0.00     0.081 A 
ATOM     26  C   UNL     1       2.319   6.779  -1.408  1.00  0.00     0.292 A 
ATOM     27  C   UNL     1       1.869   5.774   0.798  1.00  0.00     0.192 A 
ATOM     28  O   UNL     1       1.682   7.978  -0.943  1.00  0.00    -0.420 OA
ATOM     29  C   UNL     1       0.911   6.795   1.053  1.00  0.00     0.105 A 
ATOM     30  O   UNL     1       2.124   4.942   1.665  1.00  0.00    -0.289 OA
BRANCH  12  31
ATOM     31  O   UNL     1       0.160   1.893  -0.664  1.00  0.00    -0.393 OA
ATOM     32  H   UNL     1       0.503   2.715  -1.047  1.00  0.00     0.210 HD
ENDBRANCH  12  31
ENDBRANCH   5   8
ENDBRANCH   3   4
ENDBRANCH   2   3
ENDBRANCH   1   2
BRANCH   1  33
ATOM     33  C   UNL     1      -0.234   8.550   6.554  1.00  0.00     0.116 C 
BRANCH  33  34
ATOM     34  N   UNL     1      -0.377   7.243   7.182  1.00  0.00    -0.352 N 
ATOM     35  C   UNL     1      -0.915   6.996   8.430  1.00  0.00     0.251 C 
ATOM     36  H   UNL     1      -0.060   6.464   6.670  1.00  0.00     0.163 HD
ATOM     37  O   UNL     1      -0.987   5.869   8.901  1.00  0.00    -0.269 OA
BRANCH  35  38
ATOM     38  C   UNL     1      -1.361   8.167   9.209  1.00  0.00     0.039 A 
ATOM     39  C   UNL     1      -0.622   8.545  10.331  1.00  0.00     0.014 A 
ATOM     40  C   UNL     1      -2.364   8.992   8.690  1.00  0.00     0.014 A 
ATOM     41  C   UNL     1      -0.839   9.802  10.893  1.00  0.00     0.010 A 
ATOM     42  C   UNL     1      -2.524  10.272   9.208  1.00  0.00     0.010 A 
ATOM     43  C   UNL     1      -1.759  10.690  10.309  1.00  0.00    -0.014 A 
BRANCH  43  44
ATOM     44  C   UNL     1      -1.935  12.055  10.862  1.00  0.00     0.031 A 
ATOM     45  C   UNL     1      -3.225  12.424  11.534  1.00  0.00     0.074 A 
ATOM     46  C   UNL     1      -0.944  12.961  10.751  1.00  0.00     0.049 A 
ATOM     47  N   UNL     1      -3.552  13.535  12.142  1.00  0.00    -0.248 NA
ATOM     48  C   UNL     1      -4.296  11.416  11.504  1.00  0.00     0.031 C 
ATOM     49  C   UNL     1       0.337  12.741  10.075  1.00  0.00     0.029 A 
ATOM     50  N   UNL     1      -0.857  14.250  11.213  1.00  0.00    -0.354 N 
ATOM     51  C   UNL     1      -4.855  13.351  12.581  1.00  0.00     0.074 A 
ATOM     52  C   UNL     1      -5.288  12.059  12.097  1.00  0.00     0.031 C 
ATOM     53  C   UNL     1       1.095  13.844  10.199  1.00  0.00     0.029 A 
ATOM     54  C   UNL     1       0.348  14.854  10.942  1.00  0.00     0.049 A 
ATOM     55  H   UNL     1      -1.588  14.700  11.694  1.00  0.00     0.167 HD
ATOM     56  C   UNL     1      -5.613  14.167  13.351  1.00  0.00     0.037 A 
ATOM     57  C   UNL     1       0.798  16.081  11.270  1.00  0.00     0.037 A 
ATOM     58  C   UNL     1      -5.188  15.460  13.816  1.00  0.00     0.049 A 
ATOM     59  C   UNL     1      -0.086  16.992  12.082  1.00  0.00     0.074 A 
ATOM     60  C   UNL     1      -5.869  16.356  14.620  1.00  0.00     0.029 A 
ATOM     61  N   UNL     1      -3.971  16.048  13.502  1.00  0.00    -0.354 N 
ATOM     62  N   UNL     1      -1.284  16.771  12.566  1.00  0.00    -0.248 NA
ATOM     63  C   UNL     1       0.457  18.319  12.405  1.00  0.00     0.031 C 
ATOM     64  C   UNL     1      -5.087  17.509  14.747  1.00  0.00     0.029 A 
ATOM     65  C   UNL     1      -3.891  17.306  14.076  1.00  0.00     0.049 A 
ATOM     66  H   UNL     1      -3.267  15.632  12.953  1.00  0.00     0.167 HD
ATOM     67  C   UNL     1      -1.621  17.913  13.284  1.00  0.00     0.074 A 
ATOM     68  C   UNL     1      -0.493  18.816  13.183  1.00  0.00     0.031 C 
ATOM     69  C   UNL     1      -2.758  18.190  13.969  1.00  0.00     0.037 A 
BRANCH  56  70
ATOM     70  C   UNL     1      -6.980  13.671  13.726  1.00  0.00     0.057 A 
ATOM     71  C   UNL     1      -8.131  14.283  13.216  1.00  0.00     0.134 A 
ATOM     72  C   UNL     1      -7.157  12.580  14.589  1.00  0.00     0.134 A 
ATOM     73  F   UNL     1      -8.035  15.332  12.387  1.00  0.00    -0.206 F 
ATOM     74  C   UNL     1      -9.407  13.823  13.546  1.00  0.00     0.040 A 
ATOM     75  C   UNL     1      -8.426  12.091  14.900  1.00  0.00     0.040 A 
ATOM     76  F   UNL     1      -6.095  11.937  15.099  1.00  0.00    -0.206 F 
ATOM     77  C   UNL     1      -9.557  12.718  14.381  1.00  0.00     0.006 A 
ENDBRANCH  56  70
BRANCH  57  78
ATOM     78  C   UNL     1       2.160  16.521  10.867  1.00  0.00     0.057 A 
ATOM     79  C   UNL     1       2.479  16.782   9.530  1.00  0.00     0.134 A 
ATOM     80  C   UNL     1       3.161  16.741  11.822  1.00  0.00     0.134 A 
ATOM     81  F   UNL     1       1.569  16.585   8.565  1.00  0.00    -0.206 F 
ATOM     82  C   UNL     1       3.740  17.253   9.157  1.00  0.00     0.040 A 
ATOM     83  C   UNL     1       4.416  17.239  11.467  1.00  0.00     0.040 A 
ATOM     84  F   UNL     1       2.912  16.528  13.123  1.00  0.00    -0.206 F 
ATOM     85  C   UNL     1       4.708  17.495  10.130  1.00  0.00     0.006 A 
ENDBRANCH  57  78
BRANCH  69  86
ATOM     86  C   UNL     1      -2.813  19.500  14.704  1.00  0.00     0.057 A 
ATOM     87  C   UNL     1      -2.806  19.528  16.105  1.00  0.00     0.134 A 
ATOM     88  C   UNL     1      -2.880  20.730  14.035  1.00  0.00     0.134 A 
ATOM     89  F   UNL     1      -2.756  18.387  16.809  1.00  0.00    -0.206 F 
ATOM     90  C   UNL     1      -2.857  20.729  16.813  1.00  0.00     0.040 A 
ATOM     91  C   UNL     1      -2.896  21.939  14.732  1.00  0.00     0.040 A 
ATOM     92  F   UNL     1      -2.878  20.776  12.694  1.00  0.00    -0.206 F 
ATOM     93  C   UNL     1      -2.890  21.941  16.126  1.00  0.00     0.006 A 
ENDBRANCH  69  86
ENDBRANCH  43  44
ENDBRANCH  35  38
ENDBRANCH  33  34
ENDBRANCH   1  33
TORSDOF 12
