REMARK SMILES C[C@H](c1ccc(C(=O)NCCCCNC(=O)c2ccc(-c3c4nc(c(-c5c(F)cccc5F)c5ccc([nH]5)c(-c5c(F)cccc5F)c5nc(c(-c6c(F)cccc6F)c6ccc3[nH]6)C=C5)C=C4)cc2)o1)[NH+]1Cc2ccccc2C1
REMARK SMILES IDX 11 1 10 2 9 3 7 4 8 5 6 7 3 8 4 9 71 10 5 11 2 12 1 13 72 14
REMARK SMILES IDX 73 15 80 16 74 18 79 19 75 20 78 21 76 22 77 23 12 24 13 25
REMARK SMILES IDX 14 26 15 27 16 29 17 30 18 31 70 32 19 33 69 34 20 35 21 36
REMARK SMILES IDX 22 37 63 38 23 39 68 40 62 41 64 42 24 43 67 44 61 45 60 46
REMARK SMILES IDX 25 48 51 49 34 50 50 51 35 52 38 53 49 54 65 55 36 56 37 57
REMARK SMILES IDX 48 59 66 60 39 61 26 62 27 63 32 64 28 65 29 66 31 67 33 68
REMARK SMILES IDX 30 69 52 70 53 71 58 72 54 73 55 74 57 75 59 76 56 77 40 78
REMARK SMILES IDX 41 79 46 80 42 81 43 82 45 83 47 84 44 85
REMARK H PARENT 9 6 72 17 14 28 64 47 38 58
REMARK Flexibility Score: inf
ROOT
ATOM      1  C   UNL     1       3.042  -4.296   3.102  1.00  0.00     0.023 C 
ENDROOT
BRANCH   1   2
ATOM      2  C   UNL     1       1.934  -3.362   3.591  1.00  0.00     0.116 C 
BRANCH   2   3
ATOM      3  N   UNL     1       2.434  -2.032   3.864  1.00  0.00    -0.349 N 
ATOM      4  C   UNL     1       2.362  -0.890   3.096  1.00  0.00     0.287 C 
ATOM      5  O   UNL     1       2.727   0.153   3.639  1.00  0.00    -0.266 OA
ATOM      6  H   UNL     1       2.895  -1.927   4.728  1.00  0.00     0.163 HD
BRANCH   4   7
ATOM      7  C   UNL     1       1.883  -0.951   1.727  1.00  0.00     0.191 A 
ATOM      8  C   UNL     1       1.038  -0.053  -0.112  1.00  0.00     0.162 A 
ATOM      9  C   UNL     1       1.323  -1.369  -0.413  1.00  0.00     0.053 A 
ATOM     10  O   UNL     1       1.378   0.206   1.182  1.00  0.00    -0.450 OA
ATOM     11  C   UNL     1       1.860  -1.940   0.758  1.00  0.00     0.057 A 
BRANCH   8  12
ATOM     12  C   UNL     1       0.594   1.112  -0.962  1.00  0.00     0.248 C 
ATOM     13  C   UNL     1       1.659   1.258  -2.080  1.00  0.00     0.084 C 
BRANCH  12  14
ATOM     14  N   UNL     1      -0.866   1.145  -1.322  1.00  0.00    -0.319 N 
ATOM     15  C   UNL     1      -1.525  -0.189  -1.425  1.00  0.00     0.300 C 
ATOM     16  C   UNL     1      -1.099   1.708  -2.687  1.00  0.00     0.300 C 
ATOM     17  H   UNL     1      -1.250   1.699  -0.557  1.00  0.00     0.349 HD
ATOM     18  C   UNL     1      -1.254  -0.628  -2.829  1.00  0.00     0.015 A 
ATOM     19  C   UNL     1      -0.995   0.515  -3.593  1.00  0.00     0.015 A 
ATOM     20  C   UNL     1      -1.172  -1.896  -3.368  1.00  0.00     0.010 A 
ATOM     21  C   UNL     1      -0.622   0.420  -4.918  1.00  0.00     0.010 A 
ATOM     22  C   UNL     1      -0.775  -2.007  -4.701  1.00  0.00     0.001 A 
ATOM     23  C   UNL     1      -0.497  -0.859  -5.468  1.00  0.00     0.001 A 
ENDBRANCH  12  14
ENDBRANCH   8  12
ENDBRANCH   4   7
ENDBRANCH   2   3
ENDBRANCH   1   2
BRANCH   1  24
ATOM     24  C   UNL     1       3.953  -4.833   4.207  1.00  0.00     0.023 C 
BRANCH  24  25
ATOM     25  C   UNL     1       3.248  -5.630   5.300  1.00  0.00     0.116 C 
BRANCH  25  26
ATOM     26  N   UNL     1       2.473  -6.754   4.795  1.00  0.00    -0.352 N 
ATOM     27  C   UNL     1       2.266  -7.979   5.385  1.00  0.00     0.251 C 
ATOM     28  H   UNL     1       2.043  -6.620   3.920  1.00  0.00     0.163 HD
ATOM     29  O   UNL     1       1.660  -8.865   4.794  1.00  0.00    -0.269 OA
BRANCH  27  30
ATOM     30  C   UNL     1       2.830  -8.227   6.726  1.00  0.00     0.039 A 
ATOM     31  C   UNL     1       3.661  -9.333   6.912  1.00  0.00     0.014 A 
ATOM     32  C   UNL     1       2.597  -7.325   7.768  1.00  0.00     0.014 A 
ATOM     33  C   UNL     1       4.337  -9.486   8.123  1.00  0.00     0.010 A 
ATOM     34  C   UNL     1       3.318  -7.446   8.950  1.00  0.00     0.010 A 
ATOM     35  C   UNL     1       4.209  -8.516   9.130  1.00  0.00    -0.014 A 
BRANCH  35  36
ATOM     36  C   UNL     1       5.031  -8.567  10.363  1.00  0.00     0.031 A 
ATOM     37  C   UNL     1       4.375  -8.754  11.700  1.00  0.00     0.074 A 
ATOM     38  C   UNL     1       6.358  -8.347  10.283  1.00  0.00     0.049 A 
ATOM     39  N   UNL     1       4.906  -8.700  12.894  1.00  0.00    -0.248 NA
ATOM     40  C   UNL     1       2.927  -9.011  11.694  1.00  0.00     0.031 C 
ATOM     41  C   UNL     1       7.104  -8.111   9.044  1.00  0.00     0.029 A 
ATOM     42  N   UNL     1       7.312  -8.263  11.265  1.00  0.00    -0.354 N 
ATOM     43  C   UNL     1       3.857  -8.901  13.781  1.00  0.00     0.074 A 
ATOM     44  C   UNL     1       2.653  -9.036  12.990  1.00  0.00     0.031 C 
ATOM     45  C   UNL     1       8.400  -7.920   9.342  1.00  0.00     0.029 A 
ATOM     46  C   UNL     1       8.569  -7.975  10.790  1.00  0.00     0.049 A 
ATOM     47  H   UNL     1       7.115  -8.396  12.221  1.00  0.00     0.167 HD
ATOM     48  C   UNL     1       3.899  -8.985  15.132  1.00  0.00     0.037 A 
ATOM     49  C   UNL     1       9.723  -7.759  11.448  1.00  0.00     0.037 A 
ATOM     50  C   UNL     1       5.102  -8.871  15.913  1.00  0.00     0.049 A 
ATOM     51  C   UNL     1       9.735  -7.826  12.950  1.00  0.00     0.074 A 
ATOM     52  C   UNL     1       5.258  -9.012  17.281  1.00  0.00     0.029 A 
ATOM     53  N   UNL     1       6.356  -8.582  15.396  1.00  0.00    -0.354 N 
ATOM     54  N   UNL     1       8.748  -8.083  13.773  1.00  0.00    -0.248 NA
ATOM     55  C   UNL     1      11.020  -7.566  13.614  1.00  0.00     0.031 C 
ATOM     56  C   UNL     1       6.598  -8.764  17.597  1.00  0.00     0.029 A 
ATOM     57  C   UNL     1       7.285  -8.509  16.421  1.00  0.00     0.049 A 
ATOM     58  H   UNL     1       6.555  -8.447  14.441  1.00  0.00     0.167 HD
ATOM     59  C   UNL     1       9.294  -8.033  15.049  1.00  0.00     0.074 A 
ATOM     60  C   UNL     1      10.703  -7.739  14.890  1.00  0.00     0.031 C 
ATOM     61  C   UNL     1       8.682  -8.211  16.245  1.00  0.00     0.037 A 
BRANCH  48  62
ATOM     62  C   UNL     1       2.603  -9.215  15.851  1.00  0.00     0.057 A 
ATOM     63  C   UNL     1       1.943 -10.449  15.802  1.00  0.00     0.134 A 
ATOM     64  C   UNL     1       2.029  -8.204  16.632  1.00  0.00     0.134 A 
ATOM     65  F   UNL     1       2.434 -11.454  15.061  1.00  0.00    -0.206 F 
ATOM     66  C   UNL     1       0.745 -10.664  16.486  1.00  0.00     0.040 A 
ATOM     67  C   UNL     1       0.845  -8.414  17.341  1.00  0.00     0.040 A 
ATOM     68  F   UNL     1       2.614  -7.000  16.726  1.00  0.00    -0.206 F 
ATOM     69  C   UNL     1       0.197  -9.646  17.264  1.00  0.00     0.006 A 
ENDBRANCH  48  62
BRANCH  49  70
ATOM     70  C   UNL     1      10.965  -7.456  10.695  1.00  0.00     0.057 A 
ATOM     71  C   UNL     1      12.010  -8.384  10.627  1.00  0.00     0.134 A 
ATOM     72  C   UNL     1      11.143  -6.233  10.036  1.00  0.00     0.134 A 
ATOM     73  F   UNL     1      11.905  -9.564  11.255  1.00  0.00    -0.206 F 
ATOM     74  C   UNL     1      13.195  -8.101   9.945  1.00  0.00     0.040 A 
ATOM     75  C   UNL     1      12.313  -5.947   9.332  1.00  0.00     0.040 A 
ATOM     76  F   UNL     1      10.176  -5.304  10.060  1.00  0.00    -0.206 F 
ATOM     77  C   UNL     1      13.346  -6.880   9.291  1.00  0.00     0.006 A 
ENDBRANCH  49  70
BRANCH  61  78
ATOM     78  C   UNL     1       9.536  -8.103  17.473  1.00  0.00     0.057 A 
ATOM     79  C   UNL     1       9.995  -6.866  17.941  1.00  0.00     0.134 A 
ATOM     80  C   UNL     1       9.867  -9.242  18.217  1.00  0.00     0.134 A 
ATOM     81  F   UNL     1       9.726  -5.740  17.263  1.00  0.00    -0.206 F 
ATOM     82  C   UNL     1      10.767  -6.767  19.099  1.00  0.00     0.040 A 
ATOM     83  C   UNL     1      10.617  -9.154  19.390  1.00  0.00     0.040 A 
ATOM     84  F   UNL     1       9.452 -10.457  17.825  1.00  0.00    -0.206 F 
ATOM     85  C   UNL     1      11.073  -7.913  19.832  1.00  0.00     0.006 A 
ENDBRANCH  61  78
ENDBRANCH  35  36
ENDBRANCH  27  30
ENDBRANCH  25  26
ENDBRANCH  24  25
ENDBRANCH   1  24
TORSDOF 13
