REMARK SMILES O=C(NCCCCNC(=O)[C@H]1Cc2[nH]cnc2CN1C(=O)N1CCC[C@H](O)C1)c1ccc(-c2c3nc(c(-c4c(F)cccc4F)c4ccc([nH]4)c(-c4c(F)cccc4F)c4nc(c(-c5c(F)cccc5F)c5ccc2[nH]5)C=C4)C=C3)cc1
REMARK SMILES IDX 6 1 5 2 4 3 3 4 1 5 2 6 29 8 30 9 82 10 31 11 81 12 32 13
REMARK SMILES IDX 33 14 34 15 75 16 35 17 80 18 74 19 76 20 36 21 79 22 73 23
REMARK SMILES IDX 72 24 37 26 63 27 46 28 62 29 47 30 50 31 61 32 77 33 48 34
REMARK SMILES IDX 49 35 60 37 78 38 51 39 38 40 39 41 44 42 40 43 41 44 43 45
REMARK SMILES IDX 45 46 42 47 64 48 65 49 70 50 66 51 67 52 69 53 71 54 68 55
REMARK SMILES IDX 52 56 53 57 58 58 54 59 55 60 57 61 59 62 56 63 7 64 8 65
REMARK SMILES IDX 9 66 10 68 11 69 12 70 19 71 13 72 18 73 14 74 17 75 15 76
REMARK SMILES IDX 16 78 20 79 21 80 22 81 23 82 28 83 24 84 26 85 25 86 27 87
REMARK H PARENT 3 7 76 25 50 36 8 67 14 77 27 88
REMARK Flexibility Score: inf
ROOT
ATOM      1  C   UNL     1       3.405   3.590   2.439  1.00  0.00     0.023 C 
ENDROOT
BRANCH   1   2
ATOM      2  C   UNL     1       3.715   2.844   1.112  1.00  0.00     0.023 C 
BRANCH   2   3
ATOM      3  C   UNL     1       3.687   1.323   0.906  1.00  0.00     0.116 C 
BRANCH   3   4
ATOM      4  N   UNL     1       2.444   0.588   0.848  1.00  0.00    -0.352 N 
ATOM      5  O   UNL     1       1.107  -0.985  -0.082  1.00  0.00    -0.269 OA
ATOM      6  C   UNL     1       1.864  -0.025  -0.235  1.00  0.00     0.251 C 
ATOM      7  H   UNL     1       1.949   0.516   1.696  1.00  0.00     0.163 HD
BRANCH   6   8
ATOM      8  C   UNL     1       2.000   0.568  -1.572  1.00  0.00     0.039 A 
ATOM      9  C   UNL     1       3.223   0.764  -2.213  1.00  0.00     0.014 A 
ATOM     10  C   UNL     1       0.801   0.953  -2.181  1.00  0.00     0.014 A 
ATOM     11  C   UNL     1       3.255   1.498  -3.389  1.00  0.00     0.010 A 
ATOM     12  C   UNL     1       0.827   1.637  -3.383  1.00  0.00     0.010 A 
ATOM     13  C   UNL     1       2.057   1.952  -3.963  1.00  0.00    -0.014 A 
BRANCH  13  14
ATOM     14  C   UNL     1       2.120   2.526  -5.306  1.00  0.00     0.031 A 
ATOM     15  C   UNL     1       2.714   1.593  -6.312  1.00  0.00     0.074 A 
ATOM     16  C   UNL     1       1.541   3.691  -5.663  1.00  0.00     0.049 A 
ATOM     17  N   UNL     1       3.747   1.778  -7.067  1.00  0.00    -0.248 NA
ATOM     18  C   UNL     1       2.165   0.225  -6.378  1.00  0.00     0.031 C 
ATOM     19  C   UNL     1       0.672   4.549  -4.854  1.00  0.00     0.029 A 
ATOM     20  N   UNL     1       1.518   4.303  -6.881  1.00  0.00    -0.354 N 
ATOM     21  C   UNL     1       3.868   0.622  -7.838  1.00  0.00     0.074 A 
ATOM     22  C   UNL     1       2.978  -0.350  -7.263  1.00  0.00     0.031 C 
ATOM     23  C   UNL     1       0.029   5.423  -5.662  1.00  0.00     0.029 A 
ATOM     24  C   UNL     1       0.532   5.275  -7.018  1.00  0.00     0.049 A 
ATOM     25  H   UNL     1       2.148   4.077  -7.604  1.00  0.00     0.167 HD
ATOM     26  C   UNL     1       4.524   0.628  -9.031  1.00  0.00     0.037 A 
ATOM     27  C   UNL     1       0.119   5.861  -8.171  1.00  0.00     0.037 A 
ATOM     28  C   UNL     1       5.424   1.747  -9.121  1.00  0.00     0.049 A 
ATOM     29  C   UNL     1       1.161   5.622  -9.198  1.00  0.00     0.074 A 
ATOM     30  C   UNL     1       6.522   2.174  -8.400  1.00  0.00     0.029 A 
ATOM     31  N   UNL     1       5.032   2.824  -9.875  1.00  0.00    -0.354 N 
ATOM     32  N   UNL     1       2.339   6.177  -9.187  1.00  0.00    -0.248 NA
ATOM     33  C   UNL     1       1.042   4.421 -10.011  1.00  0.00     0.031 C 
ATOM     34  C   UNL     1       6.420   3.596  -8.384  1.00  0.00     0.029 A 
ATOM     35  C   UNL     1       5.309   3.951  -9.148  1.00  0.00     0.049 A 
ATOM     36  H   UNL     1       4.626   2.793 -10.771  1.00  0.00     0.167 HD
ATOM     37  C   UNL     1       3.199   5.174  -9.605  1.00  0.00     0.074 A 
ATOM     38  C   UNL     1       2.336   4.148 -10.187  1.00  0.00     0.031 C 
ATOM     39  C   UNL     1       4.496   5.142  -9.183  1.00  0.00     0.037 A 
BRANCH  26  40
ATOM     40  C   UNL     1       4.060  -0.135 -10.252  1.00  0.00     0.057 A 
ATOM     41  C   UNL     1       4.838  -0.086 -11.425  1.00  0.00     0.134 A 
ATOM     42  C   UNL     1       2.756  -0.642 -10.426  1.00  0.00     0.134 A 
ATOM     43  F   UNL     1       6.096   0.379 -11.399  1.00  0.00    -0.206 F 
ATOM     44  C   UNL     1       4.324  -0.421 -12.684  1.00  0.00     0.040 A 
ATOM     45  C   UNL     1       2.250  -1.027 -11.671  1.00  0.00     0.040 A 
ATOM     46  F   UNL     1       1.864  -0.702  -9.432  1.00  0.00    -0.206 F 
ATOM     47  C   UNL     1       3.021  -0.882 -12.812  1.00  0.00     0.006 A 
ENDBRANCH  26  40
BRANCH  27  48
ATOM     48  C   UNL     1      -1.226   6.361  -8.548  1.00  0.00     0.057 A 
ATOM     49  C   UNL     1      -1.405   7.199  -9.661  1.00  0.00     0.134 A 
ATOM     50  C   UNL     1      -2.397   5.802  -8.007  1.00  0.00     0.134 A 
ATOM     51  F   UNL     1      -0.348   7.750 -10.275  1.00  0.00    -0.206 F 
ATOM     52  C   UNL     1      -2.667   7.440 -10.221  1.00  0.00     0.040 A 
ATOM     53  C   UNL     1      -3.663   6.041  -8.552  1.00  0.00     0.040 A 
ATOM     54  F   UNL     1      -2.342   4.930  -6.990  1.00  0.00    -0.206 F 
ATOM     55  C   UNL     1      -3.801   6.850  -9.673  1.00  0.00     0.006 A 
ENDBRANCH  27  48
BRANCH  39  56
ATOM     56  C   UNL     1       5.043   6.356  -8.487  1.00  0.00     0.057 A 
ATOM     57  C   UNL     1       4.554   6.862  -7.273  1.00  0.00     0.134 A 
ATOM     58  C   UNL     1       6.207   6.944  -8.995  1.00  0.00     0.134 A 
ATOM     59  F   UNL     1       3.506   6.303  -6.656  1.00  0.00    -0.206 F 
ATOM     60  C   UNL     1       5.173   7.933  -6.620  1.00  0.00     0.040 A 
ATOM     61  C   UNL     1       6.856   7.987  -8.334  1.00  0.00     0.040 A 
ATOM     62  F   UNL     1       6.763   6.476 -10.124  1.00  0.00    -0.206 F 
ATOM     63  C   UNL     1       6.333   8.493  -7.147  1.00  0.00     0.006 A 
ENDBRANCH  39  56
ENDBRANCH  13  14
ENDBRANCH   6   8
ENDBRANCH   3   4
ENDBRANCH   2   3
ENDBRANCH   1   2
BRANCH   1  64
ATOM     64  C   UNL     1       4.224   3.523   3.761  1.00  0.00     0.116 C 
BRANCH  64  65
ATOM     65  N   UNL     1       5.662   3.743   3.667  1.00  0.00    -0.354 N 
ATOM     66  C   UNL     1       6.688   3.554   4.559  1.00  0.00     0.243 C 
ATOM     67  H   UNL     1       5.953   4.096   2.795  1.00  0.00     0.163 HD
ATOM     68  O   UNL     1       7.828   3.896   4.211  1.00  0.00    -0.273 OA
BRANCH  66  69
ATOM     69  C   UNL     1       6.474   3.158   6.029  1.00  0.00     0.182 C 
ATOM     70  C   UNL     1       6.418   4.539   6.749  1.00  0.00     0.091 C 
ATOM     71  N   UNL     1       5.407   2.148   6.261  1.00  0.00    -0.306 N 
ATOM     72  C   UNL     1       5.272   4.646   7.649  1.00  0.00     0.042 A 
ATOM     73  C   UNL     1       4.475   2.261   7.414  1.00  0.00     0.180 C 
ATOM     74  N   UNL     1       4.855   5.756   8.318  1.00  0.00    -0.348 N 
ATOM     75  C   UNL     1       4.386   3.649   7.944  1.00  0.00     0.081 A 
ATOM     76  C   UNL     1       3.732   5.391   9.010  1.00  0.00     0.197 A 
ATOM     77  H   UNL     1       5.277   6.646   8.307  1.00  0.00     0.167 HD
ATOM     78  N   UNL     1       3.427   4.124   8.807  1.00  0.00    -0.240 NA
BRANCH  71  79
ATOM     79  C   UNL     1       5.478   0.885   5.649  1.00  0.00     0.321 C 
ATOM     80  O   UNL     1       4.704  -0.031   5.917  1.00  0.00    -0.248 OA
BRANCH  79  81
ATOM     81  N   UNL     1       6.401   0.774   4.603  1.00  0.00    -0.322 N 
ATOM     82  C   UNL     1       7.570  -0.062   4.768  1.00  0.00     0.121 C 
ATOM     83  C   UNL     1       5.835   0.613   3.280  1.00  0.00     0.153 C 
ATOM     84  C   UNL     1       8.635   0.292   3.724  1.00  0.00     0.024 C 
ATOM     85  C   UNL     1       6.778   0.962   2.104  1.00  0.00     0.134 C 
ATOM     86  C   UNL     1       8.129   0.289   2.275  1.00  0.00     0.035 C 
BRANCH  85  87
ATOM     87  O   UNL     1       6.933   2.365   1.915  1.00  0.00    -0.391 OA
ATOM     88  H   UNL     1       7.354   2.753   2.698  1.00  0.00     0.211 HD
ENDBRANCH  85  87
ENDBRANCH  79  81
ENDBRANCH  71  79
ENDBRANCH  66  69
ENDBRANCH  64  65
ENDBRANCH   1  64
TORSDOF 14
