REMARK SMILES CC(C)C[C@H](NC(=O)CNC(=O)[C@@H](NC(=O)OCc1ccccc1)C(C)C)C(=O)NCCCCNC(=O)c1ccc(-c2c3nc(c(-c4c(F)cccc4F)c4ccc([nH]4)c(-c4c(F)cccc4F)c4nc(c(-c5c(F)cccc5F)c5ccc2[nH]5)C=C4)C=C3)cc1
REMARK SMILES IDX 28 1 29 2 30 3 5 5 4 6 2 7 1 8 3 9 6 10 7 11 8 13 9 14 10 15
REMARK SMILES IDX 11 16 12 18 13 19 14 20 15 21 16 23 17 24 18 25 19 26 20 27
REMARK SMILES IDX 24 28 21 29 23 30 22 31 25 32 26 33 27 34 31 35 32 36 33 37
REMARK SMILES IDX 34 38 35 39 36 40 37 42 38 43 39 44 91 45 40 46 90 47 41 48
REMARK SMILES IDX 42 49 43 50 84 51 44 52 89 53 83 54 85 55 45 56 88 57 82 58
REMARK SMILES IDX 81 59 46 61 72 62 55 63 71 64 56 65 59 66 70 67 86 68 57 69
REMARK SMILES IDX 58 70 69 72 87 73 60 74 47 75 48 76 53 77 49 78 50 79 52 80
REMARK SMILES IDX 54 81 51 82 73 83 74 84 79 85 75 86 76 87 78 88 80 89 77 90
REMARK SMILES IDX 61 91 62 92 67 93 63 94 64 95 66 96 68 97 65 98
REMARK H PARENT 30 4 6 12 10 17 14 22 35 41 85 60 59 71
REMARK Flexibility Score: inf
ROOT
ATOM      1  C   UNL     1      -2.857  -0.594  -1.830  1.00  0.00     0.242 C 
ATOM      2  O   UNL     1      -3.530   0.433  -1.714  1.00  0.00    -0.273 OA
ATOM      3  N   UNL     1      -3.514  -1.776  -1.979  1.00  0.00    -0.354 N 
ATOM      4  H   UNL     1      -4.485  -1.740  -1.817  1.00  0.00     0.163 HD
ENDROOT
BRANCH   1   5
ATOM      5  C   UNL     1      -1.327  -0.528  -1.969  1.00  0.00     0.171 C 
BRANCH   5   6
ATOM      6  C   UNL     1      -0.877  -0.670  -3.433  1.00  0.00     0.038 C 
BRANCH   6   7
ATOM      7  C   UNL     1      -1.617   0.236  -4.454  1.00  0.00    -0.015 C 
ATOM      8  C   UNL     1      -1.627   1.729  -4.123  1.00  0.00     0.007 C 
ATOM      9  C   UNL     1      -0.994   0.050  -5.840  1.00  0.00     0.007 C 
ENDBRANCH   6   7
ENDBRANCH   5   6
BRANCH   5  10
ATOM     10  N   UNL     1      -0.674  -1.449  -1.033  1.00  0.00    -0.343 N 
ATOM     11  C   UNL     1       0.372  -1.282  -0.182  1.00  0.00     0.240 C 
ATOM     12  H   UNL     1      -1.065  -2.352  -1.018  1.00  0.00     0.164 HD
ATOM     13  O   UNL     1       0.526  -2.160   0.675  1.00  0.00    -0.273 OA
BRANCH  11  14
ATOM     14  C   UNL     1       1.252  -0.026  -0.151  1.00  0.00     0.216 C 
BRANCH  14  15
ATOM     15  N   UNL     1       1.498   0.621  -1.419  1.00  0.00    -0.345 N 
ATOM     16  C   UNL     1       1.144   1.823  -1.927  1.00  0.00     0.243 C 
ATOM     17  H   UNL     1       2.033   0.075  -2.040  1.00  0.00     0.164 HD
ATOM     18  O   UNL     1       1.608   2.070  -3.049  1.00  0.00    -0.273 OA
BRANCH  16  19
ATOM     19  C   UNL     1       0.328   2.918  -1.173  1.00  0.00     0.177 C 
BRANCH  19  20
ATOM     20  N   UNL     1      -0.882   2.417  -0.505  1.00  0.00    -0.309 N 
ATOM     21  C   UNL     1      -1.148   2.028   0.765  1.00  0.00     0.408 C 
ATOM     22  H   UNL     1      -1.660   2.351  -1.105  1.00  0.00     0.167 HD
ATOM     23  O   UNL     1      -2.092   1.287   1.007  1.00  0.00    -0.225 OA
BRANCH  21  24
ATOM     24  O   UNL     1      -0.357   2.607   1.689  1.00  0.00    -0.445 OA
BRANCH  24  25
ATOM     25  C   UNL     1      -0.848   2.513   3.033  1.00  0.00     0.270 C 
BRANCH  25  26
ATOM     26  C   UNL     1      -1.979   3.474   3.360  1.00  0.00    -0.011 A 
ATOM     27  C   UNL     1      -2.743   4.138   2.385  1.00  0.00     0.007 A 
ATOM     28  C   UNL     1      -2.326   3.665   4.705  1.00  0.00     0.007 A 
ATOM     29  C   UNL     1      -3.815   4.959   2.736  1.00  0.00     0.000 A 
ATOM     30  C   UNL     1      -3.395   4.493   5.059  1.00  0.00     0.000 A 
ATOM     31  C   UNL     1      -4.141   5.137   4.074  1.00  0.00     0.000 A 
ENDBRANCH  25  26
ENDBRANCH  24  25
ENDBRANCH  21  24
ENDBRANCH  19  20
BRANCH  19  32
ATOM     32  C   UNL     1       1.236   3.871  -0.368  1.00  0.00     0.015 C 
ATOM     33  C   UNL     1       2.432   4.356  -1.202  1.00  0.00     0.010 C 
ATOM     34  C   UNL     1       0.461   5.114   0.088  1.00  0.00     0.010 C 
ENDBRANCH  19  32
ENDBRANCH  16  19
ENDBRANCH  14  15
ENDBRANCH  11  14
ENDBRANCH   5  10
ENDBRANCH   1   5
BRANCH   3  35
ATOM     35  C   UNL     1      -2.998  -3.079  -2.340  1.00  0.00     0.116 C 
BRANCH  35  36
ATOM     36  C   UNL     1      -3.412  -4.134  -1.323  1.00  0.00     0.023 C 
BRANCH  36  37
ATOM     37  C   UNL     1      -4.910  -4.427  -1.319  1.00  0.00     0.023 C 
BRANCH  37  38
ATOM     38  C   UNL     1      -5.501  -4.699  -2.696  1.00  0.00     0.116 C 
BRANCH  38  39
ATOM     39  N   UNL     1      -4.797  -5.757  -3.410  1.00  0.00    -0.352 N 
ATOM     40  C   UNL     1      -5.321  -6.838  -4.072  1.00  0.00     0.251 C 
ATOM     41  H   UNL     1      -3.815  -5.686  -3.418  1.00  0.00     0.163 HD
ATOM     42  O   UNL     1      -4.593  -7.725  -4.500  1.00  0.00    -0.269 OA
BRANCH  40  43
ATOM     43  C   UNL     1      -6.783  -6.927  -4.228  1.00  0.00     0.039 A 
ATOM     44  C   UNL     1      -7.433  -8.099  -3.840  1.00  0.00     0.014 A 
ATOM     45  C   UNL     1      -7.507  -5.824  -4.689  1.00  0.00     0.014 A 
ATOM     46  C   UNL     1      -8.826  -8.141  -3.853  1.00  0.00     0.010 A 
ATOM     47  C   UNL     1      -8.893  -5.839  -4.617  1.00  0.00     0.010 A 
ATOM     48  C   UNL     1      -9.566  -6.998  -4.203  1.00  0.00    -0.014 A 
BRANCH  48  49
ATOM     49  C   UNL     1     -11.047  -6.998  -4.145  1.00  0.00     0.031 A 
ATOM     50  C   UNL     1     -11.847  -6.789  -5.400  1.00  0.00     0.074 A 
ATOM     51  C   UNL     1     -11.668  -7.125  -2.956  1.00  0.00     0.049 A 
ATOM     52  N   UNL     1     -13.143  -6.694  -5.547  1.00  0.00    -0.248 NA
ATOM     53  C   UNL     1     -11.087  -6.637  -6.652  1.00  0.00     0.031 C 
ATOM     54  C   UNL     1     -11.000  -7.281  -1.662  1.00  0.00     0.029 A 
ATOM     55  N   UNL     1     -13.004  -7.133  -2.642  1.00  0.00    -0.354 N 
ATOM     56  C   UNL     1     -13.352  -6.463  -6.901  1.00  0.00     0.074 A 
ATOM     57  C   UNL     1     -12.049  -6.367  -7.521  1.00  0.00     0.031 C 
ATOM     58  C   UNL     1     -11.929  -7.396  -0.699  1.00  0.00     0.029 A 
ATOM     59  C   UNL     1     -13.254  -7.279  -1.299  1.00  0.00     0.049 A 
ATOM     60  H   UNL     1     -13.716  -7.042  -3.316  1.00  0.00     0.167 HD
ATOM     61  C   UNL     1     -14.524  -6.368  -7.571  1.00  0.00     0.037 A 
ATOM     62  C   UNL     1     -14.420  -7.306  -0.627  1.00  0.00     0.037 A 
ATOM     63  C   UNL     1     -15.818  -6.482  -6.952  1.00  0.00     0.049 A 
ATOM     64  C   UNL     1     -15.708  -7.181  -1.393  1.00  0.00     0.074 A 
ATOM     65  C   UNL     1     -17.064  -6.452  -7.550  1.00  0.00     0.029 A 
ATOM     66  N   UNL     1     -16.030  -6.643  -5.591  1.00  0.00    -0.354 N 
ATOM     67  N   UNL     1     -15.893  -7.034  -2.683  1.00  0.00    -0.248 NA
ATOM     68  C   UNL     1     -16.951  -7.232  -0.611  1.00  0.00     0.031 C 
ATOM     69  C   UNL     1     -18.033  -6.543  -6.546  1.00  0.00     0.029 A 
ATOM     70  C   UNL     1     -17.389  -6.691  -5.328  1.00  0.00     0.049 A 
ATOM     71  H   UNL     1     -15.320  -6.714  -4.912  1.00  0.00     0.167 HD
ATOM     72  C   UNL     1     -17.269  -7.006  -2.871  1.00  0.00     0.074 A 
ATOM     73  C   UNL     1     -17.871  -7.168  -1.563  1.00  0.00     0.031 C 
ATOM     74  C   UNL     1     -17.971  -6.861  -4.021  1.00  0.00     0.037 A 
BRANCH  61  75
ATOM     75  C   UNL     1     -14.457  -6.133  -9.053  1.00  0.00     0.057 A 
ATOM     76  C   UNL     1     -13.990  -7.116  -9.936  1.00  0.00     0.134 A 
ATOM     77  C   UNL     1     -14.896  -4.925  -9.607  1.00  0.00     0.134 A 
ATOM     78  F   UNL     1     -13.541  -8.292  -9.470  1.00  0.00    -0.206 F 
ATOM     79  C   UNL     1     -13.936  -6.895 -11.313  1.00  0.00     0.040 A 
ATOM     80  C   UNL     1     -14.877  -4.704 -10.985  1.00  0.00     0.040 A 
ATOM     81  F   UNL     1     -15.361  -3.942  -8.820  1.00  0.00    -0.206 F 
ATOM     82  C   UNL     1     -14.389  -5.688 -11.842  1.00  0.00     0.006 A 
ENDBRANCH  61  75
BRANCH  62  83
ATOM     83  C   UNL     1     -14.428  -7.472   0.849  1.00  0.00     0.057 A 
ATOM     84  C   UNL     1     -14.921  -8.640   1.443  1.00  0.00     0.134 A 
ATOM     85  C   UNL     1     -13.960  -6.465   1.702  1.00  0.00     0.134 A 
ATOM     86  F   UNL     1     -15.399  -9.635   0.681  1.00  0.00    -0.206 F 
ATOM     87  C   UNL     1     -14.973  -8.790   2.830  1.00  0.00     0.040 A 
ATOM     88  C   UNL     1     -13.979  -6.613   3.089  1.00  0.00     0.040 A 
ATOM     89  F   UNL     1     -13.466  -5.325   1.196  1.00  0.00    -0.206 F 
ATOM     90  C   UNL     1     -14.497  -7.776   3.657  1.00  0.00     0.006 A 
ENDBRANCH  62  83
BRANCH  74  91
ATOM     91  C   UNL     1     -19.469  -6.910  -3.924  1.00  0.00     0.057 A 
ATOM     92  C   UNL     1     -20.210  -5.873  -3.343  1.00  0.00     0.134 A 
ATOM     93  C   UNL     1     -20.180  -7.994  -4.456  1.00  0.00     0.134 A 
ATOM     94  F   UNL     1     -19.591  -4.813  -2.804  1.00  0.00    -0.206 F 
ATOM     95  C   UNL     1     -21.604  -5.925  -3.273  1.00  0.00     0.040 A 
ATOM     96  C   UNL     1     -21.573  -8.042  -4.420  1.00  0.00     0.040 A 
ATOM     97  F   UNL     1     -19.532  -9.016  -5.036  1.00  0.00    -0.206 F 
ATOM     98  C   UNL     1     -22.289  -7.008  -3.820  1.00  0.00     0.006 A 
ENDBRANCH  74  91
ENDBRANCH  48  49
ENDBRANCH  40  43
ENDBRANCH  38  39
ENDBRANCH  37  38
ENDBRANCH  36  37
ENDBRANCH  35  36
ENDBRANCH   3  35
TORSDOF 22
