REMARK SMILES CN(CCCC(=O)NCCCCNC(=O)c1ccc(-c2c3nc(c(-c4c(F)cccc4F)c4ccc([nH]4)c(-c4c(F)cccc4F)c4nc(c(-c5c(F)cccc5F)c5ccc2[nH]5)C=C4)C=C3)cc1)C(=O)c1c[nH]nc1-c1ccccc1
REMARK SMILES IDX 6 1 7 2 8 3 5 5 4 6 3 7 2 8 1 9 70 10 71 11 72 12 73 13
REMARK SMILES IDX 76 14 74 15 75 16 77 18 78 19 82 20 79 21 81 22 80 23 9 24
REMARK SMILES IDX 10 25 11 26 12 27 13 28 14 29 15 31 16 32 17 33 69 34 18 35
REMARK SMILES IDX 68 36 19 37 20 38 21 39 62 40 22 41 67 42 61 43 63 44 23 45
REMARK SMILES IDX 66 46 60 47 59 48 24 50 50 51 33 52 49 53 34 54 37 55 48 56
REMARK SMILES IDX 64 57 35 58 36 59 47 61 65 62 38 63 25 64 26 65 31 66 27 67
REMARK SMILES IDX 28 68 30 69 32 70 29 71 51 72 52 73 57 74 53 75 54 76 56 77
REMARK SMILES IDX 58 78 55 79 39 80 40 81 45 82 41 83 42 84 44 85 46 86 43 87
REMARK H PARENT 8 4 74 17 13 30 63 49 37 60
REMARK Flexibility Score: inf
ROOT
ATOM      1  C   UNL     1      -1.504  -4.880   0.996  1.00  0.00     0.220 C 
ATOM      2  O   UNL     1      -2.296  -5.663   1.525  1.00  0.00    -0.275 OA
ATOM      3  N   UNL     1      -0.181  -5.085   1.218  1.00  0.00    -0.356 N 
ATOM      4  H   UNL     1       0.037  -5.932   1.671  1.00  0.00     0.163 HD
ENDROOT
BRANCH   1   5
ATOM      5  C   UNL     1      -1.993  -3.852  -0.007  1.00  0.00     0.102 C 
BRANCH   5   6
ATOM      6  C   UNL     1      -1.986  -2.343   0.220  1.00  0.00     0.031 C 
BRANCH   6   7
ATOM      7  C   UNL     1      -0.727  -1.476   0.308  1.00  0.00     0.120 C 
BRANCH   7   8
ATOM      8  N   UNL     1       0.104  -0.959  -0.809  1.00  0.00    -0.342 N 
ATOM      9  C   UNL     1       0.771   0.309  -0.489  1.00  0.00     0.147 C 
BRANCH   8  10
ATOM     10  C   UNL     1       0.698  -1.564  -1.943  1.00  0.00     0.257 C 
ATOM     11  O   UNL     1       1.622  -0.995  -2.529  1.00  0.00    -0.269 OA
BRANCH  10  12
ATOM     12  C   UNL     1       0.265  -2.840  -2.464  1.00  0.00     0.085 A 
ATOM     13  C   UNL     1      -0.997  -3.128  -2.950  1.00  0.00     0.119 A 
ATOM     14  C   UNL     1       1.066  -3.961  -2.890  1.00  0.00     0.105 A 
ATOM     15  N   UNL     1      -0.946  -4.405  -3.416  1.00  0.00    -0.284 N 
ATOM     16  N   UNL     1       0.273  -4.944  -3.359  1.00  0.00    -0.175 NA
ATOM     17  H   UNL     1      -1.732  -4.886  -3.762  1.00  0.00     0.189 HD
BRANCH  14  18
ATOM     18  C   UNL     1       2.526  -4.154  -2.928  1.00  0.00     0.003 A 
ATOM     19  C   UNL     1       3.080  -4.864  -4.011  1.00  0.00     0.010 A 
ATOM     20  C   UNL     1       3.398  -3.661  -1.950  1.00  0.00     0.010 A 
ATOM     21  C   UNL     1       4.456  -5.073  -4.121  1.00  0.00     0.001 A 
ATOM     22  C   UNL     1       4.781  -3.880  -2.053  1.00  0.00     0.001 A 
ATOM     23  C   UNL     1       5.308  -4.583  -3.137  1.00  0.00     0.000 A 
ENDBRANCH  14  18
ENDBRANCH  10  12
ENDBRANCH   8  10
ENDBRANCH   7   8
ENDBRANCH   6   7
ENDBRANCH   5   6
ENDBRANCH   1   5
BRANCH   3  24
ATOM     24  C   UNL     1       0.952  -4.258   0.893  1.00  0.00     0.116 C 
BRANCH  24  25
ATOM     25  C   UNL     1       1.403  -3.496   2.142  1.00  0.00     0.023 C 
BRANCH  25  26
ATOM     26  C   UNL     1       2.399  -4.274   2.991  1.00  0.00     0.023 C 
BRANCH  26  27
ATOM     27  C   UNL     1       3.766  -4.410   2.336  1.00  0.00     0.116 C 
BRANCH  27  28
ATOM     28  N   UNL     1       4.435  -3.131   2.135  1.00  0.00    -0.352 N 
ATOM     29  C   UNL     1       5.769  -2.836   2.307  1.00  0.00     0.251 C 
ATOM     30  H   UNL     1       3.863  -2.386   1.839  1.00  0.00     0.163 HD
ATOM     31  O   UNL     1       6.182  -1.694   2.203  1.00  0.00    -0.269 OA
BRANCH  29  32
ATOM     32  C   UNL     1       6.680  -3.939   2.671  1.00  0.00     0.039 A 
ATOM     33  C   UNL     1       7.447  -3.818   3.830  1.00  0.00     0.014 A 
ATOM     34  C   UNL     1       6.681  -5.122   1.928  1.00  0.00     0.014 A 
ATOM     35  C   UNL     1       8.158  -4.924   4.292  1.00  0.00     0.010 A 
ATOM     36  C   UNL     1       7.325  -6.244   2.434  1.00  0.00     0.010 A 
ATOM     37  C   UNL     1       8.064  -6.157   3.623  1.00  0.00    -0.014 A 
BRANCH  37  38
ATOM     38  C   UNL     1       8.712  -7.372   4.175  1.00  0.00     0.031 A 
ATOM     39  C   UNL     1       9.812  -8.053   3.414  1.00  0.00     0.074 A 
ATOM     40  C   UNL     1       8.265  -7.892   5.334  1.00  0.00     0.049 A 
ATOM     41  N   UNL     1      10.486  -9.130   3.726  1.00  0.00    -0.248 NA
ATOM     42  C   UNL     1      10.185  -7.465   2.118  1.00  0.00     0.031 C 
ATOM     43  C   UNL     1       7.154  -7.363   6.130  1.00  0.00     0.029 A 
ATOM     44  N   UNL     1       8.688  -8.987   6.044  1.00  0.00    -0.354 N 
ATOM     45  C   UNL     1      11.354  -9.351   2.666  1.00  0.00     0.074 A 
ATOM     46  C   UNL     1      11.080  -8.335   1.674  1.00  0.00     0.031 C 
ATOM     47  C   UNL     1       7.006  -8.114   7.233  1.00  0.00     0.029 A 
ATOM     48  C   UNL     1       7.989  -9.192   7.209  1.00  0.00     0.049 A 
ATOM     49  H   UNL     1       9.422  -9.571   5.747  1.00  0.00     0.167 HD
ATOM     50  C   UNL     1      12.313 -10.299   2.542  1.00  0.00     0.037 A 
ATOM     51  C   UNL     1       8.129 -10.141   8.154  1.00  0.00     0.037 A 
ATOM     52  C   UNL     1      12.597 -11.297   3.539  1.00  0.00     0.049 A 
ATOM     53  C   UNL     1       9.210 -11.174   7.998  1.00  0.00     0.074 A 
ATOM     54  C   UNL     1      13.591 -12.259   3.538  1.00  0.00     0.029 A 
ATOM     55  N   UNL     1      11.880 -11.462   4.715  1.00  0.00    -0.354 N 
ATOM     56  N   UNL     1      10.082 -11.319   7.030  1.00  0.00    -0.248 NA
ATOM     57  C   UNL     1       9.331 -12.169   9.072  1.00  0.00     0.031 C 
ATOM     58  C   UNL     1      13.450 -13.034   4.694  1.00  0.00     0.029 A 
ATOM     59  C   UNL     1      12.397 -12.525   5.437  1.00  0.00     0.049 A 
ATOM     60  H   UNL     1      11.117 -10.906   4.995  1.00  0.00     0.167 HD
ATOM     61  C   UNL     1      10.868 -12.406   7.387  1.00  0.00     0.074 A 
ATOM     62  C   UNL     1      10.383 -12.869   8.671  1.00  0.00     0.031 C 
ATOM     63  C   UNL     1      11.898 -12.974   6.712  1.00  0.00     0.037 A 
BRANCH  50  64
ATOM     64  C   UNL     1      13.130 -10.290   1.283  1.00  0.00     0.057 A 
ATOM     65  C   UNL     1      14.063  -9.278   1.017  1.00  0.00     0.134 A 
ATOM     66  C   UNL     1      13.002 -11.314   0.337  1.00  0.00     0.134 A 
ATOM     67  F   UNL     1      14.224  -8.260   1.876  1.00  0.00    -0.206 F 
ATOM     68  C   UNL     1      14.819  -9.271  -0.156  1.00  0.00     0.040 A 
ATOM     69  C   UNL     1      13.772 -11.332  -0.827  1.00  0.00     0.040 A 
ATOM     70  F   UNL     1      12.130 -12.316   0.530  1.00  0.00    -0.206 F 
ATOM     71  C   UNL     1      14.679 -10.305  -1.079  1.00  0.00     0.006 A 
ENDBRANCH  50  64
BRANCH  51  72
ATOM     72  C   UNL     1       7.248 -10.139   9.348  1.00  0.00     0.057 A 
ATOM     73  C   UNL     1       7.749  -9.806  10.613  1.00  0.00     0.134 A 
ATOM     74  C   UNL     1       5.893 -10.477   9.260  1.00  0.00     0.134 A 
ATOM     75  F   UNL     1       9.044  -9.490  10.763  1.00  0.00    -0.206 F 
ATOM     76  C   UNL     1       6.941  -9.831  11.750  1.00  0.00     0.040 A 
ATOM     77  C   UNL     1       5.067 -10.482  10.385  1.00  0.00     0.040 A 
ATOM     78  F   UNL     1       5.351 -10.797   8.076  1.00  0.00    -0.206 F 
ATOM     79  C   UNL     1       5.593 -10.166  11.636  1.00  0.00     0.006 A 
ENDBRANCH  51  72
BRANCH  63  80
ATOM     80  C   UNL     1      12.575 -14.145   7.363  1.00  0.00     0.057 A 
ATOM     81  C   UNL     1      11.953 -15.396   7.460  1.00  0.00     0.134 A 
ATOM     82  C   UNL     1      13.870 -14.023   7.882  1.00  0.00     0.134 A 
ATOM     83  F   UNL     1      10.707 -15.575   6.994  1.00  0.00    -0.206 F 
ATOM     84  C   UNL     1      12.584 -16.477   8.076  1.00  0.00     0.040 A 
ATOM     85  C   UNL     1      14.521 -15.104   8.476  1.00  0.00     0.040 A 
ATOM     86  F   UNL     1      14.524 -12.854   7.814  1.00  0.00    -0.206 F 
ATOM     87  C   UNL     1      13.875 -16.333   8.582  1.00  0.00     0.006 A 
ENDBRANCH  63  80
ENDBRANCH  37  38
ENDBRANCH  29  32
ENDBRANCH  27  28
ENDBRANCH  26  27
ENDBRANCH  25  26
ENDBRANCH  24  25
ENDBRANCH   3  24
TORSDOF 17
