REMARK SMILES C#CCC1(C(=O)NCCCCNC(=O)c2ccc(-c3c4nc(c(-c5c(F)cccc5F)c5ccc([nH]5)c(-c5c(F)cccc5F)c5nc(c(-c6c(F)cccc6F)c6ccc3[nH]6)C=C5)C=C4)cc2)CC[NH2+]CC1
REMARK SMILES IDX 9 1 8 2 7 3 5 4 6 5 4 7 69 8 73 9 70 10 72 11 71 12 3 15
REMARK SMILES IDX 2 16 1 17 10 18 11 19 12 20 13 21 14 23 15 24 16 25 68 26
REMARK SMILES IDX 17 27 67 28 18 29 19 30 20 31 61 32 21 33 66 34 60 35 62 36
REMARK SMILES IDX 22 37 65 38 59 39 58 40 23 42 49 43 32 44 48 45 33 46 36 47
REMARK SMILES IDX 47 48 63 49 34 50 35 51 46 53 64 54 37 55 24 56 25 57 30 58
REMARK SMILES IDX 26 59 27 60 29 61 31 62 28 63 50 64 51 65 56 66 52 67 53 68
REMARK SMILES IDX 55 69 57 70 54 71 38 72 39 73 44 74 40 75 41 76 43 77 45 78
REMARK SMILES IDX 42 79
REMARK H PARENT 7 6 71 13 71 14 12 22 62 41 36 52
REMARK Flexibility Score: inf
ROOT
ATOM      1  C   UNL     1      -2.551  -1.819   5.239  1.00  0.00     0.023 C 
ENDROOT
BRANCH   1   2
ATOM      2  C   UNL     1      -3.026  -0.582   4.482  1.00  0.00     0.116 C 
BRANCH   2   3
ATOM      3  N   UNL     1      -1.924   0.135   3.867  1.00  0.00    -0.356 N 
ATOM      4  C   UNL     1      -1.640   0.421   2.567  1.00  0.00     0.227 C 
ATOM      5  O   UNL     1      -0.779   1.292   2.411  1.00  0.00    -0.274 OA
ATOM      6  H   UNL     1      -1.260   0.477   4.508  1.00  0.00     0.163 HD
BRANCH   4   7
ATOM      7  C   UNL     1      -2.437  -0.188   1.387  1.00  0.00     0.071 C 
ATOM      8  C   UNL     1      -2.610  -1.725   1.486  1.00  0.00     0.079 C 
ATOM      9  C   UNL     1      -3.798   0.571   1.403  1.00  0.00     0.079 C 
ATOM     10  C   UNL     1      -3.820  -2.255   0.712  1.00  0.00     0.261 C 
ATOM     11  C   UNL     1      -4.886  -0.106   0.589  1.00  0.00     0.261 C 
ATOM     12  N   UNL     1      -5.030  -1.494   1.012  1.00  0.00    -0.346 N 
ATOM     13  H   UNL     1      -5.203  -1.522   2.016  1.00  0.00     0.346 HD
ATOM     14  H   UNL     1      -5.812  -1.911   0.506  1.00  0.00     0.346 HD
BRANCH   7  15
ATOM     15  C   UNL     1      -1.762   0.078   0.011  1.00  0.00     0.106 C 
BRANCH  15  16
ATOM     16  C   UNL     1      -0.242   0.078   0.011  1.00  0.00    -0.106 C 
ATOM     17  C   UNL     1       1.061   0.078   0.011  1.00  0.00     0.004 C 
ENDBRANCH  15  16
ENDBRANCH   7  15
ENDBRANCH   4   7
ENDBRANCH   2   3
ENDBRANCH   1   2
BRANCH   1  18
ATOM     18  C   UNL     1      -1.635  -1.524   6.425  1.00  0.00     0.023 C 
BRANCH  18  19
ATOM     19  C   UNL     1      -2.164  -0.480   7.399  1.00  0.00     0.116 C 
BRANCH  19  20
ATOM     20  N   UNL     1      -3.489  -0.801   7.908  1.00  0.00    -0.352 N 
ATOM     21  C   UNL     1      -3.948  -0.771   9.200  1.00  0.00     0.251 C 
ATOM     22  H   UNL     1      -4.148  -1.078   7.230  1.00  0.00     0.163 HD
ATOM     23  O   UNL     1      -5.061  -1.207   9.475  1.00  0.00    -0.269 OA
BRANCH  21  24
ATOM     24  C   UNL     1      -3.075  -0.240  10.264  1.00  0.00     0.039 A 
ATOM     25  C   UNL     1      -2.935  -0.969  11.447  1.00  0.00     0.014 A 
ATOM     26  C   UNL     1      -2.376   0.956  10.082  1.00  0.00     0.014 A 
ATOM     27  C   UNL     1      -2.047  -0.524  12.426  1.00  0.00     0.010 A 
ATOM     28  C   UNL     1      -1.427   1.349  11.018  1.00  0.00     0.010 A 
ATOM     29  C   UNL     1      -1.261   0.620  12.205  1.00  0.00    -0.014 A 
BRANCH  29  30
ATOM     30  C   UNL     1      -0.275   1.077  13.214  1.00  0.00     0.031 A 
ATOM     31  C   UNL     1      -0.443   2.416  13.877  1.00  0.00     0.074 A 
ATOM     32  C   UNL     1       0.798   0.312  13.495  1.00  0.00     0.049 A 
ATOM     33  N   UNL     1       0.331   3.010  14.749  1.00  0.00    -0.248 NA
ATOM     34  C   UNL     1      -1.622   3.206  13.486  1.00  0.00     0.031 C 
ATOM     35  C   UNL     1       1.100  -0.983  12.880  1.00  0.00     0.029 A 
ATOM     36  N   UNL     1       1.836   0.515  14.368  1.00  0.00    -0.354 N 
ATOM     37  C   UNL     1      -0.260   4.242  15.000  1.00  0.00     0.074 A 
ATOM     38  C   UNL     1      -1.420   4.338  14.142  1.00  0.00     0.031 C 
ATOM     39  C   UNL     1       2.230  -1.470  13.417  1.00  0.00     0.029 A 
ATOM     40  C   UNL     1       2.751  -0.509  14.383  1.00  0.00     0.049 A 
ATOM     41  H   UNL     1       1.918   1.319  14.930  1.00  0.00     0.167 HD
ATOM     42  C   UNL     1       0.113   5.196  15.886  1.00  0.00     0.037 A 
ATOM     43  C   UNL     1       3.884  -0.655  15.096  1.00  0.00     0.037 A 
ATOM     44  C   UNL     1       1.256   5.087  16.753  1.00  0.00     0.049 A 
ATOM     45  C   UNL     1       4.280   0.421  16.070  1.00  0.00     0.074 A 
ATOM     46  C   UNL     1       1.690   5.974  17.722  1.00  0.00     0.029 A 
ATOM     47  N   UNL     1       2.150   4.026  16.751  1.00  0.00    -0.354 N 
ATOM     48  N   UNL     1       3.673   1.549  16.349  1.00  0.00    -0.248 NA
ATOM     49  C   UNL     1       5.513   0.198  16.836  1.00  0.00     0.031 C 
ATOM     50  C   UNL     1       2.873   5.472  18.275  1.00  0.00     0.029 A 
ATOM     51  C   UNL     1       3.144   4.246  17.690  1.00  0.00     0.049 A 
ATOM     52  H   UNL     1       2.086   3.235  16.170  1.00  0.00     0.167 HD
ATOM     53  C   UNL     1       4.430   2.153  17.345  1.00  0.00     0.074 A 
ATOM     54  C   UNL     1       5.532   1.258  17.631  1.00  0.00     0.031 C 
ATOM     55  C   UNL     1       4.230   3.340  17.969  1.00  0.00     0.037 A 
BRANCH  42  56
ATOM     56  C   UNL     1      -0.729   6.437  15.960  1.00  0.00     0.057 A 
ATOM     57  C   UNL     1      -2.034   6.417  16.471  1.00  0.00     0.134 A 
ATOM     58  C   UNL     1      -0.221   7.673  15.540  1.00  0.00     0.134 A 
ATOM     59  F   UNL     1      -2.588   5.264  16.878  1.00  0.00    -0.206 F 
ATOM     60  C   UNL     1      -2.814   7.574  16.534  1.00  0.00     0.040 A 
ATOM     61  C   UNL     1      -0.980   8.842  15.627  1.00  0.00     0.040 A 
ATOM     62  F   UNL     1       1.022   7.767  15.046  1.00  0.00    -0.206 F 
ATOM     63  C   UNL     1      -2.283   8.793  16.117  1.00  0.00     0.006 A 
ENDBRANCH  42  56
BRANCH  43  64
ATOM     64  C   UNL     1       4.713  -1.877  14.939  1.00  0.00     0.057 A 
ATOM     65  C   UNL     1       4.814  -2.819  15.970  1.00  0.00     0.134 A 
ATOM     66  C   UNL     1       5.433  -2.128  13.765  1.00  0.00     0.134 A 
ATOM     67  F   UNL     1       4.162  -2.627  17.126  1.00  0.00    -0.206 F 
ATOM     68  C   UNL     1       5.619  -3.953  15.850  1.00  0.00     0.040 A 
ATOM     69  C   UNL     1       6.220  -3.272  13.620  1.00  0.00     0.040 A 
ATOM     70  F   UNL     1       5.371  -1.271  12.736  1.00  0.00    -0.206 F 
ATOM     71  C   UNL     1       6.322  -4.183  14.669  1.00  0.00     0.006 A 
ENDBRANCH  43  64
BRANCH  55  72
ATOM     72  C   UNL     1       5.196   3.716  19.055  1.00  0.00     0.057 A 
ATOM     73  C   UNL     1       6.520   4.082  18.780  1.00  0.00     0.134 A 
ATOM     74  C   UNL     1       4.783   3.742  20.394  1.00  0.00     0.134 A 
ATOM     75  F   UNL     1       6.982   4.067  17.521  1.00  0.00    -0.206 F 
ATOM     76  C   UNL     1       7.407   4.429  19.801  1.00  0.00     0.040 A 
ATOM     77  C   UNL     1       5.652   4.118  21.419  1.00  0.00     0.040 A 
ATOM     78  F   UNL     1       3.526   3.414  20.726  1.00  0.00    -0.206 F 
ATOM     79  C   UNL     1       6.971   4.455  21.124  1.00  0.00     0.006 A 
ENDBRANCH  55  72
ENDBRANCH  29  30
ENDBRANCH  21  24
ENDBRANCH  19  20
ENDBRANCH  18  19
ENDBRANCH   1  18
TORSDOF 13
