REMARK SMILES [NH3+]C[C@H]1CC[C@@H](C(=O)N[C@H](CC(=O)NCCCCNC(=O)c2ccc(-c3c4nc(c(-c5c(F)cccc5F)c5ccc([nH]5)c(-c5c(F)cccc5F)c5nc(c(-c6c(F)cccc6F)c6ccc3[nH]6)C=C5)C=C4)cc2)c2cccs2)O1
REMARK SMILES IDX 15 1 14 2 12 3 13 4 11 6 10 7 9 8 7 9 8 10 6 12 3 13 4 14
REMARK SMILES IDX 81 15 5 16 2 17 1 18 76 22 77 23 80 24 78 25 79 26 16 27
REMARK SMILES IDX 17 28 18 29 19 30 20 31 21 33 22 34 23 35 75 36 24 37 74 38
REMARK SMILES IDX 25 39 26 40 27 41 68 42 28 43 73 44 67 45 69 46 29 47 72 48
REMARK SMILES IDX 66 49 65 50 30 52 56 53 39 54 55 55 40 56 43 57 54 58 70 59
REMARK SMILES IDX 41 60 42 61 53 63 71 64 44 65 31 66 32 67 37 68 33 69 34 70
REMARK SMILES IDX 36 71 38 72 35 73 57 74 58 75 63 76 59 77 60 78 62 79 64 80
REMARK SMILES IDX 61 81 45 82 46 83 51 84 47 85 48 86 50 87 52 88 49 89
REMARK H PARENT 14 5 9 11 1 19 1 20 1 21 19 32 69 51 43 62
REMARK Flexibility Score: inf
ROOT
ATOM      1  C   UNL     1       3.971  -4.449   1.024  1.00  0.00     0.116 C 
ENDROOT
BRANCH   1   2
ATOM      2  N   UNL     1       2.562  -4.458   0.679  1.00  0.00    -0.356 N 
ATOM      3  C   UNL     1       1.913  -5.179  -0.278  1.00  0.00     0.222 C 
ATOM      4  O   UNL     1       0.730  -4.923  -0.504  1.00  0.00    -0.275 OA
ATOM      5  H   UNL     1       1.993  -3.858   1.212  1.00  0.00     0.163 HD
BRANCH   3   6
ATOM      6  C   UNL     1       2.623  -6.289  -1.029  1.00  0.00     0.130 C 
BRANCH   6   7
ATOM      7  C   UNL     1       3.446  -5.765  -2.216  1.00  0.00     0.132 C 
BRANCH   7   8
ATOM      8  N   UNL     1       4.871  -5.670  -1.874  1.00  0.00    -0.346 N 
ATOM      9  C   UNL     1       5.851  -6.524  -1.498  1.00  0.00     0.249 C 
ATOM     10  O   UNL     1       6.786  -5.971  -0.898  1.00  0.00    -0.272 OA
ATOM     11  H   UNL     1       5.199  -4.744  -1.934  1.00  0.00     0.164 HD
BRANCH   9  12
ATOM     12  C   UNL     1       5.939  -8.028  -1.843  1.00  0.00     0.207 C 
ATOM     13  C   UNL     1       5.986  -9.939  -0.455  1.00  0.00     0.174 C 
ATOM     14  C   UNL     1       5.108 -10.248  -1.645  1.00  0.00     0.041 C 
ATOM     15  O   UNL     1       6.653  -8.708  -0.781  1.00  0.00    -0.359 OA
ATOM     16  C   UNL     1       4.717  -8.873  -2.121  1.00  0.00     0.045 C 
BRANCH  13  17
ATOM     17  C   UNL     1       5.179  -9.754   0.845  1.00  0.00     0.291 C 
BRANCH  17  18
ATOM     18  N   UNL     1       6.036  -9.317   1.950  1.00  0.00    -0.355 N 
ATOM     19  H   UNL     1       5.473  -9.204   2.793  1.00  0.00     0.344 HD
ATOM     20  H   UNL     1       6.472  -8.427   1.711  1.00  0.00     0.344 HD
ATOM     21  H   UNL     1       6.760 -10.016   2.116  1.00  0.00     0.344 HD
ENDBRANCH  17  18
ENDBRANCH  13  17
ENDBRANCH   9  12
ENDBRANCH   7   8
BRANCH   7  22
ATOM     22  C   UNL     1       3.284  -6.478  -3.542  1.00  0.00     0.027 A 
ATOM     23  C   UNL     1       2.368  -7.438  -3.944  1.00  0.00     0.017 A 
ATOM     24  S   UNL     1       4.326  -6.064  -4.860  1.00  0.00    -0.147 S 
ATOM     25  C   UNL     1       2.655  -7.963  -5.240  1.00  0.00     0.012 A 
ATOM     26  C   UNL     1       3.716  -7.323  -5.834  1.00  0.00     0.065 A 
ENDBRANCH   7  22
ENDBRANCH   6   7
ENDBRANCH   3   6
ENDBRANCH   1   2
BRANCH   1  27
ATOM     27  C   UNL     1       4.683  -3.289   0.326  1.00  0.00     0.023 C 
BRANCH  27  28
ATOM     28  C   UNL     1       4.445  -1.919   0.954  1.00  0.00     0.023 C 
BRANCH  28  29
ATOM     29  C   UNL     1       4.945  -1.777   2.382  1.00  0.00     0.116 C 
BRANCH  29  30
ATOM     30  N   UNL     1       6.374  -2.013   2.524  1.00  0.00    -0.352 N 
ATOM     31  C   UNL     1       7.271  -1.340   3.320  1.00  0.00     0.251 C 
ATOM     32  H   UNL     1       6.745  -2.746   1.982  1.00  0.00     0.163 HD
ATOM     33  O   UNL     1       8.472  -1.580   3.259  1.00  0.00    -0.269 OA
BRANCH  31  34
ATOM     34  C   UNL     1       6.772  -0.284   4.223  1.00  0.00     0.039 A 
ATOM     35  C   UNL     1       7.387   0.969   4.201  1.00  0.00     0.014 A 
ATOM     36  C   UNL     1       5.659  -0.515   5.036  1.00  0.00     0.014 A 
ATOM     37  C   UNL     1       6.837   2.016   4.941  1.00  0.00     0.010 A 
ATOM     38  C   UNL     1       5.065   0.549   5.704  1.00  0.00     0.010 A 
ATOM     39  C   UNL     1       5.647   1.825   5.663  1.00  0.00    -0.014 A 
BRANCH  39  40
ATOM     40  C   UNL     1       4.997   2.944   6.389  1.00  0.00     0.031 A 
ATOM     41  C   UNL     1       4.854   2.882   7.884  1.00  0.00     0.074 A 
ATOM     42  C   UNL     1       4.481   3.980   5.699  1.00  0.00     0.049 A 
ATOM     43  N   UNL     1       4.245   3.713   8.691  1.00  0.00    -0.248 NA
ATOM     44  C   UNL     1       5.450   1.718   8.559  1.00  0.00     0.031 C 
ATOM     45  C   UNL     1       4.516   4.134   4.243  1.00  0.00     0.029 A 
ATOM     46  N   UNL     1       3.816   5.099   6.133  1.00  0.00    -0.354 N 
ATOM     47  C   UNL     1       4.378   3.168   9.962  1.00  0.00     0.074 A 
ATOM     48  C   UNL     1       5.069   1.907   9.813  1.00  0.00     0.031 C 
ATOM     49  C   UNL     1       3.925   5.292   3.908  1.00  0.00     0.029 A 
ATOM     50  C   UNL     1       3.434   5.943   5.118  1.00  0.00     0.049 A 
ATOM     51  H   UNL     1       3.629   5.280   7.083  1.00  0.00     0.167 HD
ATOM     52  C   UNL     1       3.987   3.687  11.149  1.00  0.00     0.037 A 
ATOM     53  C   UNL     1       2.758   7.107   5.161  1.00  0.00     0.037 A 
ATOM     54  C   UNL     1       3.322   4.953  11.298  1.00  0.00     0.049 A 
ATOM     55  C   UNL     1       2.319   7.650   6.494  1.00  0.00     0.074 A 
ATOM     56  C   UNL     1       2.918   5.584  12.462  1.00  0.00     0.029 A 
ATOM     57  N   UNL     1       2.969   5.786  10.248  1.00  0.00    -0.354 N 
ATOM     58  N   UNL     1       2.500   7.150   7.692  1.00  0.00    -0.248 NA
ATOM     59  C   UNL     1       1.584   8.924   6.479  1.00  0.00     0.031 C 
ATOM     60  C   UNL     1       2.289   6.783  12.114  1.00  0.00     0.029 A 
ATOM     61  C   UNL     1       2.341   6.920  10.736  1.00  0.00     0.049 A 
ATOM     62  H   UNL     1       3.139   5.599   9.296  1.00  0.00     0.167 HD
ATOM     63  C   UNL     1       1.935   8.062   8.574  1.00  0.00     0.074 A 
ATOM     64  C   UNL     1       1.416   9.152   7.774  1.00  0.00     0.031 C 
ATOM     65  C   UNL     1       1.851   8.004   9.925  1.00  0.00     0.037 A 
BRANCH  52  66
ATOM     66  C   UNL     1       4.287   2.890  12.384  1.00  0.00     0.057 A 
ATOM     67  C   UNL     1       5.596   2.748  12.866  1.00  0.00     0.134 A 
ATOM     68  C   UNL     1       3.259   2.294  13.124  1.00  0.00     0.134 A 
ATOM     69  F   UNL     1       6.628   3.283  12.196  1.00  0.00    -0.206 F 
ATOM     70  C   UNL     1       5.873   2.024  14.026  1.00  0.00     0.040 A 
ATOM     71  C   UNL     1       3.520   1.590  14.301  1.00  0.00     0.040 A 
ATOM     72  F   UNL     1       1.983   2.394  12.722  1.00  0.00    -0.206 F 
ATOM     73  C   UNL     1       4.832   1.449  14.752  1.00  0.00     0.006 A 
ENDBRANCH  52  66
BRANCH  53  74
ATOM     74  C   UNL     1       2.468   7.856   3.912  1.00  0.00     0.057 A 
ATOM     75  C   UNL     1       3.084   9.086   3.650  1.00  0.00     0.134 A 
ATOM     76  C   UNL     1       1.546   7.385   2.970  1.00  0.00     0.134 A 
ATOM     77  F   UNL     1       3.963   9.600   4.524  1.00  0.00    -0.206 F 
ATOM     78  C   UNL     1       2.772   9.835   2.514  1.00  0.00     0.040 A 
ATOM     79  C   UNL     1       1.244   8.111   1.817  1.00  0.00     0.040 A 
ATOM     80  F   UNL     1       0.926   6.211   3.158  1.00  0.00    -0.206 F 
ATOM     81  C   UNL     1       1.850   9.345   1.592  1.00  0.00     0.006 A 
ENDBRANCH  53  74
BRANCH  65  82
ATOM     82  C   UNL     1       1.220   9.170  10.625  1.00  0.00     0.057 A 
ATOM     83  C   UNL     1      -0.160   9.404  10.579  1.00  0.00     0.134 A 
ATOM     84  C   UNL     1       2.001  10.047  11.389  1.00  0.00     0.134 A 
ATOM     85  F   UNL     1      -0.961   8.608   9.855  1.00  0.00    -0.206 F 
ATOM     86  C   UNL     1      -0.738  10.483  11.250  1.00  0.00     0.040 A 
ATOM     87  C   UNL     1       1.431  11.113  12.085  1.00  0.00     0.040 A 
ATOM     88  F   UNL     1       3.328   9.873  11.481  1.00  0.00    -0.206 F 
ATOM     89  C   UNL     1       0.058  11.337  12.011  1.00  0.00     0.006 A 
ENDBRANCH  65  82
ENDBRANCH  39  40
ENDBRANCH  31  34
ENDBRANCH  29  30
ENDBRANCH  28  29
ENDBRANCH  27  28
ENDBRANCH   1  27
TORSDOF 17
