REMARK SMILES O=C(NCCCCNC(=O)c1nc(NC[C@H]2c3ccccc3CSc3ccccc32)c2ccccc2n1)c1ccc(-c2c3nc(c(-c4c(F)cccc4F)c4ccc([nH]4)c(-c4c(F)cccc4F)c4nc(c(-c5c(F)cccc5F)c5ccc2[nH]5)C=C4)C=C3)cc1
REMARK SMILES IDX 6 1 5 2 4 3 3 4 1 5 2 6 38 8 39 9 91 10 40 11 90 12 41 13
REMARK SMILES IDX 42 14 43 15 84 16 44 17 89 18 83 19 85 20 45 21 88 22 82 23
REMARK SMILES IDX 81 24 46 26 72 27 55 28 71 29 56 30 59 31 70 32 86 33 57 34
REMARK SMILES IDX 58 35 69 37 87 38 60 39 47 40 48 41 53 42 49 43 50 44 52 45
REMARK SMILES IDX 54 46 51 47 73 48 74 49 79 50 75 51 76 52 78 53 80 54 77 55
REMARK SMILES IDX 61 56 62 57 67 58 63 59 64 60 66 61 68 62 65 63 7 64 8 65
REMARK SMILES IDX 9 66 10 68 11 69 12 70 37 71 13 72 36 73 31 74 35 75 32 76
REMARK SMILES IDX 34 77 33 78 14 79 15 81 16 82 17 83 30 84 18 85 22 86 25 87
REMARK SMILES IDX 29 88 19 89 21 90 23 91 24 92 26 93 28 94 20 95 27 96
REMARK H PARENT 3 7 85 25 59 36 8 67 14 80
REMARK Flexibility Score: inf
ROOT
ATOM      1  C   UNL     1       4.655   3.687   1.161  1.00  0.00     0.023 C 
ENDROOT
BRANCH   1   2
ATOM      2  C   UNL     1       5.110   2.584   0.204  1.00  0.00     0.023 C 
BRANCH   2   3
ATOM      3  C   UNL     1       4.696   1.166   0.586  1.00  0.00     0.116 C 
BRANCH   3   4
ATOM      4  N   UNL     1       3.254   1.000   0.659  1.00  0.00    -0.352 N 
ATOM      5  O   UNL     1       1.227   0.156   0.172  1.00  0.00    -0.269 OA
ATOM      6  C   UNL     1       2.450   0.037   0.104  1.00  0.00     0.251 C 
ATOM      7  H   UNL     1       2.782   1.683   1.187  1.00  0.00     0.163 HD
BRANCH   6   8
ATOM      8  C   UNL     1       3.030  -1.137  -0.587  1.00  0.00     0.039 A 
ATOM      9  C   UNL     1       2.423  -1.585  -1.766  1.00  0.00     0.014 A 
ATOM     10  C   UNL     1       4.118  -1.835  -0.057  1.00  0.00     0.014 A 
ATOM     11  C   UNL     1       2.927  -2.707  -2.431  1.00  0.00     0.010 A 
ATOM     12  C   UNL     1       4.657  -2.918  -0.751  1.00  0.00     0.010 A 
ATOM     13  C   UNL     1       4.056  -3.374  -1.935  1.00  0.00    -0.014 A 
BRANCH  13  14
ATOM     14  C   UNL     1       4.589  -4.588  -2.603  1.00  0.00     0.031 A 
ATOM     15  C   UNL     1       4.498  -5.920  -1.914  1.00  0.00     0.074 A 
ATOM     16  C   UNL     1       5.204  -4.489  -3.796  1.00  0.00     0.049 A 
ATOM     17  N   UNL     1       4.988  -7.078  -2.278  1.00  0.00    -0.248 NA
ATOM     18  C   UNL     1       3.779  -5.947  -0.631  1.00  0.00     0.031 C 
ATOM     19  C   UNL     1       5.383  -3.254  -4.558  1.00  0.00     0.029 A 
ATOM     20  N   UNL     1       5.810  -5.450  -4.566  1.00  0.00    -0.354 N 
ATOM     21  C   UNL     1       4.656  -7.964  -1.261  1.00  0.00     0.074 A 
ATOM     22  C   UNL     1       3.961  -7.201  -0.246  1.00  0.00     0.031 C 
ATOM     23  C   UNL     1       6.050  -3.531  -5.690  1.00  0.00     0.029 A 
ATOM     24  C   UNL     1       6.374  -4.955  -5.716  1.00  0.00     0.049 A 
ATOM     25  H   UNL     1       5.837  -6.402  -4.319  1.00  0.00     0.167 HD
ATOM     26  C   UNL     1       4.891  -9.296  -1.185  1.00  0.00     0.037 A 
ATOM     27  C   UNL     1       7.087  -5.577  -6.674  1.00  0.00     0.037 A 
ATOM     28  C   UNL     1       5.558 -10.062  -2.205  1.00  0.00     0.049 A 
ATOM     29  C   UNL     1       7.357  -7.050  -6.560  1.00  0.00     0.074 A 
ATOM     30  C   UNL     1       5.772 -11.428  -2.258  1.00  0.00     0.029 A 
ATOM     31  N   UNL     1       6.124  -9.523  -3.350  1.00  0.00    -0.354 N 
ATOM     32  N   UNL     1       6.990  -7.887  -5.620  1.00  0.00    -0.248 NA
ATOM     33  C   UNL     1       8.146  -7.663  -7.638  1.00  0.00     0.031 C 
ATOM     34  C   UNL     1       6.505 -11.710  -3.418  1.00  0.00     0.029 A 
ATOM     35  C   UNL     1       6.717 -10.524  -4.102  1.00  0.00     0.049 A 
ATOM     36  H   UNL     1       6.108  -8.569  -3.592  1.00  0.00     0.167 HD
ATOM     37  C   UNL     1       7.500  -9.124  -5.993  1.00  0.00     0.074 A 
ATOM     38  C   UNL     1       8.182  -8.932  -7.257  1.00  0.00     0.031 C 
ATOM     39  C   UNL     1       7.414 -10.312  -5.345  1.00  0.00     0.037 A 
BRANCH  26  40
ATOM     40  C   UNL     1       4.425  -9.998   0.055  1.00  0.00     0.057 A 
ATOM     41  C   UNL     1       5.345 -10.446   1.011  1.00  0.00     0.134 A 
ATOM     42  C   UNL     1       3.065 -10.218   0.314  1.00  0.00     0.134 A 
ATOM     43  F   UNL     1       6.662 -10.272   0.823  1.00  0.00    -0.206 F 
ATOM     44  C   UNL     1       4.928 -11.076   2.185  1.00  0.00     0.040 A 
ATOM     45  C   UNL     1       2.635 -10.823   1.496  1.00  0.00     0.040 A 
ATOM     46  F   UNL     1       2.132  -9.798  -0.555  1.00  0.00    -0.206 F 
ATOM     47  C   UNL     1       3.569 -11.256   2.435  1.00  0.00     0.006 A 
ENDBRANCH  26  40
BRANCH  27  48
ATOM     48  C   UNL     1       7.601  -4.799  -7.827  1.00  0.00     0.057 A 
ATOM     49  C   UNL     1       8.672  -3.910  -7.687  1.00  0.00     0.134 A 
ATOM     50  C   UNL     1       7.024  -4.925  -9.095  1.00  0.00     0.134 A 
ATOM     51  F   UNL     1       9.265  -3.747  -6.495  1.00  0.00    -0.206 F 
ATOM     52  C   UNL     1       9.145  -3.161  -8.765  1.00  0.00     0.040 A 
ATOM     53  C   UNL     1       7.498  -4.196 -10.187  1.00  0.00     0.040 A 
ATOM     54  F   UNL     1       6.009  -5.778  -9.293  1.00  0.00    -0.206 F 
ATOM     55  C   UNL     1       8.558  -3.306 -10.021  1.00  0.00     0.006 A 
ENDBRANCH  27  48
BRANCH  39  56
ATOM     56  C   UNL     1       8.086 -11.486  -5.990  1.00  0.00     0.057 A 
ATOM     57  C   UNL     1       7.337 -12.489  -6.617  1.00  0.00     0.134 A 
ATOM     58  C   UNL     1       9.479 -11.631  -5.971  1.00  0.00     0.134 A 
ATOM     59  F   UNL     1       5.999 -12.411  -6.665  1.00  0.00    -0.206 F 
ATOM     60  C   UNL     1       7.951 -13.597  -7.204  1.00  0.00     0.040 A 
ATOM     61  C   UNL     1      10.105 -12.724  -6.572  1.00  0.00     0.040 A 
ATOM     62  F   UNL     1      10.252 -10.696  -5.399  1.00  0.00    -0.206 F 
ATOM     63  C   UNL     1       9.340 -13.713  -7.187  1.00  0.00     0.006 A 
ENDBRANCH  39  56
ENDBRANCH  13  14
ENDBRANCH   6   8
ENDBRANCH   3   4
ENDBRANCH   2   3
ENDBRANCH   1   2
BRANCH   1  64
ATOM     64  C   UNL     1       5.055   3.501   2.623  1.00  0.00     0.116 C 
BRANCH  64  65
ATOM     65  N   UNL     1       6.495   3.476   2.813  1.00  0.00    -0.349 N 
ATOM     66  C   UNL     1       7.261   4.247   3.673  1.00  0.00     0.289 C 
ATOM     67  H   UNL     1       6.990   2.828   2.260  1.00  0.00     0.163 HD
ATOM     68  O   UNL     1       8.487   4.142   3.632  1.00  0.00    -0.266 OA
BRANCH  66  69
ATOM     69  C   UNL     1       6.591   5.220   4.602  1.00  0.00     0.220 A 
ATOM     70  N   UNL     1       6.958   6.501   4.465  1.00  0.00    -0.206 NA
ATOM     71  N   UNL     1       5.550   4.763   5.319  1.00  0.00    -0.224 NA
ATOM     72  C   UNL     1       6.193   7.418   5.070  1.00  0.00     0.138 A 
ATOM     73  C   UNL     1       4.815   5.682   5.940  1.00  0.00     0.077 A 
ATOM     74  C   UNL     1       5.087   7.058   5.869  1.00  0.00     0.043 A 
ATOM     75  C   UNL     1       3.688   5.253   6.629  1.00  0.00     0.029 A 
ATOM     76  C   UNL     1       4.216   7.963   6.530  1.00  0.00     0.014 A 
ATOM     77  C   UNL     1       2.817   6.149   7.250  1.00  0.00     0.002 A 
ATOM     78  C   UNL     1       3.085   7.509   7.206  1.00  0.00     0.001 A 
BRANCH  72  79
ATOM     79  N   UNL     1       6.458   8.758   4.794  1.00  0.00    -0.368 N 
ATOM     80  H   UNL     1       5.998   9.464   5.304  1.00  0.00     0.162 HD
BRANCH  79  81
ATOM     81  C   UNL     1       7.423   9.124   3.744  1.00  0.00     0.127 C 
BRANCH  81  82
ATOM     82  C   UNL     1       6.907  10.276   2.795  1.00  0.00     0.070 C 
ATOM     83  C   UNL     1       5.861   9.768   1.773  1.00  0.00    -0.035 A 
ATOM     84  C   UNL     1       6.588  11.633   3.472  1.00  0.00    -0.025 A 
ATOM     85  C   UNL     1       5.037   8.650   1.998  1.00  0.00     0.005 A 
ATOM     86  C   UNL     1       5.736  10.402   0.520  1.00  0.00    -0.034 A 
ATOM     87  C   UNL     1       6.093  12.782   2.804  1.00  0.00     0.011 A 
ATOM     88  C   UNL     1       6.901  11.797   4.849  1.00  0.00     0.005 A 
ATOM     89  C   UNL     1       4.144   8.167   1.037  1.00  0.00     0.000 A 
ATOM     90  C   UNL     1       4.821   9.921  -0.441  1.00  0.00     0.005 A 
ATOM     91  C   UNL     1       6.502  11.657   0.220  1.00  0.00     0.110 C 
ATOM     92  S   UNL     1       5.734  13.054   1.063  1.00  0.00    -0.121 SA
ATOM     93  C   UNL     1       5.842  13.964   3.544  1.00  0.00     0.015 A 
ATOM     94  C   UNL     1       6.665  12.980   5.554  1.00  0.00     0.000 A 
ATOM     95  C   UNL     1       4.035   8.804  -0.186  1.00  0.00     0.000 A 
ATOM     96  C   UNL     1       6.117  14.065   4.903  1.00  0.00     0.001 A 
ENDBRANCH  81  82
ENDBRANCH  79  81
ENDBRANCH  72  79
ENDBRANCH  66  69
ENDBRANCH  64  65
ENDBRANCH   1  64
TORSDOF 14
