REMARK SMILES O=C(NCCCCNC(=O)c1ccc(-c2c3nc(c(-c4c(F)cccc4F)c4ccc([nH]4)c(-c4c(F)cccc4F)c4nc(c(-c5c(F)cccc5F)c5ccc2[nH]5)C=C4)C=C3)cc1)C1=Cc2c(cc(Cl)c(Cl)c2Cl)O[C@H]1C(F)(F)F
REMARK SMILES IDX 6 1 5 2 4 3 3 4 1 5 2 6 65 8 66 9 77 10 67 11 76 12 68 13
REMARK SMILES IDX 74 14 69 15 72 16 75 17 70 18 73 19 71 20 78 21 79 22 80 23
REMARK SMILES IDX 81 24 7 25 8 26 9 27 10 29 11 30 12 31 64 32 13 33 63 34
REMARK SMILES IDX 14 35 15 36 16 37 57 38 17 39 62 40 56 41 58 42 18 43 61 44
REMARK SMILES IDX 55 45 54 46 19 48 45 49 28 50 44 51 29 52 32 53 43 54 59 55
REMARK SMILES IDX 30 56 31 57 42 59 60 60 33 61 20 62 21 63 26 64 22 65 23 66
REMARK SMILES IDX 25 67 27 68 24 69 46 70 47 71 52 72 48 73 49 74 51 75 53 76
REMARK SMILES IDX 50 77 34 78 35 79 40 80 36 81 37 82 39 83 41 84 38 85
REMARK H PARENT 3 7 8 28 58 47 32 58
REMARK Flexibility Score: inf
ROOT
ATOM      1  C   UNL     1       3.986   0.539   4.254  1.00  0.00     0.023 C 
ENDROOT
BRANCH   1   2
ATOM      2  C   UNL     1       4.327   1.230   2.938  1.00  0.00     0.023 C 
BRANCH   2   3
ATOM      3  C   UNL     1       4.070   0.423   1.673  1.00  0.00     0.116 C 
BRANCH   3   4
ATOM      4  N   UNL     1       2.690   0.353   1.234  1.00  0.00    -0.352 N 
ATOM      5  O   UNL     1       1.000   0.077  -0.235  1.00  0.00    -0.270 OA
ATOM      6  C   UNL     1       2.205   0.037  -0.009  1.00  0.00     0.251 C 
ATOM      7  H   UNL     1       2.013   0.559   1.919  1.00  0.00     0.163 HD
BRANCH   6   8
ATOM      8  C   UNL     1       3.139  -0.329  -1.107  1.00  0.00     0.067 C 
ATOM      9  C   UNL     1       3.671  -1.562  -1.056  1.00  0.00     0.027 C 
ATOM     10  C   UNL     1       3.866   0.813  -1.766  1.00  0.00     0.314 C 
ATOM     11  C   UNL     1       5.114  -1.532  -0.714  1.00  0.00     0.037 A 
ATOM     12  O   UNL     1       5.319   0.711  -1.659  1.00  0.00    -0.475 OA
ATOM     13  C   UNL     1       5.839  -0.365  -0.987  1.00  0.00     0.131 A 
ATOM     14  C   UNL     1       5.700  -2.561   0.051  1.00  0.00     0.072 A 
ATOM     15  C   UNL     1       7.118  -0.197  -0.465  1.00  0.00     0.069 A 
ATOM     16  C   UNL     1       6.976  -2.377   0.612  1.00  0.00     0.079 A 
ATOM     17  Cl  UNL     1       4.784  -4.006   0.371  1.00  0.00    -0.082 Cl
ATOM     18  C   UNL     1       7.669  -1.182   0.361  1.00  0.00     0.064 A 
ATOM     19  Cl  UNL     1       7.654  -3.578   1.667  1.00  0.00    -0.081 Cl
ATOM     20  Cl  UNL     1       9.188  -0.816   1.102  1.00  0.00    -0.083 Cl
BRANCH  10  21
ATOM     21  C   UNL     1       3.446   1.003  -3.239  1.00  0.00     0.429 C 
ATOM     22  F   UNL     1       2.482   0.139  -3.630  1.00  0.00    -0.167 F 
ATOM     23  F   UNL     1       2.971   2.255  -3.448  1.00  0.00    -0.167 F 
ATOM     24  F   UNL     1       4.489   0.829  -4.087  1.00  0.00    -0.167 F 
ENDBRANCH  10  21
ENDBRANCH   6   8
ENDBRANCH   3   4
ENDBRANCH   2   3
ENDBRANCH   1   2
BRANCH   1  25
ATOM     25  C   UNL     1       4.606  -0.837   4.490  1.00  0.00     0.116 C 
BRANCH  25  26
ATOM     26  N   UNL     1       6.060  -0.874   4.418  1.00  0.00    -0.352 N 
ATOM     27  C   UNL     1       6.963  -1.495   5.255  1.00  0.00     0.251 C 
ATOM     28  H   UNL     1       6.457  -0.383   3.662  1.00  0.00     0.163 HD
ATOM     29  O   UNL     1       8.167  -1.376   5.051  1.00  0.00    -0.269 OA
BRANCH  27  30
ATOM     30  C   UNL     1       6.489  -2.241   6.444  1.00  0.00     0.039 A 
ATOM     31  C   UNL     1       7.106  -1.996   7.675  1.00  0.00     0.014 A 
ATOM     32  C   UNL     1       5.411  -3.126   6.370  1.00  0.00     0.014 A 
ATOM     33  C   UNL     1       6.570  -2.545   8.842  1.00  0.00     0.010 A 
ATOM     34  C   UNL     1       4.828  -3.604   7.541  1.00  0.00     0.010 A 
ATOM     35  C   UNL     1       5.389  -3.303   8.792  1.00  0.00    -0.014 A 
BRANCH  35  36
ATOM     36  C   UNL     1       4.714  -3.755  10.037  1.00  0.00     0.031 A 
ATOM     37  C   UNL     1       4.559  -5.221  10.330  1.00  0.00     0.074 A 
ATOM     38  C   UNL     1       4.180  -2.842  10.873  1.00  0.00     0.049 A 
ATOM     39  N   UNL     1       3.953  -5.804  11.335  1.00  0.00    -0.248 NA
ATOM     40  C   UNL     1       5.136  -6.156   9.353  1.00  0.00     0.031 C 
ATOM     41  C   UNL     1       4.204  -1.391  10.673  1.00  0.00     0.029 A 
ATOM     42  N   UNL     1       3.504  -2.999  12.058  1.00  0.00    -0.354 N 
ATOM     43  C   UNL     1       4.071  -7.169  11.106  1.00  0.00     0.074 A 
ATOM     44  C   UNL     1       4.752  -7.327   9.839  1.00  0.00     0.031 C 
ATOM     45  C   UNL     1       3.598  -0.792  11.711  1.00  0.00     0.029 A 
ATOM     46  C   UNL     1       3.115  -1.814  12.634  1.00  0.00     0.049 A 
ATOM     47  H   UNL     1       3.316  -3.879  12.458  1.00  0.00     0.167 HD
ATOM     48  C   UNL     1       3.673  -8.198  11.892  1.00  0.00     0.037 A 
ATOM     49  C   UNL     1       2.447  -1.576  13.779  1.00  0.00     0.037 A 
ATOM     50  C   UNL     1       3.011  -8.043  13.160  1.00  0.00     0.049 A 
ATOM     51  C   UNL     1       2.034  -2.736  14.643  1.00  0.00     0.074 A 
ATOM     52  C   UNL     1       2.591  -9.024  14.042  1.00  0.00     0.029 A 
ATOM     53  N   UNL     1       2.677  -6.824  13.730  1.00  0.00    -0.354 N 
ATOM     54  N   UNL     1       2.204  -4.019  14.439  1.00  0.00    -0.248 NA
ATOM     55  C   UNL     1       1.350  -2.412  15.903  1.00  0.00     0.031 C 
ATOM     56  C   UNL     1       1.982  -8.399  15.135  1.00  0.00     0.029 A 
ATOM     57  C   UNL     1       2.056  -7.028  14.951  1.00  0.00     0.049 A 
ATOM     58  H   UNL     1       2.855  -5.944  13.326  1.00  0.00     0.167 HD
ATOM     59  C   UNL     1       1.678  -4.654  15.557  1.00  0.00     0.074 A 
ATOM     60  C   UNL     1       1.195  -3.613  16.441  1.00  0.00     0.031 C 
ATOM     61  C   UNL     1       1.599  -5.980  15.826  1.00  0.00     0.037 A 
BRANCH  48  62
ATOM     62  C   UNL     1       3.965  -9.586  11.400  1.00  0.00     0.057 A 
ATOM     63  C   UNL     1       5.272 -10.092  11.370  1.00  0.00     0.134 A 
ATOM     64  C   UNL     1       2.935 -10.431  10.971  1.00  0.00     0.134 A 
ATOM     65  F   UNL     1       6.306  -9.328  11.754  1.00  0.00    -0.206 F 
ATOM     66  C   UNL     1       5.547 -11.378  10.902  1.00  0.00     0.040 A 
ATOM     67  C   UNL     1       3.195 -11.729  10.526  1.00  0.00     0.040 A 
ATOM     68  F   UNL     1       1.661 -10.012  10.980  1.00  0.00    -0.206 F 
ATOM     69  C   UNL     1       4.505 -12.202  10.483  1.00  0.00     0.006 A 
ENDBRANCH  48  62
BRANCH  49  70
ATOM     70  C   UNL     1       2.155  -0.182  14.200  1.00  0.00     0.057 A 
ATOM     71  C   UNL     1       2.813   0.394  15.293  1.00  0.00     0.134 A 
ATOM     72  C   UNL     1       1.199   0.598  13.539  1.00  0.00     0.134 A 
ATOM     73  F   UNL     1       3.726  -0.310  15.978  1.00  0.00    -0.206 F 
ATOM     74  C   UNL     1       2.514   1.685  15.731  1.00  0.00     0.040 A 
ATOM     75  C   UNL     1       0.907   1.899  13.950  1.00  0.00     0.040 A 
ATOM     76  F   UNL     1       0.540   0.107  12.479  1.00  0.00    -0.206 F 
ATOM     77  C   UNL     1       1.559   2.443  15.056  1.00  0.00     0.006 A 
ENDBRANCH  49  70
BRANCH  61  78
ATOM     78  C   UNL     1       1.011  -6.373  17.149  1.00  0.00     0.057 A 
ATOM     79  C   UNL     1      -0.361  -6.273  17.409  1.00  0.00     0.134 A 
ATOM     80  C   UNL     1       1.830  -6.880  18.166  1.00  0.00     0.134 A 
ATOM     81  F   UNL     1      -1.195  -5.782  16.480  1.00  0.00    -0.206 F 
ATOM     82  C   UNL     1      -0.896  -6.639  18.645  1.00  0.00     0.040 A 
ATOM     83  C   UNL     1       1.303  -7.271  19.397  1.00  0.00     0.040 A 
ATOM     84  F   UNL     1       3.152  -7.007  17.978  1.00  0.00    -0.206 F 
ATOM     85  C   UNL     1      -0.063  -7.145  19.642  1.00  0.00     0.006 A 
ENDBRANCH  61  78
ENDBRANCH  35  36
ENDBRANCH  27  30
ENDBRANCH  25  26
ENDBRANCH   1  25
TORSDOF 12
