REMARK SMILES C=Cc1cccc(-c2ccc([C@@H](C)C(=O)NCCCCNC(=O)c3ccc(-c4c5nc(c(-c6c(F)cccc6F)c6ccc([nH]6)c(-c6c(F)cccc6F)c6nc(c(-c7c(F)cccc7F)c7ccc4[nH]7)C=C6)C=C5)cc3)cc2)c1
REMARK SMILES IDX 18 1 17 2 16 3 14 4 15 5 12 7 13 8 11 9 8 10 9 11 79 12
REMARK SMILES IDX 10 13 78 14 7 15 3 16 4 17 80 18 5 19 6 20 2 21 1 22 19 23
REMARK SMILES IDX 20 24 21 25 22 26 23 28 24 29 25 30 77 31 26 32 76 33 27 34
REMARK SMILES IDX 28 35 29 36 70 37 30 38 75 39 69 40 71 41 31 42 74 43 68 44
REMARK SMILES IDX 67 45 32 47 58 48 41 49 57 50 42 51 45 52 56 53 72 54 43 55
REMARK SMILES IDX 44 56 55 58 73 59 46 60 33 61 34 62 39 63 35 64 36 65 38 66
REMARK SMILES IDX 40 67 37 68 59 69 60 70 65 71 61 72 62 73 64 74 66 75 63 76
REMARK SMILES IDX 47 77 48 78 53 79 49 80 50 81 52 82 54 83 51 84
REMARK H PARENT 16 6 21 27 71 46 45 57
REMARK Flexibility Score: inf
ROOT
ATOM      1  C   UNL     1      -6.286   3.058  -2.802  1.00  0.00     0.023 C 
ENDROOT
BRANCH   1   2
ATOM      2  C   UNL     1      -7.120   2.834  -4.064  1.00  0.00     0.116 C 
BRANCH   2   3
ATOM      3  N   UNL     1      -6.297   2.707  -5.249  1.00  0.00    -0.356 N 
ATOM      4  C   UNL     1      -5.812   1.608  -5.891  1.00  0.00     0.227 C 
ATOM      5  O   UNL     1      -5.066   1.820  -6.855  1.00  0.00    -0.274 OA
ATOM      6  H   UNL     1      -6.045   3.564  -5.662  1.00  0.00     0.163 HD
BRANCH   4   7
ATOM      7  C   UNL     1      -6.152   0.163  -5.488  1.00  0.00     0.105 C 
ATOM      8  C   UNL     1      -7.637  -0.178  -5.616  1.00  0.00     0.023 C 
BRANCH   7   9
ATOM      9  C   UNL     1      -5.462  -0.280  -4.208  1.00  0.00    -0.036 A 
ATOM     10  C   UNL     1      -3.994  -0.915  -1.833  1.00  0.00    -0.018 A 
ATOM     11  C   UNL     1      -5.332  -0.492  -1.786  1.00  0.00     0.009 A 
ATOM     12  C   UNL     1      -3.428  -1.066  -3.108  1.00  0.00     0.009 A 
ATOM     13  C   UNL     1      -6.063  -0.214  -2.949  1.00  0.00     0.005 A 
ATOM     14  C   UNL     1      -4.138  -0.736  -4.271  1.00  0.00     0.005 A 
BRANCH  10  15
ATOM     15  C   UNL     1      -3.216  -1.167  -0.593  1.00  0.00    -0.018 A 
ATOM     16  C   UNL     1      -1.081  -1.147   0.638  1.00  0.00    -0.026 A 
ATOM     17  C   UNL     1      -1.736  -1.621   1.777  1.00  0.00     0.008 A 
ATOM     18  C   UNL     1      -1.827  -0.927  -0.532  1.00  0.00     0.016 A 
ATOM     19  C   UNL     1      -3.107  -1.859   1.751  1.00  0.00     0.001 A 
ATOM     20  C   UNL     1      -3.833  -1.641   0.578  1.00  0.00     0.009 A 
BRANCH  16  21
ATOM     21  C   UNL     1       0.374  -0.958   0.687  1.00  0.00     0.000 C 
ATOM     22  C   UNL     1       1.026   0.054   0.101  1.00  0.00     0.009 C 
ENDBRANCH  16  21
ENDBRANCH  10  15
ENDBRANCH   7   9
ENDBRANCH   4   7
ENDBRANCH   2   3
ENDBRANCH   1   2
BRANCH   1  23
ATOM     23  C   UNL     1      -5.920   4.513  -2.518  1.00  0.00     0.023 C 
BRANCH  23  24
ATOM     24  C   UNL     1      -7.101   5.447  -2.285  1.00  0.00     0.116 C 
BRANCH  24  25
ATOM     25  N   UNL     1      -7.972   5.045  -1.190  1.00  0.00    -0.352 N 
ATOM     26  C   UNL     1      -8.724   5.855  -0.366  1.00  0.00     0.251 C 
ATOM     27  H   UNL     1      -8.032   4.078  -1.017  1.00  0.00     0.163 HD
ATOM     28  O   UNL     1      -9.363   5.386   0.565  1.00  0.00    -0.269 OA
BRANCH  26  29
ATOM     29  C   UNL     1      -8.704   7.314  -0.599  1.00  0.00     0.039 A 
ATOM     30  C   UNL     1      -8.374   8.164   0.459  1.00  0.00     0.014 A 
ATOM     31  C   UNL     1      -8.935   7.827  -1.877  1.00  0.00     0.014 A 
ATOM     32  C   UNL     1      -8.195   9.527   0.216  1.00  0.00     0.010 A 
ATOM     33  C   UNL     1      -8.684   9.169  -2.132  1.00  0.00     0.010 A 
ATOM     34  C   UNL     1      -8.307  10.031  -1.089  1.00  0.00    -0.014 A 
BRANCH  34  35
ATOM     35  C   UNL     1      -8.049  11.458  -1.402  1.00  0.00     0.031 A 
ATOM     36  C   UNL     1      -9.162  12.311  -1.941  1.00  0.00     0.074 A 
ATOM     37  C   UNL     1      -6.801  11.955  -1.300  1.00  0.00     0.049 A 
ATOM     38  N   UNL     1      -9.116  13.526  -2.424  1.00  0.00    -0.248 NA
ATOM     39  C   UNL     1     -10.500  11.699  -1.976  1.00  0.00     0.031 C 
ATOM     40  C   UNL     1      -5.627  11.217  -0.833  1.00  0.00     0.029 A 
ATOM     41  N   UNL     1      -6.310  13.200  -1.606  1.00  0.00    -0.354 N 
ATOM     42  C   UNL     1     -10.407  13.809  -2.849  1.00  0.00     0.074 A 
ATOM     43  C   UNL     1     -11.204  12.627  -2.607  1.00  0.00     0.031 C 
ATOM     44  C   UNL     1      -4.555  12.026  -0.869  1.00  0.00     0.029 A 
ATOM     45  C   UNL     1      -4.958  13.325  -1.398  1.00  0.00     0.049 A 
ATOM     46  H   UNL     1      -6.874  13.934  -1.942  1.00  0.00     0.167 HD
ATOM     47  C   UNL     1     -10.889  14.959  -3.375  1.00  0.00     0.037 A 
ATOM     48  C   UNL     1      -4.136  14.368  -1.620  1.00  0.00     0.037 A 
ATOM     49  C   UNL     1     -10.105  16.148  -3.572  1.00  0.00     0.049 A 
ATOM     50  C   UNL     1      -4.701  15.644  -2.181  1.00  0.00     0.074 A 
ATOM     51  C   UNL     1     -10.514  17.383  -4.043  1.00  0.00     0.029 A 
ATOM     52  N   UNL     1      -8.750  16.251  -3.298  1.00  0.00    -0.354 N 
ATOM     53  N   UNL     1      -5.933  15.915  -2.535  1.00  0.00    -0.248 NA
ATOM     54  C   UNL     1      -3.762  16.760  -2.369  1.00  0.00     0.031 C 
ATOM     55  C   UNL     1      -9.399  18.228  -4.078  1.00  0.00     0.029 A 
ATOM     56  C   UNL     1      -8.305  17.528  -3.595  1.00  0.00     0.049 A 
ATOM     57  H   UNL     1      -8.187  15.524  -2.945  1.00  0.00     0.167 HD
ATOM     58  C   UNL     1      -5.926  17.239  -2.955  1.00  0.00     0.074 A 
ATOM     59  C   UNL     1      -4.567  17.718  -2.808  1.00  0.00     0.031 C 
ATOM     60  C   UNL     1      -6.953  17.991  -3.418  1.00  0.00     0.037 A 
BRANCH  47  61
ATOM     61  C   UNL     1     -12.337  14.982  -3.767  1.00  0.00     0.057 A 
ATOM     62  C   UNL     1     -13.360  14.989  -2.809  1.00  0.00     0.134 A 
ATOM     63  C   UNL     1     -12.713  15.017  -5.115  1.00  0.00     0.134 A 
ATOM     64  F   UNL     1     -13.066  14.941  -1.501  1.00  0.00    -0.206 F 
ATOM     65  C   UNL     1     -14.705  14.999  -3.179  1.00  0.00     0.040 A 
ATOM     66  C   UNL     1     -14.055  15.054  -5.497  1.00  0.00     0.040 A 
ATOM     67  F   UNL     1     -11.783  15.017  -6.082  1.00  0.00    -0.206 F 
ATOM     68  C   UNL     1     -15.055  15.038  -4.527  1.00  0.00     0.006 A 
ENDBRANCH  47  61
BRANCH  48  69
ATOM     69  C   UNL     1      -2.694  14.263  -1.286  1.00  0.00     0.057 A 
ATOM     70  C   UNL     1      -2.159  14.948  -0.189  1.00  0.00     0.134 A 
ATOM     71  C   UNL     1      -1.817  13.486  -2.052  1.00  0.00     0.134 A 
ATOM     72  F   UNL     1      -2.947  15.723   0.570  1.00  0.00    -0.206 F 
ATOM     73  C   UNL     1      -0.801  14.880   0.125  1.00  0.00     0.040 A 
ATOM     74  C   UNL     1      -0.460  13.391  -1.737  1.00  0.00     0.040 A 
ATOM     75  F   UNL     1      -2.270  12.800  -3.112  1.00  0.00    -0.206 F 
ATOM     76  C   UNL     1       0.052  14.096  -0.649  1.00  0.00     0.006 A 
ENDBRANCH  48  69
BRANCH  60  77
ATOM     77  C   UNL     1      -6.662  19.423  -3.751  1.00  0.00     0.057 A 
ATOM     78  C   UNL     1      -5.976  19.787  -4.915  1.00  0.00     0.134 A 
ATOM     79  C   UNL     1      -7.127  20.451  -2.920  1.00  0.00     0.134 A 
ATOM     80  F   UNL     1      -5.496  18.847  -5.743  1.00  0.00    -0.206 F 
ATOM     81  C   UNL     1      -5.750  21.126  -5.236  1.00  0.00     0.040 A 
ATOM     82  C   UNL     1      -6.926  21.793  -3.241  1.00  0.00     0.040 A 
ATOM     83  F   UNL     1      -7.798  20.166  -1.794  1.00  0.00    -0.206 F 
ATOM     84  C   UNL     1      -6.233  22.134  -4.402  1.00  0.00     0.006 A 
ENDBRANCH  60  77
ENDBRANCH  34  35
ENDBRANCH  26  29
ENDBRANCH  24  25
ENDBRANCH  23  24
ENDBRANCH   1  23
TORSDOF 14
