REMARK SMILES CC(C)(C)Nc1ncnc(N2CCC(C(=O)NCCCCNC(=O)c3ccc(-c4c5nc(c(-c6c(F)cccc6F)c6ccc([nH]6)c(-c6c(F)cccc6F)c6nc(c(-c7c(F)cccc7F)c7ccc4[nH]7)C=C6)C=C5)cc3)CC2)c1N
REMARK SMILES IDX 19 1 18 2 17 3 15 4 16 5 14 7 11 8 12 9 80 10 13 11 79 12
REMARK SMILES IDX 10 13 6 14 7 15 81 16 8 17 9 18 5 19 2 21 1 22 3 23 4 24
REMARK SMILES IDX 82 25 20 28 21 29 22 30 23 31 24 33 25 34 26 35 78 36 27 37
REMARK SMILES IDX 77 38 28 39 29 40 30 41 71 42 31 43 76 44 70 45 72 46 32 47
REMARK SMILES IDX 75 48 69 49 68 50 33 52 59 53 42 54 58 55 43 56 46 57 57 58
REMARK SMILES IDX 73 59 44 60 45 61 56 63 74 64 47 65 34 66 35 67 40 68 36 69
REMARK SMILES IDX 37 70 39 71 41 72 38 73 60 74 61 75 66 76 62 77 63 78 65 79
REMARK SMILES IDX 67 80 64 81 48 82 49 83 54 84 50 85 51 86 53 87 55 88 52 89
REMARK H PARENT 17 6 5 20 82 26 82 27 22 32 72 51 46 62
REMARK Flexibility Score: inf
ROOT
ATOM      1  C   UNL     1       6.622   4.121  -5.643  1.00  0.00     0.023 C 
ENDROOT
BRANCH   1   2
ATOM      2  C   UNL     1       7.276   3.085  -4.733  1.00  0.00     0.116 C 
BRANCH   2   3
ATOM      3  N   UNL     1       8.349   3.664  -3.936  1.00  0.00    -0.356 N 
ATOM      4  C   UNL     1       8.465   3.809  -2.585  1.00  0.00     0.223 C 
ATOM      5  O   UNL     1       9.481   4.350  -2.144  1.00  0.00    -0.275 OA
ATOM      6  H   UNL     1       9.113   4.005  -4.456  1.00  0.00     0.163 HD
BRANCH   4   7
ATOM      7  C   UNL     1       7.388   3.293  -1.642  1.00  0.00     0.082 C 
ATOM      8  N   UNL     1       4.922   1.919  -1.748  1.00  0.00    -0.355 N 
ATOM      9  C   UNL     1       4.834   3.317  -1.372  1.00  0.00     0.119 C 
ATOM     10  C   UNL     1       6.034   1.155  -1.221  1.00  0.00     0.119 C 
ATOM     11  C   UNL     1       6.070   4.058  -1.850  1.00  0.00     0.035 C 
ATOM     12  C   UNL     1       7.337   1.758  -1.717  1.00  0.00     0.035 C 
BRANCH   8  13
ATOM     13  C   UNL     1       3.803   1.335  -2.313  1.00  0.00     0.157 A 
ATOM     14  C   UNL     1       2.019  -0.243  -2.416  1.00  0.00     0.155 A 
ATOM     15  N   UNL     1       1.604   0.274  -3.583  1.00  0.00    -0.217 NA
ATOM     16  C   UNL     1       3.162   0.220  -1.748  1.00  0.00     0.118 A 
ATOM     17  C   UNL     1       2.297   1.324  -4.037  1.00  0.00     0.226 A 
ATOM     18  N   UNL     1       3.349   1.907  -3.446  1.00  0.00    -0.217 NA
BRANCH  14  19
ATOM     19  N   UNL     1       1.215  -1.267  -1.929  1.00  0.00    -0.364 N 
ATOM     20  H   UNL     1       1.177  -2.101  -2.451  1.00  0.00     0.162 HD
BRANCH  19  21
ATOM     21  C   UNL     1       0.414  -1.200  -0.689  1.00  0.00     0.030 C 
ATOM     22  C   UNL     1       0.590   0.077   0.148  1.00  0.00     0.034 C 
ATOM     23  C   UNL     1       0.748  -2.441   0.157  1.00  0.00     0.034 C 
ATOM     24  C   UNL     1      -1.077  -1.284  -1.083  1.00  0.00     0.034 C 
ENDBRANCH  19  21
ENDBRANCH  14  19
BRANCH  16  25
ATOM     25  N   UNL     1       3.665  -0.454  -0.625  1.00  0.00    -0.393 N 
ATOM     26  H   UNL     1       3.183  -1.231  -0.261  1.00  0.00     0.156 HD
ATOM     27  H   UNL     1       4.500  -0.149  -0.201  1.00  0.00     0.156 HD
ENDBRANCH  16  25
ENDBRANCH   8  13
ENDBRANCH   4   7
ENDBRANCH   2   3
ENDBRANCH   1   2
BRANCH   1  28
ATOM     28  C   UNL     1       7.538   4.672  -6.734  1.00  0.00     0.023 C 
BRANCH  28  29
ATOM     29  C   UNL     1       8.187   3.615  -7.617  1.00  0.00     0.116 C 
BRANCH  29  30
ATOM     30  N   UNL     1       7.215   2.764  -8.287  1.00  0.00    -0.352 N 
ATOM     31  C   UNL     1       7.120   2.446  -9.621  1.00  0.00     0.251 C 
ATOM     32  H   UNL     1       6.532   2.361  -7.705  1.00  0.00     0.163 HD
ATOM     33  O   UNL     1       6.156   1.829 -10.049  1.00  0.00    -0.269 OA
BRANCH  31  34
ATOM     34  C   UNL     1       8.187   2.887 -10.542  1.00  0.00     0.039 A 
ATOM     35  C   UNL     1       7.830   3.533 -11.727  1.00  0.00     0.014 A 
ATOM     36  C   UNL     1       9.532   2.684 -10.219  1.00  0.00     0.014 A 
ATOM     37  C   UNL     1       8.829   4.036 -12.562  1.00  0.00     0.010 A 
ATOM     38  C   UNL     1      10.522   3.250 -11.014  1.00  0.00     0.010 A 
ATOM     39  C   UNL     1      10.180   3.925 -12.195  1.00  0.00    -0.014 A 
BRANCH  39  40
ATOM     40  C   UNL     1      11.255   4.485 -13.047  1.00  0.00     0.031 A 
ATOM     41  C   UNL     1      12.240   3.563 -13.707  1.00  0.00     0.074 A 
ATOM     42  C   UNL     1      11.379   5.819 -13.180  1.00  0.00     0.049 A 
ATOM     43  N   UNL     1      13.293   3.856 -14.426  1.00  0.00    -0.248 NA
ATOM     44  C   UNL     1      12.027   2.119 -13.512  1.00  0.00     0.031 C 
ATOM     45  C   UNL     1      10.507   6.817 -12.559  1.00  0.00     0.029 A 
ATOM     46  N   UNL     1      12.296   6.566 -13.876  1.00  0.00    -0.354 N 
ATOM     47  C   UNL     1      13.872   2.638 -14.757  1.00  0.00     0.074 A 
ATOM     48  C   UNL     1      13.088   1.605 -14.116  1.00  0.00     0.031 C 
ATOM     49  C   UNL     1      10.915   8.044 -12.922  1.00  0.00     0.029 A 
ATOM     50  C   UNL     1      12.097   7.921 -13.770  1.00  0.00     0.049 A 
ATOM     51  H   UNL     1      13.027   6.168 -14.402  1.00  0.00     0.167 HD
ATOM     52  C   UNL     1      14.946   2.401 -15.545  1.00  0.00     0.037 A 
ATOM     53  C   UNL     1      12.793   8.947 -14.295  1.00  0.00     0.037 A 
ATOM     54  C   UNL     1      15.706   3.429 -16.204  1.00  0.00     0.049 A 
ATOM     55  C   UNL     1      13.991   8.659 -15.156  1.00  0.00     0.074 A 
ATOM     56  C   UNL     1      16.776   3.287 -17.069  1.00  0.00     0.029 A 
ATOM     57  N   UNL     1      15.474   4.790 -16.071  1.00  0.00    -0.354 N 
ATOM     58  N   UNL     1      14.499   7.501 -15.503  1.00  0.00    -0.248 NA
ATOM     59  C   UNL     1      14.713   9.819 -15.698  1.00  0.00     0.031 C 
ATOM     60  C   UNL     1      17.219   4.564 -17.427  1.00  0.00     0.029 A 
ATOM     61  C   UNL     1      16.396   5.500 -16.821  1.00  0.00     0.049 A 
ATOM     62  H   UNL     1      14.761   5.191 -15.524  1.00  0.00     0.167 HD
ATOM     63  C   UNL     1      15.587   7.790 -16.316  1.00  0.00     0.074 A 
ATOM     64  C   UNL     1      15.656   9.233 -16.425  1.00  0.00     0.031 C 
ATOM     65  C   UNL     1      16.452   6.936 -16.915  1.00  0.00     0.037 A 
BRANCH  52  66
ATOM     66  C   UNL     1      15.353   0.972 -15.748  1.00  0.00     0.057 A 
ATOM     67  C   UNL     1      14.587   0.092 -16.524  1.00  0.00     0.134 A 
ATOM     68  C   UNL     1      16.544   0.481 -15.198  1.00  0.00     0.134 A 
ATOM     69  F   UNL     1      13.429   0.496 -17.067  1.00  0.00    -0.206 F 
ATOM     70  C   UNL     1      14.980  -1.232 -16.729  1.00  0.00     0.040 A 
ATOM     71  C   UNL     1      16.960  -0.833 -15.418  1.00  0.00     0.040 A 
ATOM     72  F   UNL     1      17.325   1.272 -14.449  1.00  0.00    -0.206 F 
ATOM     73  C   UNL     1      16.175  -1.695 -16.181  1.00  0.00     0.006 A 
ENDBRANCH  52  66
BRANCH  53  74
ATOM     74  C   UNL     1      12.353  10.341 -14.041  1.00  0.00     0.057 A 
ATOM     75  C   UNL     1      11.771  11.107 -15.058  1.00  0.00     0.134 A 
ATOM     76  C   UNL     1      12.482  10.935 -12.780  1.00  0.00     0.134 A 
ATOM     77  F   UNL     1      11.638  10.600 -16.292  1.00  0.00    -0.206 F 
ATOM     78  C   UNL     1      11.338  12.415 -14.832  1.00  0.00     0.040 A 
ATOM     79  C   UNL     1      12.034  12.234 -12.534  1.00  0.00     0.040 A 
ATOM     80  F   UNL     1      13.026  10.251 -11.762  1.00  0.00    -0.206 F 
ATOM     81  C   UNL     1      11.463  12.979 -13.564  1.00  0.00     0.006 A 
ENDBRANCH  53  74
BRANCH  65  82
ATOM     82  C   UNL     1      17.545   7.534 -17.751  1.00  0.00     0.057 A 
ATOM     83  C   UNL     1      18.647   8.173 -17.170  1.00  0.00     0.134 A 
ATOM     84  C   UNL     1      17.529   7.408 -19.146  1.00  0.00     0.134 A 
ATOM     85  F   UNL     1      18.716   8.335 -15.840  1.00  0.00    -0.206 F 
ATOM     86  C   UNL     1      19.690   8.677 -17.948  1.00  0.00     0.040 A 
ATOM     87  C   UNL     1      18.578   7.886 -19.933  1.00  0.00     0.040 A 
ATOM     88  F   UNL     1      16.507   6.797 -19.764  1.00  0.00    -0.206 F 
ATOM     89  C   UNL     1      19.661   8.525 -19.333  1.00  0.00     0.006 A 
ENDBRANCH  65  82
ENDBRANCH  39  40
ENDBRANCH  31  34
ENDBRANCH  29  30
ENDBRANCH  28  29
ENDBRANCH   1  28
TORSDOF 15
