REMARK SMILES Cc1cccc(C(=O)Nc2cc(C(=O)NCCCCNC(=O)c3ccc(-c4c5nc(c(-c6c(F)cccc6F)c6ccc([nH]6)c(-c6c(F)cccc6F)c6nc(c(-c7c(F)cccc7F)c7ccc4[nH]7)C=C6)C=C5)cc3)ccc2N2CC[NH+](CC(=O)NC(C)(C)C)CC2)c1
REMARK SMILES IDX 16 1 15 2 13 3 14 4 12 6 10 7 11 8 79 9 78 10 77 11 9 12
REMARK SMILES IDX 7 13 8 14 6 16 1 17 2 18 3 19 94 20 4 21 5 22 80 23 81 24
REMARK SMILES IDX 93 25 82 26 92 27 83 28 84 30 85 31 86 32 87 33 88 35 89 36
REMARK SMILES IDX 90 37 91 38 17 39 18 40 19 41 20 42 21 43 22 45 23 46 24 47
REMARK SMILES IDX 76 48 25 49 75 50 26 51 27 52 28 53 69 54 29 55 74 56 68 57
REMARK SMILES IDX 70 58 30 59 73 60 67 61 66 62 31 64 57 65 40 66 56 67 41 68
REMARK SMILES IDX 44 69 55 70 71 71 42 72 43 73 54 75 72 76 45 77 32 78 33 79
REMARK SMILES IDX 38 80 34 81 35 82 37 83 39 84 36 85 58 86 59 87 64 88 60 89
REMARK SMILES IDX 61 90 63 91 65 92 62 93 46 94 47 95 52 96 48 97 49 98 51 99
REMARK SMILES IDX 53 100 50 101
REMARK H PARENT 15 5 9 15 83 29 87 34 20 44 70 63 44 74
REMARK Flexibility Score: inf
ROOT
ATOM      1  C   UNL     1       1.536   0.917  -3.225  1.00  0.00     0.116 C 
ENDROOT
BRANCH   1   2
ATOM      2  N   UNL     1       2.888   1.443  -3.067  1.00  0.00    -0.352 N 
ATOM      3  C   UNL     1       3.434   2.491  -2.357  1.00  0.00     0.251 C 
ATOM      4  O   UNL     1       4.664   2.565  -2.338  1.00  0.00    -0.269 OA
ATOM      5  H   UNL     1       3.558   0.937  -3.580  1.00  0.00     0.163 HD
BRANCH   3   6
ATOM      6  C   UNL     1       2.650   3.516  -1.602  1.00  0.00     0.042 A 
ATOM      7  C   UNL     1       0.577   4.436  -0.767  1.00  0.00     0.065 A 
ATOM      8  C   UNL     1       1.270   3.578  -1.614  1.00  0.00     0.042 A 
ATOM      9  C   UNL     1       1.228   5.398   0.035  1.00  0.00     0.061 A 
ATOM     10  C   UNL     1       2.623   5.398  -0.014  1.00  0.00     0.029 A 
ATOM     11  C   UNL     1       3.323   4.448  -0.793  1.00  0.00     0.016 A 
BRANCH   7  12
ATOM     12  N   UNL     1      -0.813   4.265  -0.652  1.00  0.00    -0.320 N 
ATOM     13  C   UNL     1      -1.487   3.123  -0.255  1.00  0.00     0.255 C 
ATOM     14  O   UNL     1      -2.701   3.187  -0.055  1.00  0.00    -0.269 OA
ATOM     15  H   UNL     1      -1.369   5.045  -0.880  1.00  0.00     0.170 HD
BRANCH  13  16
ATOM     16  C   UNL     1      -0.792   1.821  -0.008  1.00  0.00     0.040 A 
ATOM     17  C   UNL     1       2.576   0.304   0.993  1.00  0.00     0.044 C 
ATOM     18  C   UNL     1       1.137   0.436   0.582  1.00  0.00    -0.050 A 
ATOM     19  C   UNL     1       0.457  -0.686   0.108  1.00  0.00     0.003 A 
ATOM     20  C   UNL     1       0.478   1.677   0.582  1.00  0.00     0.017 A 
ATOM     21  C   UNL     1      -0.843  -0.558  -0.373  1.00  0.00     0.001 A 
ATOM     22  C   UNL     1      -1.467   0.682  -0.439  1.00  0.00     0.014 A 
ENDBRANCH  13  16
ENDBRANCH   7  12
BRANCH   9  23
ATOM     23  N   UNL     1       0.497   6.181   0.912  1.00  0.00    -0.359 N 
ATOM     24  C   UNL     1       0.868   7.525   1.378  1.00  0.00     0.178 C 
ATOM     25  C   UNL     1      -0.322   5.474   1.897  1.00  0.00     0.178 C 
ATOM     26  C   UNL     1      -0.408   8.303   1.871  1.00  0.00     0.284 C 
ATOM     27  C   UNL     1      -1.655   6.228   2.032  1.00  0.00     0.284 C 
ATOM     28  N   UNL     1      -1.490   7.574   2.580  1.00  0.00    -0.324 N 
ATOM     29  H   UNL     1      -2.329   8.120   2.384  1.00  0.00     0.348 HD
BRANCH  28  30
ATOM     30  C   UNL     1      -1.470   7.602   4.055  1.00  0.00     0.363 C 
BRANCH  30  31
ATOM     31  C   UNL     1      -0.359   6.796   4.716  1.00  0.00     0.275 C 
ATOM     32  O   UNL     1       0.786   7.265   4.771  1.00  0.00    -0.268 OA
ATOM     33  N   UNL     1      -0.521   5.558   5.261  1.00  0.00    -0.347 N 
ATOM     34  H   UNL     1       0.299   5.289   5.736  1.00  0.00     0.164 HD
BRANCH  33  35
ATOM     35  C   UNL     1      -1.548   4.482   5.366  1.00  0.00     0.032 C 
ATOM     36  C   UNL     1      -1.401   3.445   4.234  1.00  0.00     0.034 C 
ATOM     37  C   UNL     1      -1.246   3.725   6.679  1.00  0.00     0.034 C 
ATOM     38  C   UNL     1      -2.997   4.970   5.441  1.00  0.00     0.034 C 
ENDBRANCH  33  35
ENDBRANCH  30  31
ENDBRANCH  28  30
ENDBRANCH   9  23
ENDBRANCH   3   6
ENDBRANCH   1   2
BRANCH   1  39
ATOM     39  C   UNL     1       0.719   1.630  -4.317  1.00  0.00     0.023 C 
BRANCH  39  40
ATOM     40  C   UNL     1       1.105   1.245  -5.741  1.00  0.00     0.023 C 
BRANCH  40  41
ATOM     41  C   UNL     1       0.619  -0.139  -6.140  1.00  0.00     0.116 C 
BRANCH  41  42
ATOM     42  N   UNL     1      -0.708  -0.178  -6.742  1.00  0.00    -0.352 N 
ATOM     43  C   UNL     1      -1.497  -1.272  -7.071  1.00  0.00     0.251 C 
ATOM     44  H   UNL     1      -1.103   0.700  -6.944  1.00  0.00     0.163 HD
ATOM     45  O   UNL     1      -2.569  -1.106  -7.627  1.00  0.00    -0.269 OA
BRANCH  43  46
ATOM     46  C   UNL     1      -1.109  -2.634  -6.609  1.00  0.00     0.039 A 
ATOM     47  C   UNL     1      -2.118  -3.457  -6.090  1.00  0.00     0.014 A 
ATOM     48  C   UNL     1       0.223  -3.004  -6.466  1.00  0.00     0.014 A 
ATOM     49  C   UNL     1      -1.783  -4.470  -5.194  1.00  0.00     0.010 A 
ATOM     50  C   UNL     1       0.555  -3.911  -5.483  1.00  0.00     0.010 A 
ATOM     51  C   UNL     1      -0.455  -4.584  -4.791  1.00  0.00    -0.014 A 
BRANCH  51  52
ATOM     52  C   UNL     1      -0.042  -5.232  -3.552  1.00  0.00     0.031 A 
ATOM     53  C   UNL     1       0.714  -6.496  -3.573  1.00  0.00     0.074 A 
ATOM     54  C   UNL     1      -0.258  -4.594  -2.380  1.00  0.00     0.049 A 
ATOM     55  N   UNL     1       0.796  -7.309  -2.575  1.00  0.00    -0.248 NA
ATOM     56  C   UNL     1       1.405  -6.972  -4.762  1.00  0.00     0.031 C 
ATOM     57  C   UNL     1       0.343  -4.886  -1.083  1.00  0.00     0.029 A 
ATOM     58  N   UNL     1      -1.267  -3.677  -2.086  1.00  0.00    -0.354 N 
ATOM     59  C   UNL     1       1.762  -8.242  -2.874  1.00  0.00     0.074 A 
ATOM     60  C   UNL     1       2.056  -8.031  -4.273  1.00  0.00     0.031 C 
ATOM     61  C   UNL     1      -0.479  -4.436  -0.123  1.00  0.00     0.029 A 
ATOM     62  C   UNL     1      -1.685  -3.960  -0.781  1.00  0.00     0.049 A 
ATOM     63  H   UNL     1      -1.615  -2.972  -2.678  1.00  0.00     0.167 HD
ATOM     64  C   UNL     1       2.302  -8.988  -1.866  1.00  0.00     0.037 A 
ATOM     65  C   UNL     1      -2.963  -4.258  -0.418  1.00  0.00     0.037 A 
ATOM     66  C   UNL     1       1.633  -8.713  -0.592  1.00  0.00     0.049 A 
ATOM     67  C   UNL     1      -3.026  -5.572   0.315  1.00  0.00     0.074 A 
ATOM     68  C   UNL     1       1.965  -7.898   0.480  1.00  0.00     0.029 A 
ATOM     69  N   UNL     1       0.296  -9.062  -0.418  1.00  0.00    -0.354 N 
ATOM     70  N   UNL     1      -2.105  -6.490   0.205  1.00  0.00    -0.248 NA
ATOM     71  C   UNL     1      -4.104  -5.960   1.216  1.00  0.00     0.031 C 
ATOM     72  C   UNL     1       0.804  -7.713   1.270  1.00  0.00     0.029 A 
ATOM     73  C   UNL     1      -0.230  -8.434   0.696  1.00  0.00     0.049 A 
ATOM     74  H   UNL     1      -0.206  -9.671  -1.007  1.00  0.00     0.167 HD
ATOM     75  C   UNL     1      -2.422  -7.550   1.008  1.00  0.00     0.074 A 
ATOM     76  C   UNL     1      -3.688  -7.176   1.614  1.00  0.00     0.031 C 
ATOM     77  C   UNL     1      -1.612  -8.642   1.110  1.00  0.00     0.037 A 
BRANCH  64  78
ATOM     78  C   UNL     1       3.636  -9.703  -1.984  1.00  0.00     0.057 A 
ATOM     79  C   UNL     1       4.480  -9.860  -0.866  1.00  0.00     0.134 A 
ATOM     80  C   UNL     1       4.181 -10.198  -3.182  1.00  0.00     0.134 A 
ATOM     81  F   UNL     1       4.072  -9.565   0.374  1.00  0.00    -0.206 F 
ATOM     82  C   UNL     1       5.797 -10.334  -0.960  1.00  0.00     0.040 A 
ATOM     83  C   UNL     1       5.514 -10.619  -3.303  1.00  0.00     0.040 A 
ATOM     84  F   UNL     1       3.430 -10.360  -4.278  1.00  0.00    -0.206 F 
ATOM     85  C   UNL     1       6.336 -10.672  -2.190  1.00  0.00     0.006 A 
ENDBRANCH  64  78
BRANCH  65  86
ATOM     86  C   UNL     1      -4.007  -3.710  -1.319  1.00  0.00     0.057 A 
ATOM     87  C   UNL     1      -4.221  -2.321  -1.314  1.00  0.00     0.134 A 
ATOM     88  C   UNL     1      -4.455  -4.418  -2.439  1.00  0.00     0.134 A 
ATOM     89  F   UNL     1      -3.840  -1.588  -0.257  1.00  0.00    -0.206 F 
ATOM     90  C   UNL     1      -4.713  -1.645  -2.433  1.00  0.00     0.040 A 
ATOM     91  C   UNL     1      -4.968  -3.752  -3.560  1.00  0.00     0.040 A 
ATOM     92  F   UNL     1      -4.257  -5.739  -2.531  1.00  0.00    -0.206 F 
ATOM     93  C   UNL     1      -5.054  -2.360  -3.576  1.00  0.00     0.006 A 
ENDBRANCH  65  86
BRANCH  77  94
ATOM     94  C   UNL     1      -2.009  -9.965   1.712  1.00  0.00     0.057 A 
ATOM     95  C   UNL     1      -3.325 -10.450   1.727  1.00  0.00     0.134 A 
ATOM     96  C   UNL     1      -1.027 -10.879   2.154  1.00  0.00     0.134 A 
ATOM     97  F   UNL     1      -4.344  -9.734   1.233  1.00  0.00    -0.206 F 
ATOM     98  C   UNL     1      -3.649 -11.728   2.199  1.00  0.00     0.040 A 
ATOM     99  C   UNL     1      -1.333 -12.175   2.576  1.00  0.00     0.040 A 
ATOM    100  F   UNL     1       0.277 -10.563   2.168  1.00  0.00    -0.206 F 
ATOM    101  C   UNL     1      -2.651 -12.600   2.613  1.00  0.00     0.006 A 
ENDBRANCH  77  94
ENDBRANCH  51  52
ENDBRANCH  43  46
ENDBRANCH  41  42
ENDBRANCH  40  41
ENDBRANCH  39  40
ENDBRANCH   1  39
TORSDOF 17
