REMARK SMILES O=C(NCCCCNC(=O)C1CCN(C(=O)c2cc(S(=O)(=O)N3CCOCC3)c(Cl)cc2Cl)CC1)c1ccc(-c2c3nc(c(-c4c(F)cccc4F)c4ccc([nH]4)c(-c4c(F)cccc4F)c4nc(c(-c5c(F)cccc5F)c5ccc2[nH]5)C=C4)C=C3)cc1
REMARK SMILES IDX 6 1 5 2 4 3 3 4 1 5 2 6 36 8 37 9 89 10 38 11 88 12 39 13
REMARK SMILES IDX 40 14 41 15 82 16 42 17 87 18 81 19 83 20 43 21 86 22 80 23
REMARK SMILES IDX 79 24 44 26 70 27 53 28 69 29 54 30 57 31 68 32 84 33 55 34
REMARK SMILES IDX 56 35 67 37 85 38 58 39 45 40 46 41 51 42 47 43 48 44 50 45
REMARK SMILES IDX 52 46 49 47 71 48 72 49 77 50 73 51 74 52 76 53 78 54 75 55
REMARK SMILES IDX 59 56 60 57 65 58 61 59 62 60 64 61 66 62 63 63 7 64 8 65
REMARK SMILES IDX 9 66 10 68 11 69 12 70 35 71 13 72 34 73 14 74 15 75 16 76
REMARK SMILES IDX 17 77 18 78 32 79 19 80 31 81 33 82 29 83 30 84 20 85 21 86
REMARK SMILES IDX 22 87 23 88 24 89 28 90 25 91 27 92 26 93
REMARK H PARENT 3 7 83 25 57 36 8 67
REMARK Flexibility Score: inf
ROOT
ATOM      1  C   UNL     1       4.270   1.312  -3.871  1.00  0.00     0.023 C 
ENDROOT
BRANCH   1   2
ATOM      2  C   UNL     1       4.746   0.223  -2.910  1.00  0.00     0.023 C 
BRANCH   2   3
ATOM      3  C   UNL     1       4.459   0.481  -1.438  1.00  0.00     0.116 C 
BRANCH   3   4
ATOM      4  N   UNL     1       3.039   0.556  -1.127  1.00  0.00    -0.352 N 
ATOM      5  O   UNL     1       1.122   0.017  -0.057  1.00  0.00    -0.269 OA
ATOM      6  C   UNL     1       2.345  -0.067  -0.114  1.00  0.00     0.251 C 
ATOM      7  H   UNL     1       2.503   1.129  -1.721  1.00  0.00     0.163 HD
BRANCH   6   8
ATOM      8  C   UNL     1       3.082  -0.868   0.887  1.00  0.00     0.039 A 
ATOM      9  C   UNL     1       4.253  -0.371   1.460  1.00  0.00     0.014 A 
ATOM     10  C   UNL     1       2.618  -2.142   1.230  1.00  0.00     0.014 A 
ATOM     11  C   UNL     1       5.046  -1.208   2.233  1.00  0.00     0.010 A 
ATOM     12  C   UNL     1       3.370  -2.947   2.094  1.00  0.00     0.010 A 
ATOM     13  C   UNL     1       4.609  -2.501   2.573  1.00  0.00    -0.014 A 
BRANCH  13  14
ATOM     14  C   UNL     1       5.455  -3.315   3.483  1.00  0.00     0.031 A 
ATOM     15  C   UNL     1       6.098  -4.597   3.032  1.00  0.00     0.074 A 
ATOM     16  C   UNL     1       5.704  -2.833   4.717  1.00  0.00     0.049 A 
ATOM     17  N   UNL     1       6.937  -5.367   3.681  1.00  0.00    -0.248 NA
ATOM     18  C   UNL     1       5.755  -5.088   1.689  1.00  0.00     0.031 C 
ATOM     19  C   UNL     1       5.115  -1.612   5.275  1.00  0.00     0.029 A 
ATOM     20  N   UNL     1       6.540  -3.279   5.707  1.00  0.00    -0.354 N 
ATOM     21  C   UNL     1       7.215  -6.432   2.834  1.00  0.00     0.074 A 
ATOM     22  C   UNL     1       6.431  -6.228   1.634  1.00  0.00     0.031 C 
ATOM     23  C   UNL     1       5.658  -1.369   6.475  1.00  0.00     0.029 A 
ATOM     24  C   UNL     1       6.584  -2.448   6.800  1.00  0.00     0.049 A 
ATOM     25  H   UNL     1       7.058  -4.114   5.642  1.00  0.00     0.167 HD
ATOM     26  C   UNL     1       8.055  -7.477   3.036  1.00  0.00     0.037 A 
ATOM     27  C   UNL     1       7.285  -2.542   7.943  1.00  0.00     0.037 A 
ATOM     28  C   UNL     1       8.839  -7.673   4.230  1.00  0.00     0.049 A 
ATOM     29  C   UNL     1       8.211  -3.705   8.134  1.00  0.00     0.074 A 
ATOM     30  C   UNL     1       9.722  -8.697   4.525  1.00  0.00     0.029 A 
ATOM     31  N   UNL     1       8.836  -6.823   5.326  1.00  0.00    -0.354 N 
ATOM     32  N   UNL     1       8.474  -4.693   7.314  1.00  0.00    -0.248 NA
ATOM     33  C   UNL     1       8.937  -3.768   9.409  1.00  0.00     0.031 C 
ATOM     34  C   UNL     1      10.229  -8.485   5.812  1.00  0.00     0.029 A 
ATOM     35  C   UNL     1       9.694  -7.306   6.303  1.00  0.00     0.049 A 
ATOM     36  H   UNL     1       8.304  -5.998   5.400  1.00  0.00     0.167 HD
ATOM     37  C   UNL     1       9.394  -5.496   7.971  1.00  0.00     0.074 A 
ATOM     38  C   UNL     1       9.672  -4.858   9.242  1.00  0.00     0.031 C 
ATOM     39  C   UNL     1       9.948  -6.664   7.566  1.00  0.00     0.037 A 
BRANCH  26  40
ATOM     40  C   UNL     1       8.171  -8.500   1.943  1.00  0.00     0.057 A 
ATOM     41  C   UNL     1       8.861  -8.232   0.753  1.00  0.00     0.134 A 
ATOM     42  C   UNL     1       7.646  -9.789   2.107  1.00  0.00     0.134 A 
ATOM     43  F   UNL     1       9.379  -7.015   0.527  1.00  0.00    -0.206 F 
ATOM     44  C   UNL     1       9.013  -9.204  -0.238  1.00  0.00     0.040 A 
ATOM     45  C   UNL     1       7.810 -10.775   1.133  1.00  0.00     0.040 A 
ATOM     46  F   UNL     1       6.981 -10.116   3.225  1.00  0.00    -0.206 F 
ATOM     47  C   UNL     1       8.494 -10.483  -0.046  1.00  0.00     0.006 A 
ENDBRANCH  26  40
BRANCH  27  48
ATOM     48  C   UNL     1       7.123  -1.508   8.994  1.00  0.00     0.057 A 
ATOM     49  C   UNL     1       8.157  -0.620   9.309  1.00  0.00     0.134 A 
ATOM     50  C   UNL     1       5.921  -1.378   9.702  1.00  0.00     0.134 A 
ATOM     51  F   UNL     1       9.336  -0.704   8.676  1.00  0.00    -0.206 F 
ATOM     52  C   UNL     1       8.008   0.351  10.301  1.00  0.00     0.040 A 
ATOM     53  C   UNL     1       5.748  -0.394  10.674  1.00  0.00     0.040 A 
ATOM     54  F   UNL     1       4.889  -2.192   9.438  1.00  0.00    -0.206 F 
ATOM     55  C   UNL     1       6.797   0.469  10.982  1.00  0.00     0.006 A 
ENDBRANCH  27  48
BRANCH  39  56
ATOM     56  C   UNL     1      10.912  -7.313   8.514  1.00  0.00     0.057 A 
ATOM     57  C   UNL     1      10.478  -7.932   9.694  1.00  0.00     0.134 A 
ATOM     58  C   UNL     1      12.287  -7.316   8.248  1.00  0.00     0.134 A 
ATOM     59  F   UNL     1       9.175  -7.949  10.012  1.00  0.00    -0.206 F 
ATOM     60  C   UNL     1      11.381  -8.502  10.592  1.00  0.00     0.040 A 
ATOM     61  C   UNL     1      13.197  -7.904   9.127  1.00  0.00     0.040 A 
ATOM     62  F   UNL     1      12.766  -6.745   7.133  1.00  0.00    -0.206 F 
ATOM     63  C   UNL     1      12.745  -8.492  10.307  1.00  0.00     0.006 A 
ENDBRANCH  39  56
ENDBRANCH  13  14
ENDBRANCH   6   8
ENDBRANCH   3   4
ENDBRANCH   2   3
ENDBRANCH   1   2
BRANCH   1  64
ATOM     64  C   UNL     1       4.756   2.722  -3.545  1.00  0.00     0.116 C 
BRANCH  64  65
ATOM     65  N   UNL     1       6.204   2.825  -3.568  1.00  0.00    -0.356 N 
ATOM     66  C   UNL     1       7.013   3.577  -4.369  1.00  0.00     0.223 C 
ATOM     67  H   UNL     1       6.673   2.269  -2.905  1.00  0.00     0.163 HD
ATOM     68  O   UNL     1       8.229   3.468  -4.226  1.00  0.00    -0.275 OA
BRANCH  66  69
ATOM     69  C   UNL     1       6.383   4.536  -5.375  1.00  0.00     0.082 C 
ATOM     70  C   UNL     1       7.383   4.985  -6.453  1.00  0.00     0.035 C 
ATOM     71  C   UNL     1       5.773   5.751  -4.661  1.00  0.00     0.035 C 
ATOM     72  C   UNL     1       8.389   6.027  -5.959  1.00  0.00     0.120 C 
ATOM     73  C   UNL     1       6.838   6.729  -4.178  1.00  0.00     0.120 C 
ATOM     74  N   UNL     1       7.716   7.128  -5.274  1.00  0.00    -0.339 N 
ATOM     75  C   UNL     1       8.006   8.435  -5.657  1.00  0.00     0.255 C 
ATOM     76  O   UNL     1       8.814   8.747  -6.526  1.00  0.00    -0.269 OA
BRANCH  75  77
ATOM     77  C   UNL     1       7.302   9.536  -4.980  1.00  0.00     0.060 A 
ATOM     78  C   UNL     1       7.684   9.894  -3.699  1.00  0.00     0.038 A 
ATOM     79  C   UNL     1       6.274  10.227  -5.599  1.00  0.00     0.055 A 
ATOM     80  C   UNL     1       6.967  10.895  -3.007  1.00  0.00     0.102 A 
ATOM     81  C   UNL     1       5.572  11.252  -4.909  1.00  0.00     0.043 A 
ATOM     82  Cl  UNL     1       5.755   9.838  -7.205  1.00  0.00    -0.083 Cl
ATOM     83  C   UNL     1       5.807  11.674  -3.508  1.00  0.00     0.062 A 
ATOM     84  Cl  UNL     1       4.537  13.264  -2.256  1.00  0.00    -0.083 Cl
BRANCH  80  85
ATOM     85  S   UNL     1       7.511  11.151  -1.386  1.00  0.00     0.244 S 
ATOM     86  O   UNL     1       7.221   9.968  -0.608  1.00  0.00    -0.207 OA
ATOM     87  O   UNL     1       8.778  11.833  -1.409  1.00  0.00    -0.207 OA
BRANCH  85  88
ATOM     88  N   UNL     1       6.247  12.222  -1.335  1.00  0.00    -0.193 NA
ATOM     89  C   UNL     1       4.665  11.121  -1.636  1.00  0.00     0.131 C 
ATOM     90  C   UNL     1       6.710  13.567  -2.673  1.00  0.00     0.131 C 
ATOM     91  C   UNL     1       3.574  11.479  -3.191  1.00  0.00     0.177 C 
ATOM     92  C   UNL     1       5.522  13.813  -4.181  1.00  0.00     0.177 C 
ATOM     93  O   UNL     1       3.972  12.860  -4.310  1.00  0.00    -0.379 OA
ENDBRANCH  85  88
ENDBRANCH  80  85
ENDBRANCH  75  77
ENDBRANCH  66  69
ENDBRANCH  64  65
ENDBRANCH   1  64
TORSDOF 14
