REMARK SMILES C/C(=N\Nc1nc(-c2ccc(Cl)cc2)cs1)c1nnn(-c2ccc(C(=O)NCCCCNC(=O)c3ccc(-c4c5nc(c(-c6c(F)cccc6F)c6ccc([nH]6)c(-c6c(F)cccc6F)c6nc(c(-c7c(F)cccc7F)c7ccc4[nH]7)C=C6)C=C5)cc3)cc2)c1C
REMARK SMILES IDX 28 1 27 2 25 3 26 4 24 6 21 7 22 8 90 9 23 10 89 11 20 12
REMARK SMILES IDX 17 13 18 14 91 15 19 16 92 17 2 18 1 19 3 20 4 21 5 23 6 24
REMARK SMILES IDX 16 25 7 26 15 27 8 28 9 29 14 30 10 31 13 32 11 33 12 34
REMARK SMILES IDX 29 35 30 36 31 37 32 38 33 39 34 41 35 42 36 43 88 44 37 45
REMARK SMILES IDX 87 46 38 47 39 48 40 49 81 50 41 51 86 52 80 53 82 54 42 55
REMARK SMILES IDX 85 56 79 57 78 58 43 60 69 61 52 62 68 63 53 64 56 65 67 66
REMARK SMILES IDX 83 67 54 68 55 69 66 71 84 72 57 73 44 74 45 75 50 76 46 77
REMARK SMILES IDX 47 78 49 79 51 80 48 81 70 82 71 83 76 84 72 85 73 86 75 87
REMARK SMILES IDX 77 88 74 89 58 90 59 91 64 92 60 93 61 94 63 95 65 96 62 97
REMARK H PARENT 27 5 4 22 32 40 82 59 56 70
REMARK Flexibility Score: inf
ROOT
ATOM      1  C   UNL     1       8.380  -3.358   5.081  1.00  0.00     0.116 C 
ENDROOT
BRANCH   1   2
ATOM      2  N   UNL     1       8.106  -4.745   4.747  1.00  0.00    -0.352 N 
ATOM      3  C   UNL     1       6.967  -5.411   4.356  1.00  0.00     0.251 C 
ATOM      4  O   UNL     1       7.082  -6.604   4.075  1.00  0.00    -0.269 OA
ATOM      5  H   UNL     1       8.897  -5.328   4.813  1.00  0.00     0.163 HD
BRANCH   3   6
ATOM      6  C   UNL     1       5.632  -4.757   4.197  1.00  0.00     0.039 A 
ATOM      7  C   UNL     1       3.205  -3.507   3.587  1.00  0.00     0.067 A 
ATOM      8  C   UNL     1       3.452  -4.783   3.081  1.00  0.00     0.029 A 
ATOM      9  C   UNL     1       4.090  -2.909   4.479  1.00  0.00     0.029 A 
ATOM     10  C   UNL     1       4.681  -5.391   3.371  1.00  0.00     0.016 A 
ATOM     11  C   UNL     1       5.276  -3.555   4.808  1.00  0.00     0.016 A 
BRANCH   7  12
ATOM     12  N   UNL     1       2.143  -2.737   3.087  1.00  0.00    -0.217 N 
ATOM     13  C   UNL     1       0.966  -1.246   2.032  1.00  0.00     0.132 A 
ATOM     14  N   UNL     1       0.129  -2.238   2.465  1.00  0.00    -0.128 NA
ATOM     15  C   UNL     1       2.263  -1.532   2.424  1.00  0.00     0.071 A 
ATOM     16  N   UNL     1       0.872  -3.183   3.033  1.00  0.00    -0.061 NA
ATOM     17  C   UNL     1       3.555  -0.893   2.051  1.00  0.00     0.069 C 
BRANCH  13  18
ATOM     18  C   UNL     1       0.599  -0.219   1.073  1.00  0.00     0.087 C 
ATOM     19  C   UNL     1       1.285  -0.367  -0.265  1.00  0.00     0.071 C 
ATOM     20  N   UNL     1      -0.194   0.727   1.494  1.00  0.00    -0.176 NA
BRANCH  20  21
ATOM     21  N   UNL     1      -0.505   1.841   0.743  1.00  0.00    -0.252 N 
ATOM     22  H   UNL     1      -0.845   2.607   1.260  1.00  0.00     0.193 HD
BRANCH  21  23
ATOM     23  C   UNL     1      -0.416   2.048  -0.595  1.00  0.00     0.203 A 
ATOM     24  N   UNL     1      -0.639   1.152  -1.527  1.00  0.00    -0.219 NA
ATOM     25  S   UNL     1       0.167   3.556  -1.210  1.00  0.00    -0.103 S 
ATOM     26  C   UNL     1      -0.023   1.518  -2.706  1.00  0.00     0.084 A 
ATOM     27  C   UNL     1       0.485   2.800  -2.723  1.00  0.00     0.097 A 
BRANCH  26  28
ATOM     28  C   UNL     1       0.140   0.533  -3.759  1.00  0.00     0.001 A 
ATOM     29  C   UNL     1      -0.966  -0.225  -4.163  1.00  0.00     0.012 A 
ATOM     30  C   UNL     1       1.406   0.236  -4.283  1.00  0.00     0.012 A 
ATOM     31  C   UNL     1      -0.818  -1.246  -5.105  1.00  0.00     0.021 A 
ATOM     32  C   UNL     1       1.556  -0.794  -5.217  1.00  0.00     0.021 A 
ATOM     33  C   UNL     1       0.442  -1.525  -5.629  1.00  0.00     0.041 A 
ATOM     34  Cl  UNL     1       0.628  -2.792  -6.778  1.00  0.00    -0.084 Cl
ENDBRANCH  26  28
ENDBRANCH  21  23
ENDBRANCH  20  21
ENDBRANCH  13  18
ENDBRANCH   7  12
ENDBRANCH   3   6
ENDBRANCH   1   2
BRANCH   1  35
ATOM     35  C   UNL     1       8.255  -3.092   6.590  1.00  0.00     0.023 C 
BRANCH  35  36
ATOM     36  C   UNL     1       9.418  -3.583   7.463  1.00  0.00     0.023 C 
BRANCH  36  37
ATOM     37  C   UNL     1      10.732  -2.844   7.257  1.00  0.00     0.116 C 
BRANCH  37  38
ATOM     38  N   UNL     1      10.663  -1.406   7.570  1.00  0.00    -0.352 N 
ATOM     39  C   UNL     1      11.597  -0.423   7.274  1.00  0.00     0.251 C 
ATOM     40  H   UNL     1       9.856  -1.105   8.046  1.00  0.00     0.163 HD
ATOM     41  O   UNL     1      11.636   0.643   7.890  1.00  0.00    -0.269 OA
BRANCH  39  42
ATOM     42  C   UNL     1      12.519  -0.672   6.160  1.00  0.00     0.039 A 
ATOM     43  C   UNL     1      13.887  -0.384   6.177  1.00  0.00     0.014 A 
ATOM     44  C   UNL     1      11.945  -1.335   5.088  1.00  0.00     0.014 A 
ATOM     45  C   UNL     1      14.664  -0.834   5.110  1.00  0.00     0.010 A 
ATOM     46  C   UNL     1      12.749  -2.063   4.274  1.00  0.00     0.010 A 
ATOM     47  C   UNL     1      14.070  -1.681   4.162  1.00  0.00    -0.014 A 
BRANCH  47  48
ATOM     48  C   UNL     1      14.750  -2.218   3.001  1.00  0.00     0.031 A 
ATOM     49  C   UNL     1      15.950  -3.029   3.287  1.00  0.00     0.074 A 
ATOM     50  C   UNL     1      14.186  -2.168   1.772  1.00  0.00     0.049 A 
ATOM     51  N   UNL     1      17.175  -2.687   3.078  1.00  0.00    -0.248 NA
ATOM     52  C   UNL     1      15.797  -4.298   4.011  1.00  0.00     0.031 C 
ATOM     53  C   UNL     1      12.863  -1.667   1.360  1.00  0.00     0.029 A 
ATOM     54  N   UNL     1      14.685  -2.652   0.609  1.00  0.00    -0.354 N 
ATOM     55  C   UNL     1      17.952  -3.772   3.464  1.00  0.00     0.074 A 
ATOM     56  C   UNL     1      17.072  -4.658   4.185  1.00  0.00     0.031 C 
ATOM     57  C   UNL     1      12.591  -2.071   0.099  1.00  0.00     0.029 A 
ATOM     58  C   UNL     1      13.780  -2.694  -0.444  1.00  0.00     0.049 A 
ATOM     59  H   UNL     1      15.618  -2.951   0.517  1.00  0.00     0.167 HD
ATOM     60  C   UNL     1      19.210  -3.938   2.971  1.00  0.00     0.037 A 
ATOM     61  C   UNL     1      14.011  -3.217  -1.673  1.00  0.00     0.037 A 
ATOM     62  C   UNL     1      19.647  -2.758   2.263  1.00  0.00     0.049 A 
ATOM     63  C   UNL     1      15.488  -3.236  -1.856  1.00  0.00     0.074 A 
ATOM     64  C   UNL     1      19.880  -1.446   2.625  1.00  0.00     0.029 A 
ATOM     65  N   UNL     1      19.494  -2.749   0.896  1.00  0.00    -0.354 N 
ATOM     66  N   UNL     1      16.205  -2.147  -1.948  1.00  0.00    -0.248 NA
ATOM     67  C   UNL     1      16.210  -4.419  -1.409  1.00  0.00     0.031 C 
ATOM     68  C   UNL     1      19.362  -0.671   1.545  1.00  0.00     0.029 A 
ATOM     69  C   UNL     1      18.919  -1.550   0.554  1.00  0.00     0.049 A 
ATOM     70  H   UNL     1      19.750  -3.470   0.276  1.00  0.00     0.167 HD
ATOM     71  C   UNL     1      17.334  -2.394  -1.177  1.00  0.00     0.074 A 
ATOM     72  C   UNL     1      17.315  -3.837  -0.930  1.00  0.00     0.031 C 
ATOM     73  C   UNL     1      18.008  -1.379  -0.556  1.00  0.00     0.037 A 
BRANCH  60  74
ATOM     74  C   UNL     1      19.920  -5.252   2.816  1.00  0.00     0.057 A 
ATOM     75  C   UNL     1      21.293  -5.255   2.514  1.00  0.00     0.134 A 
ATOM     76  C   UNL     1      19.264  -6.488   2.665  1.00  0.00     0.134 A 
ATOM     77  F   UNL     1      22.024  -4.135   2.622  1.00  0.00    -0.206 F 
ATOM     78  C   UNL     1      21.947  -6.387   2.017  1.00  0.00     0.040 A 
ATOM     79  C   UNL     1      19.919  -7.637   2.216  1.00  0.00     0.040 A 
ATOM     80  F   UNL     1      17.944  -6.622   2.841  1.00  0.00    -0.206 F 
ATOM     81  C   UNL     1      21.257  -7.581   1.856  1.00  0.00     0.006 A 
ENDBRANCH  60  74
BRANCH  61  82
ATOM     82  C   UNL     1      13.068  -3.979  -2.521  1.00  0.00     0.057 A 
ATOM     83  C   UNL     1      13.321  -4.211  -3.879  1.00  0.00     0.134 A 
ATOM     84  C   UNL     1      12.019  -4.727  -1.954  1.00  0.00     0.134 A 
ATOM     85  F   UNL     1      14.325  -3.576  -4.501  1.00  0.00    -0.206 F 
ATOM     86  C   UNL     1      12.590  -5.148  -4.624  1.00  0.00     0.040 A 
ATOM     87  C   UNL     1      11.280  -5.663  -2.686  1.00  0.00     0.040 A 
ATOM     88  F   UNL     1      11.732  -4.636  -0.647  1.00  0.00    -0.206 F 
ATOM     89  C   UNL     1      11.573  -5.887  -4.024  1.00  0.00     0.006 A 
ENDBRANCH  61  82
BRANCH  73  90
ATOM     90  C   UNL     1      17.604   0.035  -0.886  1.00  0.00     0.057 A 
ATOM     91  C   UNL     1      16.356   0.590  -0.560  1.00  0.00     0.134 A 
ATOM     92  C   UNL     1      18.560   0.911  -1.404  1.00  0.00     0.134 A 
ATOM     93  F   UNL     1      15.411  -0.137   0.042  1.00  0.00    -0.206 F 
ATOM     94  C   UNL     1      16.058   1.938  -0.782  1.00  0.00     0.040 A 
ATOM     95  C   UNL     1      18.287   2.268  -1.603  1.00  0.00     0.040 A 
ATOM     96  F   UNL     1      19.799   0.473  -1.678  1.00  0.00    -0.206 F 
ATOM     97  C   UNL     1      17.029   2.784  -1.303  1.00  0.00     0.006 A 
ENDBRANCH  73  90
ENDBRANCH  47  48
ENDBRANCH  39  42
ENDBRANCH  37  38
ENDBRANCH  36  37
ENDBRANCH  35  36
ENDBRANCH   1  35
TORSDOF 16
