REMARK SMILES Cc1ccccc1OCC(=O)c1nc(C)c(C(=O)NCCCCNC(=O)c2ccc(-c3c4nc(c(-c5c(F)cccc5F)c5ccc([nH]5)c(-c5c(F)cccc5F)c5nc(c(-c6c(F)cccc6F)c6ccc3[nH]6)C=C5)C=C4)cc2)s1
REMARK SMILES IDX 20 1 19 2 17 3 18 4 16 6 12 7 13 8 81 9 14 10 15 11 10 12
REMARK SMILES IDX 11 13 9 14 8 15 7 16 1 17 2 18 3 19 4 20 6 21 5 22 21 23
REMARK SMILES IDX 22 24 23 25 24 26 25 27 26 29 27 30 28 31 80 32 29 33 79 34
REMARK SMILES IDX 30 35 31 36 32 37 73 38 33 39 78 40 72 41 74 42 34 43 77 44
REMARK SMILES IDX 71 45 70 46 35 48 61 49 44 50 60 51 45 52 48 53 59 54 75 55
REMARK SMILES IDX 46 56 47 57 58 59 76 60 49 61 36 62 37 63 42 64 38 65 39 66
REMARK SMILES IDX 41 67 43 68 40 69 62 70 63 71 68 72 64 73 65 74 67 75 69 76
REMARK SMILES IDX 66 77 50 78 51 79 56 80 52 81 53 82 55 83 57 84 54 85
REMARK H PARENT 19 5 24 28 74 47 48 58
REMARK Flexibility Score: inf
ROOT
ATOM      1  C   UNL     1       2.213   3.230   7.786  1.00  0.00     0.116 C 
ENDROOT
BRANCH   1   2
ATOM      2  N   UNL     1       1.137   3.523   6.872  1.00  0.00    -0.351 N 
ATOM      3  C   UNL     1       0.969   3.441   5.514  1.00  0.00     0.263 C 
ATOM      4  O   UNL     1      -0.170   3.795   5.177  1.00  0.00    -0.268 OA
ATOM      5  H   UNL     1       0.335   3.862   7.330  1.00  0.00     0.163 HD
BRANCH   3   6
ATOM      6  C   UNL     1       1.966   3.002   4.535  1.00  0.00     0.115 A 
ATOM      7  C   UNL     1       2.858   2.444   2.288  1.00  0.00     0.164 A 
ATOM      8  N   UNL     1       3.759   2.243   3.218  1.00  0.00    -0.237 NA
ATOM      9  S   UNL     1       1.378   3.020   2.875  1.00  0.00    -0.105 S 
ATOM     10  C   UNL     1       3.293   2.572   4.487  1.00  0.00     0.062 A 
ATOM     11  C   UNL     1       4.346   2.381   5.511  1.00  0.00     0.068 C 
BRANCH   7  12
ATOM     12  C   UNL     1       3.180   2.207   0.885  1.00  0.00     0.228 C 
ATOM     13  O   UNL     1       4.284   1.774   0.525  1.00  0.00    -0.288 OA
BRANCH  12  14
ATOM     14  C   UNL     1       2.184   2.596  -0.208  1.00  0.00     0.313 C 
BRANCH  14  15
ATOM     15  O   UNL     1       0.817   2.300  -0.108  1.00  0.00    -0.485 OA
BRANCH  15  16
ATOM     16  C   UNL     1       0.294   1.044  -0.134  1.00  0.00     0.122 A 
ATOM     17  C   UNL     1       2.362  -0.482  -0.497  1.00  0.00     0.048 C 
ATOM     18  C   UNL     1       0.901  -0.210  -0.286  1.00  0.00    -0.009 A 
ATOM     19  C   UNL     1       0.084  -1.362  -0.194  1.00  0.00     0.007 A 
ATOM     20  C   UNL     1      -1.296  -1.280  -0.010  1.00  0.00     0.001 A 
ATOM     21  C   UNL     1      -1.103   1.107   0.038  1.00  0.00     0.047 A 
ATOM     22  C   UNL     1      -1.895  -0.037   0.095  1.00  0.00     0.004 A 
ENDBRANCH  15  16
ENDBRANCH  14  15
ENDBRANCH  12  14
ENDBRANCH   7  12
ENDBRANCH   3   6
ENDBRANCH   1   2
BRANCH   1  23
ATOM     23  C   UNL     1       3.170   4.421   7.951  1.00  0.00     0.023 C 
BRANCH  23  24
ATOM     24  C   UNL     1       2.697   5.507   8.918  1.00  0.00     0.023 C 
BRANCH  24  25
ATOM     25  C   UNL     1       2.799   5.082  10.375  1.00  0.00     0.116 C 
BRANCH  25  26
ATOM     26  N   UNL     1       4.129   5.202  10.972  1.00  0.00    -0.352 N 
ATOM     27  C   UNL     1       4.634   4.690  12.157  1.00  0.00     0.251 C 
ATOM     28  H   UNL     1       4.769   5.735  10.447  1.00  0.00     0.163 HD
ATOM     29  O   UNL     1       5.746   4.996  12.518  1.00  0.00    -0.269 OA
BRANCH  27  30
ATOM     30  C   UNL     1       3.874   3.640  12.908  1.00  0.00     0.039 A 
ATOM     31  C   UNL     1       4.606   2.599  13.498  1.00  0.00     0.014 A 
ATOM     32  C   UNL     1       2.492   3.542  12.829  1.00  0.00     0.014 A 
ATOM     33  C   UNL     1       3.990   1.369  13.722  1.00  0.00     0.010 A 
ATOM     34  C   UNL     1       1.916   2.293  12.904  1.00  0.00     0.010 A 
ATOM     35  C   UNL     1       2.681   1.189  13.288  1.00  0.00    -0.014 A 
BRANCH  35  36
ATOM     36  C   UNL     1       2.071  -0.113  13.049  1.00  0.00     0.031 A 
ATOM     37  C   UNL     1       0.905  -0.563  13.840  1.00  0.00     0.074 A 
ATOM     38  C   UNL     1       2.475  -0.839  11.980  1.00  0.00     0.049 A 
ATOM     39  N   UNL     1       0.535  -1.795  13.929  1.00  0.00    -0.248 NA
ATOM     40  C   UNL     1       0.062   0.343  14.616  1.00  0.00     0.031 C 
ATOM     41  C   UNL     1       1.776  -1.960  11.357  1.00  0.00     0.029 A 
ATOM     42  N   UNL     1       3.723  -0.814  11.341  1.00  0.00    -0.354 N 
ATOM     43  C   UNL     1      -0.706  -1.818  14.517  1.00  0.00     0.074 A 
ATOM     44  C   UNL     1      -0.940  -0.468  14.971  1.00  0.00     0.031 C 
ATOM     45  C   UNL     1       2.656  -2.685  10.651  1.00  0.00     0.029 A 
ATOM     46  C   UNL     1       3.973  -2.137  10.915  1.00  0.00     0.049 A 
ATOM     47  H   UNL     1       4.307  -0.031  11.215  1.00  0.00     0.167 HD
ATOM     48  C   UNL     1      -1.462  -2.948  14.450  1.00  0.00     0.037 A 
ATOM     49  C   UNL     1       5.029  -2.854  11.395  1.00  0.00     0.037 A 
ATOM     50  C   UNL     1      -0.766  -4.021  13.754  1.00  0.00     0.049 A 
ATOM     51  C   UNL     1       4.638  -4.122  12.116  1.00  0.00     0.074 A 
ATOM     52  C   UNL     1      -0.798  -4.465  12.442  1.00  0.00     0.029 A 
ATOM     53  N   UNL     1       0.361  -4.588  14.334  1.00  0.00    -0.354 N 
ATOM     54  N   UNL     1       3.436  -4.358  12.566  1.00  0.00    -0.248 NA
ATOM     55  C   UNL     1       5.559  -5.219  12.399  1.00  0.00     0.031 C 
ATOM     56  C   UNL     1       0.342  -5.274  12.223  1.00  0.00     0.029 A 
ATOM     57  C   UNL     1       1.056  -5.337  13.406  1.00  0.00     0.049 A 
ATOM     58  H   UNL     1       0.627  -4.473  15.275  1.00  0.00     0.167 HD
ATOM     59  C   UNL     1       3.406  -5.578  13.194  1.00  0.00     0.074 A 
ATOM     60  C   UNL     1       4.756  -6.086  13.044  1.00  0.00     0.031 C 
ATOM     61  C   UNL     1       2.267  -6.050  13.782  1.00  0.00     0.037 A 
BRANCH  48  62
ATOM     62  C   UNL     1      -2.926  -2.965  14.788  1.00  0.00     0.057 A 
ATOM     63  C   UNL     1      -3.848  -3.697  14.016  1.00  0.00     0.134 A 
ATOM     64  C   UNL     1      -3.488  -2.246  15.855  1.00  0.00     0.134 A 
ATOM     65  F   UNL     1      -3.455  -4.479  13.002  1.00  0.00    -0.206 F 
ATOM     66  C   UNL     1      -5.229  -3.648  14.235  1.00  0.00     0.040 A 
ATOM     67  C   UNL     1      -4.872  -2.147  16.056  1.00  0.00     0.040 A 
ATOM     68  F   UNL     1      -2.713  -1.627  16.758  1.00  0.00    -0.206 F 
ATOM     69  C   UNL     1      -5.750  -2.845  15.238  1.00  0.00     0.006 A 
ENDBRANCH  48  62
BRANCH  49  70
ATOM     70  C   UNL     1       6.216  -2.011  11.688  1.00  0.00     0.057 A 
ATOM     71  C   UNL     1       6.897  -1.433  10.602  1.00  0.00     0.134 A 
ATOM     72  C   UNL     1       6.411  -1.432  12.945  1.00  0.00     0.134 A 
ATOM     73  F   UNL     1       6.751  -1.942   9.369  1.00  0.00    -0.206 F 
ATOM     74  C   UNL     1       7.637  -0.256  10.737  1.00  0.00     0.040 A 
ATOM     75  C   UNL     1       7.158  -0.256  13.093  1.00  0.00     0.040 A 
ATOM     76  F   UNL     1       5.774  -1.911  14.023  1.00  0.00    -0.206 F 
ATOM     77  C   UNL     1       7.736   0.358  11.982  1.00  0.00     0.006 A 
ENDBRANCH  49  70
BRANCH  61  78
ATOM     78  C   UNL     1       2.130  -7.252  14.694  1.00  0.00     0.057 A 
ATOM     79  C   UNL     1       3.169  -7.790  15.465  1.00  0.00     0.134 A 
ATOM     80  C   UNL     1       0.855  -7.820  14.940  1.00  0.00     0.134 A 
ATOM     81  F   UNL     1       4.410  -7.291  15.422  1.00  0.00    -0.206 F 
ATOM     82  C   UNL     1       2.966  -8.839  16.375  1.00  0.00     0.040 A 
ATOM     83  C   UNL     1       0.632  -8.825  15.886  1.00  0.00     0.040 A 
ATOM     84  F   UNL     1      -0.244  -7.406  14.292  1.00  0.00    -0.206 F 
ATOM     85  C   UNL     1       1.694  -9.349  16.601  1.00  0.00     0.006 A 
ENDBRANCH  61  78
ENDBRANCH  35  36
ENDBRANCH  27  30
ENDBRANCH  25  26
ENDBRANCH  24  25
ENDBRANCH  23  24
ENDBRANCH   1  23
TORSDOF 15
