REMARK SMILES O=C(NCCCCNC(=O)c1ccc(-c2c3nc(c(-c4c(F)cccc4F)c4ccc([nH]4)c(-c4c(F)cccc4F)c4nc(c(-c5c(F)cccc5F)c5ccc2[nH]5)C=C4)C=C3)cc1)C1=Cc2cc(Cl)c(Cl)cc2O[C@@H]1C(F)(F)F
REMARK SMILES IDX 6 1 5 2 4 3 3 4 1 5 2 6 65 8 66 9 76 10 67 11 75 12 68 13
REMARK SMILES IDX 74 14 69 15 73 16 70 17 71 18 72 19 77 20 78 21 79 22 80 23
REMARK SMILES IDX 7 24 8 25 9 26 10 28 11 29 12 30 64 31 13 32 63 33 14 34
REMARK SMILES IDX 15 35 16 36 57 37 17 38 62 39 56 40 58 41 18 42 61 43 55 44
REMARK SMILES IDX 54 45 19 47 45 48 28 49 44 50 29 51 32 52 43 53 59 54 30 55
REMARK SMILES IDX 31 56 42 58 60 59 33 60 20 61 21 62 26 63 22 64 23 65 25 66
REMARK SMILES IDX 27 67 24 68 46 69 47 70 52 71 48 72 49 73 51 74 53 75 50 76
REMARK SMILES IDX 34 77 35 78 40 79 36 80 37 81 39 82 41 83 38 84
REMARK H PARENT 3 7 8 27 58 46 32 57
REMARK Flexibility Score: inf
ROOT
ATOM      1  C   UNL     1       4.075   4.375  -0.930  1.00  0.00     0.023 C 
ENDROOT
BRANCH   1   2
ATOM      2  C   UNL     1       4.346   2.975  -1.474  1.00  0.00     0.023 C 
BRANCH   2   3
ATOM      3  C   UNL     1       3.912   1.822  -0.568  1.00  0.00     0.116 C 
BRANCH   3   4
ATOM      4  N   UNL     1       2.698   1.133  -1.002  1.00  0.00    -0.352 N 
ATOM      5  O   UNL     1       1.181  -0.543  -1.065  1.00  0.00    -0.270 OA
ATOM      6  C   UNL     1       2.338  -0.190  -0.865  1.00  0.00     0.251 C 
ATOM      7  H   UNL     1       2.038   1.701  -1.462  1.00  0.00     0.163 HD
BRANCH   6   8
ATOM      8  C   UNL     1       3.327  -1.135  -0.292  1.00  0.00     0.067 C 
ATOM      9  C   UNL     1       4.505  -1.431  -0.864  1.00  0.00     0.025 C 
ATOM     10  C   UNL     1       3.090  -1.570   1.125  1.00  0.00     0.314 C 
ATOM     11  C   UNL     1       5.615  -1.073   0.053  1.00  0.00     0.019 A 
ATOM     12  O   UNL     1       4.125  -1.068   2.004  1.00  0.00    -0.475 OA
ATOM     13  C   UNL     1       6.827  -0.612  -0.486  1.00  0.00     0.034 A 
ATOM     14  C   UNL     1       5.345  -0.828   1.415  1.00  0.00     0.129 A 
ATOM     15  C   UNL     1       7.732   0.105   0.313  1.00  0.00     0.060 A 
ATOM     16  C   UNL     1       6.265  -0.156   2.219  1.00  0.00     0.069 A 
ATOM     17  Cl  UNL     1       9.128   0.774  -0.458  1.00  0.00    -0.083 Cl
ATOM     18  C   UNL     1       7.449   0.333   1.665  1.00  0.00     0.063 A 
ATOM     19  Cl  UNL     1       8.472   1.280   2.684  1.00  0.00    -0.083 Cl
BRANCH  10  20
ATOM     20  C   UNL     1       2.974  -3.107   1.224  1.00  0.00     0.429 C 
ATOM     21  F   UNL     1       2.665  -3.493   2.485  1.00  0.00    -0.167 F 
ATOM     22  F   UNL     1       2.006  -3.596   0.414  1.00  0.00    -0.167 F 
ATOM     23  F   UNL     1       4.127  -3.737   0.890  1.00  0.00    -0.167 F 
ENDBRANCH  10  20
ENDBRANCH   6   8
ENDBRANCH   3   4
ENDBRANCH   2   3
ENDBRANCH   1   2
BRANCH   1  24
ATOM     24  C   UNL     1       4.672   4.705   0.438  1.00  0.00     0.116 C 
BRANCH  24  25
ATOM     25  N   UNL     1       6.120   4.569   0.527  1.00  0.00    -0.352 N 
ATOM     26  C   UNL     1       7.039   5.435   1.081  1.00  0.00     0.251 C 
ATOM     27  H   UNL     1       6.494   3.745   0.138  1.00  0.00     0.163 HD
ATOM     28  O   UNL     1       8.241   5.181   1.035  1.00  0.00    -0.269 OA
BRANCH  26  29
ATOM     29  C   UNL     1       6.579   6.710   1.670  1.00  0.00     0.039 A 
ATOM     30  C   UNL     1       7.168   7.900   1.234  1.00  0.00     0.014 A 
ATOM     31  C   UNL     1       5.508   6.741   2.566  1.00  0.00     0.014 A 
ATOM     32  C   UNL     1       6.598   9.123   1.594  1.00  0.00     0.010 A 
ATOM     33  C   UNL     1       4.891   7.955   2.855  1.00  0.00     0.010 A 
ATOM     34  C   UNL     1       5.413   9.155   2.348  1.00  0.00    -0.014 A 
BRANCH  34  35
ATOM     35  C   UNL     1       4.673  10.426   2.555  1.00  0.00     0.031 A 
ATOM     36  C   UNL     1       4.466  10.975   3.937  1.00  0.00     0.074 A 
ATOM     37  C   UNL     1       4.111  11.043   1.495  1.00  0.00     0.049 A 
ATOM     38  N   UNL     1       3.802  12.038   4.312  1.00  0.00    -0.248 NA
ATOM     39  C   UNL     1       5.058  10.212   5.047  1.00  0.00     0.031 C 
ATOM     40  C   UNL     1       4.175  10.572   0.109  1.00  0.00     0.029 A 
ATOM     41  N   UNL     1       3.369  12.195   1.417  1.00  0.00    -0.354 N 
ATOM     42  C   UNL     1       3.883  12.064   5.698  1.00  0.00     0.074 A 
ATOM     43  C   UNL     1       4.615  10.882   6.101  1.00  0.00     0.031 C 
ATOM     44  C   UNL     1       3.531  11.444  -0.683  1.00  0.00     0.029 A 
ATOM     45  C   UNL     1       2.980  12.516   0.139  1.00  0.00     0.049 A 
ATOM     46  H   UNL     1       3.138  12.741   2.203  1.00  0.00     0.167 HD
ATOM     47  C   UNL     1       3.412  12.999   6.556  1.00  0.00     0.037 A 
ATOM     48  C   UNL     1       2.262  13.558  -0.321  1.00  0.00     0.037 A 
ATOM     49  C   UNL     1       2.709  14.188   6.153  1.00  0.00     0.049 A 
ATOM     50  C   UNL     1       1.771  14.596   0.649  1.00  0.00     0.074 A 
ATOM     51  C   UNL     1       2.252  15.230   6.942  1.00  0.00     0.029 A 
ATOM     52  N   UNL     1       2.361  14.494   4.846  1.00  0.00    -0.354 N 
ATOM     53  N   UNL     1       1.924  14.646   1.950  1.00  0.00    -0.248 NA
ATOM     54  C   UNL     1       1.015  15.723   0.086  1.00  0.00     0.031 C 
ATOM     55  C   UNL     1       1.597  16.150   6.115  1.00  0.00     0.029 A 
ATOM     56  C   UNL     1       1.679  15.699   4.808  1.00  0.00     0.049 A 
ATOM     57  H   UNL     1       2.567  13.936   4.062  1.00  0.00     0.167 HD
ATOM     58  C   UNL     1       1.304  15.819   2.359  1.00  0.00     0.074 A 
ATOM     59  C   UNL     1       0.786  16.457   1.166  1.00  0.00     0.031 C 
ATOM     60  C   UNL     1       1.174  16.321   3.611  1.00  0.00     0.037 A 
BRANCH  47  61
ATOM     61  C   UNL     1       3.656  12.773   8.019  1.00  0.00     0.057 A 
ATOM     62  C   UNL     1       4.936  12.889   8.579  1.00  0.00     0.134 A 
ATOM     63  C   UNL     1       2.600  12.454   8.882  1.00  0.00     0.134 A 
ATOM     64  F   UNL     1       5.992  13.179   7.804  1.00  0.00    -0.206 F 
ATOM     65  C   UNL     1       5.162  12.667   9.938  1.00  0.00     0.040 A 
ATOM     66  C   UNL     1       2.809  12.255  10.248  1.00  0.00     0.040 A 
ATOM     67  F   UNL     1       1.349  12.333   8.413  1.00  0.00    -0.206 F 
ATOM     68  C   UNL     1       4.095  12.354  10.777  1.00  0.00     0.006 A 
ENDBRANCH  47  61
BRANCH  48  69
ATOM     69  C   UNL     1       1.997  13.694  -1.775  1.00  0.00     0.057 A 
ATOM     70  C   UNL     1       2.643  14.677  -2.534  1.00  0.00     0.134 A 
ATOM     71  C   UNL     1       1.099  12.851  -2.440  1.00  0.00     0.134 A 
ATOM     72  F   UNL     1       3.501  15.525  -1.948  1.00  0.00    -0.206 F 
ATOM     73  C   UNL     1       2.395  14.828  -3.899  1.00  0.00     0.040 A 
ATOM     74  C   UNL     1       0.857  12.977  -3.809  1.00  0.00     0.040 A 
ATOM     75  F   UNL     1       0.455  11.885  -1.770  1.00  0.00    -0.206 F 
ATOM     76  C   UNL     1       1.502  13.973  -4.541  1.00  0.00     0.006 A 
ENDBRANCH  48  69
BRANCH  60  77
ATOM     77  C   UNL     1       0.465  17.635   3.749  1.00  0.00     0.057 A 
ATOM     78  C   UNL     1      -0.924  17.740   3.614  1.00  0.00     0.134 A 
ATOM     79  C   UNL     1       1.178  18.801   4.056  1.00  0.00     0.134 A 
ATOM     80  F   UNL     1      -1.661  16.661   3.306  1.00  0.00    -0.206 F 
ATOM     81  C   UNL     1      -1.580  18.963   3.760  1.00  0.00     0.040 A 
ATOM     82  C   UNL     1       0.531  20.026   4.227  1.00  0.00     0.040 A 
ATOM     83  F   UNL     1       2.510  18.766   4.205  1.00  0.00    -0.206 F 
ATOM     84  C   UNL     1      -0.851  20.110   4.074  1.00  0.00     0.006 A 
ENDBRANCH  60  77
ENDBRANCH  34  35
ENDBRANCH  26  29
ENDBRANCH  24  25
ENDBRANCH   1  24
TORSDOF 12
