REMARK SMILES O=C(NCCCCNC(=O)[C@@H]1CSCN1C(=O)c1cccc(Cl)c1)c1ccc(-c2c3nc(c(-c4c(F)cccc4F)c4ccc([nH]4)c(-c4c(F)cccc4F)c4nc(c(-c5c(F)cccc5F)c5ccc2[nH]5)C=C4)C=C3)cc1
REMARK SMILES IDX 5 1 4 2 3 3 1 4 2 5 25 7 26 8 78 9 27 10 77 11 28 12 29 13
REMARK SMILES IDX 30 14 71 15 31 16 76 17 70 18 72 19 32 20 75 21 69 22 68 23
REMARK SMILES IDX 33 25 59 26 42 27 58 28 43 29 46 30 57 31 73 32 44 33 45 34
REMARK SMILES IDX 56 36 74 37 47 38 34 39 35 40 40 41 36 42 37 43 39 44 41 45
REMARK SMILES IDX 38 46 60 47 61 48 66 49 62 50 63 51 65 52 67 53 64 54 48 55
REMARK SMILES IDX 49 56 54 57 50 58 51 59 53 60 55 61 52 62 6 63 7 64 8 65
REMARK SMILES IDX 9 66 10 68 11 69 12 70 15 71 13 72 14 73 16 74 17 75 18 76
REMARK SMILES IDX 19 77 24 78 20 79 22 80 21 81 23 82
REMARK H PARENT 3 6 72 24 46 35 8 67
REMARK Flexibility Score: inf
ROOT
ATOM      1  C   UNL     1       9.597  -0.989  -7.281  1.00  0.00     0.023 C 
ENDROOT
BRANCH   1   2
ATOM      2  C   UNL     1      11.043  -0.549  -7.094  1.00  0.00     0.116 C 
BRANCH   2   3
ATOM      3  N   UNL     1      11.668  -1.117  -5.909  1.00  0.00    -0.352 N 
ATOM      4  O   UNL     1      13.207  -2.273  -4.729  1.00  0.00    -0.269 OA
ATOM      5  C   UNL     1      12.887  -1.744  -5.789  1.00  0.00     0.251 C 
ATOM      6  H   UNL     1      11.147  -1.042  -5.078  1.00  0.00     0.163 HD
BRANCH   5   7
ATOM      7  C   UNL     1      13.799  -1.810  -6.952  1.00  0.00     0.039 A 
ATOM      8  C   UNL     1      14.023  -0.682  -7.744  1.00  0.00     0.014 A 
ATOM      9  C   UNL     1      14.427  -3.020  -7.262  1.00  0.00     0.014 A 
ATOM     10  C   UNL     1      14.743  -0.804  -8.926  1.00  0.00     0.010 A 
ATOM     11  C   UNL     1      15.225  -3.118  -8.406  1.00  0.00     0.010 A 
ATOM     12  C   UNL     1      15.359  -2.020  -9.268  1.00  0.00    -0.014 A 
BRANCH  12  13
ATOM     13  C   UNL     1      16.175  -2.084 -10.508  1.00  0.00     0.031 A 
ATOM     14  C   UNL     1      15.768  -2.944 -11.672  1.00  0.00     0.074 A 
ATOM     15  C   UNL     1      17.267  -1.300 -10.597  1.00  0.00     0.049 A 
ATOM     16  N   UNL     1      16.332  -3.054 -12.849  1.00  0.00    -0.248 NA
ATOM     17  C   UNL     1      14.581  -3.794 -11.496  1.00  0.00     0.031 C 
ATOM     18  C   UNL     1      17.773  -0.440  -9.524  1.00  0.00     0.029 A 
ATOM     19  N   UNL     1      18.127  -1.072 -11.640  1.00  0.00    -0.354 N 
ATOM     20  C   UNL     1      15.578  -3.987 -13.550  1.00  0.00     0.074 A 
ATOM     21  C   UNL     1      14.532  -4.437 -12.656  1.00  0.00     0.031 C 
ATOM     22  C   UNL     1      18.819   0.263  -9.982  1.00  0.00     0.029 A 
ATOM     23  C   UNL     1      19.089  -0.133 -11.359  1.00  0.00     0.049 A 
ATOM     24  H   UNL     1      18.061  -1.536 -12.505  1.00  0.00     0.167 HD
ATOM     25  C   UNL     1      15.738  -4.419 -14.824  1.00  0.00     0.037 A 
ATOM     26  C   UNL     1      20.083   0.354 -12.122  1.00  0.00     0.037 A 
ATOM     27  C   UNL     1      16.775  -3.963 -15.715  1.00  0.00     0.049 A 
ATOM     28  C   UNL     1      20.231  -0.138 -13.531  1.00  0.00     0.074 A 
ATOM     29  C   UNL     1      17.016  -4.341 -17.025  1.00  0.00     0.029 A 
ATOM     30  N   UNL     1      17.742  -3.024 -15.388  1.00  0.00    -0.354 N 
ATOM     31  N   UNL     1      19.499  -1.009 -14.181  1.00  0.00    -0.248 NA
ATOM     32  C   UNL     1      21.342   0.421 -14.312  1.00  0.00     0.031 C 
ATOM     33  C   UNL     1      18.145  -3.651 -17.482  1.00  0.00     0.029 A 
ATOM     34  C   UNL     1      18.585  -2.816 -16.468  1.00  0.00     0.049 A 
ATOM     35  H   UNL     1      17.817  -2.572 -14.517  1.00  0.00     0.167 HD
ATOM     36  C   UNL     1      20.058  -1.103 -15.447  1.00  0.00     0.074 A 
ATOM     37  C   UNL     1      21.170  -0.175 -15.484  1.00  0.00     0.031 C 
ATOM     38  C   UNL     1      19.690  -1.894 -16.483  1.00  0.00     0.037 A 
BRANCH  25  39
ATOM     39  C   UNL     1      14.770  -5.444 -15.337  1.00  0.00     0.057 A 
ATOM     40  C   UNL     1      13.452  -5.107 -15.674  1.00  0.00     0.134 A 
ATOM     41  C   UNL     1      15.172  -6.768 -15.552  1.00  0.00     0.134 A 
ATOM     42  F   UNL     1      13.000  -3.859 -15.481  1.00  0.00    -0.206 F 
ATOM     43  C   UNL     1      12.567  -6.053 -16.194  1.00  0.00     0.040 A 
ATOM     44  C   UNL     1      14.302  -7.718 -16.091  1.00  0.00     0.040 A 
ATOM     45  F   UNL     1      16.422  -7.156 -15.258  1.00  0.00    -0.206 F 
ATOM     46  C   UNL     1      12.994  -7.362 -16.411  1.00  0.00     0.006 A 
ENDBRANCH  25  39
BRANCH  26  47
ATOM     47  C   UNL     1      21.014   1.363 -11.561  1.00  0.00     0.057 A 
ATOM     48  C   UNL     1      20.995   2.692 -11.999  1.00  0.00     0.134 A 
ATOM     49  C   UNL     1      21.934   1.023 -10.563  1.00  0.00     0.134 A 
ATOM     50  F   UNL     1      20.146   3.073 -12.964  1.00  0.00    -0.206 F 
ATOM     51  C   UNL     1      21.870   3.644 -11.474  1.00  0.00     0.040 A 
ATOM     52  C   UNL     1      22.796   1.970 -10.010  1.00  0.00     0.040 A 
ATOM     53  F   UNL     1      21.993  -0.233 -10.095  1.00  0.00    -0.206 F 
ATOM     54  C   UNL     1      22.769   3.285 -10.471  1.00  0.00     0.006 A 
ENDBRANCH  26  47
BRANCH  38  55
ATOM     55  C   UNL     1      20.499  -1.776 -17.740  1.00  0.00     0.057 A 
ATOM     56  C   UNL     1      21.791  -2.308 -17.833  1.00  0.00     0.134 A 
ATOM     57  C   UNL     1      19.979  -1.131 -18.868  1.00  0.00     0.134 A 
ATOM     58  F   UNL     1      22.350  -2.925 -16.780  1.00  0.00    -0.206 F 
ATOM     59  C   UNL     1      22.550  -2.177 -18.996  1.00  0.00     0.040 A 
ATOM     60  C   UNL     1      20.720  -1.013 -20.044  1.00  0.00     0.040 A 
ATOM     61  F   UNL     1      18.745  -0.605 -18.844  1.00  0.00    -0.206 F 
ATOM     62  C   UNL     1      22.012  -1.531 -20.108  1.00  0.00     0.006 A 
ENDBRANCH  38  55
ENDBRANCH  12  13
ENDBRANCH   5   7
ENDBRANCH   2   3
ENDBRANCH   1   2
BRANCH   1  63
ATOM     63  C   UNL     1       8.636  -0.576  -6.167  1.00  0.00     0.023 C 
BRANCH  63  64
ATOM     64  C   UNL     1       8.628   0.915  -5.838  1.00  0.00     0.116 C 
BRANCH  64  65
ATOM     65  N   UNL     1       8.245   1.726  -6.979  1.00  0.00    -0.354 N 
ATOM     66  C   UNL     1       7.220   2.620  -7.106  1.00  0.00     0.243 C 
ATOM     67  H   UNL     1       8.807   1.616  -7.780  1.00  0.00     0.163 HD
ATOM     68  O   UNL     1       7.127   3.247  -8.165  1.00  0.00    -0.273 OA
BRANCH  66  69
ATOM     69  C   UNL     1       6.169   2.743  -5.988  1.00  0.00     0.185 C 
ATOM     70  C   UNL     1       5.005   1.807  -6.318  1.00  0.00     0.106 C 
ATOM     71  N   UNL     1       5.698   4.123  -5.878  1.00  0.00    -0.317 N 
ATOM     72  S   UNL     1       3.511   2.830  -6.392  1.00  0.00    -0.138 SA
ATOM     73  C   UNL     1       4.433   4.373  -6.527  1.00  0.00     0.190 C 
BRANCH  71  74
ATOM     74  C   UNL     1       6.539   5.056  -5.301  1.00  0.00     0.255 C 
ATOM     75  O   UNL     1       7.676   4.789  -4.919  1.00  0.00    -0.269 OA
BRANCH  74  76
ATOM     76  C   UNL     1       6.056   6.434  -5.111  1.00  0.00     0.041 A 
ATOM     77  C   UNL     1       5.014   6.689  -4.212  1.00  0.00     0.014 A 
ATOM     78  C   UNL     1       6.713   7.480  -5.763  1.00  0.00     0.034 A 
ATOM     79  C   UNL     1       4.595   8.001  -3.997  1.00  0.00     0.002 A 
ATOM     80  C   UNL     1       6.288   8.786  -5.537  1.00  0.00     0.041 A 
ATOM     81  C   UNL     1       5.231   9.050  -4.663  1.00  0.00     0.020 A 
ATOM     82  Cl  UNL     1       7.077  10.091  -6.333  1.00  0.00    -0.084 Cl
ENDBRANCH  74  76
ENDBRANCH  71  74
ENDBRANCH  66  69
ENDBRANCH  64  65
ENDBRANCH  63  64
ENDBRANCH   1  63
TORSDOF 13
