REMARK SMILES O=C(NCCCCNC(=O)[C@@H](Cc1c[nH]c2ccccc12)NC(=O)c1ccc(F)cc1F)c1ccc(-c2c3nc(c(-c4c(F)cccc4F)c4ccc([nH]4)c(-c4c(F)cccc4F)c4nc(c(-c5c(F)cccc5F)c5ccc2[nH]5)C=C4)C=C3)cc1
REMARK SMILES IDX 5 1 4 2 3 3 1 4 2 5 33 7 34 8 86 9 35 10 85 11 36 12 37 13
REMARK SMILES IDX 38 14 79 15 39 16 84 17 78 18 80 19 40 20 83 21 77 22 76 23
REMARK SMILES IDX 41 25 67 26 50 27 66 28 51 29 54 30 65 31 81 32 52 33 53 34
REMARK SMILES IDX 64 36 82 37 55 38 42 39 43 40 48 41 44 42 45 43 47 44 49 45
REMARK SMILES IDX 46 46 68 47 69 48 74 49 70 50 71 51 73 52 75 53 72 54 56 55
REMARK SMILES IDX 57 56 62 57 58 58 59 59 61 60 63 61 60 62 6 63 7 64 8 65
REMARK SMILES IDX 9 66 10 68 11 69 12 70 13 71 14 72 21 73 15 74 16 75 20 76
REMARK SMILES IDX 17 78 19 79 18 80 22 81 23 82 24 84 25 85 26 86 31 87 27 88
REMARK SMILES IDX 30 89 32 90 28 91 29 92
REMARK H PARENT 3 6 80 24 54 35 8 67 15 77 22 83
REMARK Flexibility Score: inf
ROOT
ATOM      1  C   UNL     1       4.726  -1.682   1.541  1.00  0.00     0.023 C 
ENDROOT
BRANCH   1   2
ATOM      2  C   UNL     1       3.969  -0.417   1.137  1.00  0.00     0.116 C 
BRANCH   2   3
ATOM      3  N   UNL     1       2.585  -0.571   0.695  1.00  0.00    -0.352 N 
ATOM      4  O   UNL     1       0.608   0.268  -0.101  1.00  0.00    -0.269 OA
ATOM      5  C   UNL     1       1.760   0.449   0.263  1.00  0.00     0.251 C 
ATOM      6  H   UNL     1       2.208  -1.480   0.707  1.00  0.00     0.163 HD
BRANCH   5   7
ATOM      7  C   UNL     1       2.346   1.799   0.319  1.00  0.00     0.039 A 
ATOM      8  C   UNL     1       3.442   2.068  -0.501  1.00  0.00     0.014 A 
ATOM      9  C   UNL     1       2.031   2.611   1.409  1.00  0.00     0.014 A 
ATOM     10  C   UNL     1       4.350   3.033  -0.094  1.00  0.00     0.010 A 
ATOM     11  C   UNL     1       2.883   3.664   1.735  1.00  0.00     0.010 A 
ATOM     12  C   UNL     1       4.075   3.851   1.018  1.00  0.00    -0.014 A 
BRANCH  12  13
ATOM     13  C   UNL     1       5.005   4.950   1.372  1.00  0.00     0.031 A 
ATOM     14  C   UNL     1       5.663   5.032   2.722  1.00  0.00     0.074 A 
ATOM     15  C   UNL     1       5.229   5.901   0.446  1.00  0.00     0.049 A 
ATOM     16  N   UNL     1       6.385   6.001   3.227  1.00  0.00    -0.248 NA
ATOM     17  C   UNL     1       5.479   3.889   3.630  1.00  0.00     0.031 C 
ATOM     18  C   UNL     1       4.652   5.912  -0.901  1.00  0.00     0.029 A 
ATOM     19  N   UNL     1       5.997   7.032   0.486  1.00  0.00    -0.354 N 
ATOM     20  C   UNL     1       6.710   5.606   4.519  1.00  0.00     0.074 A 
ATOM     21  C   UNL     1       6.098   4.310   4.726  1.00  0.00     0.031 C 
ATOM     22  C   UNL     1       5.125   6.965  -1.575  1.00  0.00     0.029 A 
ATOM     23  C   UNL     1       5.949   7.760  -0.676  1.00  0.00     0.049 A 
ATOM     24  H   UNL     1       6.530   7.298   1.270  1.00  0.00     0.167 HD
ATOM     25  C   UNL     1       7.446   6.274   5.442  1.00  0.00     0.037 A 
ATOM     26  C   UNL     1       6.467   8.961  -0.980  1.00  0.00     0.037 A 
ATOM     27  C   UNL     1       8.058   7.560   5.205  1.00  0.00     0.049 A 
ATOM     28  C   UNL     1       7.238   9.697   0.067  1.00  0.00     0.074 A 
ATOM     29  C   UNL     1       8.837   8.317   6.063  1.00  0.00     0.029 A 
ATOM     30  N   UNL     1       7.959   8.279   4.021  1.00  0.00    -0.354 N 
ATOM     31  N   UNL     1       7.515   9.327   1.294  1.00  0.00    -0.248 NA
ATOM     32  C   UNL     1       7.756  11.018  -0.302  1.00  0.00     0.031 C 
ATOM     33  C   UNL     1       9.168   9.513   5.417  1.00  0.00     0.029 A 
ATOM     34  C   UNL     1       8.645   9.478   4.133  1.00  0.00     0.049 A 
ATOM     35  H   UNL     1       7.472   7.981   3.219  1.00  0.00     0.167 HD
ATOM     36  C   UNL     1       8.253  10.363   1.843  1.00  0.00     0.074 A 
ATOM     37  C   UNL     1       8.391  11.370   0.808  1.00  0.00     0.031 C 
ATOM     38  C   UNL     1       8.768  10.470   3.092  1.00  0.00     0.037 A 
BRANCH  25  39
ATOM     39  C   UNL     1       7.610   5.650   6.803  1.00  0.00     0.057 A 
ATOM     40  C   UNL     1       7.024   6.237   7.933  1.00  0.00     0.134 A 
ATOM     41  C   UNL     1       8.389   4.504   7.010  1.00  0.00     0.134 A 
ATOM     42  F   UNL     1       6.274   7.343   7.815  1.00  0.00    -0.206 F 
ATOM     43  C   UNL     1       7.208   5.712   9.215  1.00  0.00     0.040 A 
ATOM     44  C   UNL     1       8.559   3.953   8.284  1.00  0.00     0.040 A 
ATOM     45  F   UNL     1       8.977   3.885   5.975  1.00  0.00    -0.206 F 
ATOM     46  C   UNL     1       7.973   4.562   9.392  1.00  0.00     0.006 A 
ENDBRANCH  25  39
BRANCH  26  47
ATOM     47  C   UNL     1       6.251   9.508  -2.340  1.00  0.00     0.057 A 
ATOM     48  C   UNL     1       4.978   9.899  -2.779  1.00  0.00     0.134 A 
ATOM     49  C   UNL     1       7.295   9.542  -3.268  1.00  0.00     0.134 A 
ATOM     50  F   UNL     1       3.932   9.865  -1.939  1.00  0.00    -0.206 F 
ATOM     51  C   UNL     1       4.744  10.266  -4.104  1.00  0.00     0.040 A 
ATOM     52  C   UNL     1       7.081   9.933  -4.590  1.00  0.00     0.040 A 
ATOM     53  F   UNL     1       8.534   9.184  -2.902  1.00  0.00    -0.206 F 
ATOM     54  C   UNL     1       5.799  10.283  -5.014  1.00  0.00     0.006 A 
ENDBRANCH  26  47
BRANCH  38  55
ATOM     55  C   UNL     1       9.556  11.708   3.397  1.00  0.00     0.057 A 
ATOM     56  C   UNL     1      10.947  11.645   3.552  1.00  0.00     0.134 A 
ATOM     57  C   UNL     1       8.938  12.952   3.578  1.00  0.00     0.134 A 
ATOM     58  F   UNL     1      11.598  10.483   3.397  1.00  0.00    -0.206 F 
ATOM     59  C   UNL     1      11.694  12.774   3.888  1.00  0.00     0.040 A 
ATOM     60  C   UNL     1       9.679  14.093   3.887  1.00  0.00     0.040 A 
ATOM     61  F   UNL     1       7.612  13.080   3.426  1.00  0.00    -0.206 F 
ATOM     62  C   UNL     1      11.060  14.004   4.051  1.00  0.00     0.006 A 
ENDBRANCH  38  55
ENDBRANCH  12  13
ENDBRANCH   5   7
ENDBRANCH   2   3
ENDBRANCH   1   2
BRANCH   1  63
ATOM     63  C   UNL     1       4.548  -3.122   0.635  1.00  0.00     0.023 C 
BRANCH  63  64
ATOM     64  C   UNL     1       5.328  -3.963  -1.238  1.00  0.00     0.116 C 
BRANCH  64  65
ATOM     65  N   UNL     1       6.755  -4.620  -1.607  1.00  0.00    -0.354 N 
ATOM     66  C   UNL     1       7.236  -5.894  -1.670  1.00  0.00     0.242 C 
ATOM     67  H   UNL     1       7.433  -3.946  -1.841  1.00  0.00     0.163 HD
ATOM     68  O   UNL     1       8.453  -6.008  -1.878  1.00  0.00    -0.273 OA
BRANCH  66  69
ATOM     69  C   UNL     1       6.375  -7.177  -1.524  1.00  0.00     0.176 C 
BRANCH  69  70
ATOM     70  C   UNL     1       5.739  -7.500  -0.144  1.00  0.00     0.072 C 
BRANCH  70  71
ATOM     71  C   UNL     1       4.615  -6.580   0.168  1.00  0.00    -0.020 A 
ATOM     72  C   UNL     1       3.254  -6.779  -0.050  1.00  0.00     0.087 A 
ATOM     73  C   UNL     1       4.839  -5.208   0.374  1.00  0.00     0.003 A 
ATOM     74  N   UNL     1       2.559  -5.604  -0.332  1.00  0.00    -0.361 N 
ATOM     75  C   UNL     1       3.434  -4.557  -0.447  1.00  0.00     0.046 A 
ATOM     76  C   UNL     1       6.321  -4.179   0.603  1.00  0.00     0.010 A 
ATOM     77  H   UNL     1       1.582  -5.537  -0.434  1.00  0.00     0.166 HD
ATOM     78  C   UNL     1       3.502  -2.913  -1.185  1.00  0.00     0.026 A 
ATOM     79  C   UNL     1       6.399  -2.545  -0.146  1.00  0.00     0.001 A 
ATOM     80  C   UNL     1       4.987  -1.910  -1.021  1.00  0.00     0.002 A 
ENDBRANCH  70  71
ENDBRANCH  69  70
BRANCH  69  81
ATOM     81  N   UNL     1       5.430  -7.249  -2.653  1.00  0.00    -0.340 N 
ATOM     82  C   UNL     1       5.625  -7.812  -3.891  1.00  0.00     0.254 C 
ATOM     83  H   UNL     1       4.547  -6.841  -2.501  1.00  0.00     0.164 HD
ATOM     84  O   UNL     1       4.870  -7.553  -4.821  1.00  0.00    -0.269 OA
BRANCH  82  85
ATOM     85  C   UNL     1       6.720  -8.780  -4.070  1.00  0.00     0.075 A 
ATOM     86  C   UNL     1       6.810  -9.889  -3.216  1.00  0.00     0.020 A 
ATOM     87  C   UNL     1       7.666  -8.596  -5.078  1.00  0.00     0.138 A 
ATOM     88  C   UNL     1       7.895 -10.756  -3.323  1.00  0.00     0.040 A 
ATOM     89  C   UNL     1       8.737  -9.475  -5.203  1.00  0.00     0.079 A 
ATOM     90  F   UNL     1       7.586  -7.558  -5.923  1.00  0.00    -0.206 F 
ATOM     91  C   UNL     1       8.850 -10.537  -4.312  1.00  0.00     0.126 A 
ATOM     92  F   UNL     1       9.898 -11.366  -4.402  1.00  0.00    -0.207 F 
ENDBRANCH  82  85
ENDBRANCH  69  81
ENDBRANCH  66  69
ENDBRANCH  64  65
ENDBRANCH  63  64
ENDBRANCH   1  63
TORSDOF 15
