REMARK SMILES [NH3+][C@H]1CCCC[C@@H]1C(=O)N1CC(C(=O)NCCCCNC(=O)c2ccc(-c3c4nc(c(-c5c(F)cccc5F)c5ccc([nH]5)c(-c5c(F)cccc5F)c5nc(c(-c6c(F)cccc6F)c6ccc3[nH]6)C=C5)C=C4)cc2)C1
REMARK SMILES IDX 17 1 16 2 15 3 13 4 14 5 12 7 8 8 9 9 10 10 11 11 77 12 7 13
REMARK SMILES IDX 2 14 3 15 4 16 6 17 5 18 1 19 18 23 19 24 20 25 21 26 22 28
REMARK SMILES IDX 23 29 24 30 76 31 25 32 75 33 26 34 27 35 28 36 69 37 29 38
REMARK SMILES IDX 74 39 68 40 70 41 30 42 73 43 67 44 66 45 31 47 57 48 40 49
REMARK SMILES IDX 56 50 41 51 44 52 55 53 71 54 42 55 43 56 54 58 72 59 45 60
REMARK SMILES IDX 32 61 33 62 38 63 34 64 35 65 37 66 39 67 36 68 58 69 59 70
REMARK SMILES IDX 64 71 60 72 61 73 63 74 65 75 62 76 46 77 47 78 52 79 48 80
REMARK SMILES IDX 49 81 51 82 53 83 50 84
REMARK H PARENT 15 6 1 20 1 21 1 22 20 27 70 46 44 57
REMARK Flexibility Score: inf
ROOT
ATOM      1  C   UNL     1      -1.532   1.025  -4.911  1.00  0.00     0.023 C 
ENDROOT
BRANCH   1   2
ATOM      2  C   UNL     1      -2.650   0.329  -4.140  1.00  0.00     0.116 C 
BRANCH   2   3
ATOM      3  N   UNL     1      -3.264  -0.726  -4.920  1.00  0.00    -0.356 N 
ATOM      4  C   UNL     1      -3.287  -2.088  -4.737  1.00  0.00     0.226 C 
ATOM      5  O   UNL     1      -3.881  -2.728  -5.619  1.00  0.00    -0.275 OA
ATOM      6  H   UNL     1      -3.748  -0.414  -5.718  1.00  0.00     0.163 HD
BRANCH   4   7
ATOM      7  C   UNL     1      -2.652  -2.782  -3.528  1.00  0.00     0.117 C 
ATOM      8  C   UNL     1      -1.051  -2.346  -0.650  1.00  0.00     0.231 C 
ATOM      9  O   UNL     1      -0.973  -3.499  -0.229  1.00  0.00    -0.274 OA
ATOM     10  N   UNL     1      -1.646  -2.027  -1.852  1.00  0.00    -0.341 N 
ATOM     11  C   UNL     1      -3.053  -2.368  -2.121  1.00  0.00     0.134 C 
ATOM     12  C   UNL     1      -1.196  -2.556  -3.147  1.00  0.00     0.134 C 
BRANCH   8  13
ATOM     13  C   UNL     1      -0.369  -1.174   0.057  1.00  0.00     0.136 C 
ATOM     14  C   UNL     1      -1.009   0.203  -0.244  1.00  0.00     0.193 C 
ATOM     15  C   UNL     1      -0.188   1.360   0.341  1.00  0.00     0.066 C 
ATOM     16  C   UNL     1       1.264   1.299  -0.120  1.00  0.00     0.006 C 
ATOM     17  C   UNL     1       1.119  -1.204  -0.326  1.00  0.00     0.020 C 
ATOM     18  C   UNL     1       1.898  -0.032   0.261  1.00  0.00     0.001 C 
BRANCH  14  19
ATOM     19  N   UNL     1      -2.385   0.288   0.261  1.00  0.00    -0.354 N 
ATOM     20  H   UNL     1      -2.771   1.208   0.044  1.00  0.00     0.344 HD
ATOM     21  H   UNL     1      -2.386   0.150   1.272  1.00  0.00     0.344 HD
ATOM     22  H   UNL     1      -2.955  -0.432  -0.182  1.00  0.00     0.344 HD
ENDBRANCH  14  19
ENDBRANCH   8  13
ENDBRANCH   4   7
ENDBRANCH   2   3
ENDBRANCH   1   2
BRANCH   1  23
ATOM     23  C   UNL     1      -1.999   1.807  -6.141  1.00  0.00     0.023 C 
BRANCH  23  24
ATOM     24  C   UNL     1      -3.049   2.877  -5.868  1.00  0.00     0.116 C 
BRANCH  24  25
ATOM     25  N   UNL     1      -2.590   3.902  -4.944  1.00  0.00    -0.352 N 
ATOM     26  C   UNL     1      -2.716   5.266  -5.032  1.00  0.00     0.251 C 
ATOM     27  H   UNL     1      -2.124   3.570  -4.142  1.00  0.00     0.163 HD
ATOM     28  O   UNL     1      -2.142   5.989  -4.220  1.00  0.00    -0.269 OA
BRANCH  26  29
ATOM     29  C   UNL     1      -3.520   5.867  -6.118  1.00  0.00     0.039 A 
ATOM     30  C   UNL     1      -3.017   6.981  -6.795  1.00  0.00     0.014 A 
ATOM     31  C   UNL     1      -4.766   5.340  -6.466  1.00  0.00     0.014 A 
ATOM     32  C   UNL     1      -3.744   7.537  -7.851  1.00  0.00     0.010 A 
ATOM     33  C   UNL     1      -5.447   5.841  -7.571  1.00  0.00     0.010 A 
ATOM     34  C   UNL     1      -4.954   6.956  -8.264  1.00  0.00    -0.014 A 
BRANCH  34  35
ATOM     35  C   UNL     1      -5.740   7.528  -9.387  1.00  0.00     0.031 A 
ATOM     36  C   UNL     1      -7.119   8.078  -9.134  1.00  0.00     0.074 A 
ATOM     37  C   UNL     1      -5.241   7.510 -10.639  1.00  0.00     0.049 A 
ATOM     38  N   UNL     1      -7.984   8.568  -9.985  1.00  0.00    -0.248 NA
ATOM     39  C   UNL     1      -7.599   8.045  -7.744  1.00  0.00     0.031 C 
ATOM     40  C   UNL     1      -3.938   6.967 -11.024  1.00  0.00     0.029 A 
ATOM     41  N   UNL     1      -5.777   7.958 -11.820  1.00  0.00    -0.354 N 
ATOM     42  C   UNL     1      -9.111   8.885  -9.236  1.00  0.00     0.074 A 
ATOM     43  C   UNL     1      -8.845   8.472  -7.876  1.00  0.00     0.031 C 
ATOM     44  C   UNL     1      -3.763   7.139 -12.345  1.00  0.00     0.029 A 
ATOM     45  C   UNL     1      -4.955   7.769 -12.905  1.00  0.00     0.049 A 
ATOM     46  H   UNL     1      -6.666   8.375 -11.885  1.00  0.00     0.167 HD
ATOM     47  C   UNL     1     -10.253   9.493  -9.636  1.00  0.00     0.037 A 
ATOM     48  C   UNL     1      -5.143   8.069 -14.204  1.00  0.00     0.037 A 
ATOM     49  C   UNL     1     -10.507   9.926 -10.985  1.00  0.00     0.049 A 
ATOM     50  C   UNL     1      -6.425   8.735 -14.627  1.00  0.00     0.074 A 
ATOM     51  C   UNL     1     -11.612  10.593 -11.483  1.00  0.00     0.029 A 
ATOM     52  N   UNL     1      -9.642   9.732 -12.051  1.00  0.00    -0.354 N 
ATOM     53  N   UNL     1      -7.455   9.087 -13.897  1.00  0.00    -0.248 NA
ATOM     54  C   UNL     1      -6.563   9.057 -16.054  1.00  0.00     0.031 C 
ATOM     55  C   UNL     1     -11.436  10.762 -12.861  1.00  0.00     0.029 A 
ATOM     56  C   UNL     1     -10.195  10.253 -13.209  1.00  0.00     0.049 A 
ATOM     57  H   UNL     1      -8.764   9.290 -11.994  1.00  0.00     0.167 HD
ATOM     58  C   UNL     1      -8.345   9.707 -14.766  1.00  0.00     0.074 A 
ATOM     59  C   UNL     1      -7.727   9.690 -16.076  1.00  0.00     0.031 C 
ATOM     60  C   UNL     1      -9.561  10.245 -14.503  1.00  0.00     0.037 A 
BRANCH  47  61
ATOM     61  C   UNL     1     -11.312   9.728  -8.596  1.00  0.00     0.057 A 
ATOM     62  C   UNL     1     -11.134  10.647  -7.553  1.00  0.00     0.134 A 
ATOM     63  C   UNL     1     -12.533   9.044  -8.649  1.00  0.00     0.134 A 
ATOM     64  F   UNL     1      -9.983  11.327  -7.434  1.00  0.00    -0.206 F 
ATOM     65  C   UNL     1     -12.116  10.853  -6.582  1.00  0.00     0.040 A 
ATOM     66  C   UNL     1     -13.536   9.265  -7.703  1.00  0.00     0.040 A 
ATOM     67  F   UNL     1     -12.775   8.155  -9.624  1.00  0.00    -0.206 F 
ATOM     68  C   UNL     1     -13.325  10.165  -6.661  1.00  0.00     0.006 A 
ENDBRANCH  47  61
BRANCH  48  69
ATOM     69  C   UNL     1      -4.081   7.774 -15.201  1.00  0.00     0.057 A 
ATOM     70  C   UNL     1      -3.371   8.806 -15.826  1.00  0.00     0.134 A 
ATOM     71  C   UNL     1      -3.763   6.460 -15.566  1.00  0.00     0.134 A 
ATOM     72  F   UNL     1      -3.643  10.086 -15.531  1.00  0.00    -0.206 F 
ATOM     73  C   UNL     1      -2.402   8.546 -16.796  1.00  0.00     0.040 A 
ATOM     74  C   UNL     1      -2.777   6.184 -16.515  1.00  0.00     0.040 A 
ATOM     75  F   UNL     1      -4.399   5.426 -14.999  1.00  0.00    -0.206 F 
ATOM     76  C   UNL     1      -2.100   7.230 -17.140  1.00  0.00     0.006 A 
ENDBRANCH  48  69
BRANCH  60  77
ATOM     77  C   UNL     1     -10.279  10.915 -15.639  1.00  0.00     0.057 A 
ATOM     78  C   UNL     1     -10.834  10.193 -16.702  1.00  0.00     0.134 A 
ATOM     79  C   UNL     1     -10.448  12.307 -15.646  1.00  0.00     0.134 A 
ATOM     80  F   UNL     1     -10.698   8.859 -16.762  1.00  0.00    -0.206 F 
ATOM     81  C   UNL     1     -11.505  10.832 -17.747  1.00  0.00     0.040 A 
ATOM     82  C   UNL     1     -11.143  12.954 -16.668  1.00  0.00     0.040 A 
ATOM     83  F   UNL     1      -9.951  13.059 -14.652  1.00  0.00    -0.206 F 
ATOM     84  C   UNL     1     -11.667  12.216 -17.727  1.00  0.00     0.006 A 
ENDBRANCH  60  77
ENDBRANCH  34  35
ENDBRANCH  26  29
ENDBRANCH  24  25
ENDBRANCH  23  24
ENDBRANCH   1  23
TORSDOF 13
