REMARK SMILES O=C(NCCCCNC(=O)[C@H]1C[C@H](O)CN1S(=O)(=O)c1ccc2c(c1)OCCO2)c1ccc(-c2c3nc(c(-c4c(F)cccc4F)c4ccc([nH]4)c(-c4c(F)cccc4F)c4nc(c(-c5c(F)cccc5F)c5ccc2[nH]5)C=C4)C=C3)cc1
REMARK SMILES IDX 5 1 4 2 3 3 1 4 2 5 30 7 31 8 83 9 32 10 82 11 33 12 34 13
REMARK SMILES IDX 35 14 76 15 36 16 81 17 75 18 77 19 37 20 80 21 74 22 73 23
REMARK SMILES IDX 38 25 64 26 47 27 63 28 48 29 51 30 62 31 78 32 49 33 50 34
REMARK SMILES IDX 61 36 79 37 52 38 39 39 40 40 45 41 41 42 42 43 44 44 46 45
REMARK SMILES IDX 43 46 65 47 66 48 71 49 67 50 68 51 70 52 72 53 69 54 53 55
REMARK SMILES IDX 54 56 59 57 55 58 56 59 58 60 60 61 57 62 6 63 7 64 8 65
REMARK SMILES IDX 9 66 10 68 11 69 12 70 16 71 13 72 15 73 17 74 18 75 19 76
REMARK SMILES IDX 20 77 21 78 25 79 22 80 24 81 23 82 26 83 29 84 27 85 28 86
REMARK SMILES IDX 14 87
REMARK H PARENT 3 6 77 24 51 35 8 67 14 88
REMARK Flexibility Score: inf
ROOT
ATOM      1  C   UNL     1       4.710   0.877  -2.798  1.00  0.00     0.023 C 
ENDROOT
BRANCH   1   2
ATOM      2  C   UNL     1       4.418   0.739  -1.311  1.00  0.00     0.116 C 
BRANCH   2   3
ATOM      3  N   UNL     1       2.999   0.752  -0.989  1.00  0.00    -0.352 N 
ATOM      4  O   UNL     1       1.093   0.004  -0.029  1.00  0.00    -0.269 OA
ATOM      5  C   UNL     1       2.314  -0.065  -0.117  1.00  0.00     0.251 C 
ATOM      6  H   UNL     1       2.460   1.431  -1.454  1.00  0.00     0.163 HD
BRANCH   5   7
ATOM      7  C   UNL     1       3.063  -1.055   0.688  1.00  0.00     0.039 A 
ATOM      8  C   UNL     1       4.235  -0.682   1.348  1.00  0.00     0.014 A 
ATOM      9  C   UNL     1       2.609  -2.376   0.753  1.00  0.00     0.014 A 
ATOM     10  C   UNL     1       5.033  -1.657   1.931  1.00  0.00     0.010 A 
ATOM     11  C   UNL     1       3.368  -3.340   1.427  1.00  0.00     0.010 A 
ATOM     12  C   UNL     1       4.603  -2.994   1.994  1.00  0.00    -0.014 A 
BRANCH  12  13
ATOM     13  C   UNL     1       5.445  -3.975   2.727  1.00  0.00     0.031 A 
ATOM     14  C   UNL     1       6.105  -5.131   2.028  1.00  0.00     0.074 A 
ATOM     15  C   UNL     1       5.667  -3.761   4.039  1.00  0.00     0.049 A 
ATOM     16  N   UNL     1       6.931  -6.022   2.519  1.00  0.00    -0.248 NA
ATOM     17  C   UNL     1       5.797  -5.322   0.603  1.00  0.00     0.031 C 
ATOM     18  C   UNL     1       5.060  -2.685   4.828  1.00  0.00     0.029 A 
ATOM     19  N   UNL     1       6.483  -4.406   4.931  1.00  0.00    -0.354 N 
ATOM     20  C   UNL     1       7.236  -6.881   1.470  1.00  0.00     0.074 A 
ATOM     21  C   UNL     1       6.482  -6.423   0.322  1.00  0.00     0.031 C 
ATOM     22  C   UNL     1       5.574  -2.704   6.065  1.00  0.00     0.029 A 
ATOM     23  C   UNL     1       6.495  -3.828   6.177  1.00  0.00     0.049 A 
ATOM     24  H   UNL     1       7.009  -5.206   4.701  1.00  0.00     0.167 HD
ATOM     25  C   UNL     1       8.075  -7.945   1.466  1.00  0.00     0.037 A 
ATOM     26  C   UNL     1       7.166  -4.167   7.292  1.00  0.00     0.037 A 
ATOM     27  C   UNL     1       8.831  -8.390   2.611  1.00  0.00     0.049 A 
ATOM     28  C   UNL     1       8.088  -5.347   7.254  1.00  0.00     0.074 A 
ATOM     29  C   UNL     1       9.714  -9.454   2.702  1.00  0.00     0.029 A 
ATOM     30  N   UNL     1       8.796  -7.795   3.863  1.00  0.00    -0.354 N 
ATOM     31  N   UNL     1       8.376  -6.137   6.248  1.00  0.00    -0.248 NA
ATOM     32  C   UNL     1       8.777  -5.686   8.506  1.00  0.00     0.031 C 
ATOM     33  C   UNL     1      10.186  -9.522   4.017  1.00  0.00     0.029 A 
ATOM     34  C   UNL     1       9.631  -8.476   4.735  1.00  0.00     0.049 A 
ATOM     35  H   UNL     1       8.258  -7.005   4.098  1.00  0.00     0.167 HD
ATOM     36  C   UNL     1       9.279  -7.066   6.744  1.00  0.00     0.074 A 
ATOM     37  C   UNL     1       9.520  -6.716   8.130  1.00  0.00     0.031 C 
ATOM     38  C   UNL     1       9.848  -8.121   6.114  1.00  0.00     0.037 A 
BRANCH  25  39
ATOM     39  C   UNL     1       8.226  -8.713   0.184  1.00  0.00     0.057 A 
ATOM     40  C   UNL     1       8.950  -8.200  -0.900  1.00  0.00     0.134 A 
ATOM     41  C   UNL     1       7.704 -10.006   0.058  1.00  0.00     0.134 A 
ATOM     42  F   UNL     1       9.469  -6.964  -0.848  1.00  0.00    -0.206 F 
ATOM     43  C   UNL     1       9.141  -8.943  -2.067  1.00  0.00     0.040 A 
ATOM     44  C   UNL     1       7.906 -10.767  -1.096  1.00  0.00     0.040 A 
ATOM     45  F   UNL     1       7.007 -10.560   1.061  1.00  0.00    -0.206 F 
ATOM     46  C   UNL     1       8.626 -10.235  -2.164  1.00  0.00     0.006 A 
ENDBRANCH  25  39
BRANCH  26  47
ATOM     47  C   UNL     1       6.973  -3.382   8.536  1.00  0.00     0.057 A 
ATOM     48  C   UNL     1       7.998  -2.592   9.066  1.00  0.00     0.134 A 
ATOM     49  C   UNL     1       5.752  -3.403   9.223  1.00  0.00     0.134 A 
ATOM     50  F   UNL     1       9.195  -2.544   8.463  1.00  0.00    -0.206 F 
ATOM     51  C   UNL     1       7.824  -1.865  10.245  1.00  0.00     0.040 A 
ATOM     52  C   UNL     1       5.554  -2.658  10.385  1.00  0.00     0.040 A 
ATOM     53  F   UNL     1       4.727  -4.133   8.760  1.00  0.00    -0.206 F 
ATOM     54  C   UNL     1       6.596  -1.892  10.903  1.00  0.00     0.006 A 
ENDBRANCH  26  47
BRANCH  38  55
ATOM     55  C   UNL     1      10.787  -8.962   6.927  1.00  0.00     0.057 A 
ATOM     56  C   UNL     1      10.321  -9.816   7.935  1.00  0.00     0.134 A 
ATOM     57  C   UNL     1      12.168  -8.912   6.706  1.00  0.00     0.134 A 
ATOM     58  F   UNL     1       9.009  -9.896   8.206  1.00  0.00    -0.206 F 
ATOM     59  C   UNL     1      11.199 -10.567   8.717  1.00  0.00     0.040 A 
ATOM     60  C   UNL     1      13.055  -9.677   7.465  1.00  0.00     0.040 A 
ATOM     61  F   UNL     1      12.678  -8.118   5.752  1.00  0.00    -0.206 F 
ATOM     62  C   UNL     1      12.571 -10.500   8.480  1.00  0.00     0.006 A 
ENDBRANCH  38  55
ENDBRANCH  12  13
ENDBRANCH   5   7
ENDBRANCH   2   3
ENDBRANCH   1   2
BRANCH   1  63
ATOM     63  C   UNL     1       4.266   2.193  -3.437  1.00  0.00     0.023 C 
BRANCH  63  64
ATOM     64  C   UNL     1       4.733   3.450  -2.710  1.00  0.00     0.116 C 
BRANCH  64  65
ATOM     65  N   UNL     1       6.178   3.525  -2.583  1.00  0.00    -0.355 N 
ATOM     66  C   UNL     1       7.064   4.393  -3.171  1.00  0.00     0.238 C 
ATOM     67  H   UNL     1       6.582   2.853  -1.988  1.00  0.00     0.163 HD
ATOM     68  O   UNL     1       8.214   4.395  -2.740  1.00  0.00    -0.273 OA
BRANCH  66  69
ATOM     69  C   UNL     1       6.539   5.367  -4.215  1.00  0.00     0.165 C 
ATOM     70  C   UNL     1       5.934   6.566  -3.457  1.00  0.00     0.063 C 
ATOM     71  N   UNL     1       7.382   5.960  -5.319  1.00  0.00    -0.183 NA
ATOM     72  C   UNL     1       6.821   7.733  -3.832  1.00  0.00     0.131 C 
ATOM     73  C   UNL     1       7.136   7.424  -5.285  1.00  0.00     0.135 C 
BRANCH  71  74
ATOM     74  S   UNL     1       9.009   5.449  -5.402  1.00  0.00     0.244 S 
ATOM     75  O   UNL     1       9.763   6.183  -4.411  1.00  0.00    -0.207 OA
ATOM     76  O   UNL     1       9.002   4.002  -5.474  1.00  0.00    -0.207 OA
BRANCH  74  77
ATOM     77  C   UNL     1       9.567   6.030  -6.997  1.00  0.00     0.086 A 
ATOM     78  C   UNL     1       9.713   5.131  -8.060  1.00  0.00     0.026 A 
ATOM     79  C   UNL     1       9.954   7.365  -7.146  1.00  0.00     0.072 A 
ATOM     80  C   UNL     1      10.210   5.585  -9.287  1.00  0.00     0.052 A 
ATOM     81  C   UNL     1      10.373   7.825  -8.389  1.00  0.00     0.162 A 
ATOM     82  C   UNL     1      10.535   6.931  -9.452  1.00  0.00     0.161 A 
ATOM     83  O   UNL     1      10.604   9.173  -8.496  1.00  0.00    -0.486 OA
ATOM     84  O   UNL     1      11.004   7.312 -10.684  1.00  0.00    -0.486 OA
ATOM     85  C   UNL     1      10.646   9.572  -9.871  1.00  0.00     0.271 C 
ATOM     86  C   UNL     1      11.554   8.637 -10.653  1.00  0.00     0.271 C 
ENDBRANCH  74  77
ENDBRANCH  71  74
BRANCH  72  87
ATOM     87  O   UNL     1       6.153   8.971  -3.657  1.00  0.00    -0.392 OA
ATOM     88  H   UNL     1       5.332   8.972  -4.175  1.00  0.00     0.211 HD
ENDBRANCH  72  87
ENDBRANCH  66  69
ENDBRANCH  64  65
ENDBRANCH  63  64
ENDBRANCH   1  63
TORSDOF 14
