REMARK SMILES CCN1C(=O)N/C(=C/c2cc(Cl)c(OCc3cccc(C(=O)NCCCCNC(=O)c4ccc(-c5c6nc(c(-c7c(F)cccc7F)c7ccc([nH]7)c(-c7c(F)cccc7F)c7nc(c(-c8c(F)cccc8F)c8ccc5[nH]8)C=C7)C=C6)cc4)c3)c(OC)c2)C1=O
REMARK SMILES IDX 24 1 23 2 21 3 22 4 20 6 16 7 17 8 85 9 18 10 19 11 15 12
REMARK SMILES IDX 14 13 13 14 9 15 10 16 89 17 11 18 86 19 12 20 8 21 3 22
REMARK SMILES IDX 4 23 90 24 5 25 6 26 7 27 91 28 2 30 1 31 87 32 88 33 25 34
REMARK SMILES IDX 26 35 27 36 28 37 29 38 30 40 31 41 32 42 84 43 33 44 83 45
REMARK SMILES IDX 34 46 35 47 36 48 77 49 37 50 82 51 76 52 78 53 38 54 81 55
REMARK SMILES IDX 75 56 74 57 39 59 65 60 48 61 64 62 49 63 52 64 63 65 79 66
REMARK SMILES IDX 50 67 51 68 62 70 80 71 53 72 40 73 41 74 46 75 42 76 43 77
REMARK SMILES IDX 45 78 47 79 44 80 66 81 67 82 72 83 68 84 69 85 71 86 73 87
REMARK SMILES IDX 70 88 54 89 55 90 60 91 56 92 57 93 59 94 61 95 58 96
REMARK H PARENT 23 5 6 29 28 39 78 58 52 69
REMARK Flexibility Score: inf
ROOT
ATOM      1  C   UNL     1       2.730   6.165   6.850  1.00  0.00     0.116 C 
ENDROOT
BRANCH   1   2
ATOM      2  N   UNL     1       2.089   6.589   5.612  1.00  0.00    -0.352 N 
ATOM      3  C   UNL     1       1.655   5.876   4.511  1.00  0.00     0.251 C 
ATOM      4  O   UNL     1       1.127   6.490   3.586  1.00  0.00    -0.269 OA
ATOM      5  H   UNL     1       1.938   7.559   5.549  1.00  0.00     0.163 HD
BRANCH   3   6
ATOM      6  C   UNL     1       1.890   4.412   4.378  1.00  0.00     0.040 A 
ATOM      7  C   UNL     1       2.540   2.304   5.412  1.00  0.00    -0.010 A 
ATOM      8  C   UNL     1       2.888   1.815   4.150  1.00  0.00     0.007 A 
ATOM      9  C   UNL     1       1.918   3.560   5.480  1.00  0.00     0.021 A 
ATOM     10  C   UNL     1       2.640   2.576   3.002  1.00  0.00     0.001 A 
ATOM     11  C   UNL     1       2.181   3.889   3.116  1.00  0.00     0.014 A 
BRANCH   7  12
ATOM     12  C   UNL     1       2.903   1.670   6.747  1.00  0.00     0.265 C 
BRANCH  12  13
ATOM     13  O   UNL     1       3.547   0.405   6.813  1.00  0.00    -0.483 OA
BRANCH  13  14
ATOM     14  C   UNL     1       3.022  -0.688   6.184  1.00  0.00     0.180 A 
ATOM     15  C   UNL     1       2.297  -2.850   4.561  1.00  0.00    -0.018 A 
ATOM     16  C   UNL     1       1.317  -2.024   5.116  1.00  0.00     0.033 A 
ATOM     17  C   UNL     1       3.636  -2.671   4.908  1.00  0.00     0.058 A 
ATOM     18  C   UNL     1       1.669  -0.952   5.936  1.00  0.00     0.087 A 
ATOM     19  C   UNL     1       4.003  -1.601   5.727  1.00  0.00     0.162 A 
ATOM     20  Cl  UNL     1       0.347  -0.065   6.608  1.00  0.00    -0.080 Cl
BRANCH  15  21
ATOM     21  C   UNL     1       1.917  -3.853   3.569  1.00  0.00     0.040 C 
ATOM     22  N   UNL     1       0.864  -2.395   0.461  1.00  0.00    -0.259 N 
ATOM     23  C   UNL     1       0.648  -3.746   0.270  1.00  0.00     0.328 C 
ATOM     24  C   UNL     1       1.424  -2.162   1.695  1.00  0.00     0.278 C 
ATOM     25  O   UNL     1       0.160  -4.290  -0.706  1.00  0.00    -0.248 OA
ATOM     26  N   UNL     1       1.067  -4.414   1.407  1.00  0.00    -0.303 N 
ATOM     27  C   UNL     1       1.518  -3.525   2.335  1.00  0.00     0.109 C 
ATOM     28  O   UNL     1       1.792  -1.114   2.184  1.00  0.00    -0.267 OA
ATOM     29  H   UNL     1       1.043  -5.390   1.528  1.00  0.00     0.172 HD
BRANCH  22  30
ATOM     30  C   UNL     1       0.467  -1.413  -0.533  1.00  0.00     0.127 C 
ATOM     31  C   UNL     1       0.896   0.023  -0.288  1.00  0.00     0.028 C 
ENDBRANCH  22  30
ENDBRANCH  15  21
BRANCH  19  32
ATOM     32  O   UNL     1       5.303  -1.321   6.082  1.00  0.00    -0.493 OA
ATOM     33  C   UNL     1       6.266  -2.353   5.913  1.00  0.00     0.278 C 
ENDBRANCH  19  32
ENDBRANCH  13  14
ENDBRANCH  12  13
ENDBRANCH   7  12
ENDBRANCH   3   6
ENDBRANCH   1   2
BRANCH   1  34
ATOM     34  C   UNL     1       4.021   6.894   7.192  1.00  0.00     0.023 C 
BRANCH  34  35
ATOM     35  C   UNL     1       3.890   8.376   7.500  1.00  0.00     0.023 C 
BRANCH  35  36
ATOM     36  C   UNL     1       2.813   8.744   8.511  1.00  0.00     0.116 C 
BRANCH  36  37
ATOM     37  N   UNL     1       2.965   8.087   9.803  1.00  0.00    -0.352 N 
ATOM     38  C   UNL     1       2.951   8.640  11.063  1.00  0.00     0.251 C 
ATOM     39  H   UNL     1       3.095   7.112   9.770  1.00  0.00     0.163 HD
ATOM     40  O   UNL     1       3.182   7.952  12.051  1.00  0.00    -0.269 OA
BRANCH  38  41
ATOM     41  C   UNL     1       2.696  10.088  11.210  1.00  0.00     0.039 A 
ATOM     42  C   UNL     1       3.577  10.857  11.974  1.00  0.00     0.014 A 
ATOM     43  C   UNL     1       1.634  10.691  10.533  1.00  0.00     0.014 A 
ATOM     44  C   UNL     1       3.444  12.247  11.983  1.00  0.00     0.010 A 
ATOM     45  C   UNL     1       1.562  12.077  10.467  1.00  0.00     0.010 A 
ATOM     46  C   UNL     1       2.468  12.870  11.189  1.00  0.00    -0.014 A 
BRANCH  46  47
ATOM     47  C   UNL     1       2.373  14.350  11.092  1.00  0.00     0.031 A 
ATOM     48  C   UNL     1       1.119  15.051  11.534  1.00  0.00     0.074 A 
ATOM     49  C   UNL     1       3.379  15.052  10.534  1.00  0.00     0.049 A 
ATOM     50  N   UNL     1       0.803  16.317  11.445  1.00  0.00    -0.248 NA
ATOM     51  C   UNL     1       0.066  14.210  12.128  1.00  0.00     0.031 C 
ATOM     52  C   UNL     1       4.628  14.485  10.021  1.00  0.00     0.029 A 
ATOM     53  N   UNL     1       3.504  16.398  10.293  1.00  0.00    -0.354 N 
ATOM     54  C   UNL     1      -0.485  16.421  11.955  1.00  0.00     0.074 A 
ATOM     55  C   UNL     1      -0.916  15.083  12.293  1.00  0.00     0.031 C 
ATOM     56  C   UNL     1       5.401  15.477   9.549  1.00  0.00     0.029 A 
ATOM     57  C   UNL     1       4.686  16.742   9.683  1.00  0.00     0.049 A 
ATOM     58  H   UNL     1       2.811  17.055  10.534  1.00  0.00     0.167 HD
ATOM     59  C   UNL     1      -1.232  17.533  12.148  1.00  0.00     0.037 A 
ATOM     60  C   UNL     1       5.138  17.941   9.267  1.00  0.00     0.037 A 
ATOM     61  C   UNL     1      -0.792  18.865  11.828  1.00  0.00     0.049 A 
ATOM     62  C   UNL     1       4.280  19.160   9.473  1.00  0.00     0.074 A 
ATOM     63  C   UNL     1      -1.453  20.064  12.035  1.00  0.00     0.029 A 
ATOM     64  N   UNL     1       0.418  19.174  11.226  1.00  0.00    -0.354 N 
ATOM     65  N   UNL     1       3.092  19.253  10.020  1.00  0.00    -0.248 NA
ATOM     66  C   UNL     1       4.829  20.443   9.011  1.00  0.00     0.031 C 
ATOM     67  C   UNL     1      -0.665  21.092  11.510  1.00  0.00     0.029 A 
ATOM     68  C   UNL     1       0.513  20.543  11.032  1.00  0.00     0.049 A 
ATOM     69  H   UNL     1       1.108  18.518  10.974  1.00  0.00     0.167 HD
ATOM     70  C   UNL     1       2.767  20.603   9.999  1.00  0.00     0.074 A 
ATOM     71  C   UNL     1       3.888  21.293   9.396  1.00  0.00     0.031 C 
ATOM     72  C   UNL     1       1.642  21.217  10.442  1.00  0.00     0.037 A 
BRANCH  59  73
ATOM     73  C   UNL     1      -2.604  17.354  12.734  1.00  0.00     0.057 A 
ATOM     74  C   UNL     1      -2.795  16.942  14.060  1.00  0.00     0.134 A 
ATOM     75  C   UNL     1      -3.748  17.623  11.972  1.00  0.00     0.134 A 
ATOM     76  F   UNL     1      -1.743  16.655  14.842  1.00  0.00    -0.206 F 
ATOM     77  C   UNL     1      -4.073  16.777  14.598  1.00  0.00     0.040 A 
ATOM     78  C   UNL     1      -5.030  17.492  12.508  1.00  0.00     0.040 A 
ATOM     79  F   UNL     1      -3.639  18.027  10.697  1.00  0.00    -0.206 F 
ATOM     80  C   UNL     1      -5.195  17.060  13.822  1.00  0.00     0.006 A 
ENDBRANCH  59  73
BRANCH  60  81
ATOM     81  C   UNL     1       6.474  18.056   8.627  1.00  0.00     0.057 A 
ATOM     82  C   UNL     1       7.528  18.719   9.268  1.00  0.00     0.134 A 
ATOM     83  C   UNL     1       6.729  17.522   7.358  1.00  0.00     0.134 A 
ATOM     84  F   UNL     1       7.343  19.268  10.478  1.00  0.00    -0.206 F 
ATOM     85  C   UNL     1       8.777  18.869   8.662  1.00  0.00     0.040 A 
ATOM     86  C   UNL     1       7.981  17.640   6.752  1.00  0.00     0.040 A 
ATOM     87  F   UNL     1       5.766  16.868   6.692  1.00  0.00    -0.206 F 
ATOM     88  C   UNL     1       9.007  18.324   7.401  1.00  0.00     0.006 A 
ENDBRANCH  60  81
BRANCH  72  89
ATOM     89  C   UNL     1       1.586  22.714  10.339  1.00  0.00     0.057 A 
ATOM     90  C   UNL     1       1.453  23.373   9.111  1.00  0.00     0.134 A 
ATOM     91  C   UNL     1       1.619  23.505  11.496  1.00  0.00     0.134 A 
ATOM     92  F   UNL     1       1.427  22.676   7.965  1.00  0.00    -0.206 F 
ATOM     93  C   UNL     1       1.380  24.765   9.034  1.00  0.00     0.040 A 
ATOM     94  C   UNL     1       1.515  24.895  11.434  1.00  0.00     0.040 A 
ATOM     95  F   UNL     1       1.734  22.938  12.707  1.00  0.00    -0.206 F 
ATOM     96  C   UNL     1       1.402  25.529  10.199  1.00  0.00     0.006 A 
ENDBRANCH  72  89
ENDBRANCH  46  47
ENDBRANCH  38  41
ENDBRANCH  36  37
ENDBRANCH  35  36
ENDBRANCH  34  35
ENDBRANCH   1  34
TORSDOF 17
