REMARK SMILES NC(=O)c1c(-c2ccc(Cl)cc2)csc1NC(=O)[C@H]1[C@@H](C(=O)NCCCCNC(=O)c2ccc(-c3c4nc(c(-c5c(F)cccc5F)c5ccc([nH]5)c(-c5c(F)cccc5F)c5nc(c(-c6c(F)cccc6F)c6ccc3[nH]6)C=C5)C=C4)cc2)[C@@H]2CC[C@H]1O2
REMARK SMILES IDX 25 1 24 2 23 3 21 4 22 5 20 7 19 8 88 9 85 10 87 11 89 12
REMARK SMILES IDX 86 13 17 14 16 15 18 17 15 18 4 19 5 20 13 21 14 22 2 23
REMARK SMILES IDX 1 24 3 27 6 28 7 29 12 30 8 31 11 32 9 33 10 34 26 35 27 36
REMARK SMILES IDX 28 37 29 38 30 40 31 41 32 42 84 43 33 44 83 45 34 46 35 47
REMARK SMILES IDX 36 48 77 49 37 50 82 51 76 52 78 53 38 54 81 55 75 56 74 57
REMARK SMILES IDX 39 59 65 60 48 61 64 62 49 63 52 64 63 65 79 66 50 67 51 68
REMARK SMILES IDX 62 70 80 71 53 72 40 73 41 74 46 75 42 76 43 77 45 78 47 79
REMARK SMILES IDX 44 80 66 81 67 82 72 83 68 84 69 85 71 86 73 87 70 88 54 89
REMARK SMILES IDX 55 90 60 91 56 92 57 93 59 94 61 95 58 96
REMARK H PARENT 23 6 16 16 1 25 1 26 28 39 78 58 52 69
REMARK Flexibility Score: inf
ROOT
ATOM      1  C   UNL     1       2.868  -2.816   9.371  1.00  0.00     0.023 C 
ENDROOT
BRANCH   1   2
ATOM      2  C   UNL     1       2.127  -3.751   8.421  1.00  0.00     0.116 C 
BRANCH   2   3
ATOM      3  N   UNL     1       0.756  -3.964   8.837  1.00  0.00    -0.356 N 
ATOM      4  C   UNL     1      -0.417  -3.547   8.302  1.00  0.00     0.226 C 
ATOM      5  O   UNL     1      -1.449  -3.970   8.840  1.00  0.00    -0.275 OA
ATOM      6  H   UNL     1       0.660  -4.509   9.651  1.00  0.00     0.163 HD
BRANCH   4   7
ATOM      7  C   UNL     1      -0.546  -2.547   7.161  1.00  0.00     0.122 C 
ATOM      8  C   UNL     1      -0.008  -2.823   5.745  1.00  0.00     0.123 C 
ATOM      9  C   UNL     1       0.945  -1.620   5.552  1.00  0.00     0.132 C 
ATOM     10  C   UNL     1       0.083  -1.191   7.499  1.00  0.00     0.132 C 
ATOM     11  C   UNL     1       0.145  -0.350   5.264  1.00  0.00     0.035 C 
ATOM     12  O   UNL     1       1.387  -1.310   6.895  1.00  0.00    -0.373 OA
ATOM     13  C   UNL     1      -0.510  -0.079   6.623  1.00  0.00     0.035 C 
BRANCH   8  14
ATOM     14  C   UNL     1       0.639  -4.172   5.434  1.00  0.00     0.231 C 
ATOM     15  N   UNL     1       1.342  -4.368   4.276  1.00  0.00    -0.317 N 
ATOM     16  H   UNL     1       1.970  -5.125   4.306  1.00  0.00     0.170 HD
ATOM     17  O   UNL     1       0.569  -5.126   6.210  1.00  0.00    -0.274 OA
BRANCH  15  18
ATOM     18  C   UNL     1       1.325  -3.689   3.072  1.00  0.00     0.108 A 
ATOM     19  C   UNL     1       2.354  -3.632   2.139  1.00  0.00     0.082 A 
ATOM     20  C   UNL     1       1.947  -2.847   0.992  1.00  0.00     0.007 A 
ATOM     21  C   UNL     1       0.640  -2.412   1.097  1.00  0.00     0.076 A 
ATOM     22  S   UNL     1      -0.100  -2.948   2.527  1.00  0.00    -0.125 S 
BRANCH  19  23
ATOM     23  C   UNL     1       3.642  -4.275   2.399  1.00  0.00     0.252 C 
ATOM     24  N   UNL     1       4.743  -3.714   1.826  1.00  0.00    -0.365 N 
ATOM     25  H   UNL     1       5.631  -4.113   1.973  1.00  0.00     0.159 HD
ATOM     26  H   UNL     1       4.651  -2.910   1.266  1.00  0.00     0.159 HD
ATOM     27  O   UNL     1       3.759  -5.247   3.141  1.00  0.00    -0.269 OA
ENDBRANCH  19  23
BRANCH  20  28
ATOM     28  C   UNL     1       2.687  -2.551  -0.224  1.00  0.00    -0.017 A 
ATOM     29  C   UNL     1       3.031  -1.228  -0.535  1.00  0.00     0.010 A 
ATOM     30  C   UNL     1       3.052  -3.588  -1.089  1.00  0.00     0.010 A 
ATOM     31  C   UNL     1       3.735  -0.948  -1.708  1.00  0.00     0.021 A 
ATOM     32  C   UNL     1       3.756  -3.305  -2.261  1.00  0.00     0.021 A 
ATOM     33  C   UNL     1       4.093  -1.987  -2.566  1.00  0.00     0.041 A 
ATOM     34  Cl  UNL     1       4.957  -1.639  -4.011  1.00  0.00    -0.084 Cl
ENDBRANCH  20  28
ENDBRANCH  15  18
ENDBRANCH   8  14
ENDBRANCH   4   7
ENDBRANCH   2   3
ENDBRANCH   1   2
BRANCH   1  35
ATOM     35  C   UNL     1       3.297  -3.475  10.684  1.00  0.00     0.023 C 
BRANCH  35  36
ATOM     36  C   UNL     1       4.212  -4.688  10.529  1.00  0.00     0.116 C 
BRANCH  36  37
ATOM     37  N   UNL     1       5.431  -4.405   9.786  1.00  0.00    -0.352 N 
ATOM     38  C   UNL     1       6.671  -4.976   9.944  1.00  0.00     0.251 C 
ATOM     39  H   UNL     1       5.358  -3.720   9.083  1.00  0.00     0.163 HD
ATOM     40  O   UNL     1       7.638  -4.571   9.309  1.00  0.00    -0.269 OA
BRANCH  38  41
ATOM     41  C   UNL     1       6.832  -6.061  10.931  1.00  0.00     0.039 A 
ATOM     42  C   UNL     1       7.813  -5.935  11.917  1.00  0.00     0.014 A 
ATOM     43  C   UNL     1       5.976  -7.166  10.913  1.00  0.00     0.014 A 
ATOM     44  C   UNL     1       7.891  -6.888  12.932  1.00  0.00     0.010 A 
ATOM     45  C   UNL     1       6.016  -8.081  11.960  1.00  0.00     0.010 A 
ATOM     46  C   UNL     1       6.969  -7.947  12.981  1.00  0.00    -0.014 A 
BRANCH  46  47
ATOM     47  C   UNL     1       6.980  -8.921  14.099  1.00  0.00     0.031 A 
ATOM     48  C   UNL     1       7.317 -10.361  13.839  1.00  0.00     0.074 A 
ATOM     49  C   UNL     1       6.617  -8.522  15.333  1.00  0.00     0.049 A 
ATOM     50  N   UNL     1       7.313 -11.373  14.668  1.00  0.00    -0.248 NA
ATOM     51  C   UNL     1       7.679 -10.716  12.457  1.00  0.00     0.031 C 
ATOM     52  C   UNL     1       6.217  -7.162  15.700  1.00  0.00     0.029 A 
ATOM     53  N   UNL     1       6.514  -9.226  16.506  1.00  0.00    -0.354 N 
ATOM     54  C   UNL     1       7.654 -12.484  13.908  1.00  0.00     0.074 A 
ATOM     55  C   UNL     1       7.812 -12.031  12.543  1.00  0.00     0.031 C 
ATOM     56  C   UNL     1       5.931  -7.127  17.012  1.00  0.00     0.029 A 
ATOM     57  C   UNL     1       6.098  -8.466  17.570  1.00  0.00     0.049 A 
ATOM     58  H   UNL     1       6.720 -10.187  16.577  1.00  0.00     0.167 HD
ATOM     59  C   UNL     1       7.840 -13.762  14.314  1.00  0.00     0.037 A 
ATOM     60  C   UNL     1       5.872  -8.811  18.852  1.00  0.00     0.037 A 
ATOM     61  C   UNL     1       7.710 -14.204  15.677  1.00  0.00     0.049 A 
ATOM     62  C   UNL     1       6.097 -10.234  19.280  1.00  0.00     0.074 A 
ATOM     63  C   UNL     1       7.942 -15.464  16.200  1.00  0.00     0.029 A 
ATOM     64  N   UNL     1       7.314 -13.398  16.733  1.00  0.00    -0.354 N 
ATOM     65  N   UNL     1       6.488 -11.260  18.565  1.00  0.00    -0.248 NA
ATOM     66  C   UNL     1       5.855 -10.545  20.696  1.00  0.00     0.031 C 
ATOM     67  C   UNL     1       7.653 -15.428  17.569  1.00  0.00     0.029 A 
ATOM     68  C   UNL     1       7.279 -14.137  17.904  1.00  0.00     0.049 A 
ATOM     69  H   UNL     1       7.090 -12.442  16.661  1.00  0.00     0.167 HD
ATOM     70  C   UNL     1       6.564 -12.331  19.445  1.00  0.00     0.074 A 
ATOM     71  C   UNL     1       6.190 -11.826  20.751  1.00  0.00     0.031 C 
ATOM     72  C   UNL     1       6.912 -13.616  19.195  1.00  0.00     0.037 A 
BRANCH  59  73
ATOM     73  C   UNL     1       8.211 -14.769  13.268  1.00  0.00     0.057 A 
ATOM     74  C   UNL     1       9.479 -14.777  12.670  1.00  0.00     0.134 A 
ATOM     75  C   UNL     1       7.303 -15.758  12.870  1.00  0.00     0.134 A 
ATOM     76  F   UNL     1      10.390 -13.849  12.997  1.00  0.00    -0.206 F 
ATOM     77  C   UNL     1       9.820 -15.716  11.695  1.00  0.00     0.040 A 
ATOM     78  C   UNL     1       7.641 -16.717  11.914  1.00  0.00     0.040 A 
ATOM     79  F   UNL     1       6.074 -15.810  13.406  1.00  0.00    -0.206 F 
ATOM     80  C   UNL     1       8.901 -16.693  11.319  1.00  0.00     0.006 A 
ENDBRANCH  59  73
BRANCH  60  81
ATOM     81  C   UNL     1       5.436  -7.785  19.831  1.00  0.00     0.057 A 
ATOM     82  C   UNL     1       6.308  -7.323  20.824  1.00  0.00     0.134 A 
ATOM     83  C   UNL     1       4.144  -7.249  19.805  1.00  0.00     0.134 A 
ATOM     84  F   UNL     1       7.553  -7.814  20.910  1.00  0.00    -0.206 F 
ATOM     85  C   UNL     1       5.906  -6.376  21.766  1.00  0.00     0.040 A 
ATOM     86  C   UNL     1       3.735  -6.285  20.728  1.00  0.00     0.040 A 
ATOM     87  F   UNL     1       3.264  -7.647  18.874  1.00  0.00    -0.206 F 
ATOM     88  C   UNL     1       4.616  -5.851  21.717  1.00  0.00     0.006 A 
ENDBRANCH  60  81
BRANCH  72  89
ATOM     89  C   UNL     1       6.937 -14.557  20.361  1.00  0.00     0.057 A 
ATOM     90  C   UNL     1       5.759 -15.045  20.940  1.00  0.00     0.134 A 
ATOM     91  C   UNL     1       8.154 -15.011  20.885  1.00  0.00     0.134 A 
ATOM     92  F   UNL     1       4.562 -14.637  20.493  1.00  0.00    -0.206 F 
ATOM     93  C   UNL     1       5.791 -15.938  22.012  1.00  0.00     0.040 A 
ATOM     94  C   UNL     1       8.199 -15.922  21.941  1.00  0.00     0.040 A 
ATOM     95  F   UNL     1       9.318 -14.587  20.369  1.00  0.00    -0.206 F 
ATOM     96  C   UNL     1       7.014 -16.384  22.510  1.00  0.00     0.006 A 
ENDBRANCH  72  89
ENDBRANCH  46  47
ENDBRANCH  38  41
ENDBRANCH  36  37
ENDBRANCH  35  36
ENDBRANCH   1  35
TORSDOF 15
