REMARK SMILES COc1ccc2c(C)cc(SCC(=O)NCCCCNC(=O)c3ccc(-c4c5nc(c(-c6c(F)cccc6F)c6ccc([nH]6)c(-c6c(F)cccc6F)c6nc(c(-c7c(F)cccc7F)c7ccc4[nH]7)C=C6)C=C5)cc3)nc2c1
REMARK SMILES IDX 17 1 16 2 15 3 13 4 14 5 12 7 11 8 10 9 3 10 4 11 79 12 5 13
REMARK SMILES IDX 78 14 6 15 77 16 7 17 8 18 9 19 2 20 1 21 18 22 19 23 20 24
REMARK SMILES IDX 21 25 22 27 23 28 24 29 76 30 25 31 75 32 26 33 27 34 28 35
REMARK SMILES IDX 69 36 29 37 74 38 68 39 70 40 30 41 73 42 67 43 66 44 31 46
REMARK SMILES IDX 57 47 40 48 56 49 41 50 44 51 55 52 71 53 42 54 43 55 54 57
REMARK SMILES IDX 72 58 45 59 32 60 33 61 38 62 34 63 35 64 37 65 39 66 36 67
REMARK SMILES IDX 58 68 59 69 64 70 60 71 61 72 63 73 65 74 62 75 46 76 47 77
REMARK SMILES IDX 52 78 48 79 49 80 51 81 53 82 50 83
REMARK H PARENT 15 6 20 26 70 45 44 56
REMARK Flexibility Score: inf
ROOT
ATOM      1  C   UNL     1      -3.366   7.610  -3.283  1.00  0.00     0.023 C 
ENDROOT
BRANCH   1   2
ATOM      2  C   UNL     1      -3.157   8.359  -4.600  1.00  0.00     0.116 C 
BRANCH   2   3
ATOM      3  N   UNL     1      -1.763   8.700  -4.802  1.00  0.00    -0.355 N 
ATOM      4  C   UNL     1      -0.845   8.146  -5.640  1.00  0.00     0.230 C 
ATOM      5  O   UNL     1       0.308   8.585  -5.593  1.00  0.00    -0.274 OA
ATOM      6  H   UNL     1      -1.430   9.445  -4.251  1.00  0.00     0.163 HD
BRANCH   4   7
ATOM      7  C   UNL     1      -1.233   7.095  -6.662  1.00  0.00     0.176 C 
BRANCH   7   8
ATOM      8  S   UNL     1      -1.758   5.503  -5.970  1.00  0.00    -0.096 SA
BRANCH   8   9
ATOM      9  C   UNL     1      -0.393   4.934  -4.984  1.00  0.00     0.097 A 
ATOM     10  C   UNL     1       0.755   1.587  -1.791  1.00  0.00     0.121 A 
ATOM     11  C   UNL     1       2.056   2.064  -1.699  1.00  0.00     0.047 A 
ATOM     12  C   UNL     1      -0.144   2.221  -2.650  1.00  0.00     0.075 A 
ATOM     13  C   UNL     1       2.441   3.170  -2.461  1.00  0.00     0.014 A 
ATOM     14  C   UNL     1       0.211   3.327  -3.410  1.00  0.00     0.075 A 
ATOM     15  C   UNL     1       1.530   3.815  -3.329  1.00  0.00     0.003 A 
ATOM     16  N   UNL     1      -0.721   3.884  -4.200  1.00  0.00    -0.241 NA
ATOM     17  C   UNL     1       1.862   4.921  -4.142  1.00  0.00    -0.039 A 
ATOM     18  C   UNL     1       3.234   5.538  -4.135  1.00  0.00     0.045 C 
ATOM     19  C   UNL     1       0.888   5.455  -4.997  1.00  0.00     0.039 A 
BRANCH  10  20
ATOM     20  O   UNL     1       0.256   0.500  -1.128  1.00  0.00    -0.497 OA
ATOM     21  C   UNL     1       0.949   0.106   0.050  1.00  0.00     0.278 C 
ENDBRANCH  10  20
ENDBRANCH   8   9
ENDBRANCH   7   8
ENDBRANCH   4   7
ENDBRANCH   2   3
ENDBRANCH   1   2
BRANCH   1  22
ATOM     22  C   UNL     1      -2.990   8.397  -2.022  1.00  0.00     0.023 C 
BRANCH  22  23
ATOM     23  C   UNL     1      -3.677   9.749  -1.857  1.00  0.00     0.116 C 
BRANCH  23  24
ATOM     24  N   UNL     1      -5.125   9.652  -1.832  1.00  0.00    -0.352 N 
ATOM     25  C   UNL     1      -6.034  10.337  -1.067  1.00  0.00     0.251 C 
ATOM     26  H   UNL     1      -5.513   8.998  -2.458  1.00  0.00     0.163 HD
ATOM     27  O   UNL     1      -7.225  10.025  -1.117  1.00  0.00    -0.269 OA
BRANCH  25  28
ATOM     28  C   UNL     1      -5.604  11.427  -0.163  1.00  0.00     0.039 A 
ATOM     29  C   UNL     1      -6.204  11.520   1.097  1.00  0.00     0.014 A 
ATOM     30  C   UNL     1      -4.663  12.383  -0.554  1.00  0.00     0.014 A 
ATOM     31  C   UNL     1      -5.840  12.546   1.972  1.00  0.00     0.010 A 
ATOM     32  C   UNL     1      -4.252  13.369   0.344  1.00  0.00     0.010 A 
ATOM     33  C   UNL     1      -4.849  13.472   1.609  1.00  0.00    -0.014 A 
BRANCH  33  34
ATOM     34  C   UNL     1      -4.474  14.582   2.522  1.00  0.00     0.031 A 
ATOM     35  C   UNL     1      -4.781  16.007   2.141  1.00  0.00     0.074 A 
ATOM     36  C   UNL     1      -3.845  14.317   3.683  1.00  0.00     0.049 A 
ATOM     37  N   UNL     1      -4.509  17.114   2.785  1.00  0.00    -0.248 NA
ATOM     38  C   UNL     1      -5.466  16.216   0.855  1.00  0.00     0.031 C 
ATOM     39  C   UNL     1      -3.459  12.986   4.155  1.00  0.00     0.029 A 
ATOM     40  N   UNL     1      -3.421  15.159   4.681  1.00  0.00    -0.354 N 
ATOM     41  C   UNL     1      -4.984  18.145   1.984  1.00  0.00     0.074 A 
ATOM     42  C   UNL     1      -5.507  17.538   0.780  1.00  0.00     0.031 C 
ATOM     43  C   UNL     1      -2.876  13.099   5.361  1.00  0.00     0.029 A 
ATOM     44  C   UNL     1      -2.826  14.509   5.735  1.00  0.00     0.049 A 
ATOM     45  H   UNL     1      -3.531  16.137   4.644  1.00  0.00     0.167 HD
ATOM     46  C   UNL     1      -5.013  19.475   2.239  1.00  0.00     0.037 A 
ATOM     47  C   UNL     1      -2.303  14.998   6.876  1.00  0.00     0.037 A 
ATOM     48  C   UNL     1      -4.516  20.082   3.446  1.00  0.00     0.049 A 
ATOM     49  C   UNL     1      -2.352  16.479   7.133  1.00  0.00     0.074 A 
ATOM     50  C   UNL     1      -4.511  21.420   3.801  1.00  0.00     0.029 A 
ATOM     51  N   UNL     1      -3.948  19.386   4.500  1.00  0.00    -0.354 N 
ATOM     52  N   UNL     1      -2.840  17.436   6.382  1.00  0.00    -0.248 NA
ATOM     53  C   UNL     1      -1.787  16.947   8.408  1.00  0.00     0.031 C 
ATOM     54  C   UNL     1      -3.922  21.535   5.065  1.00  0.00     0.029 A 
ATOM     55  C   UNL     1      -3.593  20.265   5.509  1.00  0.00     0.049 A 
ATOM     56  H   UNL     1      -3.817  18.410   4.529  1.00  0.00     0.167 HD
ATOM     57  C   UNL     1      -2.674  18.610   7.107  1.00  0.00     0.074 A 
ATOM     58  C   UNL     1      -2.056  18.243   8.363  1.00  0.00     0.031 C 
ATOM     59  C   UNL     1      -3.000  19.879   6.763  1.00  0.00     0.037 A 
BRANCH  46  60
ATOM     60  C   UNL     1      -5.628  20.363   1.198  1.00  0.00     0.057 A 
ATOM     61  C   UNL     1      -7.011  20.380   0.978  1.00  0.00     0.134 A 
ATOM     62  C   UNL     1      -4.840  21.233   0.434  1.00  0.00     0.134 A 
ATOM     63  F   UNL     1      -7.819  19.560   1.666  1.00  0.00    -0.206 F 
ATOM     64  C   UNL     1      -7.588  21.217   0.022  1.00  0.00     0.040 A 
ATOM     65  C   UNL     1      -5.409  22.092  -0.508  1.00  0.00     0.040 A 
ATOM     66  F   UNL     1      -3.509  21.269   0.598  1.00  0.00    -0.206 F 
ATOM     67  C   UNL     1      -6.786  22.082  -0.720  1.00  0.00     0.006 A 
ENDBRANCH  46  60
BRANCH  47  68
ATOM     68  C   UNL     1      -1.712  14.084   7.886  1.00  0.00     0.057 A 
ATOM     69  C   UNL     1      -2.335  13.879   9.124  1.00  0.00     0.134 A 
ATOM     70  C   UNL     1      -0.491  13.439   7.663  1.00  0.00     0.134 A 
ATOM     71  F   UNL     1      -3.497  14.487   9.404  1.00  0.00    -0.206 F 
ATOM     72  C   UNL     1      -1.748  13.094  10.117  1.00  0.00     0.040 A 
ATOM     73  C   UNL     1       0.095  12.630   8.638  1.00  0.00     0.040 A 
ATOM     74  F   UNL     1       0.152  13.590   6.497  1.00  0.00    -0.206 F 
ATOM     75  C   UNL     1      -0.528  12.466   9.874  1.00  0.00     0.006 A 
ENDBRANCH  47  68
BRANCH  59  76
ATOM     76  C   UNL     1      -2.742  20.949   7.781  1.00  0.00     0.057 A 
ATOM     77  C   UNL     1      -1.446  21.386   8.085  1.00  0.00     0.134 A 
ATOM     78  C   UNL     1      -3.807  21.557   8.458  1.00  0.00     0.134 A 
ATOM     79  F   UNL     1      -0.384  20.833   7.481  1.00  0.00    -0.206 F 
ATOM     80  C   UNL     1      -1.217  22.367   9.051  1.00  0.00     0.040 A 
ATOM     81  C   UNL     1      -3.591  22.558   9.407  1.00  0.00     0.040 A 
ATOM     82  F   UNL     1      -5.073  21.191   8.207  1.00  0.00    -0.206 F 
ATOM     83  C   UNL     1      -2.292  22.959   9.712  1.00  0.00     0.006 A 
ENDBRANCH  59  76
ENDBRANCH  33  34
ENDBRANCH  25  28
ENDBRANCH  23  24
ENDBRANCH  22  23
ENDBRANCH   1  22
TORSDOF 14
