REMARK SMILES CCOc1ccc(-c2cc(Cl)cc3c2O[C@H](C(F)(F)F)C(C(=O)NCCCCNC(=O)c2ccc(-c4c5nc(c(-c6c(F)cccc6F)c6ccc([nH]6)c(-c6c(F)cccc6F)c6nc(c(-c7c(F)cccc7F)c7ccc4[nH]7)C=C6)C=C5)cc2)=C3)cc1
REMARK SMILES IDX 26 1 25 2 24 3 22 4 23 5 21 7 8 8 9 9 14 10 10 11 13 12
REMARK SMILES IDX 15 13 11 14 12 15 86 16 16 17 7 18 4 19 5 20 88 21 6 22
REMARK SMILES IDX 87 23 3 24 2 25 1 26 17 27 18 28 19 29 20 30 27 31 28 32
REMARK SMILES IDX 29 33 30 34 31 36 32 37 33 38 85 39 34 40 84 41 35 42 36 43
REMARK SMILES IDX 37 44 78 45 38 46 83 47 77 48 79 49 39 50 82 51 76 52 75 53
REMARK SMILES IDX 40 55 66 56 49 57 65 58 50 59 53 60 64 61 80 62 51 63 52 64
REMARK SMILES IDX 63 66 81 67 54 68 41 69 42 70 47 71 43 72 44 73 46 74 48 75
REMARK SMILES IDX 45 76 67 77 68 78 73 79 69 80 70 81 72 82 74 83 71 84 55 85
REMARK SMILES IDX 56 86 61 87 57 88 58 89 60 90 62 91 59 92
REMARK H PARENT 24 6 29 35 79 54 53 65
REMARK Flexibility Score: inf
ROOT
ATOM      1  C   UNL     1      13.614   7.532   0.658  1.00  0.00     0.023 C 
ENDROOT
BRANCH   1   2
ATOM      2  C   UNL     1      13.014   6.211   0.153  1.00  0.00     0.116 C 
BRANCH   2   3
ATOM      3  N   UNL     1      12.420   5.495   1.261  1.00  0.00    -0.352 N 
ATOM      4  C   UNL     1      11.206   4.911   1.366  1.00  0.00     0.251 C 
ATOM      5  O   UNL     1      10.694   4.860   2.480  1.00  0.00    -0.270 OA
ATOM      6  H   UNL     1      12.988   5.422   2.062  1.00  0.00     0.163 HD
BRANCH   4   7
ATOM      7  C   UNL     1      10.614   4.247   0.165  1.00  0.00     0.067 C 
ATOM      8  C   UNL     1       6.955   3.288   1.690  1.00  0.00     0.026 A 
ATOM      9  C   UNL     1       7.199   2.787   2.995  1.00  0.00     0.033 A 
ATOM     10  C   UNL     1       8.084   3.423   0.857  1.00  0.00     0.135 A 
ATOM     11  C   UNL     1       8.427   2.250   3.374  1.00  0.00     0.042 A 
ATOM     12  C   UNL     1       9.284   2.758   1.214  1.00  0.00     0.019 A 
ATOM     13  O   UNL     1       8.116   4.232  -0.273  1.00  0.00    -0.475 OA
ATOM     14  Cl  UNL     1       8.651   1.680   4.979  1.00  0.00    -0.084 Cl
ATOM     15  C   UNL     1       9.450   2.150   2.454  1.00  0.00     0.032 A 
ATOM     16  C   UNL     1      10.455   2.918   0.323  1.00  0.00     0.025 C 
ATOM     17  C   UNL     1       9.416   4.960  -0.455  1.00  0.00     0.314 C 
BRANCH   8  18
ATOM     18  C   UNL     1       5.514   3.340   1.310  1.00  0.00    -0.014 A 
ATOM     19  C   UNL     1       2.787   2.528   1.181  1.00  0.00     0.119 A 
ATOM     20  C   UNL     1       3.201   3.448   2.140  1.00  0.00     0.047 A 
ATOM     21  C   UNL     1       3.696   2.100   0.220  1.00  0.00     0.047 A 
ATOM     22  C   UNL     1       4.545   3.859   2.196  1.00  0.00     0.013 A 
ATOM     23  C   UNL     1       5.043   2.505   0.280  1.00  0.00     0.013 A 
BRANCH  19  24
ATOM     24  O   UNL     1       1.463   2.184   1.166  1.00  0.00    -0.494 OA
BRANCH  24  25
ATOM     25  C   UNL     1       1.177   0.784   1.306  1.00  0.00     0.226 C 
ATOM     26  C   UNL     1       0.994   0.105  -0.042  1.00  0.00     0.049 C 
ENDBRANCH  24  25
ENDBRANCH  19  24
ENDBRANCH   8  18
BRANCH  17  27
ATOM     27  C   UNL     1       9.732   5.213  -1.948  1.00  0.00     0.429 C 
ATOM     28  F   UNL     1       8.996   4.442  -2.779  1.00  0.00    -0.167 F 
ATOM     29  F   UNL     1       9.517   6.507  -2.285  1.00  0.00    -0.167 F 
ATOM     30  F   UNL     1      11.037   4.962  -2.249  1.00  0.00    -0.167 F 
ENDBRANCH  17  27
ENDBRANCH   4   7
ENDBRANCH   2   3
ENDBRANCH   1   2
BRANCH   1  31
ATOM     31  C   UNL     1      14.689   7.392   1.748  1.00  0.00     0.023 C 
BRANCH  31  32
ATOM     32  C   UNL     1      15.854   6.478   1.388  1.00  0.00     0.116 C 
BRANCH  32  33
ATOM     33  N   UNL     1      16.625   6.997   0.271  1.00  0.00    -0.352 N 
ATOM     34  C   UNL     1      17.960   7.301   0.203  1.00  0.00     0.251 C 
ATOM     35  H   UNL     1      16.115   7.152  -0.557  1.00  0.00     0.163 HD
ATOM     36  O   UNL     1      18.397   7.924  -0.765  1.00  0.00    -0.269 OA
BRANCH  34  37
ATOM     37  C   UNL     1      18.873   6.908   1.297  1.00  0.00     0.039 A 
ATOM     38  C   UNL     1      19.822   7.829   1.747  1.00  0.00     0.014 A 
ATOM     39  C   UNL     1      18.805   5.636   1.872  1.00  0.00     0.014 A 
ATOM     40  C   UNL     1      20.660   7.495   2.813  1.00  0.00     0.010 A 
ATOM     41  C   UNL     1      19.586   5.334   2.986  1.00  0.00     0.010 A 
ATOM     42  C   UNL     1      20.524   6.259   3.468  1.00  0.00    -0.014 A 
BRANCH  42  43
ATOM     43  C   UNL     1      21.357   5.926   4.654  1.00  0.00     0.031 A 
ATOM     44  C   UNL     1      22.326   4.775   4.606  1.00  0.00     0.074 A 
ATOM     45  C   UNL     1      21.218   6.642   5.788  1.00  0.00     0.049 A 
ATOM     46  N   UNL     1      23.111   4.315   5.548  1.00  0.00    -0.248 NA
ATOM     47  C   UNL     1      22.412   4.030   3.339  1.00  0.00     0.031 C 
ATOM     48  C   UNL     1      20.287   7.756   5.978  1.00  0.00     0.029 A 
ATOM     49  N   UNL     1      21.860   6.538   6.997  1.00  0.00    -0.354 N 
ATOM     50  C   UNL     1      23.783   3.236   4.988  1.00  0.00     0.074 A 
ATOM     51  C   UNL     1      23.265   3.065   3.648  1.00  0.00     0.031 C 
ATOM     52  C   UNL     1      20.441   8.253   7.216  1.00  0.00     0.029 A 
ATOM     53  C   UNL     1      21.449   7.469   7.922  1.00  0.00     0.049 A 
ATOM     54  H   UNL     1      22.549   5.861   7.185  1.00  0.00     0.167 HD
ATOM     55  C   UNL     1      24.768   2.477   5.526  1.00  0.00     0.037 A 
ATOM     56  C   UNL     1      21.837   7.664   9.197  1.00  0.00     0.037 A 
ATOM     57  C   UNL     1      25.290   2.650   6.856  1.00  0.00     0.049 A 
ATOM     58  C   UNL     1      22.899   6.773   9.783  1.00  0.00     0.074 A 
ATOM     59  C   UNL     1      26.299   1.942   7.486  1.00  0.00     0.029 A 
ATOM     60  N   UNL     1      24.845   3.601   7.762  1.00  0.00    -0.354 N 
ATOM     61  N   UNL     1      23.565   5.794   9.220  1.00  0.00    -0.248 NA
ATOM     62  C   UNL     1      23.269   7.020  11.184  1.00  0.00     0.031 C 
ATOM     63  C   UNL     1      26.436   2.437   8.787  1.00  0.00     0.029 A 
ATOM     64  C   UNL     1      25.549   3.489   8.949  1.00  0.00     0.049 A 
ATOM     65  H   UNL     1      24.133   4.259   7.587  1.00  0.00     0.167 HD
ATOM     66  C   UNL     1      24.458   5.338  10.183  1.00  0.00     0.074 A 
ATOM     67  C   UNL     1      24.261   6.160  11.358  1.00  0.00     0.031 C 
ATOM     68  C   UNL     1      25.358   4.328  10.103  1.00  0.00     0.037 A 
BRANCH  55  69
ATOM     69  C   UNL     1      25.364   1.401   4.664  1.00  0.00     0.057 A 
ATOM     70  C   UNL     1      26.172   1.710   3.561  1.00  0.00     0.134 A 
ATOM     71  C   UNL     1      25.177   0.047   4.967  1.00  0.00     0.134 A 
ATOM     72  F   UNL     1      26.383   2.988   3.209  1.00  0.00    -0.206 F 
ATOM     73  C   UNL     1      26.755   0.712   2.779  1.00  0.00     0.040 A 
ATOM     74  C   UNL     1      25.778  -0.960   4.208  1.00  0.00     0.040 A 
ATOM     75  F   UNL     1      24.422  -0.321   6.013  1.00  0.00    -0.206 F 
ATOM     76  C   UNL     1      26.566  -0.628   3.108  1.00  0.00     0.006 A 
ENDBRANCH  55  69
BRANCH  56  77
ATOM     77  C   UNL     1      21.237   8.751  10.015  1.00  0.00     0.057 A 
ATOM     78  C   UNL     1      22.009   9.835  10.454  1.00  0.00     0.134 A 
ATOM     79  C   UNL     1      19.900   8.706  10.428  1.00  0.00     0.134 A 
ATOM     80  F   UNL     1      23.302   9.927  10.109  1.00  0.00    -0.206 F 
ATOM     81  C   UNL     1      21.486  10.810  11.305  1.00  0.00     0.040 A 
ATOM     82  C   UNL     1      19.355   9.691  11.252  1.00  0.00     0.040 A 
ATOM     83  F   UNL     1      19.104   7.700  10.037  1.00  0.00    -0.206 F 
ATOM     84  C   UNL     1      20.153  10.739  11.706  1.00  0.00     0.006 A 
ENDBRANCH  56  77
BRANCH  68  85
ATOM     85  C   UNL     1      26.236   4.095  11.299  1.00  0.00     0.057 A 
ATOM     86  C   UNL     1      25.736   3.570  12.498  1.00  0.00     0.134 A 
ATOM     87  C   UNL     1      27.607   4.379  11.240  1.00  0.00     0.134 A 
ATOM     88  F   UNL     1      24.431   3.288  12.626  1.00  0.00    -0.206 F 
ATOM     89  C   UNL     1      26.562   3.368  13.606  1.00  0.00     0.040 A 
ATOM     90  C   UNL     1      28.448   4.151  12.330  1.00  0.00     0.040 A 
ATOM     91  F   UNL     1      28.153   4.873  10.119  1.00  0.00    -0.206 F 
ATOM     92  C   UNL     1      27.923   3.653  13.521  1.00  0.00     0.006 A 
ENDBRANCH  68  85
ENDBRANCH  42  43
ENDBRANCH  34  37
ENDBRANCH  32  33
ENDBRANCH  31  32
ENDBRANCH   1  31
TORSDOF 15
