REMARK SMILES O=C(NCCCCNC(=O)[C@@H]1[C@H](C(=O)Nc2ccc(Cn3cncn3)cc2)[C@@H]2C=C[C@H]1CC2)c1ccc(-c2c3nc(c(-c4c(F)cccc4F)c4ccc([nH]4)c(-c4c(F)cccc4F)c4nc(c(-c5c(F)cccc5F)c5ccc2[nH]5)C=C4)C=C3)cc1
REMARK SMILES IDX 6 1 5 2 4 3 3 4 1 5 2 6 34 8 35 9 87 10 36 11 86 12 37 13
REMARK SMILES IDX 38 14 39 15 80 16 40 17 85 18 79 19 81 20 41 21 84 22 78 23
REMARK SMILES IDX 77 24 42 26 68 27 51 28 67 29 52 30 55 31 66 32 82 33 53 34
REMARK SMILES IDX 54 35 65 37 83 38 56 39 43 40 44 41 49 42 45 43 46 44 48 45
REMARK SMILES IDX 50 46 47 47 69 48 70 49 75 50 71 51 72 52 74 53 76 54 73 55
REMARK SMILES IDX 57 56 58 57 63 58 59 59 60 60 62 61 64 62 61 63 7 64 8 65
REMARK SMILES IDX 9 66 10 68 11 69 12 70 31 71 28 72 30 73 32 74 29 75 33 76
REMARK SMILES IDX 13 77 14 78 15 79 16 81 17 82 27 83 18 84 26 85 19 86 20 87
REMARK SMILES IDX 21 88 22 89 25 90 23 91 24 92
REMARK H PARENT 3 7 81 25 55 36 8 67 15 80
REMARK Flexibility Score: inf
ROOT
ATOM      1  C   UNL     1       4.365  -3.099   1.381  1.00  0.00     0.023 C 
ENDROOT
BRANCH   1   2
ATOM      2  C   UNL     1       5.045  -1.742   1.204  1.00  0.00     0.023 C 
BRANCH   2   3
ATOM      3  C   UNL     1       4.774  -1.043  -0.126  1.00  0.00     0.116 C 
BRANCH   3   4
ATOM      4  N   UNL     1       3.376  -0.929  -0.488  1.00  0.00    -0.352 N 
ATOM      5  O   UNL     1       1.272  -0.296  -0.691  1.00  0.00    -0.269 OA
ATOM      6  C   UNL     1       2.319  -0.163  -0.069  1.00  0.00     0.251 C 
ATOM      7  H   UNL     1       3.125  -1.551  -1.209  1.00  0.00     0.163 HD
BRANCH   6   8
ATOM      8  C   UNL     1       2.349   0.772   1.092  1.00  0.00     0.039 A 
ATOM      9  C   UNL     1       3.497   1.256   1.716  1.00  0.00     0.014 A 
ATOM     10  C   UNL     1       1.096   1.216   1.559  1.00  0.00     0.014 A 
ATOM     11  C   UNL     1       3.403   2.112   2.812  1.00  0.00     0.010 A 
ATOM     12  C   UNL     1       0.996   2.096   2.634  1.00  0.00     0.010 A 
ATOM     13  C   UNL     1       2.154   2.536   3.272  1.00  0.00    -0.014 A 
BRANCH  13  14
ATOM     14  C   UNL     1       2.120   3.593   4.287  1.00  0.00     0.031 A 
ATOM     15  C   UNL     1       2.667   4.915   3.854  1.00  0.00     0.074 A 
ATOM     16  C   UNL     1       1.470   3.499   5.464  1.00  0.00     0.049 A 
ATOM     17  N   UNL     1       3.564   5.648   4.434  1.00  0.00    -0.248 NA
ATOM     18  C   UNL     1       2.171   5.469   2.583  1.00  0.00     0.031 C 
ATOM     19  C   UNL     1       0.603   2.409   5.912  1.00  0.00     0.029 A 
ATOM     20  N   UNL     1       1.352   4.429   6.462  1.00  0.00    -0.354 N 
ATOM     21  C   UNL     1       3.614   6.837   3.705  1.00  0.00     0.074 A 
ATOM     22  C   UNL     1       2.827   6.627   2.519  1.00  0.00     0.031 C 
ATOM     23  C   UNL     1      -0.112   2.826   6.979  1.00  0.00     0.029 A 
ATOM     24  C   UNL     1       0.322   4.164   7.353  1.00  0.00     0.049 A 
ATOM     25  H   UNL     1       1.942   5.213   6.540  1.00  0.00     0.167 HD
ATOM     26  C   UNL     1       4.117   7.986   4.234  1.00  0.00     0.037 A 
ATOM     27  C   UNL     1      -0.193   5.000   8.287  1.00  0.00     0.037 A 
ATOM     28  C   UNL     1       5.003   7.733   5.337  1.00  0.00     0.049 A 
ATOM     29  C   UNL     1       0.781   6.085   8.538  1.00  0.00     0.074 A 
ATOM     30  C   UNL     1       6.161   7.004   5.526  1.00  0.00     0.029 A 
ATOM     31  N   UNL     1       4.586   8.084   6.595  1.00  0.00    -0.354 N 
ATOM     32  N   UNL     1       1.900   5.949   9.188  1.00  0.00    -0.248 NA
ATOM     33  C   UNL     1       0.645   7.325   7.787  1.00  0.00     0.031 C 
ATOM     34  C   UNL     1       6.114   6.565   6.882  1.00  0.00     0.029 A 
ATOM     35  C   UNL     1       4.937   7.065   7.437  1.00  0.00     0.049 A 
ATOM     36  H   UNL     1       4.121   8.915   6.845  1.00  0.00     0.167 HD
ATOM     37  C   UNL     1       2.762   6.855   8.594  1.00  0.00     0.074 A 
ATOM     38  C   UNL     1       1.901   7.769   7.857  1.00  0.00     0.031 C 
ATOM     39  C   UNL     1       4.101   6.602   8.517  1.00  0.00     0.037 A 
BRANCH  26  40
ATOM     40  C   UNL     1       3.502   9.350   3.998  1.00  0.00     0.057 A 
ATOM     41  C   UNL     1       4.160  10.496   4.487  1.00  0.00     0.134 A 
ATOM     42  C   UNL     1       2.160   9.551   3.615  1.00  0.00     0.134 A 
ATOM     43  F   UNL     1       5.436  10.435   4.895  1.00  0.00    -0.206 F 
ATOM     44  C   UNL     1       3.503  11.719   4.672  1.00  0.00     0.040 A 
ATOM     45  C   UNL     1       1.511  10.783   3.744  1.00  0.00     0.040 A 
ATOM     46  F   UNL     1       1.377   8.552   3.192  1.00  0.00    -0.206 F 
ATOM     47  C   UNL     1       2.170  11.862   4.311  1.00  0.00     0.006 A 
ENDBRANCH  26  40
BRANCH  27  48
ATOM     48  C   UNL     1      -1.560   5.040   8.857  1.00  0.00     0.057 A 
ATOM     49  C   UNL     1      -1.831   5.728  10.049  1.00  0.00     0.134 A 
ATOM     50  C   UNL     1      -2.682   4.618   8.122  1.00  0.00     0.134 A 
ATOM     51  F   UNL     1      -0.833   6.213  10.801  1.00  0.00    -0.206 F 
ATOM     52  C   UNL     1      -3.138   5.992  10.477  1.00  0.00     0.040 A 
ATOM     53  C   UNL     1      -3.992   4.861   8.547  1.00  0.00     0.040 A 
ATOM     54  F   UNL     1      -2.548   4.031   6.925  1.00  0.00    -0.206 F 
ATOM     55  C   UNL     1      -4.224   5.563   9.722  1.00  0.00     0.006 A 
ENDBRANCH  27  48
BRANCH  39  56
ATOM     56  C   UNL     1       4.671   5.553   9.424  1.00  0.00     0.057 A 
ATOM     57  C   UNL     1       4.295   4.202   9.402  1.00  0.00     0.134 A 
ATOM     58  C   UNL     1       5.722   5.907  10.278  1.00  0.00     0.134 A 
ATOM     59  F   UNL     1       3.376   3.750   8.537  1.00  0.00    -0.206 F 
ATOM     60  C   UNL     1       4.896   3.261  10.242  1.00  0.00     0.040 A 
ATOM     61  C   UNL     1       6.357   4.969  11.094  1.00  0.00     0.040 A 
ATOM     62  F   UNL     1       6.175   7.171  10.307  1.00  0.00    -0.206 F 
ATOM     63  C   UNL     1       5.933   3.643  11.089  1.00  0.00     0.006 A 
ENDBRANCH  39  56
ENDBRANCH  13  14
ENDBRANCH   6   8
ENDBRANCH   3   4
ENDBRANCH   2   3
ENDBRANCH   1   2
BRANCH   1  64
ATOM     64  C   UNL     1       4.670  -4.152   0.323  1.00  0.00     0.116 C 
BRANCH  64  65
ATOM     65  N   UNL     1       6.087  -4.434   0.147  1.00  0.00    -0.356 N 
ATOM     66  C   UNL     1       6.712  -5.651   0.114  1.00  0.00     0.224 C 
ATOM     67  H   UNL     1       6.670  -3.649   0.037  1.00  0.00     0.163 HD
ATOM     68  O   UNL     1       7.725  -5.753  -0.579  1.00  0.00    -0.275 OA
BRANCH  66  69
ATOM     69  C   UNL     1       6.088  -6.838   0.822  1.00  0.00     0.098 C 
ATOM     70  C   UNL     1       5.733  -6.705   2.324  1.00  0.00     0.098 C 
ATOM     71  C   UNL     1       6.794  -8.215   0.581  1.00  0.00     0.025 C 
ATOM     72  C   UNL     1       5.843  -8.101   3.004  1.00  0.00     0.025 C 
ATOM     73  C   UNL     1       7.779  -8.565   1.681  1.00  0.00    -0.027 C 
ATOM     74  C   UNL     1       5.689  -9.293   0.749  1.00  0.00     0.009 C 
ATOM     75  C   UNL     1       7.276  -8.550   2.926  1.00  0.00    -0.027 C 
ATOM     76  C   UNL     1       5.036  -9.127   2.151  1.00  0.00     0.009 C 
BRANCH  70  77
ATOM     77  C   UNL     1       6.228  -5.550   3.217  1.00  0.00     0.228 C 
ATOM     78  O   UNL     1       5.395  -5.035   3.984  1.00  0.00    -0.274 OA
ATOM     79  N   UNL     1       7.487  -5.038   3.335  1.00  0.00    -0.326 N 
ATOM     80  H   UNL     1       7.544  -4.079   3.547  1.00  0.00     0.169 HD
BRANCH  79  81
ATOM     81  C   UNL     1       8.705  -5.708   3.192  1.00  0.00     0.041 A 
ATOM     82  C   UNL     1       9.292  -6.290   4.315  1.00  0.00     0.026 A 
ATOM     83  C   UNL     1       9.388  -5.720   1.984  1.00  0.00     0.026 A 
ATOM     84  C   UNL     1      10.434  -7.082   4.170  1.00  0.00     0.008 A 
ATOM     85  C   UNL     1      10.521  -6.519   1.827  1.00  0.00     0.008 A 
ATOM     86  C   UNL     1      11.009  -7.267   2.905  1.00  0.00    -0.026 A 
BRANCH  86  87
ATOM     87  C   UNL     1      12.089  -8.294   2.687  1.00  0.00     0.181 C 
BRANCH  87  88
ATOM     88  N   UNL     1      13.408  -7.705   2.632  1.00  0.00    -0.249 N 
ATOM     89  C   UNL     1      14.134  -7.204   3.668  1.00  0.00     0.220 A 
ATOM     90  N   UNL     1      14.131  -7.715   1.495  1.00  0.00    -0.160 NA
ATOM     91  N   UNL     1      15.325  -6.857   3.240  1.00  0.00    -0.224 NA
ATOM     92  C   UNL     1      15.280  -7.179   1.913  1.00  0.00     0.246 A 
ENDBRANCH  87  88
ENDBRANCH  86  87
ENDBRANCH  79  81
ENDBRANCH  70  77
ENDBRANCH  66  69
ENDBRANCH  64  65
ENDBRANCH   1  64
TORSDOF 15
