REMARK SMILES CO[C@@H]1C[C@@H](C(=O)NCCCCNC(=O)c2ccc(-c3c4nc(c(-c5c(F)cccc5F)c5ccc([nH]5)c(-c5c(F)cccc5F)c5nc(c(-c6c(F)cccc6F)c6ccc3[nH]6)C=C5)C=C4)cc2)N(C(=O)c2nc(C(C)C)n[nH]2)C1
REMARK SMILES IDX 10 1 9 2 8 3 6 4 7 5 5 7 3 8 4 9 81 10 70 11 2 12 1 13 71 14
REMARK SMILES IDX 72 15 73 16 74 17 80 18 75 19 79 20 76 22 77 23 78 24 11 25
REMARK SMILES IDX 12 26 13 27 14 28 15 30 16 31 17 32 69 33 18 34 68 35 19 36
REMARK SMILES IDX 20 37 21 38 62 39 22 40 67 41 61 42 63 43 23 44 66 45 60 46
REMARK SMILES IDX 59 47 24 49 50 50 33 51 49 52 34 53 37 54 48 55 64 56 35 57
REMARK SMILES IDX 36 58 47 60 65 61 38 62 25 63 26 64 31 65 27 66 28 67 30 68
REMARK SMILES IDX 32 69 29 70 51 71 52 72 57 73 53 74 54 75 56 76 58 77 55 78
REMARK SMILES IDX 39 79 40 80 45 81 41 82 42 83 44 84 46 85 43 86
REMARK H PARENT 8 6 80 21 13 29 63 48 37 59
REMARK Flexibility Score: inf
ROOT
ATOM      1  C   UNL     1       1.424   5.902   1.482  1.00  0.00     0.023 C 
ENDROOT
BRANCH   1   2
ATOM      2  C   UNL     1       0.991   5.298   0.151  1.00  0.00     0.116 C 
BRANCH   2   3
ATOM      3  N   UNL     1       2.082   4.871  -0.709  1.00  0.00    -0.354 N 
ATOM      4  C   UNL     1       2.009   3.958  -1.725  1.00  0.00     0.242 C 
ATOM      5  O   UNL     1       2.777   4.082  -2.683  1.00  0.00    -0.273 OA
ATOM      6  H   UNL     1       2.962   5.279  -0.543  1.00  0.00     0.163 HD
BRANCH   4   7
ATOM      7  C   UNL     1       1.015   2.795  -1.630  1.00  0.00     0.177 C 
ATOM      8  C   UNL     1       0.940   0.411  -1.866  1.00  0.00     0.139 C 
ATOM      9  C   UNL     1       1.857   1.530  -1.395  1.00  0.00     0.069 C 
ATOM     10  C   UNL     1       0.254   1.039  -3.088  1.00  0.00     0.153 C 
ATOM     11  N   UNL     1       0.273   2.480  -2.853  1.00  0.00    -0.321 N 
BRANCH   8  12
ATOM     12  O   UNL     1      -0.039   0.093  -0.871  1.00  0.00    -0.380 OA
ATOM     13  C   UNL     1       0.498  -0.609   0.244  1.00  0.00     0.195 C 
ENDBRANCH   8  12
BRANCH  11  14
ATOM     14  C   UNL     1      -0.589   3.310  -3.559  1.00  0.00     0.291 C 
ATOM     15  O   UNL     1      -1.290   2.861  -4.465  1.00  0.00    -0.265 OA
BRANCH  14  16
ATOM     16  C   UNL     1      -0.552   4.721  -3.257  1.00  0.00     0.214 A 
ATOM     17  N   UNL     1      -1.401   5.391  -2.499  1.00  0.00    -0.207 NA
ATOM     18  N   UNL     1       0.350   5.596  -3.788  1.00  0.00    -0.255 N 
ATOM     19  C   UNL     1      -0.984   6.695  -2.629  1.00  0.00     0.153 A 
ATOM     20  N   UNL     1       0.127   6.852  -3.361  1.00  0.00    -0.158 NA
ATOM     21  H   UNL     1       1.072   5.340  -4.406  1.00  0.00     0.192 HD
BRANCH  19  22
ATOM     22  C   UNL     1      -1.673   7.855  -1.978  1.00  0.00     0.053 C 
ATOM     23  C   UNL     1      -2.690   8.492  -2.926  1.00  0.00     0.016 C 
ATOM     24  C   UNL     1      -2.349   7.477  -0.659  1.00  0.00     0.016 C 
ENDBRANCH  19  22
ENDBRANCH  14  16
ENDBRANCH  11  14
ENDBRANCH   4   7
ENDBRANCH   2   3
ENDBRANCH   1   2
BRANCH   1  25
ATOM     25  C   UNL     1       2.498   6.987   1.420  1.00  0.00     0.023 C 
BRANCH  25  26
ATOM     26  C   UNL     1       2.310   8.087   0.379  1.00  0.00     0.116 C 
BRANCH  26  27
ATOM     27  N   UNL     1       1.161   8.939   0.621  1.00  0.00    -0.352 N 
ATOM     28  C   UNL     1       1.080  10.310   0.717  1.00  0.00     0.251 C 
ATOM     29  H   UNL     1       0.306   8.463   0.734  1.00  0.00     0.163 HD
ATOM     30  O   UNL     1       0.001  10.838   0.965  1.00  0.00    -0.269 OA
BRANCH  28  31
ATOM     31  C   UNL     1       2.295  11.153   0.590  1.00  0.00     0.039 A 
ATOM     32  C   UNL     1       2.510  12.152   1.545  1.00  0.00     0.014 A 
ATOM     33  C   UNL     1       3.225  10.966  -0.436  1.00  0.00     0.014 A 
ATOM     34  C   UNL     1       3.699  12.887   1.534  1.00  0.00     0.010 A 
ATOM     35  C   UNL     1       4.439  11.654  -0.410  1.00  0.00     0.010 A 
ATOM     36  C   UNL     1       4.697  12.606   0.589  1.00  0.00    -0.014 A 
BRANCH  36  37
ATOM     37  C   UNL     1       6.031  13.259   0.664  1.00  0.00     0.031 A 
ATOM     38  C   UNL     1       6.497  14.187  -0.421  1.00  0.00     0.074 A 
ATOM     39  C   UNL     1       6.860  12.958   1.684  1.00  0.00     0.049 A 
ATOM     40  N   UNL     1       7.661  14.770  -0.564  1.00  0.00    -0.248 NA
ATOM     41  C   UNL     1       5.538  14.483  -1.496  1.00  0.00     0.031 C 
ATOM     42  C   UNL     1       6.554  12.040   2.783  1.00  0.00     0.029 A 
ATOM     43  N   UNL     1       8.137  13.385   1.954  1.00  0.00    -0.354 N 
ATOM     44  C   UNL     1       7.585  15.481  -1.754  1.00  0.00     0.074 A 
ATOM     45  C   UNL     1       6.267  15.240  -2.305  1.00  0.00     0.031 C 
ATOM     46  C   UNL     1       7.605  11.987   3.617  1.00  0.00     0.029 A 
ATOM     47  C   UNL     1       8.669  12.840   3.097  1.00  0.00     0.049 A 
ATOM     48  H   UNL     1       8.624  14.021   1.383  1.00  0.00     0.167 HD
ATOM     49  C   UNL     1       8.521  16.272  -2.330  1.00  0.00     0.037 A 
ATOM     50  C   UNL     1       9.880  13.002   3.662  1.00  0.00     0.037 A 
ATOM     51  C   UNL     1       9.818  16.550  -1.773  1.00  0.00     0.049 A 
ATOM     52  C   UNL     1      10.890  13.905   3.017  1.00  0.00     0.074 A 
ATOM     53  C   UNL     1      10.807  17.387  -2.264  1.00  0.00     0.029 A 
ATOM     54  N   UNL     1      10.306  16.002  -0.598  1.00  0.00    -0.354 N 
ATOM     55  N   UNL     1      10.787  14.599   1.911  1.00  0.00    -0.248 NA
ATOM     56  C   UNL     1      12.185  14.046   3.699  1.00  0.00     0.031 C 
ATOM     57  C   UNL     1      11.901  17.331  -1.393  1.00  0.00     0.029 A 
ATOM     58  C   UNL     1      11.584  16.476  -0.351  1.00  0.00     0.049 A 
ATOM     59  H   UNL     1       9.817  15.369  -0.024  1.00  0.00     0.167 HD
ATOM     60  C   UNL     1      11.993  15.271   1.772  1.00  0.00     0.074 A 
ATOM     61  C   UNL     1      12.812  14.909   2.911  1.00  0.00     0.031 C 
ATOM     62  C   UNL     1      12.386  16.113   0.787  1.00  0.00     0.037 A 
BRANCH  49  63
ATOM     63  C   UNL     1       8.170  16.902  -3.642  1.00  0.00     0.057 A 
ATOM     64  C   UNL     1       7.323  18.015  -3.717  1.00  0.00     0.134 A 
ATOM     65  C   UNL     1       8.712  16.415  -4.837  1.00  0.00     0.134 A 
ATOM     66  F   UNL     1       6.765  18.519  -2.606  1.00  0.00    -0.206 F 
ATOM     67  C   UNL     1       7.014  18.612  -4.939  1.00  0.00     0.040 A 
ATOM     68  C   UNL     1       8.423  17.013  -6.064  1.00  0.00     0.040 A 
ATOM     69  F   UNL     1       9.533  15.354  -4.830  1.00  0.00    -0.206 F 
ATOM     70  C   UNL     1       7.569  18.113  -6.117  1.00  0.00     0.006 A 
ENDBRANCH  49  63
BRANCH  50  71
ATOM     71  C   UNL     1      10.201  12.303   4.928  1.00  0.00     0.057 A 
ATOM     72  C   UNL     1      10.213  12.993   6.144  1.00  0.00     0.134 A 
ATOM     73  C   UNL     1      10.505  10.938   4.950  1.00  0.00     0.134 A 
ATOM     74  F   UNL     1       9.948  14.307   6.177  1.00  0.00    -0.206 F 
ATOM     75  C   UNL     1      10.526  12.351   7.343  1.00  0.00     0.040 A 
ATOM     76  C   UNL     1      10.806  10.279   6.143  1.00  0.00     0.040 A 
ATOM     77  F   UNL     1      10.507  10.225   3.814  1.00  0.00    -0.206 F 
ATOM     78  C   UNL     1      10.820  10.988   7.344  1.00  0.00     0.006 A 
ENDBRANCH  50  71
BRANCH  62  79
ATOM     79  C   UNL     1      13.750  16.716   0.910  1.00  0.00     0.057 A 
ATOM     80  C   UNL     1      14.902  15.994   0.578  1.00  0.00     0.134 A 
ATOM     81  C   UNL     1      13.909  18.039   1.339  1.00  0.00     0.134 A 
ATOM     82  F   UNL     1      14.812  14.718   0.176  1.00  0.00    -0.206 F 
ATOM     83  C   UNL     1      16.171  16.566   0.680  1.00  0.00     0.040 A 
ATOM     84  C   UNL     1      15.172  18.625   1.432  1.00  0.00     0.040 A 
ATOM     85  F   UNL     1      12.842  18.781   1.671  1.00  0.00    -0.206 F 
ATOM     86  C   UNL     1      16.308  17.887   1.104  1.00  0.00     0.006 A 
ENDBRANCH  62  79
ENDBRANCH  36  37
ENDBRANCH  28  31
ENDBRANCH  26  27
ENDBRANCH  25  26
ENDBRANCH   1  25
TORSDOF 15
