REMARK SMILES C[C@@H](C(=O)NCCCCNC(=O)c1ccc(-c2c3nc(c(-c4c(F)cccc4F)c4ccc([nH]4)c(-c4c(F)cccc4F)c4nc(c(-c5c(F)cccc5F)c5ccc2[nH]5)C=C4)C=C3)cc1)c1ccc(-c2ccn(C(F)F)c(=O)c2)cc1
REMARK SMILES IDX 7 1 6 2 5 3 3 4 4 5 2 7 1 8 67 9 68 10 82 11 69 12 81 13
REMARK SMILES IDX 70 14 71 15 72 16 80 17 73 18 78 19 74 20 79 21 75 22 76 23
REMARK SMILES IDX 77 24 8 25 9 26 10 27 11 28 12 30 13 31 14 32 66 33 15 34
REMARK SMILES IDX 65 35 16 36 17 37 18 38 59 39 19 40 64 41 58 42 60 43 20 44
REMARK SMILES IDX 63 45 57 46 56 47 21 49 47 50 30 51 46 52 31 53 34 54 45 55
REMARK SMILES IDX 61 56 32 57 33 58 44 60 62 61 35 62 22 63 23 64 28 65 24 66
REMARK SMILES IDX 25 67 27 68 29 69 26 70 48 71 49 72 54 73 50 74 51 75 53 76
REMARK SMILES IDX 55 77 52 78 36 79 37 80 42 81 38 82 39 83 41 84 43 85 40 86
REMARK H PARENT 5 6 10 29 60 48 34 59
REMARK Flexibility Score: inf
ROOT
ATOM      1  C   UNL     1       4.156  -0.383   1.175  1.00  0.00     0.023 C 
ENDROOT
BRANCH   1   2
ATOM      2  C   UNL     1       3.362  -1.646   0.831  1.00  0.00     0.116 C 
BRANCH   2   3
ATOM      3  N   UNL     1       2.301  -1.858   1.792  1.00  0.00    -0.356 N 
ATOM      4  C   UNL     1       0.978  -1.526   1.725  1.00  0.00     0.227 C 
ATOM      5  O   UNL     1       0.324  -1.673   2.760  1.00  0.00    -0.274 OA
ATOM      6  H   UNL     1       2.575  -2.312   2.622  1.00  0.00     0.163 HD
BRANCH   4   7
ATOM      7  C   UNL     1       0.362  -1.056   0.394  1.00  0.00     0.105 C 
ATOM      8  C   UNL     1       0.872   0.329  -0.023  1.00  0.00     0.023 C 
BRANCH   7   9
ATOM      9  C   UNL     1      -1.167  -1.124   0.437  1.00  0.00    -0.036 A 
ATOM     10  C   UNL     1      -1.970   0.019   0.566  1.00  0.00     0.005 A 
ATOM     11  C   UNL     1      -1.798  -2.378   0.378  1.00  0.00     0.005 A 
ATOM     12  C   UNL     1      -3.361  -0.080   0.593  1.00  0.00     0.009 A 
ATOM     13  C   UNL     1      -3.192  -2.479   0.417  1.00  0.00     0.009 A 
ATOM     14  C   UNL     1      -3.982  -1.329   0.508  1.00  0.00    -0.018 A 
BRANCH  14  15
ATOM     15  C   UNL     1      -5.449  -1.430   0.499  1.00  0.00    -0.011 A 
ATOM     16  C   UNL     1      -6.206  -2.049   1.568  1.00  0.00     0.027 A 
ATOM     17  C   UNL     1      -6.100  -0.936  -0.568  1.00  0.00     0.080 A 
ATOM     18  C   UNL     1      -7.538  -2.149   1.482  1.00  0.00     0.095 A 
ATOM     19  C   UNL     1      -7.580  -1.030  -0.672  1.00  0.00     0.255 A 
ATOM     20  N   UNL     1      -8.220  -1.659   0.384  1.00  0.00    -0.258 N 
ATOM     21  O   UNL     1      -8.127  -0.562  -1.665  1.00  0.00    -0.269 OA
BRANCH  20  22
ATOM     22  C   UNL     1      -9.648  -1.808   0.280  1.00  0.00     0.451 C 
ATOM     23  F   UNL     1     -10.261  -0.606   0.152  1.00  0.00    -0.185 F 
ATOM     24  F   UNL     1      -9.977  -2.564  -0.796  1.00  0.00    -0.185 F 
ENDBRANCH  20  22
ENDBRANCH  14  15
ENDBRANCH   7   9
ENDBRANCH   4   7
ENDBRANCH   2   3
ENDBRANCH   1   2
BRANCH   1  25
ATOM     25  C   UNL     1       4.948  -0.469   2.483  1.00  0.00     0.023 C 
BRANCH  25  26
ATOM     26  C   UNL     1       5.950  -1.614   2.555  1.00  0.00     0.116 C 
BRANCH  26  27
ATOM     27  N   UNL     1       6.929  -1.573   1.481  1.00  0.00    -0.352 N 
ATOM     28  C   UNL     1       8.281  -1.800   1.533  1.00  0.00     0.251 C 
ATOM     29  H   UNL     1       6.572  -1.351   0.591  1.00  0.00     0.163 HD
ATOM     30  O   UNL     1       8.978  -1.580   0.545  1.00  0.00    -0.269 OA
BRANCH  28  31
ATOM     31  C   UNL     1       8.904  -2.276   2.785  1.00  0.00     0.039 A 
ATOM     32  C   UNL     1      10.100  -1.688   3.203  1.00  0.00     0.014 A 
ATOM     33  C   UNL     1       8.318  -3.292   3.546  1.00  0.00     0.014 A 
ATOM     34  C   UNL     1      10.677  -2.079   4.412  1.00  0.00     0.010 A 
ATOM     35  C   UNL     1       8.851  -3.624   4.789  1.00  0.00     0.010 A 
ATOM     36  C   UNL     1      10.040  -3.026   5.232  1.00  0.00    -0.014 A 
BRANCH  36  37
ATOM     37  C   UNL     1      10.612  -3.393   6.552  1.00  0.00     0.031 A 
ATOM     38  C   UNL     1      11.082  -4.797   6.815  1.00  0.00     0.074 A 
ATOM     39  C   UNL     1      10.679  -2.465   7.527  1.00  0.00     0.049 A 
ATOM     40  N   UNL     1      11.600  -5.304   7.906  1.00  0.00    -0.248 NA
ATOM     41  C   UNL     1      10.931  -5.766   5.718  1.00  0.00     0.031 C 
ATOM     42  C   UNL     1      10.203  -1.085   7.416  1.00  0.00     0.029 A 
ATOM     43  N   UNL     1      11.171  -2.544   8.805  1.00  0.00    -0.354 N 
ATOM     44  C   UNL     1      11.838  -6.644   7.624  1.00  0.00     0.074 A 
ATOM     45  C   UNL     1      11.344  -6.889   6.287  1.00  0.00     0.031 C 
ATOM     46  C   UNL     1      10.453  -0.439   8.566  1.00  0.00     0.029 A 
ATOM     47  C   UNL     1      11.073  -1.366   9.507  1.00  0.00     0.049 A 
ATOM     48  H   UNL     1      11.558  -3.366   9.184  1.00  0.00     0.167 HD
ATOM     49  C   UNL     1      12.444  -7.577   8.396  1.00  0.00     0.037 A 
ATOM     50  C   UNL     1      11.440  -1.068  10.767  1.00  0.00     0.037 A 
ATOM     51  C   UNL     1      12.941  -7.332   9.724  1.00  0.00     0.049 A 
ATOM     52  C   UNL     1      12.097  -2.128  11.609  1.00  0.00     0.074 A 
ATOM     53  C   UNL     1      13.596  -8.204  10.576  1.00  0.00     0.029 A 
ATOM     54  N   UNL     1      12.837  -6.122  10.395  1.00  0.00    -0.354 N 
ATOM     55  N   UNL     1      12.377  -3.372  11.303  1.00  0.00    -0.248 NA
ATOM     56  C   UNL     1      12.500  -1.738  12.967  1.00  0.00     0.031 C 
ATOM     57  C   UNL     1      13.850  -7.535  11.778  1.00  0.00     0.029 A 
ATOM     58  C   UNL     1      13.402  -6.230  11.655  1.00  0.00     0.049 A 
ATOM     59  H   UNL     1      12.422  -5.307  10.030  1.00  0.00     0.167 HD
ATOM     60  C   UNL     1      13.014  -3.903  12.418  1.00  0.00     0.074 A 
ATOM     61  C   UNL     1      13.099  -2.839  13.396  1.00  0.00     0.031 C 
ATOM     62  C   UNL     1      13.485  -5.159  12.616  1.00  0.00     0.037 A 
BRANCH  49  63
ATOM     63  C   UNL     1      12.618  -8.950   7.811  1.00  0.00     0.057 A 
ATOM     64  C   UNL     1      13.509  -9.191   6.755  1.00  0.00     0.134 A 
ATOM     65  C   UNL     1      11.920 -10.048   8.328  1.00  0.00     0.134 A 
ATOM     66  F   UNL     1      14.200  -8.182   6.205  1.00  0.00    -0.206 F 
ATOM     67  C   UNL     1      13.680 -10.469   6.219  1.00  0.00     0.040 A 
ATOM     68  C   UNL     1      12.104 -11.336   7.819  1.00  0.00     0.040 A 
ATOM     69  F   UNL     1      11.055  -9.891   9.341  1.00  0.00    -0.206 F 
ATOM     70  C   UNL     1      12.982 -11.547   6.758  1.00  0.00     0.006 A 
ENDBRANCH  49  63
BRANCH  50  71
ATOM     71  C   UNL     1      11.212   0.295  11.311  1.00  0.00     0.057 A 
ATOM     72  C   UNL     1      12.282   1.147  11.609  1.00  0.00     0.134 A 
ATOM     73  C   UNL     1       9.921   0.769  11.574  1.00  0.00     0.134 A 
ATOM     74  F   UNL     1      13.544   0.746  11.396  1.00  0.00    -0.206 F 
ATOM     75  C   UNL     1      12.080   2.406  12.178  1.00  0.00     0.040 A 
ATOM     76  C   UNL     1       9.702   2.037  12.114  1.00  0.00     0.040 A 
ATOM     77  F   UNL     1       8.851   0.007  11.302  1.00  0.00    -0.206 F 
ATOM     78  C   UNL     1      10.785   2.855  12.429  1.00  0.00     0.006 A 
ENDBRANCH  50  71
BRANCH  62  79
ATOM     79  C   UNL     1      14.167  -5.435  13.925  1.00  0.00     0.057 A 
ATOM     80  C   UNL     1      13.460  -5.495  15.133  1.00  0.00     0.134 A 
ATOM     81  C   UNL     1      15.548  -5.662  13.973  1.00  0.00     0.134 A 
ATOM     82  F   UNL     1      12.136  -5.274  15.158  1.00  0.00    -0.206 F 
ATOM     83  C   UNL     1      14.107  -5.737  16.346  1.00  0.00     0.040 A 
ATOM     84  C   UNL     1      16.202  -5.936  15.176  1.00  0.00     0.040 A 
ATOM     85  F   UNL     1      16.285  -5.631  12.852  1.00  0.00    -0.206 F 
ATOM     86  C   UNL     1      15.482  -5.963  16.368  1.00  0.00     0.006 A 
ENDBRANCH  62  79
ENDBRANCH  36  37
ENDBRANCH  28  31
ENDBRANCH  26  27
ENDBRANCH  25  26
ENDBRANCH   1  25
TORSDOF 14
