REMARK SMILES C[NH2+][C@@](C)(CC[N@@H+](C)C1CCC(C)(C)CC1)C(=O)NCCCCNC(=O)c1ccc(-c2c3nc(c(-c4c(F)cccc4F)c4ccc([nH]4)c(-c4c(F)cccc4F)c4nc(c(-c5c(F)cccc5F)c5ccc2[nH]5)C=C4)C=C3)cc1
REMARK SMILES IDX 20 1 19 2 17 3 18 4 3 6 4 7 2 8 1 9 5 12 6 13 7 14 8 15 9 17
REMARK SMILES IDX 10 18 16 19 11 20 15 21 12 22 13 23 14 24 21 25 22 26 23 27
REMARK SMILES IDX 24 28 25 29 26 31 27 32 28 33 80 34 29 35 79 36 30 37 31 38
REMARK SMILES IDX 32 39 73 40 33 41 78 42 72 43 74 44 34 45 77 46 71 47 70 48
REMARK SMILES IDX 35 50 61 51 44 52 60 53 45 54 48 55 59 56 75 57 46 58 47 59
REMARK SMILES IDX 58 61 76 62 49 63 36 64 37 65 42 66 38 67 39 68 41 69 43 70
REMARK SMILES IDX 40 71 62 72 63 73 68 74 64 75 65 76 67 77 69 78 66 79 50 80
REMARK SMILES IDX 51 81 56 82 52 83 53 84 55 85 57 86 54 87
REMARK H PARENT 19 5 2 10 2 11 7 16 24 30 74 49 48 60
REMARK Flexibility Score: inf
ROOT
ATOM      1  C   UNL     1      -4.703   0.819   2.365  1.00  0.00     0.116 C 
ENDROOT
BRANCH   1   2
ATOM      2  N   UNL     1      -3.320   1.209   2.523  1.00  0.00    -0.351 N 
ATOM      3  C   UNL     1      -2.295   0.380   2.073  1.00  0.00     0.281 C 
ATOM      4  O   UNL     1      -2.526  -0.435   1.196  1.00  0.00    -0.268 OA
ATOM      5  H   UNL     1      -3.101   2.067   2.953  1.00  0.00     0.163 HD
BRANCH   3   6
ATOM      6  C   UNL     1      -1.030   0.308   2.990  1.00  0.00     0.177 C 
ATOM      7  C   UNL     1      -1.483  -0.677   4.087  1.00  0.00     0.090 C 
BRANCH   6   8
ATOM      8  N   UNL     1       0.236  -0.207   2.393  1.00  0.00    -0.336 N 
ATOM      9  C   UNL     1       0.295  -1.567   1.890  1.00  0.00     0.331 C 
ATOM     10  H   UNL     1       0.466   0.407   1.611  1.00  0.00     0.346 HD
ATOM     11  H   UNL     1       0.882  -0.219   3.182  1.00  0.00     0.346 HD
ENDBRANCH   6   8
BRANCH   6  12
ATOM     12  C   UNL     1      -0.643   1.714   3.511  1.00  0.00     0.140 C 
BRANCH  12  13
ATOM     13  C   UNL     1      -0.067   2.668   2.413  1.00  0.00     0.269 C 
BRANCH  13  14
ATOM     14  N   UNL     1      -1.032   3.091   1.368  1.00  0.00    -0.335 N 
ATOM     15  C   UNL     1      -1.391   4.505   1.656  1.00  0.00     0.332 C 
ATOM     16  H   UNL     1      -1.795   2.418   1.433  1.00  0.00     0.348 HD
BRANCH  14  17
ATOM     17  C   UNL     1      -0.598   3.013  -0.080  1.00  0.00     0.183 C 
ATOM     18  C   UNL     1       0.524   2.085  -0.573  1.00  0.00     0.065 C 
ATOM     19  C   UNL     1      -1.817   2.827  -1.033  1.00  0.00     0.065 C 
ATOM     20  C   UNL     1       0.108   0.635  -0.757  1.00  0.00     0.012 C 
ATOM     21  C   UNL     1      -2.107   1.452  -1.695  1.00  0.00     0.012 C 
ATOM     22  C   UNL     1      -0.988   0.383  -1.799  1.00  0.00    -0.035 C 
ATOM     23  C   UNL     1      -1.581  -1.045  -1.625  1.00  0.00     0.011 C 
ATOM     24  C   UNL     1      -0.365   0.329  -3.207  1.00  0.00     0.011 C 
ENDBRANCH  14  17
ENDBRANCH  13  14
ENDBRANCH  12  13
ENDBRANCH   6  12
ENDBRANCH   3   6
ENDBRANCH   1   2
BRANCH   1  25
ATOM     25  C   UNL     1      -5.664   2.001   2.354  1.00  0.00     0.023 C 
BRANCH  25  26
ATOM     26  C   UNL     1      -5.847   2.640   0.976  1.00  0.00     0.023 C 
BRANCH  26  27
ATOM     27  C   UNL     1      -6.359   1.693  -0.116  1.00  0.00     0.116 C 
BRANCH  27  28
ATOM     28  N   UNL     1      -7.497   0.896   0.325  1.00  0.00    -0.352 N 
ATOM     29  C   UNL     1      -8.841   1.046   0.101  1.00  0.00     0.251 C 
ATOM     30  H   UNL     1      -7.260   0.116   0.877  1.00  0.00     0.163 HD
ATOM     31  O   UNL     1      -9.649   0.424   0.787  1.00  0.00    -0.269 OA
BRANCH  29  32
ATOM     32  C   UNL     1      -9.331   1.950  -0.958  1.00  0.00     0.039 A 
ATOM     33  C   UNL     1     -10.412   2.794  -0.682  1.00  0.00     0.014 A 
ATOM     34  C   UNL     1      -8.772   1.923  -2.237  1.00  0.00     0.014 A 
ATOM     35  C   UNL     1     -10.879   3.669  -1.665  1.00  0.00     0.010 A 
ATOM     36  C   UNL     1      -9.205   2.830  -3.202  1.00  0.00     0.010 A 
ATOM     37  C   UNL     1     -10.251   3.723  -2.920  1.00  0.00    -0.014 A 
BRANCH  37  38
ATOM     38  C   UNL     1     -10.623   4.746  -3.928  1.00  0.00     0.031 A 
ATOM     39  C   UNL     1     -11.238   4.344  -5.238  1.00  0.00     0.074 A 
ATOM     40  C   UNL     1     -10.301   6.034  -3.698  1.00  0.00     0.049 A 
ATOM     41  N   UNL     1     -11.499   5.082  -6.287  1.00  0.00    -0.248 NA
ATOM     42  C   UNL     1     -11.586   2.923  -5.400  1.00  0.00     0.031 C 
ATOM     43  C   UNL     1      -9.661   6.541  -2.482  1.00  0.00     0.029 A 
ATOM     44  N   UNL     1     -10.436   7.148  -4.490  1.00  0.00    -0.354 N 
ATOM     45  C   UNL     1     -12.019   4.216  -7.240  1.00  0.00     0.074 A 
ATOM     46  C   UNL     1     -12.018   2.893  -6.654  1.00  0.00     0.031 C 
ATOM     47  C   UNL     1      -9.450   7.860  -2.612  1.00  0.00     0.029 A 
ATOM     48  C   UNL     1      -9.899   8.285  -3.934  1.00  0.00     0.049 A 
ATOM     49  H   UNL     1     -10.875   7.133  -5.371  1.00  0.00     0.167 HD
ATOM     50  C   UNL     1     -12.463   4.505  -8.487  1.00  0.00     0.037 A 
ATOM     51  C   UNL     1      -9.754   9.523  -4.443  1.00  0.00     0.037 A 
ATOM     52  C   UNL     1     -12.492   5.829  -9.052  1.00  0.00     0.049 A 
ATOM     53  C   UNL     1     -10.244   9.808  -5.835  1.00  0.00     0.074 A 
ATOM     54  C   UNL     1     -13.021   6.234 -10.266  1.00  0.00     0.029 A 
ATOM     55  N   UNL     1     -11.961   6.959  -8.450  1.00  0.00    -0.354 N 
ATOM     56  N   UNL     1     -10.820   8.998  -6.689  1.00  0.00    -0.248 NA
ATOM     57  C   UNL     1     -10.059  11.178  -6.337  1.00  0.00     0.031 C 
ATOM     58  C   UNL     1     -12.763   7.599 -10.422  1.00  0.00     0.029 A 
ATOM     59  C   UNL     1     -12.113   8.053  -9.285  1.00  0.00     0.049 A 
ATOM     60  H   UNL     1     -11.539   6.980  -7.561  1.00  0.00     0.167 HD
ATOM     61  C   UNL     1     -11.083   9.762  -7.819  1.00  0.00     0.074 A 
ATOM     62  C   UNL     1     -10.622  11.105  -7.535  1.00  0.00     0.031 C 
ATOM     63  C   UNL     1     -11.650   9.384  -8.989  1.00  0.00     0.037 A 
BRANCH  50  64
ATOM     64  C   UNL     1     -12.958   3.376  -9.340  1.00  0.00     0.057 A 
ATOM     65  C   UNL     1     -14.194   2.761  -9.108  1.00  0.00     0.134 A 
ATOM     66  C   UNL     1     -12.229   2.961 -10.462  1.00  0.00     0.134 A 
ATOM     67  F   UNL     1     -14.939   3.110  -8.048  1.00  0.00    -0.206 F 
ATOM     68  C   UNL     1     -14.684   1.767  -9.958  1.00  0.00     0.040 A 
ATOM     69  C   UNL     1     -12.718   1.984 -11.330  1.00  0.00     0.040 A 
ATOM     70  F   UNL     1     -11.041   3.517 -10.746  1.00  0.00    -0.206 F 
ATOM     71  C   UNL     1     -13.950   1.383 -11.078  1.00  0.00     0.006 A 
ENDBRANCH  50  64
BRANCH  51  72
ATOM     72  C   UNL     1      -9.091  10.585  -3.645  1.00  0.00     0.057 A 
ATOM     73  C   UNL     1      -9.812  11.683  -3.162  1.00  0.00     0.134 A 
ATOM     74  C   UNL     1      -7.718  10.544  -3.375  1.00  0.00     0.134 A 
ATOM     75  F   UNL     1     -11.126  11.789  -3.407  1.00  0.00    -0.206 F 
ATOM     76  C   UNL     1      -9.187  12.715  -2.460  1.00  0.00     0.040 A 
ATOM     77  C   UNL     1      -7.085  11.556  -2.651  1.00  0.00     0.040 A 
ATOM     78  F   UNL     1      -6.973   9.516  -3.805  1.00  0.00    -0.206 F 
ATOM     79  C   UNL     1      -7.819  12.651  -2.200  1.00  0.00     0.006 A 
ENDBRANCH  51  72
BRANCH  63  80
ATOM     80  C   UNL     1     -11.818  10.436 -10.043  1.00  0.00     0.057 A 
ATOM     81  C   UNL     1     -10.728  10.921 -10.776  1.00  0.00     0.134 A 
ATOM     82  C   UNL     1     -13.088  10.936 -10.361  1.00  0.00     0.134 A 
ATOM     83  F   UNL     1      -9.485  10.493 -10.509  1.00  0.00    -0.206 F 
ATOM     84  C   UNL     1     -10.893  11.877 -11.779  1.00  0.00     0.040 A 
ATOM     85  C   UNL     1     -13.268  11.874 -11.378  1.00  0.00     0.040 A 
ATOM     86  F   UNL     1     -14.174  10.508  -9.700  1.00  0.00    -0.206 F 
ATOM     87  C   UNL     1     -12.167  12.350 -12.088  1.00  0.00     0.006 A 
ENDBRANCH  63  80
ENDBRANCH  37  38
ENDBRANCH  29  32
ENDBRANCH  27  28
ENDBRANCH  26  27
ENDBRANCH  25  26
ENDBRANCH   1  25
TORSDOF 16
