REMARK SMILES CCOC(=O)[C@H]1CCCN(c2cc(C(=O)NCCCCNC(=O)c3ccc(-c4c5nc(c(-c6c(F)cccc6F)c6ccc([nH]6)c(-c6c(F)cccc6F)c6nc(c(-c7c(F)cccc7F)c7ccc4[nH]7)C=C6)C=C5)cc3)c3cc(NC(=O)c4ccc(Cl)cc4)ccc3n2)C1
REMARK SMILES IDX 17 1 16 2 14 3 15 4 13 6 11 7 12 8 94 9 93 10 78 11 92 12
REMARK SMILES IDX 79 13 91 14 80 15 10 16 6 17 7 18 95 19 8 20 9 21 4 22 5 23
REMARK SMILES IDX 3 24 2 25 1 26 81 27 82 28 83 30 84 31 85 32 90 33 86 34
REMARK SMILES IDX 89 35 87 36 88 37 18 38 19 39 20 40 21 41 22 42 23 44 24 45
REMARK SMILES IDX 25 46 77 47 26 48 76 49 27 50 28 51 29 52 70 53 30 54 75 55
REMARK SMILES IDX 69 56 71 57 31 58 74 59 68 60 67 61 32 63 58 64 41 65 57 66
REMARK SMILES IDX 42 67 45 68 56 69 72 70 43 71 44 72 55 74 73 75 46 76 33 77
REMARK SMILES IDX 34 78 39 79 35 80 36 81 38 82 40 83 37 84 59 85 60 86 65 87
REMARK SMILES IDX 61 88 62 89 64 90 66 91 63 92 47 93 48 94 53 95 49 96 50 97
REMARK SMILES IDX 52 98 54 99 51 100
REMARK H PARENT 16 5 81 29 21 43 71 62 45 73
REMARK Flexibility Score: inf
ROOT
ATOM      1  C   UNL     1       6.223  -1.255  -3.657  1.00  0.00     0.116 C 
ENDROOT
BRANCH   1   2
ATOM      2  N   UNL     1       5.121  -1.486  -2.731  1.00  0.00    -0.352 N 
ATOM      3  C   UNL     1       4.475  -0.704  -1.788  1.00  0.00     0.252 C 
ATOM      4  O   UNL     1       3.539  -1.248  -1.194  1.00  0.00    -0.269 OA
ATOM      5  H   UNL     1       4.755  -2.398  -2.789  1.00  0.00     0.163 HD
BRANCH   3   6
ATOM      6  C   UNL     1       4.815   0.709  -1.388  1.00  0.00     0.052 A 
ATOM      7  C   UNL     1       4.629   2.369   0.381  1.00  0.00     0.130 A 
ATOM      8  C   UNL     1       4.491   1.058  -0.062  1.00  0.00     0.061 A 
ATOM      9  N   UNL     1       5.235   3.287  -0.395  1.00  0.00    -0.231 NA
ATOM     10  C   UNL     1       5.537   2.993  -1.662  1.00  0.00     0.074 A 
ATOM     11  C   UNL     1       5.244   1.748  -2.238  1.00  0.00     0.015 A 
ATOM     12  C   UNL     1       6.082   3.996  -2.456  1.00  0.00     0.031 A 
ATOM     13  C   UNL     1       5.286   1.669  -3.637  1.00  0.00     0.037 A 
ATOM     14  C   UNL     1       6.202   3.858  -3.843  1.00  0.00     0.028 A 
ATOM     15  C   UNL     1       5.700   2.718  -4.451  1.00  0.00     0.042 A 
BRANCH   7  16
ATOM     16  N   UNL     1       4.048   2.804   1.550  1.00  0.00    -0.356 N 
ATOM     17  C   UNL     1       2.711   1.898   3.386  1.00  0.00     0.118 C 
ATOM     18  C   UNL     1       1.976   3.249   3.459  1.00  0.00     0.019 C 
ATOM     19  C   UNL     1       4.120   2.076   2.809  1.00  0.00     0.133 C 
ATOM     20  C   UNL     1       2.013   3.993   2.123  1.00  0.00     0.022 C 
ATOM     21  C   UNL     1       3.443   4.132   1.592  1.00  0.00     0.118 C 
BRANCH  17  22
ATOM     22  C   UNL     1       2.712   1.256   4.762  1.00  0.00     0.310 C 
ATOM     23  O   UNL     1       1.704   1.134   5.446  1.00  0.00    -0.252 OA
BRANCH  22  24
ATOM     24  O   UNL     1       3.949   0.832   5.135  1.00  0.00    -0.466 OA
BRANCH  24  25
ATOM     25  C   UNL     1       4.040   0.201   6.422  1.00  0.00     0.229 C 
ATOM     26  C   UNL     1       4.180   1.245   7.514  1.00  0.00     0.049 C 
ENDBRANCH  24  25
ENDBRANCH  22  24
ENDBRANCH  17  22
ENDBRANCH   7  16
BRANCH  15  27
ATOM     27  N   UNL     1       5.615   2.675  -5.853  1.00  0.00    -0.322 N 
ATOM     28  C   UNL     1       4.856   1.881  -6.692  1.00  0.00     0.255 C 
ATOM     29  H   UNL     1       6.197   3.321  -6.317  1.00  0.00     0.170 HD
ATOM     30  O   UNL     1       5.101   1.850  -7.895  1.00  0.00    -0.269 OA
BRANCH  28  31
ATOM     31  C   UNL     1       3.716   1.075  -6.186  1.00  0.00     0.040 A 
ATOM     32  C   UNL     1       3.654  -0.271  -6.556  1.00  0.00     0.015 A 
ATOM     33  C   UNL     1       2.760   1.597  -5.304  1.00  0.00     0.015 A 
ATOM     34  C   UNL     1       2.704  -1.116  -5.974  1.00  0.00     0.021 A 
ATOM     35  C   UNL     1       1.828   0.743  -4.702  1.00  0.00     0.021 A 
ATOM     36  C   UNL     1       1.815  -0.612  -5.028  1.00  0.00     0.041 A 
ATOM     37  Cl  UNL     1       0.711  -1.676  -4.251  1.00  0.00    -0.084 Cl
ENDBRANCH  28  31
ENDBRANCH  15  27
ENDBRANCH   3   6
ENDBRANCH   1   2
BRANCH   1  38
ATOM     38  C   UNL     1       7.103  -2.467  -3.966  1.00  0.00     0.023 C 
BRANCH  38  39
ATOM     39  C   UNL     1       6.519  -3.592  -4.833  1.00  0.00     0.023 C 
BRANCH  39  40
ATOM     40  C   UNL     1       5.929  -3.274  -6.213  1.00  0.00     0.116 C 
BRANCH  40  41
ATOM     41  N   UNL     1       6.692  -2.383  -7.069  1.00  0.00    -0.352 N 
ATOM     42  C   UNL     1       6.656  -2.286  -8.451  1.00  0.00     0.251 C 
ATOM     43  H   UNL     1       7.311  -1.771  -6.611  1.00  0.00     0.163 HD
ATOM     44  O   UNL     1       7.378  -1.492  -9.035  1.00  0.00    -0.269 OA
BRANCH  42  45
ATOM     45  C   UNL     1       5.788  -3.204  -9.232  1.00  0.00     0.039 A 
ATOM     46  C   UNL     1       6.383  -4.019 -10.200  1.00  0.00     0.014 A 
ATOM     47  C   UNL     1       4.418  -3.308  -8.985  1.00  0.00     0.014 A 
ATOM     48  C   UNL     1       5.633  -5.026 -10.816  1.00  0.00     0.010 A 
ATOM     49  C   UNL     1       3.678  -4.336  -9.569  1.00  0.00     0.010 A 
ATOM     50  C   UNL     1       4.292  -5.234 -10.453  1.00  0.00    -0.014 A 
BRANCH  50  51
ATOM     51  C   UNL     1       3.565  -6.459 -10.877  1.00  0.00     0.031 A 
ATOM     52  C   UNL     1       2.383  -6.388 -11.800  1.00  0.00     0.074 A 
ATOM     53  C   UNL     1       3.932  -7.642 -10.345  1.00  0.00     0.049 A 
ATOM     54  N   UNL     1       1.605  -7.355 -12.217  1.00  0.00    -0.248 NA
ATOM     55  C   UNL     1       2.016  -5.057 -12.305  1.00  0.00     0.031 C 
ATOM     56  C   UNL     1       5.028  -7.836  -9.391  1.00  0.00     0.029 A 
ATOM     57  N   UNL     1       3.420  -8.904 -10.518  1.00  0.00    -0.354 N 
ATOM     58  C   UNL     1       0.659  -6.755 -13.036  1.00  0.00     0.074 A 
ATOM     59  C   UNL     1       0.933  -5.332 -13.020  1.00  0.00     0.031 C 
ATOM     60  C   UNL     1       5.120  -9.139  -9.084  1.00  0.00     0.029 A 
ATOM     61  C   UNL     1       4.073  -9.869  -9.789  1.00  0.00     0.049 A 
ATOM     62  H   UNL     1       2.657  -9.099 -11.108  1.00  0.00     0.167 HD
ATOM     63  C   UNL     1      -0.334  -7.338 -13.751  1.00  0.00     0.037 A 
ATOM     64  C   UNL     1       3.853 -11.194  -9.696  1.00  0.00     0.037 A 
ATOM     65  C   UNL     1      -0.606  -8.752 -13.767  1.00  0.00     0.049 A 
ATOM     66  C   UNL     1       2.738 -11.812 -10.492  1.00  0.00     0.074 A 
ATOM     67  C   UNL     1      -1.578  -9.437 -14.477  1.00  0.00     0.029 A 
ATOM     68  N   UNL     1       0.097  -9.700 -13.039  1.00  0.00    -0.354 N 
ATOM     69  N   UNL     1       1.890 -11.237 -11.309  1.00  0.00    -0.248 NA
ATOM     70  C   UNL     1       2.554 -13.264 -10.359  1.00  0.00     0.031 C 
ATOM     71  C   UNL     1      -1.480 -10.796 -14.158  1.00  0.00     0.029 A 
ATOM     72  C   UNL     1      -0.423 -10.962 -13.278  1.00  0.00     0.049 A 
ATOM     73  H   UNL     1       0.854  -9.505 -12.440  1.00  0.00     0.167 HD
ATOM     74  C   UNL     1       1.099 -12.259 -11.815  1.00  0.00     0.074 A 
ATOM     75  C   UNL     1       1.569 -13.491 -11.217  1.00  0.00     0.031 C 
ATOM     76  C   UNL     1       0.073 -12.182 -12.697  1.00  0.00     0.037 A 
BRANCH  63  77
ATOM     77  C   UNL     1      -1.196  -6.443 -14.591  1.00  0.00     0.057 A 
ATOM     78  C   UNL     1      -0.712  -5.858 -15.769  1.00  0.00     0.134 A 
ATOM     79  C   UNL     1      -2.532  -6.198 -14.250  1.00  0.00     0.134 A 
ATOM     80  F   UNL     1       0.561  -6.048 -16.147  1.00  0.00    -0.206 F 
ATOM     81  C   UNL     1      -1.518  -5.045 -16.566  1.00  0.00     0.040 A 
ATOM     82  C   UNL     1      -3.356  -5.405 -15.052  1.00  0.00     0.040 A 
ATOM     83  F   UNL     1      -3.062  -6.736 -13.141  1.00  0.00    -0.206 F 
ATOM     84  C   UNL     1      -2.847  -4.821 -16.211  1.00  0.00     0.006 A 
ENDBRANCH  63  77
BRANCH  64  85
ATOM     85  C   UNL     1       4.725 -12.039  -8.842  1.00  0.00     0.057 A 
ATOM     86  C   UNL     1       5.627 -12.945  -9.413  1.00  0.00     0.134 A 
ATOM     87  C   UNL     1       4.666 -11.979  -7.446  1.00  0.00     0.134 A 
ATOM     88  F   UNL     1       5.715 -13.059 -10.746  1.00  0.00    -0.206 F 
ATOM     89  C   UNL     1       6.420 -13.781  -8.626  1.00  0.00     0.040 A 
ATOM     90  C   UNL     1       5.471 -12.792  -6.646  1.00  0.00     0.040 A 
ATOM     91  F   UNL     1       3.830 -11.124  -6.839  1.00  0.00    -0.206 F 
ATOM     92  C   UNL     1       6.345 -13.703  -7.237  1.00  0.00     0.006 A 
ENDBRANCH  64  85
BRANCH  76  93
ATOM     93  C   UNL     1      -0.572 -13.470 -13.112  1.00  0.00     0.057 A 
ATOM     94  C   UNL     1      -1.437 -14.172 -12.265  1.00  0.00     0.134 A 
ATOM     95  C   UNL     1      -0.354 -13.990 -14.394  1.00  0.00     0.134 A 
ATOM     96  F   UNL     1      -1.674 -13.732 -11.020  1.00  0.00    -0.206 F 
ATOM     97  C   UNL     1      -2.052 -15.357 -12.672  1.00  0.00     0.040 A 
ATOM     98  C   UNL     1      -0.980 -15.162 -14.821  1.00  0.00     0.040 A 
ATOM     99  F   UNL     1       0.461 -13.362 -15.255  1.00  0.00    -0.206 F 
ATOM    100  C   UNL     1      -1.829 -15.851 -13.957  1.00  0.00     0.006 A 
ENDBRANCH  76  93
ENDBRANCH  50  51
ENDBRANCH  42  45
ENDBRANCH  40  41
ENDBRANCH  39  40
ENDBRANCH  38  39
ENDBRANCH   1  38
TORSDOF 17
