REMARK SMILES C[C@H](NS(=O)(=O)c1ccc(-c2cc(-c3ccccc3)c3cc([N+](=O)[O-])ccc3n2)cc1)C(=O)NCCCCNC(=O)c1ccc(-c2c3nc(c(-c4c(F)cccc4F)c4ccc([nH]4)c(-c4c(F)cccc4F)c4nc(c(-c5c(F)cccc5F)c5ccc2[nH]5)C=C4)C=C3)cc1
REMARK SMILES IDX 35 1 34 2 32 3 33 4 2 6 1 7 3 8 4 10 5 11 6 12 7 13 8 14
REMARK SMILES IDX 31 15 9 16 30 17 10 18 11 19 12 20 29 21 13 22 28 23 20 24
REMARK SMILES IDX 27 25 21 26 26 27 22 28 14 29 15 30 19 31 16 32 18 33 17 34
REMARK SMILES IDX 23 35 24 36 25 37 36 38 37 39 38 40 39 41 40 42 41 44 42 45
REMARK SMILES IDX 43 46 95 47 44 48 94 49 45 50 46 51 47 52 88 53 48 54 93 55
REMARK SMILES IDX 87 56 89 57 49 58 92 59 86 60 85 61 50 63 76 64 59 65 75 66
REMARK SMILES IDX 60 67 63 68 74 69 90 70 61 71 62 72 73 74 91 75 64 76 51 77
REMARK SMILES IDX 52 78 57 79 53 80 54 81 56 82 58 83 55 84 77 85 78 86 83 87
REMARK SMILES IDX 79 88 80 89 82 90 84 91 81 92 65 93 66 94 71 95 67 96 68 97
REMARK SMILES IDX 70 98 72 99 69 100
REMARK H PARENT 34 5 3 9 39 43 89 62 63 73
REMARK Flexibility Score: inf
ROOT
ATOM      1  C   UNL     1      -1.073   1.875   1.499  1.00  0.00     0.116 C 
ENDROOT
BRANCH   1   2
ATOM      2  N   UNL     1      -1.739   0.585   1.443  1.00  0.00    -0.355 N 
ATOM      3  C   UNL     1      -1.206  -0.670   1.400  1.00  0.00     0.237 C 
ATOM      4  O   UNL     1      -1.976  -1.627   1.295  1.00  0.00    -0.273 OA
ATOM      5  H   UNL     1      -2.723   0.621   1.435  1.00  0.00     0.163 HD
BRANCH   3   6
ATOM      6  C   UNL     1       0.308  -0.878   1.461  1.00  0.00     0.155 C 
ATOM      7  C   UNL     1       0.849  -0.500   2.833  1.00  0.00     0.036 C 
BRANCH   6   8
ATOM      8  N   UNL     1       0.909  -0.128   0.347  1.00  0.00    -0.199 NA
ATOM      9  H   UNL     1       0.722   0.858   0.530  1.00  0.00     0.142 HD
BRANCH   8  10
ATOM     10  S   UNL     1       2.525  -0.240   0.000  1.00  0.00     0.241 S 
ATOM     11  O   UNL     1       2.701   0.402  -1.286  1.00  0.00    -0.207 OA
ATOM     12  O   UNL     1       3.281   0.190   1.152  1.00  0.00    -0.207 OA
BRANCH  10  13
ATOM     13  C   UNL     1       2.775  -1.987  -0.219  1.00  0.00     0.082 A 
ATOM     14  C   UNL     1       3.257  -2.739   0.856  1.00  0.00     0.022 A 
ATOM     15  C   UNL     1       2.753  -2.521  -1.506  1.00  0.00     0.022 A 
ATOM     16  C   UNL     1       3.930  -3.936   0.610  1.00  0.00     0.012 A 
ATOM     17  C   UNL     1       3.423  -3.724  -1.744  1.00  0.00     0.012 A 
ATOM     18  C   UNL     1       4.226  -4.291  -0.719  1.00  0.00     0.000 A 
BRANCH  18  19
ATOM     19  C   UNL     1       5.704  -4.449  -1.037  1.00  0.00     0.072 A 
ATOM     20  C   UNL     1       6.122  -5.037  -2.221  1.00  0.00     0.038 A 
ATOM     21  N   UNL     1       6.303  -3.288  -0.666  1.00  0.00    -0.248 NA
ATOM     22  C   UNL     1       6.640  -4.182  -3.201  1.00  0.00    -0.007 A 
ATOM     23  C   UNL     1       6.397  -2.380  -1.632  1.00  0.00     0.072 A 
ATOM     24  C   UNL     1       6.453  -2.796  -2.967  1.00  0.00     0.015 A 
ATOM     25  C   UNL     1       6.222  -1.034  -1.332  1.00  0.00     0.036 A 
ATOM     26  C   UNL     1       6.157  -1.863  -3.986  1.00  0.00     0.096 A 
ATOM     27  C   UNL     1       5.889  -0.116  -2.331  1.00  0.00     0.088 A 
ATOM     28  C   UNL     1       5.798  -0.555  -3.652  1.00  0.00     0.270 A 
BRANCH  22  29
ATOM     29  C   UNL     1       7.311  -4.644  -4.435  1.00  0.00    -0.018 A 
ATOM     30  C   UNL     1       8.417  -3.904  -4.916  1.00  0.00     0.009 A 
ATOM     31  C   UNL     1       6.935  -5.781  -5.157  1.00  0.00     0.009 A 
ATOM     32  C   UNL     1       9.061  -4.225  -6.107  1.00  0.00     0.001 A 
ATOM     33  C   UNL     1       7.598  -6.120  -6.346  1.00  0.00     0.001 A 
ATOM     34  C   UNL     1       8.644  -5.333  -6.828  1.00  0.00     0.000 A 
ENDBRANCH  22  29
BRANCH  28  35
ATOM     35  N   UNL     1       5.202   0.311  -4.676  1.00  0.00     0.062 N 
ATOM     36  O   UNL     1       4.891  -0.212  -5.757  1.00  0.00    -0.258 OA
ATOM     37  O   UNL     1       5.022   1.502  -4.395  1.00  0.00    -0.258 OA
ENDBRANCH  28  35
ENDBRANCH  18  19
ENDBRANCH  10  13
ENDBRANCH   8  10
ENDBRANCH   6   8
ENDBRANCH   3   6
ENDBRANCH   1   2
BRANCH   1  38
ATOM     38  C   UNL     1      -1.414   2.733   0.285  1.00  0.00     0.023 C 
BRANCH  38  39
ATOM     39  C   UNL     1      -2.894   3.093   0.169  1.00  0.00     0.023 C 
BRANCH  39  40
ATOM     40  C   UNL     1      -3.498   3.711   1.423  1.00  0.00     0.116 C 
BRANCH  40  41
ATOM     41  N   UNL     1      -2.819   4.931   1.833  1.00  0.00    -0.352 N 
ATOM     42  C   UNL     1      -3.367   6.141   2.182  1.00  0.00     0.251 C 
ATOM     43  H   UNL     1      -1.837   4.883   1.865  1.00  0.00     0.163 HD
ATOM     44  O   UNL     1      -2.654   7.122   2.359  1.00  0.00    -0.269 OA
BRANCH  42  45
ATOM     45  C   UNL     1      -4.833   6.255   2.308  1.00  0.00     0.039 A 
ATOM     46  C   UNL     1      -5.487   7.309   1.667  1.00  0.00     0.014 A 
ATOM     47  C   UNL     1      -5.560   5.295   3.017  1.00  0.00     0.014 A 
ATOM     48  C   UNL     1      -6.880   7.361   1.681  1.00  0.00     0.010 A 
ATOM     49  C   UNL     1      -6.949   5.300   2.955  1.00  0.00     0.010 A 
ATOM     50  C   UNL     1      -7.623   6.335   2.290  1.00  0.00    -0.014 A 
BRANCH  50  51
ATOM     51  C   UNL     1      -9.107   6.327   2.238  1.00  0.00     0.031 A 
ATOM     52  C   UNL     1      -9.907   6.410   3.508  1.00  0.00     0.074 A 
ATOM     53  C   UNL     1      -9.732   6.182   1.053  1.00  0.00     0.049 A 
ATOM     54  N   UNL     1     -11.204   6.363   3.672  1.00  0.00    -0.248 NA
ATOM     55  C   UNL     1      -9.148   6.536   4.762  1.00  0.00     0.031 C 
ATOM     56  C   UNL     1      -9.067   6.042  -0.244  1.00  0.00     0.029 A 
ATOM     57  N   UNL     1     -11.069   6.122   0.748  1.00  0.00    -0.354 N 
ATOM     58  C   UNL     1     -11.414   6.441   5.043  1.00  0.00     0.074 A 
ATOM     59  C   UNL     1     -10.111   6.476   5.669  1.00  0.00     0.031 C 
ATOM     60  C   UNL     1      -9.998   5.944  -1.207  1.00  0.00     0.029 A 
ATOM     61  C   UNL     1     -11.322   5.967  -0.594  1.00  0.00     0.049 A 
ATOM     62  H   UNL     1     -11.779   6.183   1.427  1.00  0.00     0.167 HD
ATOM     63  C   UNL     1     -12.586   6.505   5.718  1.00  0.00     0.037 A 
ATOM     64  C   UNL     1     -12.489   5.849  -1.254  1.00  0.00     0.037 A 
ATOM     65  C   UNL     1     -13.881   6.486   5.088  1.00  0.00     0.049 A 
ATOM     66  C   UNL     1     -13.777   5.897  -0.479  1.00  0.00     0.074 A 
ATOM     67  C   UNL     1     -15.127   6.603   5.679  1.00  0.00     0.029 A 
ATOM     68  N   UNL     1     -14.096   6.331   3.727  1.00  0.00    -0.354 N 
ATOM     69  N   UNL     1     -13.963   6.046   0.810  1.00  0.00    -0.248 NA
ATOM     70  C   UNL     1     -15.020   5.766  -1.252  1.00  0.00     0.031 C 
ATOM     71  C   UNL     1     -16.098   6.458   4.683  1.00  0.00     0.029 A 
ATOM     72  C   UNL     1     -15.456   6.317   3.462  1.00  0.00     0.049 A 
ATOM     73  H   UNL     1     -13.388   6.243   3.049  1.00  0.00     0.167 HD
ATOM     74  C   UNL     1     -15.339   6.060   0.999  1.00  0.00     0.074 A 
ATOM     75  C   UNL     1     -15.940   5.918  -0.311  1.00  0.00     0.031 C 
ATOM     76  C   UNL     1     -16.042   6.181   2.152  1.00  0.00     0.037 A 
BRANCH  63  77
ATOM     77  C   UNL     1     -12.520   6.595   7.216  1.00  0.00     0.057 A 
ATOM     78  C   UNL     1     -12.028   7.733   7.870  1.00  0.00     0.134 A 
ATOM     79  C   UNL     1     -12.980   5.542   8.016  1.00  0.00     0.134 A 
ATOM     80  F   UNL     1     -11.560   8.775   7.165  1.00  0.00    -0.206 F 
ATOM     81  C   UNL     1     -11.967   7.808   9.263  1.00  0.00     0.040 A 
ATOM     82  C   UNL     1     -12.955   5.617   9.410  1.00  0.00     0.040 A 
ATOM     83  F   UNL     1     -13.470   4.425   7.458  1.00  0.00    -0.206 F 
ATOM     84  C   UNL     1     -12.439   6.750  10.037  1.00  0.00     0.006 A 
ENDBRANCH  63  77
BRANCH  64  85
ATOM     85  C   UNL     1     -12.497   5.692  -2.731  1.00  0.00     0.057 A 
ATOM     86  C   UNL     1     -12.990   6.705  -3.563  1.00  0.00     0.134 A 
ATOM     87  C   UNL     1     -12.025   4.527  -3.348  1.00  0.00     0.134 A 
ATOM     88  F   UNL     1     -13.473   7.838  -3.032  1.00  0.00    -0.206 F 
ATOM     89  C   UNL     1     -13.035   6.557  -4.950  1.00  0.00     0.040 A 
ATOM     90  C   UNL     1     -12.037   4.377  -4.735  1.00  0.00     0.040 A 
ATOM     91  F   UNL     1     -11.531   3.522  -2.609  1.00  0.00    -0.206 F 
ATOM     92  C   UNL     1     -12.552   5.391  -5.540  1.00  0.00     0.006 A 
ENDBRANCH  64  85
BRANCH  76  93
ATOM     93  C   UNL     1     -17.540   6.207   2.047  1.00  0.00     0.057 A 
ATOM     94  C   UNL     1     -18.283   5.069   1.707  1.00  0.00     0.134 A 
ATOM     95  C   UNL     1     -18.251   7.381   2.332  1.00  0.00     0.134 A 
ATOM     96  F   UNL     1     -17.664   3.916   1.411  1.00  0.00    -0.206 F 
ATOM     97  C   UNL     1     -19.676   5.105   1.626  1.00  0.00     0.040 A 
ATOM     98  C   UNL     1     -19.645   7.420   2.286  1.00  0.00     0.040 A 
ATOM     99  F   UNL     1     -17.604   8.504   2.675  1.00  0.00    -0.206 F 
ATOM    100  C   UNL     1     -20.361   6.281   1.925  1.00  0.00     0.006 A 
ENDBRANCH  76  93
ENDBRANCH  50  51
ENDBRANCH  42  45
ENDBRANCH  40  41
ENDBRANCH  39  40
ENDBRANCH  38  39
ENDBRANCH   1  38
TORSDOF 17
