REMARK SMILES COc1cccc([C@H]2CC(c3ccc(S(C)(=O)=O)cc3)=NN2c2ccc(C(=O)NCCCCNC(=O)c3ccc(-c4c5nc(c(-c6c(F)cccc6F)c6ccc([nH]6)c(-c6c(F)cccc6F)c6nc(c(-c7c(F)cccc7F)c7ccc4[nH]7)C=C6)C=C5)cc3)cc2)c1
REMARK SMILES IDX 31 1 30 2 29 3 27 4 28 5 26 7 23 8 24 9 92 10 25 11 91 12
REMARK SMILES IDX 22 13 8 14 9 15 10 16 21 17 7 18 3 19 4 20 93 21 5 22 6 23
REMARK SMILES IDX 2 24 1 25 11 26 12 27 20 28 13 29 19 30 14 31 15 32 16 33
REMARK SMILES IDX 17 34 18 35 32 36 33 37 34 38 35 39 36 41 37 42 38 43 90 44
REMARK SMILES IDX 39 45 89 46 40 47 41 48 42 49 83 50 43 51 88 52 82 53 84 54
REMARK SMILES IDX 44 55 87 56 81 57 80 58 45 60 71 61 54 62 70 63 55 64 58 65
REMARK SMILES IDX 69 66 85 67 56 68 57 69 68 71 86 72 59 73 46 74 47 75 52 76
REMARK SMILES IDX 48 77 49 78 51 79 53 80 50 81 72 82 73 83 78 84 74 85 75 86
REMARK SMILES IDX 77 87 79 88 76 89 60 90 61 91 66 92 62 93 63 94 65 95 67 96
REMARK SMILES IDX 64 97
REMARK H PARENT 29 6 34 40 84 59 58 70
REMARK Flexibility Score: inf
ROOT
ATOM      1  C   UNL     1       5.522   8.680   5.437  1.00  0.00     0.023 C 
ENDROOT
BRANCH   1   2
ATOM      2  C   UNL     1       4.221   8.392   4.684  1.00  0.00     0.116 C 
BRANCH   2   3
ATOM      3  N   UNL     1       4.419   8.537   3.257  1.00  0.00    -0.352 N 
ATOM      4  C   UNL     1       4.699   7.626   2.270  1.00  0.00     0.251 C 
ATOM      5  O   UNL     1       4.801   8.059   1.121  1.00  0.00    -0.269 OA
ATOM      6  H   UNL     1       4.338   9.464   2.935  1.00  0.00     0.163 HD
BRANCH   4   7
ATOM      7  C   UNL     1       4.832   6.160   2.510  1.00  0.00     0.039 A 
ATOM      8  C   UNL     1       4.968   3.343   2.786  1.00  0.00     0.060 A 
ATOM      9  C   UNL     1       4.645   3.929   1.558  1.00  0.00     0.029 A 
ATOM     10  C   UNL     1       5.273   4.183   3.857  1.00  0.00     0.029 A 
ATOM     11  C   UNL     1       4.558   5.317   1.425  1.00  0.00     0.016 A 
ATOM     12  C   UNL     1       5.242   5.575   3.711  1.00  0.00     0.016 A 
BRANCH   8  13
ATOM     13  N   UNL     1       4.986   1.966   2.910  1.00  0.00    -0.257 N 
ATOM     14  C   UNL     1       4.168   1.210   3.857  1.00  0.00     0.144 C 
ATOM     15  C   UNL     1       4.698  -0.221   3.688  1.00  0.00     0.091 C 
ATOM     16  C   UNL     1       5.847   0.039   2.755  1.00  0.00     0.071 C 
ATOM     17  N   UNL     1       5.987   1.257   2.337  1.00  0.00    -0.176 NA
BRANCH  14  18
ATOM     18  C   UNL     1       2.690   1.348   3.533  1.00  0.00    -0.019 A 
ATOM     19  C   UNL     1       0.841   1.192   1.946  1.00  0.00     0.119 A 
ATOM     20  C   UNL     1      -0.015   1.733   2.904  1.00  0.00     0.046 A 
ATOM     21  C   UNL     1       2.190   1.013   2.258  1.00  0.00     0.052 A 
ATOM     22  C   UNL     1       0.460   2.066   4.172  1.00  0.00     0.004 A 
ATOM     23  C   UNL     1       1.805   1.872   4.487  1.00  0.00     0.006 A 
BRANCH  19  24
ATOM     24  O   UNL     1       0.261   0.913   0.739  1.00  0.00    -0.497 OA
ATOM     25  C   UNL     1       0.951  -0.015  -0.088  1.00  0.00     0.278 C 
ENDBRANCH  19  24
ENDBRANCH  14  18
BRANCH  16  26
ATOM     26  C   UNL     1       6.776  -1.027   2.376  1.00  0.00    -0.002 A 
ATOM     27  C   UNL     1       8.135  -0.856   2.656  1.00  0.00     0.011 A 
ATOM     28  C   UNL     1       6.313  -2.163   1.709  1.00  0.00     0.011 A 
ATOM     29  C   UNL     1       9.046  -1.840   2.278  1.00  0.00     0.021 A 
ATOM     30  C   UNL     1       7.228  -3.137   1.305  1.00  0.00     0.021 A 
ATOM     31  C   UNL     1       8.588  -2.967   1.588  1.00  0.00     0.067 A 
BRANCH  31  32
ATOM     32  S   UNL     1       9.764  -4.200   1.079  1.00  0.00     0.175 S 
ATOM     33  C   UNL     1      10.847  -3.334  -0.029  1.00  0.00     0.163 C 
ATOM     34  O   UNL     1      10.514  -4.573   2.261  1.00  0.00    -0.224 OA
ATOM     35  O   UNL     1       9.047  -5.194   0.301  1.00  0.00    -0.224 OA
ENDBRANCH  31  32
ENDBRANCH  16  26
ENDBRANCH   8  13
ENDBRANCH   4   7
ENDBRANCH   2   3
ENDBRANCH   1   2
BRANCH   1  36
ATOM     36  C   UNL     1       5.856  10.169   5.564  1.00  0.00     0.023 C 
BRANCH  36  37
ATOM     37  C   UNL     1       4.859  10.983   6.382  1.00  0.00     0.116 C 
BRANCH  37  38
ATOM     38  N   UNL     1       4.691  10.488   7.740  1.00  0.00    -0.352 N 
ATOM     39  C   UNL     1       4.385  11.195   8.876  1.00  0.00     0.251 C 
ATOM     40  H   UNL     1       4.813   9.518   7.859  1.00  0.00     0.163 HD
ATOM     41  O   UNL     1       4.377  10.642   9.970  1.00  0.00    -0.269 OA
BRANCH  39  42
ATOM     42  C   UNL     1       4.113  12.643   8.774  1.00  0.00     0.039 A 
ATOM     43  C   UNL     1       4.803  13.515   9.619  1.00  0.00     0.014 A 
ATOM     44  C   UNL     1       3.213  13.136   7.826  1.00  0.00     0.014 A 
ATOM     45  C   UNL     1       4.645  14.892   9.464  1.00  0.00     0.010 A 
ATOM     46  C   UNL     1       3.101  14.509   7.633  1.00  0.00     0.010 A 
ATOM     47  C   UNL     1       3.824  15.399   8.443  1.00  0.00    -0.014 A 
BRANCH  47  48
ATOM     48  C   UNL     1       3.729  16.856   8.188  1.00  0.00     0.031 A 
ATOM     49  C   UNL     1       2.433  17.580   8.409  1.00  0.00     0.074 A 
ATOM     50  C   UNL     1       4.793  17.508   7.682  1.00  0.00     0.049 A 
ATOM     51  N   UNL     1       2.134  18.830   8.166  1.00  0.00    -0.248 NA
ATOM     52  C   UNL     1       1.318  16.788   8.952  1.00  0.00     0.031 C 
ATOM     53  C   UNL     1       6.091  16.903   7.376  1.00  0.00     0.029 A 
ATOM     54  N   UNL     1       4.946  18.823   7.321  1.00  0.00    -0.354 N 
ATOM     55  C   UNL     1       0.797  18.972   8.511  1.00  0.00     0.074 A 
ATOM     56  C   UNL     1       0.330  17.670   8.939  1.00  0.00     0.031 C 
ATOM     57  C   UNL     1       6.912  17.847   6.889  1.00  0.00     0.029 A 
ATOM     58  C   UNL     1       6.190  19.113   6.816  1.00  0.00     0.049 A 
ATOM     59  H   UNL     1       4.232  19.494   7.415  1.00  0.00     0.167 HD
ATOM     60  C   UNL     1       0.033  20.090   8.490  1.00  0.00     0.037 A 
ATOM     61  C   UNL     1       6.689  20.269   6.341  1.00  0.00     0.037 A 
ATOM     62  C   UNL     1       0.507  21.388   8.088  1.00  0.00     0.049 A 
ATOM     63  C   UNL     1       5.821  21.495   6.330  1.00  0.00     0.074 A 
ATOM     64  C   UNL     1      -0.171  22.594   8.098  1.00  0.00     0.029 A 
ATOM     65  N   UNL     1       1.779  21.647   7.601  1.00  0.00    -0.354 N 
ATOM     66  N   UNL     1       4.578  21.630   6.723  1.00  0.00    -0.248 NA
ATOM     67  C   UNL     1       6.427  22.730   5.813  1.00  0.00     0.031 C 
ATOM     68  C   UNL     1       0.681  23.578   7.583  1.00  0.00     0.029 A 
ATOM     69  C   UNL     1       1.901  22.990   7.288  1.00  0.00     0.049 A 
ATOM     70  H   UNL     1       2.491  20.975   7.494  1.00  0.00     0.167 HD
ATOM     71  C   UNL     1       4.259  22.966   6.520  1.00  0.00     0.074 A 
ATOM     72  C   UNL     1       5.444  23.603   5.984  1.00  0.00     0.031 C 
ATOM     73  C   UNL     1       3.088  23.607   6.756  1.00  0.00     0.037 A 
BRANCH  60  74
ATOM     74  C   UNL     1      -1.397  19.956   8.922  1.00  0.00     0.057 A 
ATOM     75  C   UNL     1      -1.744  19.754  10.264  1.00  0.00     0.134 A 
ATOM     76  C   UNL     1      -2.438  20.059   7.992  1.00  0.00     0.134 A 
ATOM     77  F   UNL     1      -0.793  19.633  11.202  1.00  0.00    -0.206 F 
ATOM     78  C   UNL     1      -3.077  19.636  10.663  1.00  0.00     0.040 A 
ATOM     79  C   UNL     1      -3.776  19.967   8.382  1.00  0.00     0.040 A 
ATOM     80  F   UNL     1      -2.174  20.256   6.692  1.00  0.00    -0.206 F 
ATOM     81  C   UNL     1      -4.097  19.749   9.721  1.00  0.00     0.006 A 
ENDBRANCH  60  74
BRANCH  61  82
ATOM     82  C   UNL     1       8.089  20.327   5.854  1.00  0.00     0.057 A 
ATOM     83  C   UNL     1       9.078  20.993   6.586  1.00  0.00     0.134 A 
ATOM     84  C   UNL     1       8.471  19.724   4.650  1.00  0.00     0.134 A 
ATOM     85  F   UNL     1       8.766  21.605   7.738  1.00  0.00    -0.206 F 
ATOM     86  C   UNL     1      10.395  21.071   6.132  1.00  0.00     0.040 A 
ATOM     87  C   UNL     1       9.789  19.775   4.194  1.00  0.00     0.040 A 
ATOM     88  F   UNL     1       7.569  19.065   3.907  1.00  0.00    -0.206 F 
ATOM     89  C   UNL     1      10.754  20.456   4.934  1.00  0.00     0.006 A 
ENDBRANCH  61  82
BRANCH  73  90
ATOM     90  C   UNL     1       3.042  25.075   6.455  1.00  0.00     0.057 A 
ATOM     91  C   UNL     1       2.985  25.555   5.141  1.00  0.00     0.134 A 
ATOM     92  C   UNL     1       3.022  26.016   7.492  1.00  0.00     0.134 A 
ATOM     93  F   UNL     1       3.016  24.704   4.104  1.00  0.00    -0.206 F 
ATOM     94  C   UNL     1       2.927  26.923   4.868  1.00  0.00     0.040 A 
ATOM     95  C   UNL     1       2.942  27.384   7.232  1.00  0.00     0.040 A 
ATOM     96  F   UNL     1       3.069  25.620   8.773  1.00  0.00    -0.206 F 
ATOM     97  C   UNL     1       2.899  27.841   5.916  1.00  0.00     0.006 A 
ENDBRANCH  73  90
ENDBRANCH  47  48
ENDBRANCH  39  42
ENDBRANCH  37  38
ENDBRANCH  36  37
ENDBRANCH   1  36
TORSDOF 16
