REMARK SMILES CC(C)(C)OC(=O)NC[C@H]1CC[C@@H](C(=O)NCCCCNC(=O)c2ccc(-c3c4nc(c(-c5c(F)cccc5F)c5ccc([nH]5)c(-c5c(F)cccc5F)c5nc(c(-c6c(F)cccc6F)c6ccc3[nH]6)C=C5)C=C4)cc2)CC1
REMARK SMILES IDX 17 1 16 2 14 3 15 4 13 6 10 7 11 8 79 9 12 10 78 11 9 12
REMARK SMILES IDX 8 13 6 14 7 15 5 17 2 18 1 19 3 20 4 21 18 22 19 23 20 24
REMARK SMILES IDX 21 25 22 26 23 28 24 29 25 30 77 31 26 32 76 33 27 34 28 35
REMARK SMILES IDX 29 36 70 37 30 38 75 39 69 40 71 41 31 42 74 43 68 44 67 45
REMARK SMILES IDX 32 47 58 48 41 49 57 50 42 51 45 52 56 53 72 54 43 55 44 56
REMARK SMILES IDX 55 58 73 59 46 60 33 61 34 62 39 63 35 64 36 65 38 66 40 67
REMARK SMILES IDX 37 68 59 69 60 70 65 71 61 72 62 73 64 74 66 75 63 76 47 77
REMARK SMILES IDX 48 78 53 79 49 80 50 81 52 82 54 83 51 84
REMARK H PARENT 16 5 8 16 21 27 71 46 45 57
REMARK Flexibility Score: inf
ROOT
ATOM      1  C   UNL     1       1.589  -5.178   5.543  1.00  0.00     0.116 C 
ENDROOT
BRANCH   1   2
ATOM      2  N   UNL     1       2.556  -5.644   6.500  1.00  0.00    -0.356 N 
ATOM      3  C   UNL     1       3.913  -5.620   6.467  1.00  0.00     0.223 C 
ATOM      4  O   UNL     1       4.478  -5.819   7.550  1.00  0.00    -0.275 OA
ATOM      5  H   UNL     1       2.170  -6.048   7.311  1.00  0.00     0.163 HD
BRANCH   3   6
ATOM      6  C   UNL     1       4.765  -5.388   5.202  1.00  0.00     0.078 C 
ATOM      7  C   UNL     1       3.701  -4.438   2.520  1.00  0.00     0.008 C 
ATOM      8  C   UNL     1       4.018  -3.442   3.653  1.00  0.00     0.006 C 
ATOM      9  C   UNL     1       3.620  -5.918   2.939  1.00  0.00     0.006 C 
ATOM     10  C   UNL     1       4.967  -3.948   4.733  1.00  0.00     0.014 C 
ATOM     11  C   UNL     1       4.556  -6.368   4.053  1.00  0.00     0.014 C 
BRANCH   7  12
ATOM     12  C   UNL     1       2.438  -4.022   1.704  1.00  0.00     0.123 C 
BRANCH  12  13
ATOM     13  N   UNL     1       1.344  -3.555   2.539  1.00  0.00    -0.321 N 
ATOM     14  C   UNL     1       0.767  -2.321   2.569  1.00  0.00     0.407 C 
ATOM     15  O   UNL     1       0.038  -2.005   3.499  1.00  0.00    -0.225 OA
ATOM     16  H   UNL     1       0.971  -4.217   3.166  1.00  0.00     0.167 HD
BRANCH  14  17
ATOM     17  O   UNL     1       1.082  -1.564   1.499  1.00  0.00    -0.444 OA
BRANCH  17  18
ATOM     18  C   UNL     1       0.465  -0.265   1.318  1.00  0.00     0.106 C 
ATOM     19  C   UNL     1       0.946   0.195  -0.066  1.00  0.00     0.056 C 
ATOM     20  C   UNL     1       0.966   0.724   2.375  1.00  0.00     0.056 C 
ATOM     21  C   UNL     1      -1.068  -0.347   1.295  1.00  0.00     0.056 C 
ENDBRANCH  17  18
ENDBRANCH  14  17
ENDBRANCH  12  13
ENDBRANCH   7  12
ENDBRANCH   3   6
ENDBRANCH   1   2
BRANCH   1  22
ATOM     22  C   UNL     1       0.698  -6.276   4.955  1.00  0.00     0.023 C 
BRANCH  22  23
ATOM     23  C   UNL     1      -0.758  -6.223   5.396  1.00  0.00     0.023 C 
BRANCH  23  24
ATOM     24  C   UNL     1      -1.500  -4.931   5.065  1.00  0.00     0.116 C 
BRANCH  24  25
ATOM     25  N   UNL     1      -1.696  -4.661   3.646  1.00  0.00    -0.352 N 
ATOM     26  C   UNL     1      -2.741  -3.969   3.064  1.00  0.00     0.251 C 
ATOM     27  H   UNL     1      -1.008  -5.010   3.035  1.00  0.00     0.163 HD
ATOM     28  O   UNL     1      -2.765  -3.756   1.857  1.00  0.00    -0.269 OA
BRANCH  26  29
ATOM     29  C   UNL     1      -3.896  -3.600   3.911  1.00  0.00     0.039 A 
ATOM     30  C   UNL     1      -5.146  -4.121   3.575  1.00  0.00     0.014 A 
ATOM     31  C   UNL     1      -3.712  -2.912   5.112  1.00  0.00     0.014 A 
ATOM     32  C   UNL     1      -6.187  -4.056   4.500  1.00  0.00     0.010 A 
ATOM     33  C   UNL     1      -4.720  -2.939   6.071  1.00  0.00     0.010 A 
ATOM     34  C   UNL     1      -5.963  -3.528   5.783  1.00  0.00    -0.014 A 
BRANCH  34  35
ATOM     35  C   UNL     1      -7.013  -3.605   6.832  1.00  0.00     0.031 A 
ATOM     36  C   UNL     1      -7.572  -2.345   7.432  1.00  0.00     0.074 A 
ATOM     37  C   UNL     1      -7.432  -4.807   7.280  1.00  0.00     0.049 A 
ATOM     38  N   UNL     1      -8.460  -2.205   8.383  1.00  0.00    -0.248 NA
ATOM     39  C   UNL     1      -7.043  -1.074   6.912  1.00  0.00     0.031 C 
ATOM     40  C   UNL     1      -6.932  -6.106   6.822  1.00  0.00     0.029 A 
ATOM     41  N   UNL     1      -8.374  -5.134   8.226  1.00  0.00    -0.354 N 
ATOM     42  C   UNL     1      -8.592  -0.837   8.575  1.00  0.00     0.074 A 
ATOM     43  C   UNL     1      -7.642  -0.191   7.697  1.00  0.00     0.031 C 
ATOM     44  C   UNL     1      -7.593  -7.084   7.461  1.00  0.00     0.029 A 
ATOM     45  C   UNL     1      -8.533  -6.488   8.405  1.00  0.00     0.049 A 
ATOM     46  H   UNL     1      -8.887  -4.461   8.728  1.00  0.00     0.167 HD
ATOM     47  C   UNL     1      -9.450  -0.173   9.386  1.00  0.00     0.037 A 
ATOM     48  C   UNL     1      -9.341  -7.173   9.238  1.00  0.00     0.037 A 
ATOM     49  C   UNL     1     -10.402  -0.815  10.252  1.00  0.00     0.049 A 
ATOM     50  C   UNL     1     -10.270  -6.413  10.146  1.00  0.00     0.074 A 
ATOM     51  C   UNL     1     -11.339  -0.231  11.085  1.00  0.00     0.029 A 
ATOM     52  N   UNL     1     -10.538  -2.188  10.397  1.00  0.00    -0.354 N 
ATOM     53  N   UNL     1     -10.427  -5.117  10.271  1.00  0.00    -0.248 NA
ATOM     54  C   UNL     1     -11.141  -7.209  11.022  1.00  0.00     0.031 C 
ATOM     55  C   UNL     1     -12.009  -1.248  11.771  1.00  0.00     0.029 A 
ATOM     56  C   UNL     1     -11.531  -2.469  11.321  1.00  0.00     0.049 A 
ATOM     57  H   UNL     1     -10.008  -2.863   9.915  1.00  0.00     0.167 HD
ATOM     58  C   UNL     1     -11.431  -4.944  11.216  1.00  0.00     0.074 A 
ATOM     59  C   UNL     1     -11.858  -6.267  11.619  1.00  0.00     0.031 C 
ATOM     60  C   UNL     1     -11.951  -3.792  11.706  1.00  0.00     0.037 A 
BRANCH  47  61
ATOM     61  C   UNL     1      -9.399   1.327   9.362  1.00  0.00     0.057 A 
ATOM     62  C   UNL     1      -9.820   2.061   8.244  1.00  0.00     0.134 A 
ATOM     63  C   UNL     1      -8.952   2.049  10.476  1.00  0.00     0.134 A 
ATOM     64  F   UNL     1     -10.246   1.431   7.138  1.00  0.00    -0.206 F 
ATOM     65  C   UNL     1      -9.771   3.455   8.224  1.00  0.00     0.040 A 
ATOM     66  C   UNL     1      -8.928   3.444  10.479  1.00  0.00     0.040 A 
ATOM     67  F   UNL     1      -8.539   1.411  11.581  1.00  0.00    -0.206 F 
ATOM     68  C   UNL     1      -9.332   4.151   9.348  1.00  0.00     0.006 A 
ENDBRANCH  47  61
BRANCH  48  69
ATOM     69  C   UNL     1      -9.320  -8.660   9.248  1.00  0.00     0.057 A 
ATOM     70  C   UNL     1     -10.414  -9.405   8.791  1.00  0.00     0.134 A 
ATOM     71  C   UNL     1      -8.215  -9.372   9.730  1.00  0.00     0.134 A 
ATOM     72  F   UNL     1     -11.512  -8.783   8.336  1.00  0.00    -0.206 F 
ATOM     73  C   UNL     1     -10.420 -10.801   8.834  1.00  0.00     0.040 A 
ATOM     74  C   UNL     1      -8.196 -10.768   9.752  1.00  0.00     0.040 A 
ATOM     75  F   UNL     1      -7.131  -8.720  10.176  1.00  0.00    -0.206 F 
ATOM     76  C   UNL     1      -9.305 -11.486   9.311  1.00  0.00     0.006 A 
ENDBRANCH  48  69
BRANCH  60  77
ATOM     77  C   UNL     1     -13.068  -3.908  12.704  1.00  0.00     0.057 A 
ATOM     78  C   UNL     1     -12.852  -4.362  14.011  1.00  0.00     0.134 A 
ATOM     79  C   UNL     1     -14.369  -3.515  12.362  1.00  0.00     0.134 A 
ATOM     80  F   UNL     1     -11.632  -4.764  14.399  1.00  0.00    -0.206 F 
ATOM     81  C   UNL     1     -13.895  -4.444  14.935  1.00  0.00     0.040 A 
ATOM     82  C   UNL     1     -15.413  -3.564  13.286  1.00  0.00     0.040 A 
ATOM     83  F   UNL     1     -14.642  -3.061  11.130  1.00  0.00    -0.206 F 
ATOM     84  C   UNL     1     -15.178  -4.036  14.576  1.00  0.00     0.006 A 
ENDBRANCH  60  77
ENDBRANCH  34  35
ENDBRANCH  26  29
ENDBRANCH  24  25
ENDBRANCH  23  24
ENDBRANCH  22  23
ENDBRANCH   1  22
TORSDOF 15
