REMARK SMILES Cc1c(C(=O)N[C@H]2C=C[C@@H](C(=O)NCCCCNC(=O)c3ccc(-c4c5nc(c(-c6c(F)cccc6F)c6ccc([nH]6)c(-c6c(F)cccc6F)c6nc(c(-c7c(F)cccc7F)c7ccc4[nH]7)C=C6)C=C5)cc3)C2)oc2ccccc12
REMARK SMILES IDX 15 1 14 2 13 3 11 4 12 5 10 7 7 8 8 9 75 10 9 11 6 12 4 13
REMARK SMILES IDX 5 14 3 16 1 17 2 18 82 19 76 20 77 21 81 22 78 23 80 24
REMARK SMILES IDX 79 25 16 26 17 27 18 28 19 29 20 31 21 32 22 33 74 34 23 35
REMARK SMILES IDX 73 36 24 37 25 38 26 39 67 40 27 41 72 42 66 43 68 44 28 45
REMARK SMILES IDX 71 46 65 47 64 48 29 50 55 51 38 52 54 53 39 54 42 55 53 56
REMARK SMILES IDX 69 57 40 58 41 59 52 61 70 62 43 63 30 64 31 65 36 66 32 67
REMARK SMILES IDX 33 68 35 69 37 70 34 71 56 72 57 73 62 74 58 75 59 76 61 77
REMARK SMILES IDX 63 78 60 79 44 80 45 81 50 82 46 83 47 84 49 85 51 86 48 87
REMARK H PARENT 13 6 6 15 18 30 68 49 42 60
REMARK Flexibility Score: inf
ROOT
ATOM      1  C   UNL     1       8.017  -1.683   2.447  1.00  0.00     0.023 C 
ENDROOT
BRANCH   1   2
ATOM      2  C   UNL     1       7.485  -2.635   1.390  1.00  0.00     0.116 C 
BRANCH   2   3
ATOM      3  N   UNL     1       6.685  -3.684   1.982  1.00  0.00    -0.356 N 
ATOM      4  C   UNL     1       5.381  -3.994   1.758  1.00  0.00     0.227 C 
ATOM      5  O   UNL     1       4.867  -4.887   2.435  1.00  0.00    -0.274 OA
ATOM      6  H   UNL     1       7.149  -4.253   2.639  1.00  0.00     0.163 HD
BRANCH   4   7
ATOM      7  C   UNL     1       4.565  -3.242   0.716  1.00  0.00     0.103 C 
ATOM      8  C   UNL     1       4.056  -1.141  -0.249  1.00  0.00     0.106 C 
ATOM      9  C   UNL     1       5.066  -1.815  -1.101  1.00  0.00    -0.006 C 
ATOM     10  C   UNL     1       4.261  -1.796   1.111  1.00  0.00     0.047 C 
ATOM     11  C   UNL     1       5.240  -3.062  -0.629  1.00  0.00    -0.016 C 
BRANCH   8  12
ATOM     12  N   UNL     1       4.030   0.267  -0.212  1.00  0.00    -0.343 N 
ATOM     13  C   UNL     1       2.891   1.037  -0.047  1.00  0.00     0.287 C 
ATOM     14  O   UNL     1       3.125   2.247   0.064  1.00  0.00    -0.266 OA
ATOM     15  H   UNL     1       4.888   0.739  -0.312  1.00  0.00     0.164 HD
BRANCH  13  16
ATOM     16  C   UNL     1       1.507   0.501  -0.021  1.00  0.00     0.195 A 
ATOM     17  C   UNL     1       1.163  -2.163  -0.126  1.00  0.00     0.049 C 
ATOM     18  C   UNL     1       0.792  -0.719  -0.060  1.00  0.00     0.008 A 
ATOM     19  C   UNL     1      -0.600  -0.387  -0.038  1.00  0.00     0.024 A 
ATOM     20  O   UNL     1       0.562   1.517   0.059  1.00  0.00    -0.451 OA
ATOM     21  C   UNL     1      -0.680   0.985   0.043  1.00  0.00     0.135 A 
ATOM     22  C   UNL     1      -1.792  -1.137  -0.078  1.00  0.00     0.012 A 
ATOM     23  C   UNL     1      -1.879   1.688   0.097  1.00  0.00     0.048 A 
ATOM     24  C   UNL     1      -3.013  -0.468  -0.026  1.00  0.00     0.001 A 
ATOM     25  C   UNL     1      -3.054   0.923   0.061  1.00  0.00     0.004 A 
ENDBRANCH  13  16
ENDBRANCH   8  12
ENDBRANCH   4   7
ENDBRANCH   2   3
ENDBRANCH   1   2
BRANCH   1  26
ATOM     26  C   UNL     1       9.102  -2.298   3.319  1.00  0.00     0.023 C 
BRANCH  26  27
ATOM     27  C   UNL     1      10.200  -3.003   2.534  1.00  0.00     0.116 C 
BRANCH  27  28
ATOM     28  N   UNL     1      10.747  -2.181   1.461  1.00  0.00    -0.352 N 
ATOM     29  C   UNL     1      12.059  -2.020   1.087  1.00  0.00     0.251 C 
ATOM     30  H   UNL     1      10.088  -1.674   0.934  1.00  0.00     0.163 HD
ATOM     31  O   UNL     1      12.376  -1.198   0.249  1.00  0.00    -0.269 OA
BRANCH  29  32
ATOM     32  C   UNL     1      13.075  -2.844   1.764  1.00  0.00     0.039 A 
ATOM     33  C   UNL     1      14.172  -2.207   2.340  1.00  0.00     0.014 A 
ATOM     34  C   UNL     1      12.888  -4.223   1.898  1.00  0.00     0.014 A 
ATOM     35  C   UNL     1      15.059  -2.954   3.111  1.00  0.00     0.010 A 
ATOM     36  C   UNL     1      13.719  -4.945   2.742  1.00  0.00     0.010 A 
ATOM     37  C   UNL     1      14.816  -4.319   3.351  1.00  0.00    -0.014 A 
BRANCH  37  38
ATOM     38  C   UNL     1      15.710  -5.095   4.240  1.00  0.00     0.031 A 
ATOM     39  C   UNL     1      16.505  -6.246   3.690  1.00  0.00     0.074 A 
ATOM     40  C   UNL     1      15.786  -4.772   5.546  1.00  0.00     0.049 A 
ATOM     41  N   UNL     1      17.344  -7.037   4.308  1.00  0.00    -0.248 NA
ATOM     42  C   UNL     1      16.316  -6.569   2.265  1.00  0.00     0.031 C 
ATOM     43  C   UNL     1      15.014  -3.715   6.205  1.00  0.00     0.029 A 
ATOM     44  N   UNL     1      16.553  -5.297   6.553  1.00  0.00    -0.354 N 
ATOM     45  C   UNL     1      17.788  -7.937   3.349  1.00  0.00     0.074 A 
ATOM     46  C   UNL     1      17.070  -7.649   2.128  1.00  0.00     0.031 C 
ATOM     47  C   UNL     1      15.376  -3.645   7.496  1.00  0.00     0.029 A 
ATOM     48  C   UNL     1      16.375  -4.673   7.765  1.00  0.00     0.049 A 
ATOM     49  H   UNL     1      17.174  -6.050   6.422  1.00  0.00     0.167 HD
ATOM     50  C   UNL     1      18.737  -8.895   3.465  1.00  0.00     0.037 A 
ATOM     51  C   UNL     1      16.956  -4.907   8.956  1.00  0.00     0.037 A 
ATOM     52  C   UNL     1      19.458  -9.171   4.679  1.00  0.00     0.049 A 
ATOM     53  C   UNL     1      17.995  -5.990   9.057  1.00  0.00     0.074 A 
ATOM     54  C   UNL     1      20.458 -10.102   4.894  1.00  0.00     0.029 A 
ATOM     55  N   UNL     1      19.257  -8.512   5.883  1.00  0.00    -0.354 N 
ATOM     56  N   UNL     1      18.455  -6.787   8.123  1.00  0.00    -0.248 NA
ATOM     57  C   UNL     1      18.605  -6.199  10.378  1.00  0.00     0.031 C 
ATOM     58  C   UNL     1      20.835 -10.035   6.239  1.00  0.00     0.029 A 
ATOM     59  C   UNL     1      20.106  -9.027   6.848  1.00  0.00     0.049 A 
ATOM     60  H   UNL     1      18.608  -7.787   6.029  1.00  0.00     0.167 HD
ATOM     61  C   UNL     1      19.426  -7.569   8.735  1.00  0.00     0.074 A 
ATOM     62  C   UNL     1      19.509  -7.129  10.112  1.00  0.00     0.031 C 
ATOM     63  C   UNL     1      20.179  -8.567   8.210  1.00  0.00     0.037 A 
BRANCH  50  64
ATOM     64  C   UNL     1      19.072  -9.694   2.241  1.00  0.00     0.057 A 
ATOM     65  C   UNL     1      19.759  -9.124   1.160  1.00  0.00     0.134 A 
ATOM     66  C   UNL     1      18.760 -11.057   2.162  1.00  0.00     0.134 A 
ATOM     67  F   UNL     1      20.073  -7.820   1.166  1.00  0.00    -0.206 F 
ATOM     68  C   UNL     1      20.114  -9.878   0.041  1.00  0.00     0.040 A 
ATOM     69  C   UNL     1      19.133 -11.827   1.059  1.00  0.00     0.040 A 
ATOM     70  F   UNL     1      18.103 -11.665   3.161  1.00  0.00    -0.206 F 
ATOM     71  C   UNL     1      19.810 -11.237  -0.006  1.00  0.00     0.006 A 
ENDBRANCH  50  64
BRANCH  51  72
ATOM     72  C   UNL     1      16.586  -4.102  10.150  1.00  0.00     0.057 A 
ATOM     73  C   UNL     1      17.509  -3.246  10.765  1.00  0.00     0.134 A 
ATOM     74  C   UNL     1      15.320  -4.209  10.737  1.00  0.00     0.134 A 
ATOM     75  F   UNL     1      18.744  -3.111  10.260  1.00  0.00    -0.206 F 
ATOM     76  C   UNL     1      17.201  -2.561  11.942  1.00  0.00     0.040 A 
ATOM     77  C   UNL     1      14.988  -3.505  11.896  1.00  0.00     0.040 A 
ATOM     78  F   UNL     1      14.385  -5.002  10.193  1.00  0.00    -0.206 F 
ATOM     79  C   UNL     1      15.936  -2.690  12.510  1.00  0.00     0.006 A 
ENDBRANCH  51  72
BRANCH  63  80
ATOM     80  C   UNL     1      21.179  -9.217   9.122  1.00  0.00     0.057 A 
ATOM     81  C   UNL     1      20.787 -10.041  10.184  1.00  0.00     0.134 A 
ATOM     82  C   UNL     1      22.552  -9.025   8.925  1.00  0.00     0.134 A 
ATOM     83  F   UNL     1      19.486 -10.256  10.435  1.00  0.00    -0.206 F 
ATOM     84  C   UNL     1      21.724 -10.620  11.042  1.00  0.00     0.040 A 
ATOM     85  C   UNL     1      23.499  -9.624   9.755  1.00  0.00     0.040 A 
ATOM     86  F   UNL     1      22.996  -8.257   7.918  1.00  0.00    -0.206 F 
ATOM     87  C   UNL     1      23.085 -10.416  10.824  1.00  0.00     0.006 A 
ENDBRANCH  63  80
ENDBRANCH  37  38
ENDBRANCH  29  32
ENDBRANCH  27  28
ENDBRANCH  26  27
ENDBRANCH   1  26
TORSDOF 13
