REMARK SMILES O=C(NCCCCNC(=O)[C@H]1CCCCN1C(=O)c1cn2ccccc2n1)c1ccc(-c2c3nc(c(-c4c(F)cccc4F)c4ccc([nH]4)c(-c4c(F)cccc4F)c4nc(c(-c5c(F)cccc5F)c5ccc2[nH]5)C=C4)C=C3)cc1
REMARK SMILES IDX 5 1 4 2 3 3 1 4 2 5 28 7 29 8 81 9 30 10 80 11 31 12 32 13
REMARK SMILES IDX 33 14 74 15 34 16 79 17 73 18 75 19 35 20 78 21 72 22 71 23
REMARK SMILES IDX 36 25 62 26 45 27 61 28 46 29 49 30 60 31 76 32 47 33 48 34
REMARK SMILES IDX 59 36 77 37 50 38 37 39 38 40 43 41 39 42 40 43 42 44 44 45
REMARK SMILES IDX 41 46 63 47 64 48 69 49 65 50 66 51 68 52 70 53 67 54 51 55
REMARK SMILES IDX 52 56 57 57 53 58 54 59 56 60 58 61 55 62 6 63 7 64 8 65
REMARK SMILES IDX 9 66 10 68 11 69 12 70 16 71 13 72 15 73 14 74 17 75 18 76
REMARK SMILES IDX 19 77 20 78 27 79 21 80 26 81 22 82 25 83 23 84 24 85
REMARK H PARENT 3 6 75 24 49 35 8 67
REMARK Flexibility Score: inf
ROOT
ATOM      1  C   UNL     1       4.671   9.946  -2.366  1.00  0.00     0.023 C 
ENDROOT
BRANCH   1   2
ATOM      2  C   UNL     1       3.806  10.802  -1.450  1.00  0.00     0.116 C 
BRANCH   2   3
ATOM      3  N   UNL     1       4.418  12.075  -1.089  1.00  0.00    -0.352 N 
ATOM      4  O   UNL     1       4.744  14.309  -1.093  1.00  0.00    -0.269 OA
ATOM      5  C   UNL     1       4.038  13.362  -1.402  1.00  0.00     0.251 C 
ATOM      6  H   UNL     1       5.230  12.003  -0.536  1.00  0.00     0.163 HD
BRANCH   5   7
ATOM      7  C   UNL     1       2.783  13.584  -2.149  1.00  0.00     0.039 A 
ATOM      8  C   UNL     1       1.612  12.934  -1.762  1.00  0.00     0.014 A 
ATOM      9  C   UNL     1       2.791  14.416  -3.272  1.00  0.00     0.014 A 
ATOM     10  C   UNL     1       0.511  12.953  -2.606  1.00  0.00     0.010 A 
ATOM     11  C   UNL     1       1.643  14.521  -4.062  1.00  0.00     0.010 A 
ATOM     12  C   UNL     1       0.508  13.754  -3.760  1.00  0.00    -0.014 A 
BRANCH  12  13
ATOM     13  C   UNL     1      -0.719  13.804  -4.594  1.00  0.00     0.031 A 
ATOM     14  C   UNL     1      -0.722  13.315  -6.016  1.00  0.00     0.074 A 
ATOM     15  C   UNL     1      -1.855  14.254  -4.028  1.00  0.00     0.049 A 
ATOM     16  N   UNL     1      -1.717  13.276  -6.868  1.00  0.00    -0.248 NA
ATOM     17  C   UNL     1       0.548  12.810  -6.559  1.00  0.00     0.031 C 
ATOM     18  C   UNL     1      -1.968  14.762  -2.657  1.00  0.00     0.029 A 
ATOM     19  N   UNL     1      -3.133  14.336  -4.517  1.00  0.00    -0.354 N 
ATOM     20  C   UNL     1      -1.189  12.774  -8.051  1.00  0.00     0.074 A 
ATOM     21  C   UNL     1       0.218  12.530  -7.814  1.00  0.00     0.031 C 
ATOM     22  C   UNL     1      -3.251  15.046  -2.397  1.00  0.00     0.029 A 
ATOM     23  C   UNL     1      -4.038  14.813  -3.601  1.00  0.00     0.049 A 
ATOM     24  H   UNL     1      -3.378  14.077  -5.434  1.00  0.00     0.167 HD
ATOM     25  C   UNL     1      -1.825  12.537  -9.223  1.00  0.00     0.037 A 
ATOM     26  C   UNL     1      -5.355  15.058  -3.720  1.00  0.00     0.037 A 
ATOM     27  C   UNL     1      -3.233  12.751  -9.441  1.00  0.00     0.049 A 
ATOM     28  C   UNL     1      -6.027  14.789  -5.031  1.00  0.00     0.074 A 
ATOM     29  C   UNL     1      -3.977  12.501 -10.582  1.00  0.00     0.029 A 
ATOM     30  N   UNL     1      -4.111  13.265  -8.498  1.00  0.00    -0.354 N 
ATOM     31  N   UNL     1      -5.516  14.297  -6.133  1.00  0.00    -0.248 NA
ATOM     32  C   UNL     1      -7.455  15.118  -5.120  1.00  0.00     0.031 C 
ATOM     33  C   UNL     1      -5.296  12.899 -10.342  1.00  0.00     0.029 A 
ATOM     34  C   UNL     1      -5.383  13.359  -9.039  1.00  0.00     0.049 A 
ATOM     35  H   UNL     1      -3.866  13.525  -7.581  1.00  0.00     0.167 HD
ATOM     36  C   UNL     1      -6.559  14.253  -7.046  1.00  0.00     0.074 A 
ATOM     37  C   UNL     1      -7.738  14.742  -6.359  1.00  0.00     0.031 C 
ATOM     38  C   UNL     1      -6.541  13.852  -8.340  1.00  0.00     0.037 A 
BRANCH  25  39
ATOM     39  C   UNL     1      -1.010  12.030 -10.377  1.00  0.00     0.057 A 
ATOM     40  C   UNL     1      -0.569  10.703 -10.447  1.00  0.00     0.134 A 
ATOM     41  C   UNL     1      -0.733  12.862 -11.470  1.00  0.00     0.134 A 
ATOM     42  F   UNL     1      -0.793   9.857  -9.430  1.00  0.00    -0.206 F 
ATOM     43  C   UNL     1       0.124  10.223 -11.561  1.00  0.00     0.040 A 
ATOM     44  C   UNL     1      -0.058  12.389 -12.597  1.00  0.00     0.040 A 
ATOM     45  F   UNL     1      -1.133  14.142 -11.469  1.00  0.00    -0.206 F 
ATOM     46  C   UNL     1       0.373  11.065 -12.644  1.00  0.00     0.006 A 
ENDBRANCH  25  39
BRANCH  26  47
ATOM     47  C   UNL     1      -6.108  15.610  -2.567  1.00  0.00     0.057 A 
ATOM     48  C   UNL     1      -7.060  14.843  -1.889  1.00  0.00     0.134 A 
ATOM     49  C   UNL     1      -5.879  16.913  -2.108  1.00  0.00     0.134 A 
ATOM     50  F   UNL     1      -7.333  13.593  -2.292  1.00  0.00    -0.206 F 
ATOM     51  C   UNL     1      -7.768  15.356  -0.801  1.00  0.00     0.040 A 
ATOM     52  C   UNL     1      -6.559  17.429  -1.005  1.00  0.00     0.040 A 
ATOM     53  F   UNL     1      -4.970  17.693  -2.711  1.00  0.00    -0.206 F 
ATOM     54  C   UNL     1      -7.512  16.651  -0.353  1.00  0.00     0.006 A 
ENDBRANCH  26  47
BRANCH  38  55
ATOM     55  C   UNL     1      -7.840  13.916  -9.082  1.00  0.00     0.057 A 
ATOM     56  C   UNL     1      -8.381  15.135  -9.510  1.00  0.00     0.134 A 
ATOM     57  C   UNL     1      -8.550  12.747  -9.382  1.00  0.00     0.134 A 
ATOM     58  F   UNL     1      -7.755  16.289  -9.237  1.00  0.00    -0.206 F 
ATOM     59  C   UNL     1      -9.598  15.191 -10.191  1.00  0.00     0.040 A 
ATOM     60  C   UNL     1      -9.756  12.789 -10.082  1.00  0.00     0.040 A 
ATOM     61  F   UNL     1      -8.081  11.549  -9.003  1.00  0.00    -0.206 F 
ATOM     62  C   UNL     1     -10.286  14.014 -10.482  1.00  0.00     0.006 A 
ENDBRANCH  38  55
ENDBRANCH  12  13
ENDBRANCH   5   7
ENDBRANCH   2   3
ENDBRANCH   1   2
BRANCH   1  63
ATOM     63  C   UNL     1       6.043   9.575  -1.815  1.00  0.00     0.023 C 
BRANCH  63  64
ATOM     64  C   UNL     1       6.060   9.005  -0.402  1.00  0.00     0.116 C 
BRANCH  64  65
ATOM     65  N   UNL     1       5.430   7.714  -0.272  1.00  0.00    -0.354 N 
ATOM     66  C   UNL     1       5.548   6.742   0.671  1.00  0.00     0.242 C 
ATOM     67  H   UNL     1       4.800   7.498  -0.998  1.00  0.00     0.163 HD
ATOM     68  O   UNL     1       4.685   5.854   0.603  1.00  0.00    -0.273 OA
BRANCH  66  69
ATOM     69  C   UNL     1       6.624   6.685   1.797  1.00  0.00     0.174 C 
ATOM     70  C   UNL     1       7.789   7.674   1.932  1.00  0.00     0.035 C 
ATOM     71  N   UNL     1       5.969   6.602   3.112  1.00  0.00    -0.325 N 
ATOM     72  C   UNL     1       7.435   9.003   2.625  1.00  0.00     0.004 C 
ATOM     73  C   UNL     1       5.401   7.860   3.580  1.00  0.00     0.121 C 
ATOM     74  C   UNL     1       6.539   8.835   3.853  1.00  0.00     0.022 C 
BRANCH  71  75
ATOM     75  C   UNL     1       6.282   5.512   3.936  1.00  0.00     0.274 C 
ATOM     76  O   UNL     1       6.932   4.548   3.536  1.00  0.00    -0.267 OA
BRANCH  75  77
ATOM     77  C   UNL     1       5.881   5.602   5.340  1.00  0.00     0.147 A 
ATOM     78  C   UNL     1       4.596   5.541   5.847  1.00  0.00     0.127 A 
ATOM     79  N   UNL     1       6.795   5.781   6.367  1.00  0.00    -0.223 NA
ATOM     80  N   UNL     1       4.723   5.706   7.201  1.00  0.00    -0.306 N 
ATOM     81  C   UNL     1       6.082   5.827   7.471  1.00  0.00     0.137 A 
ATOM     82  C   UNL     1       3.737   5.769   8.182  1.00  0.00     0.093 A 
ATOM     83  C   UNL     1       6.463   5.988   8.833  1.00  0.00     0.048 A 
ATOM     84  C   UNL     1       4.099   5.941   9.466  1.00  0.00     0.018 A 
ATOM     85  C   UNL     1       5.515   6.044   9.789  1.00  0.00     0.005 A 
ENDBRANCH  75  77
ENDBRANCH  71  75
ENDBRANCH  66  69
ENDBRANCH  64  65
ENDBRANCH  63  64
ENDBRANCH   1  63
TORSDOF 13
