REMARK SMILES CCC[NH2+][C@@]1(C(=O)NCCCCNC(=O)c2ccc(-c3c4nc(c(-c5c(F)cccc5F)c5ccc([nH]5)c(-c5c(F)cccc5F)c5nc(c(-c6c(F)cccc6F)c6ccc3[nH]6)C=C5)C=C4)cc2)CCC[C@H]([N@@H+]2CCO[C@H](CC)C2)C1
REMARK SMILES IDX 10 1 9 2 8 3 6 4 7 5 5 7 70 8 82 9 71 10 73 11 72 12 4 13
REMARK SMILES IDX 3 16 2 17 1 18 74 19 75 20 81 21 76 23 78 24 77 25 79 26
REMARK SMILES IDX 80 27 11 28 12 29 13 30 14 31 15 33 16 34 17 35 69 36 18 37
REMARK SMILES IDX 68 38 19 39 20 40 21 41 62 42 22 43 67 44 61 45 63 46 23 47
REMARK SMILES IDX 66 48 60 49 59 50 24 52 50 53 33 54 49 55 34 56 37 57 48 58
REMARK SMILES IDX 64 59 35 60 36 61 47 63 65 64 38 65 25 66 26 67 31 68 27 69
REMARK SMILES IDX 28 70 30 71 32 72 29 73 51 74 52 75 57 76 53 77 54 78 56 79
REMARK SMILES IDX 58 80 55 81 39 82 40 83 45 84 41 85 42 86 44 87 46 88 43 89
REMARK H PARENT 8 6 4 14 4 15 74 22 13 32 63 51 37 62
REMARK Flexibility Score: inf
ROOT
ATOM      1  C   UNL     1       0.941  -6.056  -6.086  1.00  0.00     0.023 C 
ENDROOT
BRANCH   1   2
ATOM      2  C   UNL     1       2.136  -5.032  -4.640  1.00  0.00     0.116 C 
BRANCH   2   3
ATOM      3  N   UNL     1       2.103  -3.526  -4.094  1.00  0.00    -0.351 N 
ATOM      4  C   UNL     1       1.579  -2.621  -3.244  1.00  0.00     0.281 C 
ATOM      5  O   UNL     1       1.953  -1.482  -3.564  1.00  0.00    -0.268 OA
ATOM      6  H   UNL     1       2.775  -3.037  -4.622  1.00  0.00     0.163 HD
BRANCH   4   7
ATOM      7  C   UNL     1       0.721  -2.899  -1.981  1.00  0.00     0.181 C 
ATOM      8  C   UNL     1       1.671  -3.452  -0.899  1.00  0.00     0.079 C 
ATOM      9  C   UNL     1      -0.479  -3.821  -2.257  1.00  0.00     0.144 C 
ATOM     10  C   UNL     1       2.071  -4.897  -1.140  1.00  0.00     0.013 C 
ATOM     11  C   UNL     1      -0.116  -5.268  -2.566  1.00  0.00     0.191 C 
ATOM     12  C   UNL     1       0.842  -5.760  -1.427  1.00  0.00     0.065 C 
BRANCH   7  13
ATOM     13  N   UNL     1       0.059  -1.666  -1.405  1.00  0.00    -0.333 N 
ATOM     14  H   UNL     1      -0.827  -1.542  -1.894  1.00  0.00     0.347 HD
ATOM     15  H   UNL     1      -0.006  -1.859  -0.406  1.00  0.00     0.347 HD
BRANCH  13  16
ATOM     16  C   UNL     1       0.778  -0.397  -1.483  1.00  0.00     0.261 C 
BRANCH  16  17
ATOM     17  C   UNL     1       0.317   0.617  -0.428  1.00  0.00     0.058 C 
ATOM     18  C   UNL     1       0.898   0.339   0.950  1.00  0.00     0.010 C 
ENDBRANCH  16  17
ENDBRANCH  13  16
ENDBRANCH   7  13
BRANCH  11  19
ATOM     19  N   UNL     1       0.168  -5.575  -3.986  1.00  0.00    -0.328 N 
ATOM     20  C   UNL     1       1.231  -7.036  -4.178  1.00  0.00     0.291 C 
ATOM     21  C   UNL     1       0.265  -4.221  -5.267  1.00  0.00     0.294 C 
ATOM     22  H   UNL     1      -0.754  -5.843  -4.333  1.00  0.00     0.348 HD
ATOM     23  C   UNL     1       2.805  -6.956  -5.299  1.00  0.00     0.222 C 
ATOM     24  C   UNL     1       1.832  -4.133  -6.481  1.00  0.00     0.173 C 
ATOM     25  O   UNL     1       2.900  -5.619  -6.544  1.00  0.00    -0.367 OA
BRANCH  24  26
ATOM     26  C   UNL     1       2.771  -2.902  -6.798  1.00  0.00     0.034 C 
ATOM     27  C   UNL     1       4.167  -2.750  -6.169  1.00  0.00     0.007 C 
ENDBRANCH  24  26
ENDBRANCH  11  19
ENDBRANCH   4   7
ENDBRANCH   2   3
ENDBRANCH   1   2
BRANCH   1  28
ATOM     28  C   UNL     1       0.496  -5.972  -7.702  1.00  0.00     0.023 C 
BRANCH  28  29
ATOM     29  C   UNL     1       1.504  -6.108  -8.856  1.00  0.00     0.116 C 
BRANCH  29  30
ATOM     30  N   UNL     1       2.517  -7.132  -8.669  1.00  0.00    -0.352 N 
ATOM     31  C   UNL     1       3.228  -7.823  -9.616  1.00  0.00     0.251 C 
ATOM     32  H   UNL     1       2.722  -7.361  -7.734  1.00  0.00     0.163 HD
ATOM     33  O   UNL     1       4.059  -8.672  -9.324  1.00  0.00    -0.269 OA
BRANCH  31  34
ATOM     34  C   UNL     1       2.949  -7.490 -11.018  1.00  0.00     0.039 A 
ATOM     35  C   UNL     1       2.384  -8.453 -11.852  1.00  0.00     0.014 A 
ATOM     36  C   UNL     1       3.101  -6.162 -11.427  1.00  0.00     0.014 A 
ATOM     37  C   UNL     1       1.876  -8.054 -13.085  1.00  0.00     0.010 A 
ATOM     38  C   UNL     1       2.518  -5.755 -12.614  1.00  0.00     0.010 A 
ATOM     39  C   UNL     1       1.891  -6.696 -13.446  1.00  0.00    -0.014 A 
BRANCH  39  40
ATOM     40  C   UNL     1       1.237  -6.219 -14.684  1.00  0.00     0.031 A 
ATOM     41  C   UNL     1       2.066  -5.567 -15.749  1.00  0.00     0.074 A 
ATOM     42  C   UNL     1      -0.104  -6.274 -14.787  1.00  0.00     0.049 A 
ATOM     43  N   UNL     1       1.681  -4.967 -16.844  1.00  0.00    -0.248 NA
ATOM     44  C   UNL     1       3.522  -5.543 -15.529  1.00  0.00     0.031 C 
ATOM     45  C   UNL     1      -1.015  -6.811 -13.772  1.00  0.00     0.029 A 
ATOM     46  N   UNL     1      -0.938  -5.859 -15.792  1.00  0.00    -0.354 N 
ATOM     47  C   UNL     1       2.838  -4.461 -17.419  1.00  0.00     0.074 A 
ATOM     48  C   UNL     1       3.933  -4.781 -16.530  1.00  0.00     0.031 C 
ATOM     49  C   UNL     1      -2.277  -6.721 -14.221  1.00  0.00     0.029 A 
ATOM     50  C   UNL     1      -2.267  -6.093 -15.537  1.00  0.00     0.049 A 
ATOM     51  H   UNL     1      -0.615  -5.434 -16.619  1.00  0.00     0.167 HD
ATOM     52  C   UNL     1       2.977  -3.809 -18.596  1.00  0.00     0.037 A 
ATOM     53  C   UNL     1      -3.352  -5.830 -16.288  1.00  0.00     0.037 A 
ATOM     54  C   UNL     1       1.889  -3.555 -19.500  1.00  0.00     0.049 A 
ATOM     55  C   UNL     1      -3.164  -5.177 -17.628  1.00  0.00     0.074 A 
ATOM     56  C   UNL     1       1.928  -2.988 -20.761  1.00  0.00     0.029 A 
ATOM     57  N   UNL     1       0.564  -3.869 -19.238  1.00  0.00    -0.354 N 
ATOM     58  N   UNL     1      -2.055  -4.767 -18.196  1.00  0.00    -0.248 NA
ATOM     59  C   UNL     1      -4.372  -4.953 -18.433  1.00  0.00     0.031 C 
ATOM     60  C   UNL     1       0.620  -2.944 -21.256  1.00  0.00     0.029 A 
ATOM     61  C   UNL     1      -0.228  -3.505 -20.313  1.00  0.00     0.049 A 
ATOM     62  H   UNL     1       0.235  -4.289 -18.411  1.00  0.00     0.167 HD
ATOM     63  C   UNL     1      -2.428  -4.253 -19.430  1.00  0.00     0.074 A 
ATOM     64  C   UNL     1      -3.864  -4.417 -19.534  1.00  0.00     0.031 C 
ATOM     65  C   UNL     1      -1.653  -3.692 -20.389  1.00  0.00     0.037 A 
BRANCH  52  66
ATOM     66  C   UNL     1       4.354  -3.350 -18.967  1.00  0.00     0.057 A 
ATOM     67  C   UNL     1       5.359  -4.255 -19.334  1.00  0.00     0.134 A 
ATOM     68  C   UNL     1       4.684  -1.989 -18.950  1.00  0.00     0.134 A 
ATOM     69  F   UNL     1       5.111  -5.574 -19.352  1.00  0.00    -0.206 F 
ATOM     70  C   UNL     1       6.652  -3.827 -19.638  1.00  0.00     0.040 A 
ATOM     71  C   UNL     1       5.967  -1.547 -19.277  1.00  0.00     0.040 A 
ATOM     72  F   UNL     1       3.769  -1.070 -18.609  1.00  0.00    -0.206 F 
ATOM     73  C   UNL     1       6.957  -2.468 -19.613  1.00  0.00     0.006 A 
ENDBRANCH  52  66
BRANCH  53  74
ATOM     74  C   UNL     1      -4.700  -6.224 -15.812  1.00  0.00     0.057 A 
ATOM     75  C   UNL     1      -5.371  -7.312 -16.383  1.00  0.00     0.134 A 
ATOM     76  C   UNL     1      -5.347  -5.537 -14.779  1.00  0.00     0.134 A 
ATOM     77  F   UNL     1      -4.807  -8.001 -17.386  1.00  0.00    -0.206 F 
ATOM     78  C   UNL     1      -6.643  -7.694 -15.955  1.00  0.00     0.040 A 
ATOM     79  C   UNL     1      -6.612  -5.919 -14.328  1.00  0.00     0.040 A 
ATOM     80  F   UNL     1      -4.752  -4.492 -14.184  1.00  0.00    -0.206 F 
ATOM     81  C   UNL     1      -7.266  -6.997 -14.921  1.00  0.00     0.006 A 
ENDBRANCH  53  74
BRANCH  65  82
ATOM     82  C   UNL     1      -2.341  -3.234 -21.637  1.00  0.00     0.057 A 
ATOM     83  C   UNL     1      -3.074  -2.042 -21.671  1.00  0.00     0.134 A 
ATOM     84  C   UNL     1      -2.218  -3.961 -22.827  1.00  0.00     0.134 A 
ATOM     85  F   UNL     1      -3.236  -1.311 -20.558  1.00  0.00    -0.206 F 
ATOM     86  C   UNL     1      -3.670  -1.592 -22.849  1.00  0.00     0.040 A 
ATOM     87  C   UNL     1      -2.795  -3.511 -24.014  1.00  0.00     0.040 A 
ATOM     88  F   UNL     1      -1.523  -5.108 -22.856  1.00  0.00    -0.206 F 
ATOM     89  C   UNL     1      -3.524  -2.323 -24.026  1.00  0.00     0.006 A 
ENDBRANCH  65  82
ENDBRANCH  39  40
ENDBRANCH  31  34
ENDBRANCH  29  30
ENDBRANCH  28  29
ENDBRANCH   1  28
TORSDOF 16
