REMARK SMILES CC1(C)CCN(S(=O)(=O)c2ccc(O)c(C(=O)NCCCCNC(=O)c3ccc(-c4c5nc(c(-c6c(F)cccc6F)c6ccc([nH]6)c(-c6c(F)cccc6F)c6nc(c(-c7c(F)cccc7F)c7ccc4[nH]7)C=C6)C=C5)cc3)c2)C1
REMARK SMILES IDX 20 1 19 2 18 3 16 4 17 5 15 7 10 8 11 9 80 10 12 11 13 12
REMARK SMILES IDX 7 13 8 14 9 15 6 16 1 17 2 18 3 19 4 20 81 21 5 22 14 23
REMARK SMILES IDX 21 25 22 26 23 27 24 28 25 30 26 31 27 32 79 33 28 34 78 35
REMARK SMILES IDX 29 36 30 37 31 38 72 39 32 40 77 41 71 42 73 43 33 44 76 45
REMARK SMILES IDX 70 46 69 47 34 49 60 50 43 51 59 52 44 53 47 54 58 55 74 56
REMARK SMILES IDX 45 57 46 58 57 60 75 61 48 62 35 63 36 64 41 65 37 66 38 67
REMARK SMILES IDX 40 68 42 69 39 70 61 71 62 72 67 73 63 74 64 75 66 76 68 77
REMARK SMILES IDX 65 78 49 79 50 80 55 81 51 82 52 83 54 84 56 85 53 86
REMARK H PARENT 18 6 14 24 23 29 73 48 47 59
REMARK Flexibility Score: inf
ROOT
ATOM      1  C   UNL     1       3.870   9.102   1.374  1.00  0.00     0.023 C 
ENDROOT
BRANCH   1   2
ATOM      2  C   UNL     1       3.868   8.345   0.040  1.00  0.00     0.116 C 
BRANCH   2   3
ATOM      3  N   UNL     1       4.790   7.235   0.076  1.00  0.00    -0.352 N 
ATOM      4  C   UNL     1       4.657   5.916   0.418  1.00  0.00     0.255 C 
ATOM      5  O   UNL     1       5.695   5.250   0.322  1.00  0.00    -0.269 OA
ATOM      6  H   UNL     1       5.703   7.476  -0.203  1.00  0.00     0.163 HD
BRANCH   4   7
ATOM      7  C   UNL     1       3.408   5.208   0.867  1.00  0.00     0.082 A 
ATOM      8  C   UNL     1       2.455   2.975   1.250  1.00  0.00     0.083 A 
ATOM      9  C   UNL     1       1.363   3.538   1.904  1.00  0.00     0.025 A 
ATOM     10  C   UNL     1       3.466   3.798   0.738  1.00  0.00     0.039 A 
ATOM     11  C   UNL     1       1.251   4.917   1.988  1.00  0.00     0.048 A 
ATOM     12  C   UNL     1       2.269   5.744   1.493  1.00  0.00     0.128 A 
BRANCH   8  13
ATOM     13  S   UNL     1       2.644   1.206   1.265  1.00  0.00     0.243 S 
ATOM     14  O   UNL     1       2.217   0.743   2.571  1.00  0.00    -0.207 OA
ATOM     15  O   UNL     1       3.958   0.884   0.756  1.00  0.00    -0.207 OA
BRANCH  13  16
ATOM     16  N   UNL     1       1.505   0.641   0.125  1.00  0.00    -0.197 NA
ATOM     17  C   UNL     1      -1.000  -0.157  -1.639  1.00  0.00     0.012 C 
ATOM     18  C   UNL     1      -0.740  -0.218  -0.128  1.00  0.00    -0.020 C 
ATOM     19  C   UNL     1      -2.078  -0.309   0.613  1.00  0.00     0.012 C 
ATOM     20  C   UNL     1       0.194  -1.369   0.241  1.00  0.00     0.024 C 
ATOM     21  C   UNL     1       0.074   0.988   0.357  1.00  0.00     0.109 C 
ATOM     22  C   UNL     1       1.581  -0.837  -0.100  1.00  0.00     0.103 C 
ENDBRANCH  13  16
ENDBRANCH   8  13
BRANCH  12  23
ATOM     23  O   UNL     1       2.093   7.073   1.721  1.00  0.00    -0.507 OA
ATOM     24  H   UNL     1       1.313   7.377   2.143  1.00  0.00     0.293 HD
ENDBRANCH  12  23
ENDBRANCH   4   7
ENDBRANCH   2   3
ENDBRANCH   1   2
BRANCH   1  25
ATOM     25  C   UNL     1       4.936  10.187   1.507  1.00  0.00     0.023 C 
BRANCH  25  26
ATOM     26  C   UNL     1       4.769  11.359   0.552  1.00  0.00     0.116 C 
BRANCH  26  27
ATOM     27  N   UNL     1       3.480  12.028   0.660  1.00  0.00    -0.352 N 
ATOM     28  C   UNL     1       3.178  13.335   0.365  1.00  0.00     0.251 C 
ATOM     29  H   UNL     1       2.732  11.475   0.985  1.00  0.00     0.163 HD
ATOM     30  O   UNL     1       2.059  13.788   0.577  1.00  0.00    -0.269 OA
BRANCH  28  31
ATOM     31  C   UNL     1       4.247  14.204  -0.163  1.00  0.00     0.039 A 
ATOM     32  C   UNL     1       4.513  15.413   0.483  1.00  0.00     0.014 A 
ATOM     33  C   UNL     1       5.027  13.787  -1.244  1.00  0.00     0.014 A 
ATOM     34  C   UNL     1       5.616  16.172   0.090  1.00  0.00     0.010 A 
ATOM     35  C   UNL     1       6.165  14.506  -1.586  1.00  0.00     0.010 A 
ATOM     36  C   UNL     1       6.470  15.703  -0.921  1.00  0.00    -0.014 A 
BRANCH  36  37
ATOM     37  C   UNL     1       7.689  16.451  -1.308  1.00  0.00     0.031 A 
ATOM     38  C   UNL     1       7.799  17.033  -2.688  1.00  0.00     0.074 A 
ATOM     39  C   UNL     1       8.723  16.535  -0.449  1.00  0.00     0.049 A 
ATOM     40  N   UNL     1       8.814  17.631  -3.255  1.00  0.00    -0.248 NA
ATOM     41  C   UNL     1       6.619  16.896  -3.557  1.00  0.00     0.031 C 
ATOM     42  C   UNL     1       8.755  15.964   0.900  1.00  0.00     0.029 A 
ATOM     43  N   UNL     1       9.955  17.121  -0.591  1.00  0.00    -0.354 N 
ATOM     44  C   UNL     1       8.404  17.921  -4.549  1.00  0.00     0.074 A 
ATOM     45  C   UNL     1       7.066  17.392  -4.700  1.00  0.00     0.031 C 
ATOM     46  C   UNL     1       9.940  16.245   1.467  1.00  0.00     0.029 A 
ATOM     47  C   UNL     1      10.761  16.985   0.513  1.00  0.00     0.049 A 
ATOM     48  H   UNL     1      10.235  17.595  -1.407  1.00  0.00     0.167 HD
ATOM     49  C   UNL     1       9.075  18.588  -5.517  1.00  0.00     0.037 A 
ATOM     50  C   UNL     1      12.021  17.406   0.727  1.00  0.00     0.037 A 
ATOM     51  C   UNL     1      10.390  19.145  -5.352  1.00  0.00     0.049 A 
ATOM     52  C   UNL     1      12.736  18.162  -0.358  1.00  0.00     0.074 A 
ATOM     53  C   UNL     1      11.131  19.889  -6.252  1.00  0.00     0.029 A 
ATOM     54  N   UNL     1      11.157  19.021  -4.204  1.00  0.00    -0.354 N 
ATOM     55  N   UNL     1      12.314  18.482  -1.557  1.00  0.00    -0.248 NA
ATOM     56  C   UNL     1      14.099  18.623  -0.057  1.00  0.00     0.031 C 
ATOM     57  C   UNL     1      12.360  20.195  -5.657  1.00  0.00     0.029 A 
ATOM     58  C   UNL     1      12.369  19.669  -4.375  1.00  0.00     0.049 A 
ATOM     59  H   UNL     1      10.882  18.544  -3.388  1.00  0.00     0.167 HD
ATOM     60  C   UNL     1      13.346  19.203  -2.143  1.00  0.00     0.074 A 
ATOM     61  C   UNL     1      14.410  19.282  -1.164  1.00  0.00     0.031 C 
ATOM     62  C   UNL     1      13.407  19.751  -3.381  1.00  0.00     0.037 A 
BRANCH  49  63
ATOM     63  C   UNL     1       8.386  18.759  -6.838  1.00  0.00     0.057 A 
ATOM     64  C   UNL     1       7.303  19.634  -6.994  1.00  0.00     0.134 A 
ATOM     65  C   UNL     1       8.824  18.062  -7.970  1.00  0.00     0.134 A 
ATOM     66  F   UNL     1       6.825  20.319  -5.943  1.00  0.00    -0.206 F 
ATOM     67  C   UNL     1       6.664  19.792  -8.225  1.00  0.00     0.040 A 
ATOM     68  C   UNL     1       8.209  18.230  -9.212  1.00  0.00     0.040 A 
ATOM     69  F   UNL     1       9.858  17.211  -7.889  1.00  0.00    -0.206 F 
ATOM     70  C   UNL     1       7.122  19.093  -9.340  1.00  0.00     0.006 A 
ENDBRANCH  49  63
BRANCH  50  71
ATOM     71  C   UNL     1      12.681  17.149   2.030  1.00  0.00     0.057 A 
ATOM     72  C   UNL     1      12.906  18.190   2.939  1.00  0.00     0.134 A 
ATOM     73  C   UNL     1      13.110  15.869   2.396  1.00  0.00     0.134 A 
ATOM     74  F   UNL     1      12.533  19.442   2.635  1.00  0.00    -0.206 F 
ATOM     75  C   UNL     1      13.552  17.972   4.156  1.00  0.00     0.040 A 
ATOM     76  C   UNL     1      13.738  15.631   3.620  1.00  0.00     0.040 A 
ATOM     77  F   UNL     1      12.916  14.829   1.572  1.00  0.00    -0.206 F 
ATOM     78  C   UNL     1      13.967  16.687   4.501  1.00  0.00     0.006 A 
ENDBRANCH  50  71
BRANCH  62  79
ATOM     79  C   UNL     1      14.646  20.518  -3.730  1.00  0.00     0.057 A 
ATOM     80  C   UNL     1      15.851  19.875  -4.030  1.00  0.00     0.134 A 
ATOM     81  C   UNL     1      14.616  21.916  -3.812  1.00  0.00     0.134 A 
ATOM     82  F   UNL     1      15.946  18.538  -3.957  1.00  0.00    -0.206 F 
ATOM     83  C   UNL     1      16.992  20.596  -4.385  1.00  0.00     0.040 A 
ATOM     84  C   UNL     1      15.743  22.647  -4.186  1.00  0.00     0.040 A 
ATOM     85  F   UNL     1      13.488  22.590  -3.543  1.00  0.00    -0.206 F 
ATOM     86  C   UNL     1      16.937  21.987  -4.470  1.00  0.00     0.006 A 
ENDBRANCH  62  79
ENDBRANCH  36  37
ENDBRANCH  28  31
ENDBRANCH  26  27
ENDBRANCH  25  26
ENDBRANCH   1  25
TORSDOF 14
