REMARK SMILES CC(=O)Nc1cccc(-c2ccc(F)c(C(=O)NCCCCNC(=O)c3ccc(-c4c5nc(c(-c6c(F)cccc6F)c6ccc([nH]6)c(-c6c(F)cccc6F)c6nc(c(-c7c(F)cccc7F)c7ccc4[nH]7)C=C6)C=C5)cc3)c2)c1
REMARK SMILES IDX 20 1 19 2 18 3 16 4 17 5 15 7 10 8 11 9 80 10 12 11 13 12
REMARK SMILES IDX 14 13 9 14 5 15 6 16 81 17 7 18 8 19 4 20 1 21 2 22 3 23
REMARK SMILES IDX 21 25 22 26 23 27 24 28 25 30 26 31 27 32 79 33 28 34 78 35
REMARK SMILES IDX 29 36 30 37 31 38 72 39 32 40 77 41 71 42 73 43 33 44 76 45
REMARK SMILES IDX 70 46 69 47 34 49 60 50 43 51 59 52 44 53 47 54 58 55 74 56
REMARK SMILES IDX 45 57 46 58 57 60 75 61 48 62 35 63 36 64 41 65 37 66 38 67
REMARK SMILES IDX 40 68 42 69 39 70 61 71 62 72 67 73 63 74 64 75 66 76 68 77
REMARK SMILES IDX 65 78 49 79 50 80 55 81 51 82 52 83 54 84 56 85 53 86
REMARK H PARENT 18 6 4 24 23 29 73 48 47 59
REMARK Flexibility Score: inf
ROOT
ATOM      1  C   UNL     1       6.959   1.751   3.998  1.00  0.00     0.023 C 
ENDROOT
BRANCH   1   2
ATOM      2  C   UNL     1       6.478   1.208   2.659  1.00  0.00     0.116 C 
BRANCH   2   3
ATOM      3  N   UNL     1       7.522   0.964   1.673  1.00  0.00    -0.352 N 
ATOM      4  C   UNL     1       7.725  -0.086   0.795  1.00  0.00     0.254 C 
ATOM      5  O   UNL     1       8.664  -0.010   0.007  1.00  0.00    -0.269 OA
ATOM      6  H   UNL     1       8.205   1.672   1.623  1.00  0.00     0.163 HD
BRANCH   4   7
ATOM      7  C   UNL     1       6.860  -1.292   0.804  1.00  0.00     0.076 A 
ATOM      8  C   UNL     1       4.729  -2.336   1.398  1.00  0.00    -0.017 A 
ATOM      9  C   UNL     1       5.311  -3.595   1.200  1.00  0.00     0.012 A 
ATOM     10  C   UNL     1       5.492  -1.202   1.071  1.00  0.00     0.025 A 
ATOM     11  C   UNL     1       6.637  -3.703   0.768  1.00  0.00     0.041 A 
ATOM     12  C   UNL     1       7.415  -2.555   0.610  1.00  0.00     0.135 A 
ATOM     13  F   UNL     1       8.712  -2.712   0.315  1.00  0.00    -0.206 F 
BRANCH   8  14
ATOM     14  C   UNL     1       3.447  -2.147   2.107  1.00  0.00    -0.016 A 
ATOM     15  C   UNL     1       1.440  -0.797   2.501  1.00  0.00     0.041 A 
ATOM     16  C   UNL     1       1.269  -1.429   3.735  1.00  0.00     0.026 A 
ATOM     17  C   UNL     1       2.526  -1.163   1.700  1.00  0.00     0.034 A 
ATOM     18  C   UNL     1       2.133  -2.447   4.136  1.00  0.00     0.003 A 
ATOM     19  C   UNL     1       3.211  -2.804   3.326  1.00  0.00     0.009 A 
BRANCH  15  20
ATOM     20  N   UNL     1       0.555   0.247   2.189  1.00  0.00    -0.326 N 
ATOM     21  C   UNL     1       0.635   0.253  -0.305  1.00  0.00     0.114 C 
ATOM     22  C   UNL     1       0.242   0.863   1.012  1.00  0.00     0.221 C 
ATOM     23  O   UNL     1      -0.419   1.903   1.045  1.00  0.00    -0.275 OA
ATOM     24  H   UNL     1       0.068   0.604   2.967  1.00  0.00     0.169 HD
ENDBRANCH  15  20
ENDBRANCH   8  14
ENDBRANCH   4   7
ENDBRANCH   2   3
ENDBRANCH   1   2
BRANCH   1  25
ATOM     25  C   UNL     1       7.665   3.100   3.978  1.00  0.00     0.023 C 
BRANCH  25  26
ATOM     26  C   UNL     1       6.949   4.229   3.246  1.00  0.00     0.116 C 
BRANCH  26  27
ATOM     27  N   UNL     1       5.613   4.511   3.750  1.00  0.00    -0.352 N 
ATOM     28  C   UNL     1       5.059   5.699   4.175  1.00  0.00     0.251 C 
ATOM     29  H   UNL     1       5.012   3.733   3.795  1.00  0.00     0.163 HD
ATOM     30  O   UNL     1       3.925   5.716   4.636  1.00  0.00    -0.269 OA
BRANCH  28  31
ATOM     31  C   UNL     1       5.851   6.949   4.124  1.00  0.00     0.039 A 
ATOM     32  C   UNL     1       5.869   7.777   5.250  1.00  0.00     0.014 A 
ATOM     33  C   UNL     1       6.594   7.293   2.993  1.00  0.00     0.014 A 
ATOM     34  C   UNL     1       6.713   8.890   5.280  1.00  0.00     0.010 A 
ATOM     35  C   UNL     1       7.494   8.354   3.054  1.00  0.00     0.010 A 
ATOM     36  C   UNL     1       7.573   9.156   4.203  1.00  0.00    -0.014 A 
BRANCH  36  37
ATOM     37  C   UNL     1       8.574  10.253   4.263  1.00  0.00     0.031 A 
ATOM     38  C   UNL     1       8.497  11.401   3.295  1.00  0.00     0.074 A 
ATOM     39  C   UNL     1       9.596  10.178   5.139  1.00  0.00     0.049 A 
ATOM     40  N   UNL     1       9.329  12.397   3.125  1.00  0.00    -0.248 NA
ATOM     41  C   UNL     1       7.344  11.419   2.380  1.00  0.00     0.031 C 
ATOM     42  C   UNL     1       9.813   9.095   6.102  1.00  0.00     0.029 A 
ATOM     43  N   UNL     1      10.653  11.028   5.355  1.00  0.00    -0.354 N 
ATOM     44  C   UNL     1       8.810  13.149   2.080  1.00  0.00     0.074 A 
ATOM     45  C   UNL     1       7.619  12.468   1.619  1.00  0.00     0.031 C 
ATOM     46  C   UNL     1      10.919   9.357   6.817  1.00  0.00     0.029 A 
ATOM     47  C   UNL     1      11.511  10.603   6.342  1.00  0.00     0.049 A 
ATOM     48  H   UNL     1      10.785  11.863   4.851  1.00  0.00     0.167 HD
ATOM     49  C   UNL     1       9.268  14.315   1.566  1.00  0.00     0.037 A 
ATOM     50  C   UNL     1      12.650  11.152   6.805  1.00  0.00     0.037 A 
ATOM     51  C   UNL     1      10.435  15.009   2.040  1.00  0.00     0.049 A 
ATOM     52  C   UNL     1      13.139  12.444   6.210  1.00  0.00     0.074 A 
ATOM     53  C   UNL     1      10.956  16.217   1.608  1.00  0.00     0.029 A 
ATOM     54  N   UNL     1      11.261  14.558   3.059  1.00  0.00    -0.354 N 
ATOM     55  N   UNL     1      12.608  13.168   5.256  1.00  0.00    -0.248 NA
ATOM     56  C   UNL     1      14.386  12.996   6.761  1.00  0.00     0.031 C 
ATOM     57  C   UNL     1      12.113  16.484   2.348  1.00  0.00     0.029 A 
ATOM     58  C   UNL     1      12.291  15.461   3.264  1.00  0.00     0.049 A 
ATOM     59  H   UNL     1      11.133  13.722   3.561  1.00  0.00     0.167 HD
ATOM     60  C   UNL     1      13.435  14.275   5.114  1.00  0.00     0.074 A 
ATOM     61  C   UNL     1      14.496  14.133   6.089  1.00  0.00     0.031 C 
ATOM     62  C   UNL     1      13.327  15.315   4.253  1.00  0.00     0.037 A 
BRANCH  49  63
ATOM     63  C   UNL     1       8.488  14.928   0.441  1.00  0.00     0.057 A 
ATOM     64  C   UNL     1       7.239  15.525   0.656  1.00  0.00     0.134 A 
ATOM     65  C   UNL     1       9.007  14.964  -0.859  1.00  0.00     0.134 A 
ATOM     66  F   UNL     1       6.681  15.512   1.876  1.00  0.00    -0.206 F 
ATOM     67  C   UNL     1       6.524  16.119  -0.385  1.00  0.00     0.040 A 
ATOM     68  C   UNL     1       8.313  15.577  -1.904  1.00  0.00     0.040 A 
ATOM     69  F   UNL     1      10.200  14.415  -1.132  1.00  0.00    -0.206 F 
ATOM     70  C   UNL     1       7.066  16.152  -1.669  1.00  0.00     0.006 A 
ENDBRANCH  49  63
BRANCH  50  71
ATOM     71  C   UNL     1      13.407  10.500   7.903  1.00  0.00     0.057 A 
ATOM     72  C   UNL     1      13.470  11.080   9.176  1.00  0.00     0.134 A 
ATOM     73  C   UNL     1      14.115   9.309   7.702  1.00  0.00     0.134 A 
ATOM     74  F   UNL     1      12.830  12.232   9.425  1.00  0.00    -0.206 F 
ATOM     75  C   UNL     1      14.232  10.515  10.201  1.00  0.00     0.040 A 
ATOM     76  C   UNL     1      14.860   8.720   8.725  1.00  0.00     0.040 A 
ATOM     77  F   UNL     1      14.090   8.701   6.507  1.00  0.00    -0.206 F 
ATOM     78  C   UNL     1      14.928   9.330   9.976  1.00  0.00     0.006 A 
ENDBRANCH  50  71
BRANCH  62  79
ATOM     79  C   UNL     1      14.354  16.402   4.357  1.00  0.00     0.057 A 
ATOM     80  C   UNL     1      15.667  16.223   3.905  1.00  0.00     0.134 A 
ATOM     81  C   UNL     1      14.013  17.654   4.884  1.00  0.00     0.134 A 
ATOM     82  F   UNL     1      16.059  15.042   3.404  1.00  0.00    -0.206 F 
ATOM     83  C   UNL     1      16.612  17.247   3.993  1.00  0.00     0.040 A 
ATOM     84  C   UNL     1      14.942  18.692   4.954  1.00  0.00     0.040 A 
ATOM     85  F   UNL     1      12.769  17.891   5.327  1.00  0.00    -0.206 F 
ATOM     86  C   UNL     1      16.248  18.488   4.513  1.00  0.00     0.006 A 
ENDBRANCH  62  79
ENDBRANCH  36  37
ENDBRANCH  28  31
ENDBRANCH  26  27
ENDBRANCH  25  26
ENDBRANCH   1  25
TORSDOF 13
