REMARK SMILES O=C(NCCCCNC(=O)c1ccc(-n2cccc2/C=N/NC(=O)c2cccs2)cc1)c1ccc(-c2c3nc(c(-c4c(F)cccc4F)c4ccc([nH]4)c(-c4c(F)cccc4F)c4nc(c(-c5c(F)cccc5F)c5ccc2[nH]5)C=C4)C=C3)cc1
REMARK SMILES IDX 6 1 5 2 4 3 3 4 1 5 2 6 32 8 33 9 85 10 34 11 84 12 35 13
REMARK SMILES IDX 36 14 37 15 78 16 38 17 83 18 77 19 79 20 39 21 82 22 76 23
REMARK SMILES IDX 75 24 40 26 66 27 49 28 65 29 50 30 53 31 64 32 80 33 51 34
REMARK SMILES IDX 52 35 63 37 81 38 54 39 41 40 42 41 47 42 43 43 44 44 46 45
REMARK SMILES IDX 48 46 45 47 67 48 68 49 73 50 69 51 70 52 72 53 74 54 71 55
REMARK SMILES IDX 55 56 56 57 61 58 57 59 58 60 60 61 62 62 59 63 7 64 8 65
REMARK SMILES IDX 9 66 10 68 11 69 12 70 31 71 13 72 30 73 14 74 15 75 16 76
REMARK SMILES IDX 19 77 17 78 18 79 20 80 21 81 22 82 23 83 24 85 25 86 26 87
REMARK SMILES IDX 29 88 27 89 28 90
REMARK H PARENT 3 7 79 25 53 36 8 67 22 84
REMARK Flexibility Score: inf
ROOT
ATOM      1  C   UNL     1       4.485   3.578   0.311  1.00  0.00     0.023 C 
ENDROOT
BRANCH   1   2
ATOM      2  C   UNL     1       4.980   2.220  -0.189  1.00  0.00     0.023 C 
BRANCH   2   3
ATOM      3  C   UNL     1       4.656   1.043   0.730  1.00  0.00     0.116 C 
BRANCH   3   4
ATOM      4  N   UNL     1       3.240   0.760   0.873  1.00  0.00    -0.352 N 
ATOM      5  O   UNL     1       1.166   0.046   0.534  1.00  0.00    -0.269 OA
ATOM      6  C   UNL     1       2.288   0.210   0.052  1.00  0.00     0.251 C 
ATOM      7  H   UNL     1       2.883   1.021   1.752  1.00  0.00     0.163 HD
BRANCH   6   8
ATOM      8  C   UNL     1       2.512  -0.153  -1.375  1.00  0.00     0.039 A 
ATOM      9  C   UNL     1       3.761  -0.409  -1.937  1.00  0.00     0.014 A 
ATOM     10  C   UNL     1       1.371  -0.272  -2.194  1.00  0.00     0.014 A 
ATOM     11  C   UNL     1       3.885  -0.700  -3.290  1.00  0.00     0.010 A 
ATOM     12  C   UNL     1       1.483  -0.598  -3.549  1.00  0.00     0.010 A 
ATOM     13  C   UNL     1       2.749  -0.803  -4.098  1.00  0.00    -0.014 A 
BRANCH  13  14
ATOM     14  C   UNL     1       2.974  -1.255  -5.490  1.00  0.00     0.031 A 
ATOM     15  C   UNL     1       3.266  -2.749  -5.578  1.00  0.00     0.074 A 
ATOM     16  C   UNL     1       3.044  -0.293  -6.452  1.00  0.00     0.049 A 
ATOM     17  N   UNL     1       4.095  -3.391  -6.343  1.00  0.00    -0.248 NA
ATOM     18  C   UNL     1       2.611  -3.650  -4.595  1.00  0.00     0.031 C 
ATOM     19  C   UNL     1       2.707   1.121  -6.222  1.00  0.00     0.029 A 
ATOM     20  N   UNL     1       3.420  -0.283  -7.782  1.00  0.00    -0.354 N 
ATOM     21  C   UNL     1       3.936  -4.763  -6.068  1.00  0.00     0.074 A 
ATOM     22  C   UNL     1       3.108  -4.850  -4.901  1.00  0.00     0.031 C 
ATOM     23  C   UNL     1       2.953   1.852  -7.326  1.00  0.00     0.029 A 
ATOM     24  C   UNL     1       3.479   1.003  -8.377  1.00  0.00     0.049 A 
ATOM     25  H   UNL     1       3.631  -1.107  -8.279  1.00  0.00     0.167 HD
ATOM     26  C   UNL     1       4.385  -5.756  -6.888  1.00  0.00     0.037 A 
ATOM     27  C   UNL     1       3.961   1.378  -9.604  1.00  0.00     0.037 A 
ATOM     28  C   UNL     1       5.056  -5.221  -8.024  1.00  0.00     0.049 A 
ATOM     29  C   UNL     1       4.371   0.134 -10.278  1.00  0.00     0.074 A 
ATOM     30  C   UNL     1       6.295  -4.674  -8.226  1.00  0.00     0.029 A 
ATOM     31  N   UNL     1       4.291  -4.992  -9.141  1.00  0.00    -0.354 N 
ATOM     32  N   UNL     1       3.555  -0.737 -10.789  1.00  0.00    -0.248 NA
ATOM     33  C   UNL     1       5.800  -0.198 -10.350  1.00  0.00     0.031 C 
ATOM     34  C   UNL     1       6.131  -3.808  -9.330  1.00  0.00     0.029 A 
ATOM     35  C   UNL     1       4.812  -3.896  -9.786  1.00  0.00     0.049 A 
ATOM     36  H   UNL     1       3.510  -5.518  -9.428  1.00  0.00     0.167 HD
ATOM     37  C   UNL     1       4.351  -1.849 -10.938  1.00  0.00     0.074 A 
ATOM     38  C   UNL     1       5.717  -1.381 -10.954  1.00  0.00     0.031 C 
ATOM     39  C   UNL     1       3.893  -3.058 -10.527  1.00  0.00     0.037 A 
BRANCH  26  40
ATOM     40  C   UNL     1       4.089  -7.230  -6.895  1.00  0.00     0.057 A 
ATOM     41  C   UNL     1       4.996  -8.102  -7.540  1.00  0.00     0.134 A 
ATOM     42  C   UNL     1       2.841  -7.778  -6.579  1.00  0.00     0.134 A 
ATOM     43  F   UNL     1       6.231  -7.694  -7.871  1.00  0.00    -0.206 F 
ATOM     44  C   UNL     1       4.651  -9.400  -7.926  1.00  0.00     0.040 A 
ATOM     45  C   UNL     1       2.499  -9.094  -6.921  1.00  0.00     0.040 A 
ATOM     46  F   UNL     1       1.878  -7.039  -6.012  1.00  0.00    -0.206 F 
ATOM     47  C   UNL     1       3.391  -9.897  -7.626  1.00  0.00     0.006 A 
ENDBRANCH  26  40
BRANCH  27  48
ATOM     48  C   UNL     1       4.236   2.667 -10.354  1.00  0.00     0.057 A 
ATOM     49  C   UNL     1       3.901   3.959  -9.938  1.00  0.00     0.134 A 
ATOM     50  C   UNL     1       4.939   2.641 -11.592  1.00  0.00     0.134 A 
ATOM     51  F   UNL     1       3.139   4.180  -8.865  1.00  0.00    -0.206 F 
ATOM     52  C   UNL     1       4.314   5.117 -10.626  1.00  0.00     0.040 A 
ATOM     53  C   UNL     1       5.380   3.782 -12.273  1.00  0.00     0.040 A 
ATOM     54  F   UNL     1       5.240   1.494 -12.216  1.00  0.00    -0.206 F 
ATOM     55  C   UNL     1       5.082   5.035 -11.779  1.00  0.00     0.006 A 
ENDBRANCH  27  48
BRANCH  39  56
ATOM     56  C   UNL     1       2.379  -3.130 -10.477  1.00  0.00     0.057 A 
ATOM     57  C   UNL     1       1.621  -3.027 -11.649  1.00  0.00     0.134 A 
ATOM     58  C   UNL     1       1.647  -3.132  -9.280  1.00  0.00     0.134 A 
ATOM     59  F   UNL     1       2.228  -3.013 -12.846  1.00  0.00    -0.206 F 
ATOM     60  C   UNL     1       0.224  -2.911 -11.625  1.00  0.00     0.040 A 
ATOM     61  C   UNL     1       0.253  -3.034  -9.235  1.00  0.00     0.040 A 
ATOM     62  F   UNL     1       2.267  -3.211  -8.106  1.00  0.00    -0.206 F 
ATOM     63  C   UNL     1      -0.465  -2.910 -10.414  1.00  0.00     0.006 A 
ENDBRANCH  39  56
ENDBRANCH  13  14
ENDBRANCH   6   8
ENDBRANCH   3   4
ENDBRANCH   2   3
ENDBRANCH   1   2
BRANCH   1  64
ATOM     64  C   UNL     1       4.950   3.980   1.711  1.00  0.00     0.116 C 
BRANCH  64  65
ATOM     65  N   UNL     1       6.395   4.082   1.824  1.00  0.00    -0.352 N 
ATOM     66  C   UNL     1       7.196   5.108   2.276  1.00  0.00     0.251 C 
ATOM     67  H   UNL     1       6.885   3.282   1.527  1.00  0.00     0.163 HD
ATOM     68  O   UNL     1       8.407   5.003   2.199  1.00  0.00    -0.269 OA
BRANCH  66  69
ATOM     69  C   UNL     1       6.603   6.360   2.806  1.00  0.00     0.039 A 
ATOM     70  C   UNL     1       7.127   7.577   2.352  1.00  0.00     0.016 A 
ATOM     71  C   UNL     1       5.576   6.358   3.751  1.00  0.00     0.016 A 
ATOM     72  C   UNL     1       6.542   8.785   2.740  1.00  0.00     0.027 A 
ATOM     73  C   UNL     1       4.992   7.565   4.147  1.00  0.00     0.027 A 
ATOM     74  C   UNL     1       5.441   8.777   3.600  1.00  0.00     0.046 A 
BRANCH  74  75
ATOM     75  N   UNL     1       4.762   9.982   3.933  1.00  0.00    -0.316 N 
ATOM     76  C   UNL     1       4.251  10.252   5.191  1.00  0.00     0.092 A 
ATOM     77  C   UNL     1       4.377  11.017   3.080  1.00  0.00     0.066 A 
ATOM     78  C   UNL     1       3.602  11.462   5.171  1.00  0.00     0.021 A 
ATOM     79  C   UNL     1       3.668  11.934   3.847  1.00  0.00     0.030 A 
BRANCH  77  80
ATOM     80  C   UNL     1       4.556  11.084   1.646  1.00  0.00     0.160 C 
ATOM     81  N   UNL     1       3.695  11.739   0.930  1.00  0.00    -0.179 NA
BRANCH  81  82
ATOM     82  N   UNL     1       3.836  11.794  -0.431  1.00  0.00    -0.242 N 
ATOM     83  C   UNL     1       4.308  10.873  -1.356  1.00  0.00     0.281 C 
ATOM     84  H   UNL     1       3.550  12.649  -0.828  1.00  0.00     0.194 HD
ATOM     85  O   UNL     1       4.492  11.270  -2.509  1.00  0.00    -0.266 OA
BRANCH  83  86
ATOM     86  C   UNL     1       4.516   9.495  -0.957  1.00  0.00     0.094 A 
ATOM     87  C   UNL     1       3.731   8.678  -0.167  1.00  0.00     0.026 A 
ATOM     88  S   UNL     1       5.900   8.665  -1.537  1.00  0.00    -0.139 S 
ATOM     89  C   UNL     1       4.299   7.385   0.002  1.00  0.00     0.012 A 
ATOM     90  C   UNL     1       5.489   7.248  -0.678  1.00  0.00     0.065 A 
ENDBRANCH  83  86
ENDBRANCH  81  82
ENDBRANCH  77  80
ENDBRANCH  74  75
ENDBRANCH  66  69
ENDBRANCH  64  65
ENDBRANCH   1  64
TORSDOF 15
