REMARK SMILES CCN(CCC(=O)NCCCCNC(=O)c1ccc(-c2c3nc(c(-c4c(F)cccc4F)c4ccc([nH]4)c(-c4c(F)cccc4F)c4nc(c(-c5c(F)cccc5F)c5ccc2[nH]5)C=C4)C=C3)cc1)C(=O)N1C[C@H](C(=O)OC)[C@@H](C)C1
REMARK SMILES IDX 6 1 7 2 8 3 5 5 4 6 3 7 2 8 1 9 70 10 71 11 72 12 73 13
REMARK SMILES IDX 81 14 74 15 79 16 80 17 75 18 76 19 77 20 78 21 9 22 10 23
REMARK SMILES IDX 11 24 12 25 13 26 14 27 15 29 16 30 17 31 69 32 18 33 68 34
REMARK SMILES IDX 19 35 20 36 21 37 62 38 22 39 67 40 61 41 63 42 23 43 66 44
REMARK SMILES IDX 60 45 59 46 24 48 50 49 33 50 49 51 34 52 37 53 48 54 64 55
REMARK SMILES IDX 35 56 36 57 47 59 65 60 38 61 25 62 26 63 31 64 27 65 28 66
REMARK SMILES IDX 30 67 32 68 29 69 51 70 52 71 57 72 53 73 54 74 56 75 58 76
REMARK SMILES IDX 55 77 39 78 40 79 45 80 41 81 42 82 44 83 46 84 43 85
REMARK H PARENT 8 4 13 28 63 47 37 58
REMARK Flexibility Score: inf
ROOT
ATOM      1  C   UNL     1       1.085   0.150   5.192  1.00  0.00     0.221 C 
ATOM      2  O   UNL     1       1.079   0.712   6.291  1.00  0.00    -0.275 OA
ATOM      3  N   UNL     1       2.237  -0.460   4.787  1.00  0.00    -0.356 N 
ATOM      4  H   UNL     1       3.030  -0.266   5.338  1.00  0.00     0.163 HD
ENDROOT
BRANCH   1   5
ATOM      5  C   UNL     1      -0.150   0.160   4.324  1.00  0.00     0.121 C 
BRANCH   5   6
ATOM      6  C   UNL     1      -0.327   1.396   3.437  1.00  0.00     0.131 C 
BRANCH   6   7
ATOM      7  N   UNL     1       0.539   1.489   2.256  1.00  0.00    -0.324 N 
BRANCH   7   8
ATOM      8  C   UNL     1       0.159   0.502   1.208  1.00  0.00     0.118 C 
ATOM      9  C   UNL     1       0.769   0.527  -0.187  1.00  0.00     0.027 C 
ENDBRANCH   7   8
BRANCH   7  10
ATOM     10  C   UNL     1       1.628   2.337   2.071  1.00  0.00     0.320 C 
ATOM     11  O   UNL     1       2.111   2.497   0.944  1.00  0.00    -0.248 OA
BRANCH  10  12
ATOM     12  N   UNL     1       2.295   2.924   3.127  1.00  0.00    -0.323 N 
ATOM     13  C   UNL     1       1.992   3.117   4.540  1.00  0.00     0.137 C 
ATOM     14  C   UNL     1       3.616   3.512   2.850  1.00  0.00     0.125 C 
ATOM     15  C   UNL     1       2.848   4.293   4.985  1.00  0.00     0.123 C 
ATOM     16  C   UNL     1       4.130   4.089   4.182  1.00  0.00     0.021 C 
ATOM     17  C   UNL     1       5.064   3.106   4.906  1.00  0.00     0.010 C 
BRANCH  15  18
ATOM     18  C   UNL     1       2.039   5.543   4.707  1.00  0.00     0.310 C 
ATOM     19  O   UNL     1       1.329   6.077   5.550  1.00  0.00    -0.252 OA
BRANCH  18  20
ATOM     20  O   UNL     1       2.038   5.861   3.388  1.00  0.00    -0.469 OA
ATOM     21  C   UNL     1       0.832   6.470   2.930  1.00  0.00     0.282 C 
ENDBRANCH  18  20
ENDBRANCH  15  18
ENDBRANCH  10  12
ENDBRANCH   7  10
ENDBRANCH   6   7
ENDBRANCH   5   6
ENDBRANCH   1   5
BRANCH   3  22
ATOM     22  C   UNL     1       2.467  -1.350   3.665  1.00  0.00     0.116 C 
BRANCH  22  23
ATOM     23  C   UNL     1       3.114  -0.680   2.460  1.00  0.00     0.023 C 
BRANCH  23  24
ATOM     24  C   UNL     1       4.559  -0.244   2.600  1.00  0.00     0.023 C 
BRANCH  24  25
ATOM     25  C   UNL     1       5.518  -1.382   2.855  1.00  0.00     0.116 C 
BRANCH  25  26
ATOM     26  N   UNL     1       5.435  -2.427   1.843  1.00  0.00    -0.352 N 
ATOM     27  C   UNL     1       6.436  -3.002   1.102  1.00  0.00     0.251 C 
ATOM     28  H   UNL     1       4.529  -2.771   1.666  1.00  0.00     0.163 HD
ATOM     29  O   UNL     1       6.164  -3.758   0.172  1.00  0.00    -0.269 OA
BRANCH  27  30
ATOM     30  C   UNL     1       7.839  -2.678   1.417  1.00  0.00     0.039 A 
ATOM     31  C   UNL     1       8.742  -2.452   0.378  1.00  0.00     0.014 A 
ATOM     32  C   UNL     1       8.244  -2.546   2.746  1.00  0.00     0.014 A 
ATOM     33  C   UNL     1      10.038  -2.033   0.678  1.00  0.00     0.010 A 
ATOM     34  C   UNL     1       9.476  -1.985   3.034  1.00  0.00     0.010 A 
ATOM     35  C   UNL     1      10.402  -1.759   2.008  1.00  0.00    -0.014 A 
BRANCH  35  36
ATOM     36  C   UNL     1      11.762  -1.293   2.368  1.00  0.00     0.031 A 
ATOM     37  C   UNL     1      12.594  -2.108   3.323  1.00  0.00     0.074 A 
ATOM     38  C   UNL     1      12.216  -0.116   1.899  1.00  0.00     0.049 A 
ATOM     39  N   UNL     1      13.771  -1.845   3.829  1.00  0.00    -0.248 NA
ATOM     40  C   UNL     1      12.003  -3.365   3.816  1.00  0.00     0.031 C 
ATOM     41  C   UNL     1      11.478   0.791   1.016  1.00  0.00     0.029 A 
ATOM     42  N   UNL     1      13.414   0.521   2.100  1.00  0.00    -0.354 N 
ATOM     43  C   UNL     1      14.037  -2.879   4.718  1.00  0.00     0.074 A 
ATOM     44  C   UNL     1      12.871  -3.731   4.744  1.00  0.00     0.031 C 
ATOM     45  C   UNL     1      12.260   1.839   0.709  1.00  0.00     0.029 A 
ATOM     46  C   UNL     1      13.532   1.702   1.409  1.00  0.00     0.049 A 
ATOM     47  H   UNL     1      14.121   0.165   2.685  1.00  0.00     0.167 HD
ATOM     48  C   UNL     1      15.166  -3.120   5.424  1.00  0.00     0.037 A 
ATOM     49  C   UNL     1      14.558   2.571   1.346  1.00  0.00     0.037 A 
ATOM     50  C   UNL     1      16.341  -2.297   5.349  1.00  0.00     0.049 A 
ATOM     51  C   UNL     1      15.808   2.276   2.130  1.00  0.00     0.074 A 
ATOM     52  C   UNL     1      17.572  -2.494   5.947  1.00  0.00     0.029 A 
ATOM     53  N   UNL     1      16.428  -1.116   4.626  1.00  0.00    -0.354 N 
ATOM     54  N   UNL     1      16.080   1.251   2.901  1.00  0.00    -0.248 NA
ATOM     55  C   UNL     1      16.895   3.260   2.031  1.00  0.00     0.031 C 
ATOM     56  C   UNL     1      18.386  -1.401   5.633  1.00  0.00     0.029 A 
ATOM     57  C   UNL     1      17.683  -0.555   4.789  1.00  0.00     0.049 A 
ATOM     58  H   UNL     1      15.705  -0.733   4.078  1.00  0.00     0.167 HD
ATOM     59  C   UNL     1      17.380   1.447   3.350  1.00  0.00     0.074 A 
ATOM     60  C   UNL     1      17.843   2.684   2.755  1.00  0.00     0.031 C 
ATOM     61  C   UNL     1      18.125   0.673   4.179  1.00  0.00     0.037 A 
BRANCH  48  62
ATOM     62  C   UNL     1      15.175  -4.318   6.331  1.00  0.00     0.057 A 
ATOM     63  C   UNL     1      15.127  -5.630   5.838  1.00  0.00     0.134 A 
ATOM     64  C   UNL     1      15.236  -4.157   7.721  1.00  0.00     0.134 A 
ATOM     65  F   UNL     1      15.051  -5.859   4.518  1.00  0.00    -0.206 F 
ATOM     66  C   UNL     1      15.098  -6.733   6.693  1.00  0.00     0.040 A 
ATOM     67  C   UNL     1      15.244  -5.253   8.585  1.00  0.00     0.040 A 
ATOM     68  F   UNL     1      15.289  -2.931   8.264  1.00  0.00    -0.206 F 
ATOM     69  C   UNL     1      15.163  -6.546   8.072  1.00  0.00     0.006 A 
ENDBRANCH  48  62
BRANCH  49  70
ATOM     70  C   UNL     1      14.468   3.772   0.477  1.00  0.00     0.057 A 
ATOM     71  C   UNL     1      15.253   3.881  -0.678  1.00  0.00     0.134 A 
ATOM     72  C   UNL     1      13.607   4.834   0.771  1.00  0.00     0.134 A 
ATOM     73  F   UNL     1      16.110   2.902  -1.006  1.00  0.00    -0.206 F 
ATOM     74  C   UNL     1      15.201   5.010  -1.496  1.00  0.00     0.040 A 
ATOM     75  C   UNL     1      13.524   5.959  -0.053  1.00  0.00     0.040 A 
ATOM     76  F   UNL     1      12.820   4.788   1.856  1.00  0.00    -0.206 F 
ATOM     77  C   UNL     1      14.330   6.052  -1.186  1.00  0.00     0.006 A 
ENDBRANCH  49  70
BRANCH  61  78
ATOM     78  C   UNL     1      19.530   1.120   4.455  1.00  0.00     0.057 A 
ATOM     79  C   UNL     1      19.811   2.236   5.252  1.00  0.00     0.134 A 
ATOM     80  C   UNL     1      20.617   0.391   3.954  1.00  0.00     0.134 A 
ATOM     81  F   UNL     1      18.816   2.983   5.753  1.00  0.00    -0.206 F 
ATOM     82  C   UNL     1      21.124   2.628   5.519  1.00  0.00     0.040 A 
ATOM     83  C   UNL     1      21.933   0.754   4.240  1.00  0.00     0.040 A 
ATOM     84  F   UNL     1      20.417  -0.696   3.194  1.00  0.00    -0.206 F 
ATOM     85  C   UNL     1      22.189   1.881   5.018  1.00  0.00     0.006 A 
ENDBRANCH  61  78
ENDBRANCH  35  36
ENDBRANCH  27  30
ENDBRANCH  25  26
ENDBRANCH  24  25
ENDBRANCH  23  24
ENDBRANCH  22  23
ENDBRANCH   3  22
TORSDOF 18
