REMARK SMILES CS(=O)(=O)CC(=O)N1CCO[C@@H](CC(=O)NCCCCNC(=O)c2ccc(-c3c4nc(c(-c5c(F)cccc5F)c5ccc([nH]5)c(-c5c(F)cccc5F)c5nc(c(-c6c(F)cccc6F)c6ccc3[nH]6)C=C5)C=C4)cc2)C1
REMARK SMILES IDX 17 1 16 2 14 3 15 4 13 6 12 7 8 8 9 9 78 10 10 11 11 12 6 13
REMARK SMILES IDX 7 14 5 15 2 16 1 17 3 18 4 19 18 20 19 21 20 22 21 23 22 24
REMARK SMILES IDX 23 26 24 27 25 28 77 29 26 30 76 31 27 32 28 33 29 34 70 35
REMARK SMILES IDX 30 36 75 37 69 38 71 39 31 40 74 41 68 42 67 43 32 45 58 46
REMARK SMILES IDX 41 47 57 48 42 49 45 50 56 51 72 52 43 53 44 54 55 56 73 57
REMARK SMILES IDX 46 58 33 59 34 60 39 61 35 62 36 63 38 64 40 65 37 66 59 67
REMARK SMILES IDX 60 68 65 69 61 70 62 71 64 72 66 73 63 74 47 75 48 76 53 77
REMARK SMILES IDX 49 78 50 79 52 80 54 81 51 82
REMARK H PARENT 16 5 21 25 71 44 45 55
REMARK Flexibility Score: inf
ROOT
ATOM      1  C   UNL     1      -1.250   5.589   4.137  1.00  0.00     0.116 C 
ENDROOT
BRANCH   1   2
ATOM      2  N   UNL     1      -1.604   6.725   3.300  1.00  0.00    -0.356 N 
ATOM      3  C   UNL     1      -2.550   6.849   2.324  1.00  0.00     0.222 C 
ATOM      4  O   UNL     1      -2.567   7.884   1.657  1.00  0.00    -0.275 OA
ATOM      5  H   UNL     1      -1.073   7.538   3.464  1.00  0.00     0.163 HD
BRANCH   3   6
ATOM      6  C   UNL     1      -3.536   5.734   2.049  1.00  0.00     0.133 C 
BRANCH   6   7
ATOM      7  C   UNL     1      -3.152   4.871   0.842  1.00  0.00     0.147 C 
ATOM      8  N   UNL     1      -1.427   3.171   0.125  1.00  0.00    -0.337 N 
ATOM      9  C   UNL     1      -2.508   2.197   0.009  1.00  0.00     0.148 C 
ATOM     10  C   UNL     1      -1.763   4.252   1.035  1.00  0.00     0.152 C 
ATOM     11  C   UNL     1      -3.826   2.897  -0.308  1.00  0.00     0.182 C 
ATOM     12  O   UNL     1      -4.154   3.837   0.727  1.00  0.00    -0.374 OA
BRANCH   8  13
ATOM     13  C   UNL     1      -0.132   2.675   0.243  1.00  0.00     0.237 C 
ATOM     14  O   UNL     1       0.369   2.389   1.329  1.00  0.00    -0.274 OA
BRANCH  13  15
ATOM     15  C   UNL     1       0.662   2.642  -1.021  1.00  0.00     0.236 C 
BRANCH  15  16
ATOM     16  S   UNL     1       0.753   1.014  -1.698  1.00  0.00     0.156 S 
ATOM     17  C   UNL     1       1.069  -0.082  -0.332  1.00  0.00     0.158 C 
ATOM     18  O   UNL     1       1.922   0.976  -2.559  1.00  0.00    -0.229 OA
ATOM     19  O   UNL     1      -0.550   0.677  -2.242  1.00  0.00    -0.229 OA
ENDBRANCH  15  16
ENDBRANCH  13  15
ENDBRANCH   8  13
ENDBRANCH   6   7
ENDBRANCH   3   6
ENDBRANCH   1   2
BRANCH   1  20
ATOM     20  C   UNL     1       0.040   4.923   3.650  1.00  0.00     0.023 C 
BRANCH  20  21
ATOM     21  C   UNL     1       1.328   5.543   4.161  1.00  0.00     0.023 C 
BRANCH  21  22
ATOM     22  C   UNL     1       1.589   5.287   5.630  1.00  0.00     0.116 C 
BRANCH  22  23
ATOM     23  N   UNL     1       1.720   3.874   5.964  1.00  0.00    -0.352 N 
ATOM     24  C   UNL     1       2.626   3.275   6.810  1.00  0.00     0.251 C 
ATOM     25  H   UNL     1       1.078   3.270   5.527  1.00  0.00     0.163 HD
ATOM     26  O   UNL     1       2.664   2.059   6.932  1.00  0.00    -0.269 OA
BRANCH  24  27
ATOM     27  C   UNL     1       3.588   4.131   7.532  1.00  0.00     0.039 A 
ATOM     28  C   UNL     1       4.944   3.801   7.504  1.00  0.00     0.014 A 
ATOM     29  C   UNL     1       3.154   5.305   8.151  1.00  0.00     0.014 A 
ATOM     30  C   UNL     1       5.875   4.693   8.036  1.00  0.00     0.010 A 
ATOM     31  C   UNL     1       4.087   6.241   8.568  1.00  0.00     0.010 A 
ATOM     32  C   UNL     1       5.455   5.936   8.535  1.00  0.00    -0.014 A 
BRANCH  32  33
ATOM     33  C   UNL     1       6.415   6.921   9.089  1.00  0.00     0.031 A 
ATOM     34  C   UNL     1       6.281   7.344  10.527  1.00  0.00     0.074 A 
ATOM     35  C   UNL     1       7.340   7.490   8.293  1.00  0.00     0.049 A 
ATOM     36  N   UNL     1       6.926   8.275  11.181  1.00  0.00    -0.248 NA
ATOM     37  C   UNL     1       5.245   6.662  11.322  1.00  0.00     0.031 C 
ATOM     38  C   UNL     1       7.525   7.213   6.867  1.00  0.00     0.029 A 
ATOM     39  N   UNL     1       8.295   8.434   8.574  1.00  0.00    -0.354 N 
ATOM     40  C   UNL     1       6.346   8.314  12.442  1.00  0.00     0.074 A 
ATOM     41  C   UNL     1       5.257   7.364  12.443  1.00  0.00     0.031 C 
ATOM     42  C   UNL     1       8.554   7.945   6.407  1.00  0.00     0.029 A 
ATOM     43  C   UNL     1       9.078   8.764   7.495  1.00  0.00     0.049 A 
ATOM     44  H   UNL     1       8.408   8.836   9.465  1.00  0.00     0.167 HD
ATOM     45  C   UNL     1       6.709   9.050  13.518  1.00  0.00     0.037 A 
ATOM     46  C   UNL     1      10.107   9.627   7.403  1.00  0.00     0.037 A 
ATOM     47  C   UNL     1       7.836   9.941  13.533  1.00  0.00     0.049 A 
ATOM     48  C   UNL     1      10.536  10.384   8.629  1.00  0.00     0.074 A 
ATOM     49  C   UNL     1       8.338  10.681  14.588  1.00  0.00     0.029 A 
ATOM     50  N   UNL     1       8.649  10.194  12.438  1.00  0.00    -0.354 N 
ATOM     51  N   UNL     1      10.016  10.371   9.833  1.00  0.00    -0.248 NA
ATOM     52  C   UNL     1      11.703  11.266   8.488  1.00  0.00     0.031 C 
ATOM     53  C   UNL     1       9.445  11.400  14.124  1.00  0.00     0.029 A 
ATOM     54  C   UNL     1       9.651  11.079  12.792  1.00  0.00     0.049 A 
ATOM     55  H   UNL     1       8.530   9.802  11.543  1.00  0.00     0.167 HD
ATOM     56  C   UNL     1      10.810  11.213  10.600  1.00  0.00     0.074 A 
ATOM     57  C   UNL     1      11.852  11.714   9.727  1.00  0.00     0.031 C 
ATOM     58  C   UNL     1      10.690  11.543  11.909  1.00  0.00     0.037 A 
BRANCH  45  59
ATOM     59  C   UNL     1       5.888   8.896  14.764  1.00  0.00     0.057 A 
ATOM     60  C   UNL     1       5.907   7.716  15.521  1.00  0.00     0.134 A 
ATOM     61  C   UNL     1       5.066   9.937  15.213  1.00  0.00     0.134 A 
ATOM     62  F   UNL     1       6.658   6.673  15.135  1.00  0.00    -0.206 F 
ATOM     63  C   UNL     1       5.112   7.563  16.657  1.00  0.00     0.040 A 
ATOM     64  C   UNL     1       4.288   9.807  16.365  1.00  0.00     0.040 A 
ATOM     65  F   UNL     1       5.002  11.094  14.537  1.00  0.00    -0.206 F 
ATOM     66  C   UNL     1       4.303   8.614  17.085  1.00  0.00     0.006 A 
ENDBRANCH  45  59
BRANCH  46  67
ATOM     67  C   UNL     1      10.837   9.782   6.120  1.00  0.00     0.057 A 
ATOM     68  C   UNL     1      12.131   9.269   5.965  1.00  0.00     0.134 A 
ATOM     69  C   UNL     1      10.271  10.444   5.025  1.00  0.00     0.134 A 
ATOM     70  F   UNL     1      12.732   8.638   6.985  1.00  0.00    -0.206 F 
ATOM     71  C   UNL     1      12.844   9.428   4.777  1.00  0.00     0.040 A 
ATOM     72  C   UNL     1      10.964  10.591   3.822  1.00  0.00     0.040 A 
ATOM     73  F   UNL     1       9.031  10.948   5.107  1.00  0.00    -0.206 F 
ATOM     74  C   UNL     1      12.258  10.088   3.699  1.00  0.00     0.006 A 
ENDBRANCH  46  67
BRANCH  58  75
ATOM     75  C   UNL     1      11.739  12.444  12.486  1.00  0.00     0.057 A 
ATOM     76  C   UNL     1      11.773  13.814  12.203  1.00  0.00     0.134 A 
ATOM     77  C   UNL     1      12.697  11.938  13.374  1.00  0.00     0.134 A 
ATOM     78  F   UNL     1      10.889  14.355  11.352  1.00  0.00    -0.206 F 
ATOM     79  C   UNL     1      12.739  14.648  12.767  1.00  0.00     0.040 A 
ATOM     80  C   UNL     1      13.653  12.765  13.962  1.00  0.00     0.040 A 
ATOM     81  F   UNL     1      12.709  10.634  13.692  1.00  0.00    -0.206 F 
ATOM     82  C   UNL     1      13.678  14.124  13.655  1.00  0.00     0.006 A 
ENDBRANCH  58  75
ENDBRANCH  32  33
ENDBRANCH  24  27
ENDBRANCH  22  23
ENDBRANCH  21  22
ENDBRANCH  20  21
ENDBRANCH   1  20
TORSDOF 15
