REMARK SMILES C[N@@H+]1CCC[C@@H](C[NH2+]CC(=O)NCCCCNC(=O)c2ccc(-c3c4nc(c(-c5c(F)cccc5F)c5ccc([nH]5)c(-c5c(F)cccc5F)c5nc(c(-c6c(F)cccc6F)c6ccc3[nH]6)C=C5)C=C4)cc2)C1
REMARK SMILES IDX 14 1 13 2 12 3 10 4 11 5 9 7 8 8 7 11 6 12 1 13 2 14 3 15
REMARK SMILES IDX 74 16 4 18 5 19 15 20 16 21 17 22 18 23 19 25 20 26 21 27
REMARK SMILES IDX 73 28 22 29 72 30 23 31 24 32 25 33 66 34 26 35 71 36 65 37
REMARK SMILES IDX 67 38 27 39 70 40 64 41 63 42 28 44 54 45 37 46 53 47 38 48
REMARK SMILES IDX 41 49 52 50 68 51 39 52 40 53 51 55 69 56 42 57 29 58 30 59
REMARK SMILES IDX 35 60 31 61 32 62 34 63 36 64 33 65 55 66 56 67 61 68 57 69
REMARK SMILES IDX 58 70 60 71 62 72 59 73 43 74 44 75 49 76 45 77 46 78 48 79
REMARK SMILES IDX 50 80 47 81
REMARK H PARENT 12 6 8 9 8 10 2 17 17 24 67 43 41 54
REMARK Flexibility Score: inf
ROOT
ATOM      1  C   UNL     1       1.180   1.143   2.809  1.00  0.00     0.023 C 
ENDROOT
BRANCH   1   2
ATOM      2  C   UNL     1       1.500   0.311   4.049  1.00  0.00     0.116 C 
BRANCH   2   3
ATOM      3  N   UNL     1       0.321  -0.409   4.486  1.00  0.00    -0.351 N 
ATOM      4  C   UNL     1      -0.109  -1.656   4.127  1.00  0.00     0.275 C 
ATOM      5  O   UNL     1      -1.275  -1.958   4.396  1.00  0.00    -0.269 OA
ATOM      6  H   UNL     1      -0.251   0.066   5.131  1.00  0.00     0.163 HD
BRANCH   4   7
ATOM      7  C   UNL     1       0.826  -2.658   3.424  1.00  0.00     0.361 C 
BRANCH   7   8
ATOM      8  N   UNL     1       0.515  -2.805   1.982  1.00  0.00    -0.338 N 
ATOM      9  H   UNL     1       0.751  -3.754   1.689  1.00  0.00     0.346 HD
ATOM     10  H   UNL     1      -0.479  -2.616   1.853  1.00  0.00     0.346 HD
BRANCH   8  11
ATOM     11  C   UNL     1       1.267  -1.857   1.161  1.00  0.00     0.270 C 
BRANCH  11  12
ATOM     12  C   UNL     1       0.887  -1.782  -0.334  1.00  0.00     0.099 C 
ATOM     13  C   UNL     1      -2.485  -0.079  -0.212  1.00  0.00     0.332 C 
ATOM     14  N   UNL     1      -1.029  -0.210  -0.145  1.00  0.00    -0.337 N 
ATOM     15  C   UNL     1      -0.382   0.817  -0.971  1.00  0.00     0.262 C 
ATOM     16  C   UNL     1      -0.611  -1.548  -0.591  1.00  0.00     0.271 C 
ATOM     17  H   UNL     1      -0.741  -0.082   0.825  1.00  0.00     0.347 HD
ATOM     18  C   UNL     1       1.140   0.740  -0.857  1.00  0.00     0.062 C 
ATOM     19  C   UNL     1       1.702  -0.674  -1.046  1.00  0.00     0.021 C 
ENDBRANCH  11  12
ENDBRANCH   8  11
ENDBRANCH   7   8
ENDBRANCH   4   7
ENDBRANCH   2   3
ENDBRANCH   1   2
BRANCH   1  20
ATOM     20  C   UNL     1       0.796   2.590   3.036  1.00  0.00     0.023 C 
BRANCH  20  21
ATOM     21  C   UNL     1       1.951   3.481   3.447  1.00  0.00     0.116 C 
BRANCH  21  22
ATOM     22  N   UNL     1       3.029   3.558   2.466  1.00  0.00    -0.352 N 
ATOM     23  C   UNL     1       3.698   4.657   1.976  1.00  0.00     0.251 C 
ATOM     24  H   UNL     1       3.322   2.693   2.098  1.00  0.00     0.163 HD
ATOM     25  O   UNL     1       4.543   4.520   1.095  1.00  0.00    -0.269 OA
BRANCH  23  26
ATOM     26  C   UNL     1       3.356   6.008   2.470  1.00  0.00     0.039 A 
ATOM     27  C   UNL     1       3.251   7.058   1.555  1.00  0.00     0.014 A 
ATOM     28  C   UNL     1       3.064   6.226   3.816  1.00  0.00     0.014 A 
ATOM     29  C   UNL     1       2.750   8.291   1.976  1.00  0.00     0.010 A 
ATOM     30  C   UNL     1       2.435   7.401   4.202  1.00  0.00     0.010 A 
ATOM     31  C   UNL     1       2.279   8.452   3.290  1.00  0.00    -0.014 A 
BRANCH  31  32
ATOM     32  C   UNL     1       1.622   9.709   3.729  1.00  0.00     0.031 A 
ATOM     33  C   UNL     1       2.187  10.495   4.882  1.00  0.00     0.074 A 
ATOM     34  C   UNL     1       0.476  10.103   3.138  1.00  0.00     0.049 A 
ATOM     35  N   UNL     1       1.735  11.592   5.434  1.00  0.00    -0.248 NA
ATOM     36  C   UNL     1       3.394   9.955   5.530  1.00  0.00     0.031 C 
ATOM     37  C   UNL     1      -0.225   9.379   2.074  1.00  0.00     0.029 A 
ATOM     38  N   UNL     1      -0.303  11.212   3.350  1.00  0.00    -0.354 N 
ATOM     39  C   UNL     1       2.586  11.855   6.500  1.00  0.00     0.074 A 
ATOM     40  C   UNL     1       3.534  10.767   6.566  1.00  0.00     0.031 C 
ATOM     41  C   UNL     1      -1.299  10.088   1.692  1.00  0.00     0.029 A 
ATOM     42  C   UNL     1      -1.383  11.297   2.504  1.00  0.00     0.049 A 
ATOM     43  H   UNL     1      -0.107  11.884   4.042  1.00  0.00     0.167 HD
ATOM     44  C   UNL     1       2.602  12.925   7.328  1.00  0.00     0.037 A 
ATOM     45  C   UNL     1      -2.327  12.249   2.390  1.00  0.00     0.037 A 
ATOM     46  C   UNL     1       1.688  14.031   7.228  1.00  0.00     0.049 A 
ATOM     47  C   UNL     1      -2.260  13.453   3.286  1.00  0.00     0.074 A 
ATOM     48  C   UNL     1       1.669  15.204   7.961  1.00  0.00     0.029 A 
ATOM     49  N   UNL     1       0.632  14.099   6.332  1.00  0.00    -0.354 N 
ATOM     50  N   UNL     1      -1.394  13.733   4.231  1.00  0.00    -0.248 NA
ATOM     51  C   UNL     1      -3.293  14.480   3.094  1.00  0.00     0.031 C 
ATOM     52  C   UNL     1       0.578  15.967   7.531  1.00  0.00     0.029 A 
ATOM     53  C   UNL     1      -0.056  15.287   6.504  1.00  0.00     0.049 A 
ATOM     54  H   UNL     1       0.405  13.404   5.672  1.00  0.00     0.167 HD
ATOM     55  C   UNL     1      -1.765  14.973   4.732  1.00  0.00     0.074 A 
ATOM     56  C   UNL     1      -2.921  15.402   3.970  1.00  0.00     0.031 C 
ATOM     57  C   UNL     1      -1.204  15.693   5.734  1.00  0.00     0.037 A 
BRANCH  44  58
ATOM     58  C   UNL     1       3.658  12.957   8.394  1.00  0.00     0.057 A 
ATOM     59  C   UNL     1       5.015  13.130   8.085  1.00  0.00     0.134 A 
ATOM     60  C   UNL     1       3.317  12.827   9.746  1.00  0.00     0.134 A 
ATOM     61  F   UNL     1       5.412  13.243   6.808  1.00  0.00    -0.206 F 
ATOM     62  C   UNL     1       5.996  13.141   9.078  1.00  0.00     0.040 A 
ATOM     63  C   UNL     1       4.286  12.866  10.750  1.00  0.00     0.040 A 
ATOM     64  F   UNL     1       2.037  12.661  10.113  1.00  0.00    -0.206 F 
ATOM     65  C   UNL     1       5.631  13.015  10.416  1.00  0.00     0.006 A 
ENDBRANCH  44  58
BRANCH  45  66
ATOM     66  C   UNL     1      -3.385  12.129   1.355  1.00  0.00     0.057 A 
ATOM     67  C   UNL     1      -3.388  12.962   0.230  1.00  0.00     0.134 A 
ATOM     68  C   UNL     1      -4.413  11.186   1.461  1.00  0.00     0.134 A 
ATOM     69  F   UNL     1      -2.437  13.897   0.080  1.00  0.00    -0.206 F 
ATOM     70  C   UNL     1      -4.385  12.876  -0.743  1.00  0.00     0.040 A 
ATOM     71  C   UNL     1      -5.404  11.073   0.484  1.00  0.00     0.040 A 
ATOM     72  F   UNL     1      -4.461  10.352   2.510  1.00  0.00    -0.206 F 
ATOM     73  C   UNL     1      -5.395  11.925  -0.619  1.00  0.00     0.006 A 
ENDBRANCH  45  66
BRANCH  57  74
ATOM     74  C   UNL     1      -1.824  17.021   6.047  1.00  0.00     0.057 A 
ATOM     75  C   UNL     1      -3.063  17.122   6.692  1.00  0.00     0.134 A 
ATOM     76  C   UNL     1      -1.161  18.212   5.723  1.00  0.00     0.134 A 
ATOM     77  F   UNL     1      -3.753  16.018   7.016  1.00  0.00    -0.206 F 
ATOM     78  C   UNL     1      -3.634  18.362   6.980  1.00  0.00     0.040 A 
ATOM     79  C   UNL     1      -1.710  19.457   6.030  1.00  0.00     0.040 A 
ATOM     80  F   UNL     1       0.033  18.183   5.113  1.00  0.00    -0.206 F 
ATOM     81  C   UNL     1      -2.954  19.534   6.654  1.00  0.00     0.006 A 
ENDBRANCH  57  74
ENDBRANCH  31  32
ENDBRANCH  23  26
ENDBRANCH  21  22
ENDBRANCH  20  21
ENDBRANCH   1  20
TORSDOF 14
