REMARK SMILES O=C(C[C@@H]1CSCC[NH2+]1)NC[C@H]1CC[C@@H](C(=O)NCCCCNC(=O)c2ccc(-c3c4nc(c(-c5c(F)cccc5F)c5ccc([nH]5)c(-c5c(F)cccc5F)c5nc(c(-c6c(F)cccc6F)c6ccc3[nH]6)C=C5)C=C4)cc2)O1
REMARK SMILES IDX 19 1 18 2 16 3 17 4 15 6 12 7 13 8 80 9 14 10 11 11 10 12
REMARK SMILES IDX 1 13 2 14 3 16 4 17 5 18 9 19 6 20 8 21 7 24 20 25 21 26
REMARK SMILES IDX 22 27 23 28 24 29 25 31 26 32 27 33 79 34 28 35 78 36 29 37
REMARK SMILES IDX 30 38 31 39 72 40 32 41 77 42 71 43 73 44 33 45 76 46 70 47
REMARK SMILES IDX 69 48 34 50 60 51 43 52 59 53 44 54 47 55 58 56 74 57 45 58
REMARK SMILES IDX 46 59 57 61 75 62 48 63 35 64 36 65 41 66 37 67 38 68 40 69
REMARK SMILES IDX 42 70 39 71 61 72 62 73 67 74 63 75 64 76 66 77 68 78 65 79
REMARK SMILES IDX 49 80 50 81 55 82 51 83 52 84 54 85 56 86 53 87
REMARK H PARENT 18 5 10 15 9 22 9 23 23 30 73 49 47 60
REMARK Flexibility Score: inf
ROOT
ATOM      1  C   UNL     1       1.739   1.463  -6.360  1.00  0.00     0.116 C 
ENDROOT
BRANCH   1   2
ATOM      2  N   UNL     1       1.478   2.858  -6.072  1.00  0.00    -0.354 N 
ATOM      3  C   UNL     1       1.175   3.499  -4.913  1.00  0.00     0.249 C 
ATOM      4  O   UNL     1       0.993   4.721  -4.995  1.00  0.00    -0.272 OA
ATOM      5  H   UNL     1       1.530   3.449  -6.858  1.00  0.00     0.163 HD
BRANCH   3   6
ATOM      6  C   UNL     1       1.083   2.792  -3.532  1.00  0.00     0.207 C 
ATOM      7  C   UNL     1       2.450   1.173  -2.509  1.00  0.00     0.138 C 
ATOM      8  C   UNL     1       2.500   2.413  -1.642  1.00  0.00     0.037 C 
ATOM      9  O   UNL     1       1.313   1.392  -3.377  1.00  0.00    -0.363 OA
ATOM     10  C   UNL     1       2.045   3.502  -2.577  1.00  0.00     0.045 C 
BRANCH   7  11
ATOM     11  C   UNL     1       3.665   0.896  -3.407  1.00  0.00     0.147 C 
BRANCH  11  12
ATOM     12  N   UNL     1       4.986   1.043  -2.835  1.00  0.00    -0.353 N 
ATOM     13  O   UNL     1       5.952  -0.333  -4.397  1.00  0.00    -0.275 OA
ATOM     14  C   UNL     1       6.066   0.484  -3.486  1.00  0.00     0.226 C 
ATOM     15  H   UNL     1       5.112   1.535  -1.992  1.00  0.00     0.163 HD
BRANCH  14  16
ATOM     16  C   UNL     1       7.422   0.992  -3.054  1.00  0.00     0.165 C 
BRANCH  16  17
ATOM     17  C   UNL     1       7.908   2.309  -3.711  1.00  0.00     0.201 C 
ATOM     18  C   UNL     1       7.659   3.558  -2.843  1.00  0.00     0.135 C 
ATOM     19  N   UNL     1       7.593   2.518  -5.137  1.00  0.00    -0.342 N 
ATOM     20  S   UNL     1       5.933   4.100  -2.850  1.00  0.00    -0.150 SA
ATOM     21  C   UNL     1       6.241   3.011  -5.430  1.00  0.00     0.271 C 
ATOM     22  H   UNL     1       7.711   1.626  -5.617  1.00  0.00     0.346 HD
ATOM     23  H   UNL     1       8.228   3.249  -5.455  1.00  0.00     0.346 HD
ATOM     24  C   UNL     1       5.755   4.245  -4.657  1.00  0.00     0.131 C 
ENDBRANCH  16  17
ENDBRANCH  14  16
ENDBRANCH  11  12
ENDBRANCH   7  11
ENDBRANCH   3   6
ENDBRANCH   1   2
BRANCH   1  25
ATOM     25  C   UNL     1       0.672   0.850  -7.259  1.00  0.00     0.023 C 
BRANCH  25  26
ATOM     26  C   UNL     1       0.653   1.370  -8.697  1.00  0.00     0.023 C 
BRANCH  26  27
ATOM     27  C   UNL     1       1.978   1.301  -9.452  1.00  0.00     0.116 C 
BRANCH  27  28
ATOM     28  N   UNL     1       2.585  -0.021  -9.449  1.00  0.00    -0.352 N 
ATOM     29  C   UNL     1       3.164  -0.723 -10.481  1.00  0.00     0.251 C 
ATOM     30  H   UNL     1       2.580  -0.482  -8.580  1.00  0.00     0.163 HD
ATOM     31  O   UNL     1       3.546  -1.872 -10.306  1.00  0.00    -0.269 OA
BRANCH  29  32
ATOM     32  C   UNL     1       3.288  -0.103 -11.818  1.00  0.00     0.039 A 
ATOM     33  C   UNL     1       2.892  -0.844 -12.936  1.00  0.00     0.014 A 
ATOM     34  C   UNL     1       3.776   1.196 -11.973  1.00  0.00     0.014 A 
ATOM     35  C   UNL     1       2.908  -0.252 -14.200  1.00  0.00     0.010 A 
ATOM     36  C   UNL     1       3.733   1.806 -13.225  1.00  0.00     0.010 A 
ATOM     37  C   UNL     1       3.289   1.091 -14.348  1.00  0.00    -0.014 A 
BRANCH  37  38
ATOM     38  C   UNL     1       3.206   1.772 -15.664  1.00  0.00     0.031 A 
ATOM     39  C   UNL     1       4.452   2.259 -16.346  1.00  0.00     0.074 A 
ATOM     40  C   UNL     1       1.998   2.026 -16.204  1.00  0.00     0.049 A 
ATOM     41  N   UNL     1       4.573   2.949 -17.452  1.00  0.00    -0.248 NA
ATOM     42  C   UNL     1       5.730   1.956 -15.684  1.00  0.00     0.031 C 
ATOM     43  C   UNL     1       0.710   1.659 -15.611  1.00  0.00     0.029 A 
ATOM     44  N   UNL     1       1.656   2.670 -17.366  1.00  0.00    -0.354 N 
ATOM     45  C   UNL     1       5.933   3.184 -17.603  1.00  0.00     0.074 A 
ATOM     46  C   UNL     1       6.594   2.595 -16.459  1.00  0.00     0.031 C 
ATOM     47  C   UNL     1      -0.280   2.072 -16.419  1.00  0.00     0.029 A 
ATOM     48  C   UNL     1       0.300   2.757 -17.569  1.00  0.00     0.049 A 
ATOM     49  H   UNL     1       2.319   3.034 -17.996  1.00  0.00     0.167 HD
ATOM     50  C   UNL     1       6.573   3.819 -18.614  1.00  0.00     0.037 A 
ATOM     51  C   UNL     1      -0.398   3.330 -18.568  1.00  0.00     0.037 A 
ATOM     52  C   UNL     1       5.919   4.366 -19.773  1.00  0.00     0.049 A 
ATOM     53  C   UNL     1       0.339   3.994 -19.696  1.00  0.00     0.074 A 
ATOM     54  C   UNL     1       6.491   4.951 -20.889  1.00  0.00     0.029 A 
ATOM     55  N   UNL     1       4.547   4.393 -19.965  1.00  0.00    -0.354 N 
ATOM     56  N   UNL     1       1.631   4.142 -19.863  1.00  0.00    -0.248 NA
ATOM     57  C   UNL     1      -0.477   4.565 -20.776  1.00  0.00     0.031 C 
ATOM     58  C   UNL     1       5.462   5.360 -21.744  1.00  0.00     0.029 A 
ATOM     59  C   UNL     1       4.252   4.999 -21.175  1.00  0.00     0.049 A 
ATOM     60  H   UNL     1       3.881   4.034 -19.335  1.00  0.00     0.167 HD
ATOM     61  C   UNL     1       1.783   4.801 -21.076  1.00  0.00     0.074 A 
ATOM     62  C   UNL     1       0.453   5.013 -21.609  1.00  0.00     0.031 C 
ATOM     63  C   UNL     1       2.923   5.195 -21.693  1.00  0.00     0.037 A 
BRANCH  50  64
ATOM     64  C   UNL     1       8.063   3.948 -18.513  1.00  0.00     0.057 A 
ATOM     65  C   UNL     1       8.913   2.850 -18.700  1.00  0.00     0.134 A 
ATOM     66  C   UNL     1       8.657   5.192 -18.264  1.00  0.00     0.134 A 
ATOM     67  F   UNL     1       8.405   1.630 -18.930  1.00  0.00    -0.206 F 
ATOM     68  C   UNL     1      10.300   2.980 -18.619  1.00  0.00     0.040 A 
ATOM     69  C   UNL     1      10.043   5.338 -18.203  1.00  0.00     0.040 A 
ATOM     70  F   UNL     1       7.899   6.284 -18.081  1.00  0.00    -0.206 F 
ATOM     71  C   UNL     1      10.869   4.229 -18.376  1.00  0.00     0.006 A 
ENDBRANCH  50  64
BRANCH  51  72
ATOM     72  C   UNL     1      -1.880   3.282 -18.559  1.00  0.00     0.057 A 
ATOM     73  C   UNL     1      -2.579   2.457 -19.447  1.00  0.00     0.134 A 
ATOM     74  C   UNL     1      -2.631   4.062 -17.672  1.00  0.00     0.134 A 
ATOM     75  F   UNL     1      -1.912   1.702 -20.333  1.00  0.00    -0.206 F 
ATOM     76  C   UNL     1      -3.974   2.421 -19.468  1.00  0.00     0.040 A 
ATOM     77  C   UNL     1      -4.027   4.021 -17.667  1.00  0.00     0.040 A 
ATOM     78  F   UNL     1      -2.019   4.867 -16.792  1.00  0.00    -0.206 F 
ATOM     79  C   UNL     1      -4.701   3.203 -18.572  1.00  0.00     0.006 A 
ENDBRANCH  51  72
BRANCH  63  80
ATOM     80  C   UNL     1       2.782   5.869 -23.024  1.00  0.00     0.057 A 
ATOM     81  C   UNL     1       2.339   7.192 -23.135  1.00  0.00     0.134 A 
ATOM     82  C   UNL     1       3.127   5.197 -24.203  1.00  0.00     0.134 A 
ATOM     83  F   UNL     1       1.980   7.883 -22.043  1.00  0.00    -0.206 F 
ATOM     84  C   UNL     1       2.228   7.820 -24.377  1.00  0.00     0.040 A 
ATOM     85  C   UNL     1       3.040   5.821 -25.448  1.00  0.00     0.040 A 
ATOM     86  F   UNL     1       3.564   3.929 -24.163  1.00  0.00    -0.206 F 
ATOM     87  C   UNL     1       2.585   7.135 -25.537  1.00  0.00     0.006 A 
ENDBRANCH  63  80
ENDBRANCH  37  38
ENDBRANCH  29  32
ENDBRANCH  27  28
ENDBRANCH  26  27
ENDBRANCH  25  26
ENDBRANCH   1  25
TORSDOF 15
