REMARK SMILES COC(=O)c1ccc([C@H]2CC(=O)Nc3c(C(=O)NCCCCNC(=O)c4ccc(-c5c6nc(c(-c7c(F)cccc7F)c7ccc([nH]7)c(-c7c(F)cccc7F)c7nc(c(-c8c(F)cccc8F)c8ccc5[nH]8)C=C7)C=C6)cc4)cn(-c4cc(OC)ccc4OC)c32)cc1
REMARK SMILES IDX 20 1 19 2 18 3 16 4 17 5 15 7 9 8 10 9 92 10 11 11 14 12
REMARK SMILES IDX 81 13 12 14 13 15 80 16 8 18 5 19 6 20 94 21 7 22 93 23 3 24
REMARK SMILES IDX 4 25 2 26 1 27 82 28 83 29 89 30 84 31 88 32 87 33 90 34
REMARK SMILES IDX 91 35 85 36 86 37 21 38 22 39 23 40 24 41 25 43 26 44 27 45
REMARK SMILES IDX 79 46 28 47 78 48 29 49 30 50 31 51 72 52 32 53 77 54 71 55
REMARK SMILES IDX 73 56 33 57 76 58 70 59 69 60 34 62 60 63 43 64 59 65 44 66
REMARK SMILES IDX 47 67 58 68 74 69 45 70 46 71 57 73 75 74 48 75 35 76 36 77
REMARK SMILES IDX 41 78 37 79 38 80 40 81 42 82 39 83 61 84 62 85 67 86 63 87
REMARK SMILES IDX 64 88 66 89 68 90 65 91 49 92 50 93 55 94 51 95 52 96 54 97
REMARK SMILES IDX 56 98 53 99
REMARK H PARENT 18 6 13 17 23 42 73 61 47 72
REMARK Flexibility Score: inf
ROOT
ATOM      1  C   UNL     1      -6.735   6.895   4.219  1.00  0.00     0.023 C 
ENDROOT
BRANCH   1   2
ATOM      2  C   UNL     1      -6.312   6.847   2.746  1.00  0.00     0.116 C 
BRANCH   2   3
ATOM      3  N   UNL     1      -5.703   8.077   2.309  1.00  0.00    -0.352 N 
ATOM      4  C   UNL     1      -4.418   8.537   2.251  1.00  0.00     0.254 C 
ATOM      5  O   UNL     1      -4.299   9.612   1.652  1.00  0.00    -0.269 OA
ATOM      6  H   UNL     1      -6.359   8.732   1.979  1.00  0.00     0.163 HD
BRANCH   4   7
ATOM      7  C   UNL     1      -3.235   7.911   2.864  1.00  0.00     0.081 A 
ATOM      8  C   UNL     1      -0.913   6.043   5.157  1.00  0.00     0.078 C 
ATOM      9  C   UNL     1      -1.944   5.244   5.962  1.00  0.00     0.115 C 
ATOM     10  C   UNL     1      -1.590   6.944   4.142  1.00  0.00     0.055 A 
ATOM     11  C   UNL     1      -3.226   4.944   5.236  1.00  0.00     0.225 C 
ATOM     12  C   UNL     1      -2.926   6.862   3.785  1.00  0.00     0.076 A 
ATOM     13  N   UNL     1      -1.014   7.958   3.393  1.00  0.00    -0.314 N 
ATOM     14  O   UNL     1      -3.925   3.973   5.528  1.00  0.00    -0.275 OA
ATOM     15  N   UNL     1      -3.680   5.850   4.324  1.00  0.00    -0.324 N 
ATOM     16  C   UNL     1      -1.984   8.447   2.557  1.00  0.00     0.107 A 
ATOM     17  H   UNL     1      -4.617   5.773   4.031  1.00  0.00     0.170 HD
BRANCH   8  18
ATOM     18  C   UNL     1       0.021   6.707   6.169  1.00  0.00    -0.038 A 
ATOM     19  C   UNL     1       1.921   7.924   7.860  1.00  0.00     0.060 A 
ATOM     20  C   UNL     1       1.995   6.554   7.587  1.00  0.00     0.016 A 
ATOM     21  C   UNL     1       0.841   8.661   7.368  1.00  0.00     0.016 A 
ATOM     22  C   UNL     1       1.059   5.954   6.740  1.00  0.00     0.005 A 
ATOM     23  C   UNL     1      -0.123   8.043   6.569  1.00  0.00     0.005 A 
BRANCH  19  24
ATOM     24  C   UNL     1       3.030   8.553   8.624  1.00  0.00     0.337 C 
ATOM     25  O   UNL     1       4.031   7.951   8.979  1.00  0.00    -0.246 OA
BRANCH  24  26
ATOM     26  O   UNL     1       2.785   9.873   8.820  1.00  0.00    -0.465 OA
ATOM     27  C   UNL     1       3.848  10.573   9.466  1.00  0.00     0.282 C 
ENDBRANCH  24  26
ENDBRANCH  19  24
ENDBRANCH   8  18
BRANCH  13  28
ATOM     28  C   UNL     1       0.319   8.427   3.444  1.00  0.00     0.091 A 
ATOM     29  C   UNL     1       1.324   7.450   3.273  1.00  0.00     0.077 A 
ATOM     30  C   UNL     1       0.672   9.752   3.749  1.00  0.00     0.143 A 
ATOM     31  C   UNL     1       2.670   7.748   3.486  1.00  0.00     0.121 A 
ATOM     32  C   UNL     1       2.040  10.030   3.926  1.00  0.00     0.052 A 
ATOM     33  C   UNL     1       3.027   9.046   3.819  1.00  0.00     0.050 A 
BRANCH  30  34
ATOM     34  O   UNL     1      -0.058  10.875   3.999  1.00  0.00    -0.495 OA
ATOM     35  C   UNL     1      -1.461  10.896   4.168  1.00  0.00     0.278 C 
ENDBRANCH  30  34
BRANCH  31  36
ATOM     36  O   UNL     1       3.528   6.694   3.343  1.00  0.00    -0.497 OA
ATOM     37  C   UNL     1       4.813   6.848   3.937  1.00  0.00     0.278 C 
ENDBRANCH  31  36
ENDBRANCH  13  28
ENDBRANCH   4   7
ENDBRANCH   2   3
ENDBRANCH   1   2
BRANCH   1  38
ATOM     38  C   UNL     1      -8.161   7.412   4.464  1.00  0.00     0.023 C 
BRANCH  38  39
ATOM     39  C   UNL     1      -9.273   6.456   4.032  1.00  0.00     0.116 C 
BRANCH  39  40
ATOM     40  N   UNL     1      -9.261   5.187   4.761  1.00  0.00    -0.352 N 
ATOM     41  C   UNL     1      -9.794   3.972   4.363  1.00  0.00     0.251 C 
ATOM     42  H   UNL     1      -8.820   5.198   5.641  1.00  0.00     0.163 HD
ATOM     43  O   UNL     1     -10.098   3.110   5.166  1.00  0.00    -0.269 OA
BRANCH  41  44
ATOM     44  C   UNL     1      -9.966   3.742   2.919  1.00  0.00     0.039 A 
ATOM     45  C   UNL     1     -11.158   3.240   2.393  1.00  0.00     0.014 A 
ATOM     46  C   UNL     1      -8.913   4.123   2.092  1.00  0.00     0.014 A 
ATOM     47  C   UNL     1     -11.318   3.215   1.009  1.00  0.00     0.010 A 
ATOM     48  C   UNL     1      -9.127   4.230   0.742  1.00  0.00     0.010 A 
ATOM     49  C   UNL     1     -10.306   3.735   0.187  1.00  0.00    -0.014 A 
BRANCH  49  50
ATOM     50  C   UNL     1     -10.498   3.857  -1.255  1.00  0.00     0.031 A 
ATOM     51  C   UNL     1     -11.700   4.628  -1.691  1.00  0.00     0.074 A 
ATOM     52  C   UNL     1      -9.535   3.517  -2.139  1.00  0.00     0.049 A 
ATOM     53  N   UNL     1     -12.712   4.199  -2.372  1.00  0.00    -0.248 NA
ATOM     54  C   UNL     1     -11.840   6.024  -1.243  1.00  0.00     0.031 C 
ATOM     55  C   UNL     1      -8.170   3.045  -1.871  1.00  0.00     0.029 A 
ATOM     56  N   UNL     1      -9.542   3.640  -3.492  1.00  0.00    -0.354 N 
ATOM     57  C   UNL     1     -13.533   5.304  -2.597  1.00  0.00     0.074 A 
ATOM     58  C   UNL     1     -13.024   6.360  -1.760  1.00  0.00     0.031 C 
ATOM     59  C   UNL     1      -7.421   3.168  -2.987  1.00  0.00     0.029 A 
ATOM     60  C   UNL     1      -8.291   3.544  -4.085  1.00  0.00     0.049 A 
ATOM     61  H   UNL     1     -10.367   3.786  -4.010  1.00  0.00     0.167 HD
ATOM     62  C   UNL     1     -14.442   5.324  -3.612  1.00  0.00     0.037 A 
ATOM     63  C   UNL     1      -7.988   3.783  -5.383  1.00  0.00     0.037 A 
ATOM     64  C   UNL     1     -14.658   4.007  -4.151  1.00  0.00     0.049 A 
ATOM     65  C   UNL     1      -9.253   3.696  -6.153  1.00  0.00     0.074 A 
ATOM     66  C   UNL     1     -15.114   2.809  -3.639  1.00  0.00     0.029 A 
ATOM     67  N   UNL     1     -14.029   3.692  -5.331  1.00  0.00    -0.354 N 
ATOM     68  N   UNL     1      -9.919   2.589  -6.327  1.00  0.00    -0.248 NA
ATOM     69  C   UNL     1     -10.017   4.921  -6.336  1.00  0.00     0.031 C 
ATOM     70  C   UNL     1     -14.300   1.815  -4.258  1.00  0.00     0.029 A 
ATOM     71  C   UNL     1     -13.450   2.462  -5.157  1.00  0.00     0.049 A 
ATOM     72  H   UNL     1     -14.000   4.244  -6.146  1.00  0.00     0.167 HD
ATOM     73  C   UNL     1     -11.251   2.957  -6.206  1.00  0.00     0.074 A 
ATOM     74  C   UNL     1     -11.254   4.415  -6.306  1.00  0.00     0.031 C 
ATOM     75  C   UNL     1     -12.189   2.077  -5.746  1.00  0.00     0.037 A 
BRANCH  62  76
ATOM     76  C   UNL     1     -14.881   6.556  -4.361  1.00  0.00     0.057 A 
ATOM     77  C   UNL     1     -15.977   6.478  -5.243  1.00  0.00     0.134 A 
ATOM     78  C   UNL     1     -14.095   7.718  -4.483  1.00  0.00     0.134 A 
ATOM     79  F   UNL     1     -16.792   5.412  -5.234  1.00  0.00    -0.206 F 
ATOM     80  C   UNL     1     -16.225   7.449  -6.221  1.00  0.00     0.040 A 
ATOM     81  C   UNL     1     -14.364   8.718  -5.422  1.00  0.00     0.040 A 
ATOM     82  F   UNL     1     -12.972   7.896  -3.777  1.00  0.00    -0.206 F 
ATOM     83  C   UNL     1     -15.412   8.571  -6.318  1.00  0.00     0.006 A 
ENDBRANCH  62  76
BRANCH  63  84
ATOM     84  C   UNL     1      -6.743   4.346  -5.947  1.00  0.00     0.057 A 
ATOM     85  C   UNL     1      -6.443   4.223  -7.310  1.00  0.00     0.134 A 
ATOM     86  C   UNL     1      -5.951   5.253  -5.219  1.00  0.00     0.134 A 
ATOM     87  F   UNL     1      -7.166   3.412  -8.095  1.00  0.00    -0.206 F 
ATOM     88  C   UNL     1      -5.432   4.978  -7.921  1.00  0.00     0.040 A 
ATOM     89  C   UNL     1      -4.935   6.007  -5.814  1.00  0.00     0.040 A 
ATOM     90  F   UNL     1      -6.196   5.500  -3.923  1.00  0.00    -0.206 F 
ATOM     91  C   UNL     1      -4.683   5.883  -7.174  1.00  0.00     0.006 A 
ENDBRANCH  63  84
BRANCH  75  92
ATOM     92  C   UNL     1     -11.796   0.632  -5.603  1.00  0.00     0.057 A 
ATOM     93  C   UNL     1     -10.821   0.167  -4.707  1.00  0.00     0.134 A 
ATOM     94  C   UNL     1     -12.550  -0.337  -6.272  1.00  0.00     0.134 A 
ATOM     95  F   UNL     1     -10.117   1.012  -3.946  1.00  0.00    -0.206 F 
ATOM     96  C   UNL     1     -10.583  -1.197  -4.516  1.00  0.00     0.040 A 
ATOM     97  C   UNL     1     -12.345  -1.703  -6.066  1.00  0.00     0.040 A 
ATOM     98  F   UNL     1     -13.540   0.031  -7.100  1.00  0.00    -0.206 F 
ATOM     99  C   UNL     1     -11.352  -2.138  -5.192  1.00  0.00     0.006 A 
ENDBRANCH  75  92
ENDBRANCH  49  50
ENDBRANCH  41  44
ENDBRANCH  39  40
ENDBRANCH  38  39
ENDBRANCH   1  38
TORSDOF 17
