REMARK SMILES O=C(NCCCCNC(=O)[C@H]1CCC[N@@H+]1Cc1ccccc1[N+](=O)[O-])c1ccc(-c2c3nc(c(-c4c(F)cccc4F)c4ccc([nH]4)c(-c4c(F)cccc4F)c4nc(c(-c5c(F)cccc5F)c5ccc2[nH]5)C=C4)C=C3)cc1
REMARK SMILES IDX 6 1 5 2 4 3 3 4 1 5 2 6 26 8 27 9 79 10 28 11 78 12 29 13
REMARK SMILES IDX 30 14 31 15 72 16 32 17 77 18 71 19 73 20 33 21 76 22 70 23
REMARK SMILES IDX 69 24 34 26 60 27 43 28 59 29 44 30 47 31 58 32 74 33 45 34
REMARK SMILES IDX 46 35 57 37 75 38 48 39 35 40 36 41 41 42 37 43 38 44 40 45
REMARK SMILES IDX 42 46 39 47 61 48 62 49 67 50 63 51 64 52 66 53 68 54 65 55
REMARK SMILES IDX 49 56 50 57 55 58 51 59 52 60 54 61 56 62 53 63 7 64 8 65
REMARK SMILES IDX 9 66 10 68 11 69 12 70 15 71 13 72 14 73 16 75 17 76 18 77
REMARK SMILES IDX 22 78 19 79 21 80 20 81 23 82 24 83 25 84
REMARK H PARENT 3 7 73 25 47 36 8 67 15 74
REMARK Flexibility Score: inf
ROOT
ATOM      1  C   UNL     1       8.822  -0.121  -5.249  1.00  0.00     0.023 C 
ENDROOT
BRANCH   1   2
ATOM      2  C   UNL     1       9.761  -0.829  -6.228  1.00  0.00     0.023 C 
BRANCH   2   3
ATOM      3  C   UNL     1      11.188  -0.298  -6.273  1.00  0.00     0.116 C 
BRANCH   3   4
ATOM      4  N   UNL     1      11.890  -0.420  -5.005  1.00  0.00    -0.352 N 
ATOM      5  O   UNL     1      13.573  -1.017  -3.621  1.00  0.00    -0.269 OA
ATOM      6  C   UNL     1      13.166  -0.877  -4.770  1.00  0.00     0.251 C 
ATOM      7  H   UNL     1      11.384  -0.139  -4.209  1.00  0.00     0.163 HD
BRANCH   6   8
ATOM      8  C   UNL     1      14.035  -1.231  -5.913  1.00  0.00     0.039 A 
ATOM      9  C   UNL     1      14.145  -0.374  -7.010  1.00  0.00     0.014 A 
ATOM     10  C   UNL     1      14.726  -2.447  -5.896  1.00  0.00     0.014 A 
ATOM     11  C   UNL     1      14.821  -0.799  -8.147  1.00  0.00     0.010 A 
ATOM     12  C   UNL     1      15.477  -2.834  -7.011  1.00  0.00     0.010 A 
ATOM     13  C   UNL     1      15.502  -2.028  -8.159  1.00  0.00    -0.014 A 
BRANCH  13  14
ATOM     14  C   UNL     1      16.274  -2.406  -9.370  1.00  0.00     0.031 A 
ATOM     15  C   UNL     1      15.880  -3.583 -10.217  1.00  0.00     0.074 A 
ATOM     16  C   UNL     1      17.310  -1.626  -9.735  1.00  0.00     0.049 A 
ATOM     17  N   UNL     1      16.410  -4.000 -11.341  1.00  0.00    -0.248 NA
ATOM     18  C   UNL     1      14.755  -4.404  -9.746  1.00  0.00     0.031 C 
ATOM     19  C   UNL     1      17.798  -0.470  -8.978  1.00  0.00     0.029 A 
ATOM     20  N   UNL     1      18.116  -1.663 -10.842  1.00  0.00    -0.354 N 
ATOM     21  C   UNL     1      15.692  -5.131 -11.706  1.00  0.00     0.074 A 
ATOM     22  C   UNL     1      14.706  -5.356 -10.669  1.00  0.00     0.031 C 
ATOM     23  C   UNL     1      18.779   0.126  -9.670  1.00  0.00     0.029 A 
ATOM     24  C   UNL     1      19.026  -0.635 -10.889  1.00  0.00     0.049 A 
ATOM     25  H   UNL     1      18.050  -2.358 -11.536  1.00  0.00     0.167 HD
ATOM     26  C   UNL     1      15.835  -5.904 -12.810  1.00  0.00     0.037 A 
ATOM     27  C   UNL     1      19.961  -0.338 -11.809  1.00  0.00     0.037 A 
ATOM     28  C   UNL     1      16.812  -5.673 -13.845  1.00  0.00     0.049 A 
ATOM     29  C   UNL     1      20.091  -1.206 -13.024  1.00  0.00     0.074 A 
ATOM     30  C   UNL     1      17.033  -6.399 -15.003  1.00  0.00     0.029 A 
ATOM     31  N   UNL     1      17.727  -4.631 -13.849  1.00  0.00    -0.354 N 
ATOM     32  N   UNL     1      19.394  -2.264 -13.359  1.00  0.00    -0.248 NA
ATOM     33  C   UNL     1      21.137  -0.841 -13.989  1.00  0.00     0.031 C 
ATOM     34  C   UNL     1      18.101  -5.814 -15.693  1.00  0.00     0.029 A 
ATOM     35  C   UNL     1      18.520  -4.700 -14.983  1.00  0.00     0.049 A 
ATOM     36  H   UNL     1      17.803  -3.943 -13.149  1.00  0.00     0.167 HD
ATOM     37  C   UNL     1      19.914  -2.691 -14.572  1.00  0.00     0.074 A 
ATOM     38  C   UNL     1      20.962  -1.756 -14.930  1.00  0.00     0.031 C 
ATOM     39  C   UNL     1      19.563  -3.766 -15.318  1.00  0.00     0.037 A 
BRANCH  26  40
ATOM     40  C   UNL     1      14.916  -7.081 -12.960  1.00  0.00     0.057 A 
ATOM     41  C   UNL     1      13.568  -6.922 -13.309  1.00  0.00     0.134 A 
ATOM     42  C   UNL     1      15.395  -8.389 -12.813  1.00  0.00     0.134 A 
ATOM     43  F   UNL     1      13.044  -5.696 -13.454  1.00  0.00    -0.206 F 
ATOM     44  C   UNL     1      12.727  -8.022 -13.492  1.00  0.00     0.040 A 
ATOM     45  C   UNL     1      14.569  -9.497 -13.014  1.00  0.00     0.040 A 
ATOM     46  F   UNL     1      16.677  -8.612 -12.486  1.00  0.00    -0.206 F 
ATOM     47  C   UNL     1      13.229  -9.314 -13.352  1.00  0.00     0.006 A 
ENDBRANCH  26  40
BRANCH  27  48
ATOM     48  C   UNL     1      20.846   0.835 -11.606  1.00  0.00     0.057 A 
ATOM     49  C   UNL     1      20.733   1.978 -12.404  1.00  0.00     0.134 A 
ATOM     50  C   UNL     1      21.815   0.844 -10.595  1.00  0.00     0.134 A 
ATOM     51  F   UNL     1      19.834   2.022 -13.397  1.00  0.00    -0.206 F 
ATOM     52  C   UNL     1      21.564   3.084 -12.215  1.00  0.00     0.040 A 
ATOM     53  C   UNL     1      22.633   1.952 -10.377  1.00  0.00     0.040 A 
ATOM     54  F   UNL     1      21.964  -0.219  -9.790  1.00  0.00    -0.206 F 
ATOM     55  C   UNL     1      22.512   3.075 -11.194  1.00  0.00     0.006 A 
ENDBRANCH  27  48
BRANCH  39  56
ATOM     56  C   UNL     1      20.321  -3.975 -16.594  1.00  0.00     0.057 A 
ATOM     57  C   UNL     1      21.643  -4.438 -16.595  1.00  0.00     0.134 A 
ATOM     58  C   UNL     1      19.723  -3.714 -17.833  1.00  0.00     0.134 A 
ATOM     59  F   UNL     1      22.275  -4.691 -15.439  1.00  0.00    -0.206 F 
ATOM     60  C   UNL     1      22.354  -4.607 -17.783  1.00  0.00     0.040 A 
ATOM     61  C   UNL     1      20.416  -3.901 -19.029  1.00  0.00     0.040 A 
ATOM     62  F   UNL     1      18.458  -3.273 -17.899  1.00  0.00    -0.206 F 
ATOM     63  C   UNL     1      21.739  -4.341 -19.005  1.00  0.00     0.006 A 
ENDBRANCH  39  56
ENDBRANCH  13  14
ENDBRANCH   6   8
ENDBRANCH   3   4
ENDBRANCH   2   3
ENDBRANCH   1   2
BRANCH   1  64
ATOM     64  C   UNL     1       8.780   1.400  -5.367  1.00  0.00     0.116 C 
BRANCH  64  65
ATOM     65  N   UNL     1       8.437   1.835  -6.706  1.00  0.00    -0.351 N 
ATOM     66  C   UNL     1       7.454   2.667  -7.151  1.00  0.00     0.278 C 
ATOM     67  H   UNL     1       9.012   1.467  -7.415  1.00  0.00     0.163 HD
ATOM     68  O   UNL     1       7.439   2.908  -8.362  1.00  0.00    -0.268 OA
BRANCH  66  69
ATOM     69  C   UNL     1       6.428   3.275  -6.165  1.00  0.00     0.274 C 
ATOM     70  C   UNL     1       6.244   4.756  -6.481  1.00  0.00     0.081 C 
ATOM     71  N   UNL     1       5.103   2.664  -6.392  1.00  0.00    -0.321 N 
ATOM     72  C   UNL     1       5.087   4.814  -7.466  1.00  0.00     0.068 C 
ATOM     73  C   UNL     1       4.484   3.415  -7.487  1.00  0.00     0.263 C 
ATOM     74  H   UNL     1       5.232   1.687  -6.654  1.00  0.00     0.349 HD
BRANCH  71  75
ATOM     75  C   UNL     1       4.254   2.450  -5.214  1.00  0.00     0.307 C 
BRANCH  75  76
ATOM     76  C   UNL     1       4.061   3.612  -4.260  1.00  0.00     0.084 A 
ATOM     77  C   UNL     1       4.949   3.734  -3.170  1.00  0.00     0.017 A 
ATOM     78  C   UNL     1       3.084   4.615  -4.398  1.00  0.00     0.278 A 
ATOM     79  C   UNL     1       4.904   4.836  -2.311  1.00  0.00     0.001 A 
ATOM     80  C   UNL     1       3.046   5.734  -3.549  1.00  0.00     0.086 A 
ATOM     81  C   UNL     1       3.967   5.845  -2.511  1.00  0.00     0.007 A 
BRANCH  78  82
ATOM     82  N   UNL     1       2.029   4.525  -5.398  1.00  0.00     0.063 N 
ATOM     83  O   UNL     1       1.855   5.511  -6.127  1.00  0.00    -0.258 OA
ATOM     84  O   UNL     1       1.350   3.491  -5.418  1.00  0.00    -0.258 OA
ENDBRANCH  78  82
ENDBRANCH  75  76
ENDBRANCH  71  75
ENDBRANCH  66  69
ENDBRANCH  64  65
ENDBRANCH   1  64
TORSDOF 14
