REMARK SMILES O=C(NCCCCNC(=O)[C@H]1Cc2cc(O)ccc2C[NH2+]1)c1ccc(-c2c3nc(c(-c4c(F)cccc4F)c4ccc([nH]4)c(-c4c(F)cccc4F)c4nc(c(-c5c(F)cccc5F)c5ccc2[nH]5)C=C4)C=C3)cc1
REMARK SMILES IDX 5 1 4 2 3 3 1 4 2 5 22 7 23 8 75 9 24 10 74 11 25 12 26 13
REMARK SMILES IDX 27 14 68 15 28 16 73 17 67 18 69 19 29 20 72 21 66 22 65 23
REMARK SMILES IDX 30 25 56 26 39 27 55 28 40 29 43 30 54 31 70 32 41 33 42 34
REMARK SMILES IDX 53 36 71 37 44 38 31 39 32 40 37 41 33 42 34 43 36 44 38 45
REMARK SMILES IDX 35 46 57 47 58 48 63 49 59 50 60 51 62 52 64 53 61 54 45 55
REMARK SMILES IDX 46 56 51 57 47 58 48 59 50 60 52 61 49 62 6 63 7 64 8 65
REMARK SMILES IDX 9 66 10 68 11 69 12 70 21 71 13 72 20 73 14 76 19 77 15 78
REMARK SMILES IDX 18 79 17 80 16 81
REMARK H PARENT 3 6 69 24 43 35 8 67 21 74 21 75 16 82
REMARK Flexibility Score: inf
ROOT
ATOM      1  C   UNL     1       4.971  -1.845   1.917  1.00  0.00     0.023 C 
ENDROOT
BRANCH   1   2
ATOM      2  C   UNL     1       4.664  -1.110   0.617  1.00  0.00     0.116 C 
BRANCH   2   3
ATOM      3  N   UNL     1       3.240  -1.045   0.336  1.00  0.00    -0.352 N 
ATOM      4  O   UNL     1       1.247  -0.090  -0.073  1.00  0.00    -0.269 OA
ATOM      5  C   UNL     1       2.471   0.028  -0.032  1.00  0.00     0.251 C 
ATOM      6  H   UNL     1       2.756  -1.898   0.422  1.00  0.00     0.163 HD
BRANCH   5   7
ATOM      7  C   UNL     1       3.091   1.326  -0.378  1.00  0.00     0.039 A 
ATOM      8  C   UNL     1       2.465   2.503   0.048  1.00  0.00     0.014 A 
ATOM      9  C   UNL     1       4.234   1.396  -1.180  1.00  0.00     0.014 A 
ATOM     10  C   UNL     1       2.988   3.747  -0.318  1.00  0.00     0.010 A 
ATOM     11  C   UNL     1       4.789   2.634  -1.494  1.00  0.00     0.010 A 
ATOM     12  C   UNL     1       4.154   3.820  -1.093  1.00  0.00    -0.014 A 
BRANCH  12  13
ATOM     13  C   UNL     1       4.663   5.117  -1.606  1.00  0.00     0.031 A 
ATOM     14  C   UNL     1       4.601   5.389  -3.086  1.00  0.00     0.074 A 
ATOM     15  C   UNL     1       5.216   6.019  -0.775  1.00  0.00     0.049 A 
ATOM     16  N   UNL     1       5.120   6.375  -3.772  1.00  0.00    -0.248 NA
ATOM     17  C   UNL     1       3.880   4.401  -3.905  1.00  0.00     0.031 C 
ATOM     18  C   UNL     1       5.337   5.880   0.676  1.00  0.00     0.029 A 
ATOM     19  N   UNL     1       5.796   7.234  -1.043  1.00  0.00    -0.354 N 
ATOM     20  C   UNL     1       4.819   6.106  -5.102  1.00  0.00     0.074 A 
ATOM     21  C   UNL     1       4.101   4.850  -5.131  1.00  0.00     0.031 C 
ATOM     22  C   UNL     1       5.946   6.970   1.171  1.00  0.00     0.029 A 
ATOM     23  C   UNL     1       6.293   7.866   0.071  1.00  0.00     0.049 A 
ATOM     24  H   UNL     1       5.851   7.617  -1.949  1.00  0.00     0.167 HD
ATOM     25  C   UNL     1       5.099   6.846  -6.200  1.00  0.00     0.037 A 
ATOM     26  C   UNL     1       6.965   9.027   0.183  1.00  0.00     0.037 A 
ATOM     27  C   UNL     1       5.765   8.120  -6.168  1.00  0.00     0.049 A 
ATOM     28  C   UNL     1       7.267   9.829  -1.054  1.00  0.00     0.074 A 
ATOM     29  C   UNL     1       6.059   8.967  -7.222  1.00  0.00     0.029 A 
ATOM     30  N   UNL     1       6.226   8.736  -5.016  1.00  0.00    -0.354 N 
ATOM     31  N   UNL     1       6.962   9.572  -2.303  1.00  0.00    -0.248 NA
ATOM     32  C   UNL     1       8.011  11.084  -0.865  1.00  0.00     0.031 C 
ATOM     33  C   UNL     1       6.719  10.088  -6.708  1.00  0.00     0.029 A 
ATOM     34  C   UNL     1       6.806   9.951  -5.332  1.00  0.00     0.049 A 
ATOM     35  H   UNL     1       6.153   8.364  -4.107  1.00  0.00     0.167 HD
ATOM     36  C   UNL     1       7.442  10.647  -3.040  1.00  0.00     0.074 A 
ATOM     37  C   UNL     1       8.056  11.562  -2.100  1.00  0.00     0.031 C 
ATOM     38  C   UNL     1       7.381  10.860  -4.377  1.00  0.00     0.037 A 
BRANCH  25  39
ATOM     39  C   UNL     1       4.681   6.294  -7.529  1.00  0.00     0.057 A 
ATOM     40  C   UNL     1       5.634   5.805  -8.431  1.00  0.00     0.134 A 
ATOM     41  C   UNL     1       3.338   6.268  -7.927  1.00  0.00     0.134 A 
ATOM     42  F   UNL     1       6.937   5.805  -8.111  1.00  0.00    -0.206 F 
ATOM     43  C   UNL     1       5.266   5.311  -9.683  1.00  0.00     0.040 A 
ATOM     44  C   UNL     1       2.956   5.754  -9.167  1.00  0.00     0.040 A 
ATOM     45  F   UNL     1       2.376   6.706  -7.101  1.00  0.00    -0.206 F 
ATOM     46  C   UNL     1       3.923   5.279 -10.052  1.00  0.00     0.006 A 
ENDBRANCH  25  39
BRANCH  26  47
ATOM     47  C   UNL     1       7.402   9.518   1.514  1.00  0.00     0.057 A 
ATOM     48  C   UNL     1       8.453   8.910   2.210  1.00  0.00     0.134 A 
ATOM     49  C   UNL     1       6.805  10.642   2.097  1.00  0.00     0.134 A 
ATOM     50  F   UNL     1       9.065   7.829   1.705  1.00  0.00    -0.206 F 
ATOM     51  C   UNL     1       8.898   9.406   3.437  1.00  0.00     0.040 A 
ATOM     52  C   UNL     1       7.254  11.161   3.312  1.00  0.00     0.040 A 
ATOM     53  F   UNL     1       5.809  11.280   1.465  1.00  0.00    -0.206 F 
ATOM     54  C   UNL     1       8.304  10.541   3.986  1.00  0.00     0.006 A 
ENDBRANCH  26  47
BRANCH  38  55
ATOM     55  C   UNL     1       7.937  12.152  -4.893  1.00  0.00     0.057 A 
ATOM     56  C   UNL     1       7.077  13.171  -5.324  1.00  0.00     0.134 A 
ATOM     57  C   UNL     1       9.314  12.372  -5.006  1.00  0.00     0.134 A 
ATOM     58  F   UNL     1       5.747  13.017  -5.247  1.00  0.00    -0.206 F 
ATOM     59  C   UNL     1       7.569  14.362  -5.856  1.00  0.00     0.040 A 
ATOM     60  C   UNL     1       9.819  13.568  -5.518  1.00  0.00     0.040 A 
ATOM     61  F   UNL     1      10.187  11.439  -4.598  1.00  0.00    -0.206 F 
ATOM     62  C   UNL     1       8.945  14.565  -5.951  1.00  0.00     0.006 A 
ENDBRANCH  38  55
ENDBRANCH  12  13
ENDBRANCH   5   7
ENDBRANCH   2   3
ENDBRANCH   1   2
BRANCH   1  63
ATOM     63  C   UNL     1       4.486  -3.296   1.981  1.00  0.00     0.023 C 
BRANCH  63  64
ATOM     64  C   UNL     1       4.980  -4.191   0.846  1.00  0.00     0.116 C 
BRANCH  64  65
ATOM     65  N   UNL     1       6.426  -4.313   0.841  1.00  0.00    -0.351 N 
ATOM     66  C   UNL     1       7.211  -5.419   1.047  1.00  0.00     0.278 C 
ATOM     67  H   UNL     1       6.917  -3.478   0.664  1.00  0.00     0.163 HD
ATOM     68  O   UNL     1       8.429  -5.289   0.923  1.00  0.00    -0.268 OA
BRANCH  66  69
ATOM     69  C   UNL     1       6.529  -6.753   1.393  1.00  0.00     0.277 C 
ATOM     70  C   UNL     1       7.510  -7.927   1.266  1.00  0.00     0.111 C 
ATOM     71  N   UNL     1       6.012  -6.709   2.780  1.00  0.00    -0.332 N 
ATOM     72  C   UNL     1       6.859  -9.218   1.705  1.00  0.00    -0.029 A 
ATOM     73  C   UNL     1       5.150  -7.868   3.023  1.00  0.00     0.298 C 
ATOM     74  H   UNL     1       5.475  -5.853   2.915  1.00  0.00     0.347 HD
ATOM     75  H   UNL     1       6.796  -6.728   3.433  1.00  0.00     0.347 HD
ATOM     76  C   UNL     1       7.378 -10.448   1.288  1.00  0.00     0.050 A 
ATOM     77  C   UNL     1       5.751  -9.182   2.576  1.00  0.00     0.010 A 
ATOM     78  C   UNL     1       6.778 -11.630   1.706  1.00  0.00     0.115 A 
ATOM     79  C   UNL     1       5.157 -10.387   2.980  1.00  0.00     0.013 A 
ATOM     80  C   UNL     1       5.670 -11.611   2.546  1.00  0.00     0.046 A 
BRANCH  78  81
ATOM     81  O   UNL     1       7.312 -12.804   1.264  1.00  0.00    -0.508 OA
ATOM     82  H   UNL     1       8.059 -12.796   0.698  1.00  0.00     0.293 HD
ENDBRANCH  78  81
ENDBRANCH  66  69
ENDBRANCH  64  65
ENDBRANCH  63  64
ENDBRANCH   1  63
TORSDOF 12
