REMARK SMILES Cc1n[nH]c2c1[C@@]1(C(=O)N([C@@H](C)C(=O)NCCCCNC(=O)c3ccc(-c4c5nc(c(-c6c(F)cccc6F)c6ccc([nH]6)c(-c6c(F)cccc6F)c6nc(c(-c7c(F)cccc7F)c7ccc4[nH]7)C=C6)C=C5)cc3)c3ccccc31)C(C#N)=C(N)O2
REMARK SMILES IDX 17 1 16 2 15 3 13 4 14 5 11 7 12 8 10 9 1 10 2 11 3 12 6 13
REMARK SMILES IDX 4 14 5 15 7 16 88 18 8 19 82 20 83 21 86 22 9 23 77 24 81 25
REMARK SMILES IDX 78 26 80 27 79 28 84 29 85 30 87 31 18 34 19 35 20 36 21 37
REMARK SMILES IDX 22 39 23 40 24 41 76 42 25 43 75 44 26 45 27 46 28 47 69 48
REMARK SMILES IDX 29 49 74 50 68 51 70 52 30 53 73 54 67 55 66 56 31 58 57 59
REMARK SMILES IDX 40 60 56 61 41 62 44 63 55 64 71 65 42 66 43 67 54 69 72 70
REMARK SMILES IDX 45 71 32 72 33 73 38 74 34 75 35 76 37 77 39 78 36 79 58 80
REMARK SMILES IDX 59 81 64 82 60 83 61 84 63 85 65 86 62 87 46 88 47 89 52 90
REMARK SMILES IDX 48 91 49 92 51 93 53 94 50 95
REMARK H PARENT 15 6 4 17 87 32 87 33 20 38 70 57 44 68
REMARK Flexibility Score: inf
ROOT
ATOM      1  C   UNL     1      -4.615   0.064   0.209  1.00  0.00     0.023 C 
ENDROOT
BRANCH   1   2
ATOM      2  C   UNL     1      -4.216   0.374  -1.239  1.00  0.00     0.116 C 
BRANCH   2   3
ATOM      3  N   UNL     1      -4.294   1.791  -1.531  1.00  0.00    -0.354 N 
ATOM      4  C   UNL     1      -3.343   2.748  -1.689  1.00  0.00     0.242 C 
ATOM      5  O   UNL     1      -3.760   3.874  -1.997  1.00  0.00    -0.273 OA
ATOM      6  H   UNL     1      -5.214   2.125  -1.635  1.00  0.00     0.163 HD
BRANCH   4   7
ATOM      7  C   UNL     1      -1.817   2.531  -1.512  1.00  0.00     0.176 C 
ATOM      8  C   UNL     1      -1.195   1.533  -2.484  1.00  0.00     0.042 C 
BRANCH   7   9
ATOM      9  N   UNL     1      -1.394   2.369  -0.120  1.00  0.00    -0.298 N 
ATOM     10  C   UNL     1       1.429  -0.081   0.417  1.00  0.00     0.069 C 
ATOM     11  C   UNL     1       0.916  -0.272   1.799  1.00  0.00     0.068 A 
ATOM     12  N   UNL     1       1.360  -1.302   2.538  1.00  0.00    -0.177 NA
ATOM     13  C   UNL     1      -0.121   0.428   2.467  1.00  0.00     0.063 A 
ATOM     14  N   UNL     1       0.546  -1.316   3.614  1.00  0.00    -0.246 N 
ATOM     15  C   UNL     1      -0.358  -0.305   3.601  1.00  0.00     0.222 A 
ATOM     16  C   UNL     1      -1.077   1.495   2.072  1.00  0.00     0.149 C 
ATOM     17  H   UNL     1       0.603  -1.988   4.331  1.00  0.00     0.193 HD
ATOM     18  O   UNL     1      -1.354  -0.173   4.469  1.00  0.00    -0.422 OA
ATOM     19  C   UNL     1      -1.547   1.205   0.633  1.00  0.00     0.248 C 
ATOM     20  C   UNL     1      -0.347   2.798   1.891  1.00  0.00     0.002 A 
ATOM     21  C   UNL     1      -2.246   1.579   3.056  1.00  0.00     0.114 C 
ATOM     22  C   UNL     1      -2.334   0.788   4.161  1.00  0.00     0.208 C 
ATOM     23  O   UNL     1      -1.871   0.102   0.223  1.00  0.00    -0.273 OA
ATOM     24  C   UNL     1      -0.615   3.299   0.604  1.00  0.00     0.050 A 
ATOM     25  C   UNL     1       0.428   3.509   2.796  1.00  0.00     0.008 A 
ATOM     26  C   UNL     1      -0.088   4.509   0.193  1.00  0.00     0.027 A 
ATOM     27  C   UNL     1       0.972   4.723   2.381  1.00  0.00     0.001 A 
ATOM     28  C   UNL     1       0.720   5.216   1.091  1.00  0.00     0.002 A 
BRANCH  21  29
ATOM     29  C   UNL     1      -3.268   2.550   2.802  1.00  0.00     0.102 C 
ATOM     30  N   UNL     1      -4.106   3.315   2.605  1.00  0.00    -0.193 NA
ENDBRANCH  21  29
BRANCH  22  31
ATOM     31  N   UNL     1      -3.343   0.825   5.079  1.00  0.00    -0.369 N 
ATOM     32  H   UNL     1      -4.087   1.460   4.967  1.00  0.00     0.159 HD
ATOM     33  H   UNL     1      -3.328   0.217   5.853  1.00  0.00     0.159 HD
ENDBRANCH  22  31
ENDBRANCH   7   9
ENDBRANCH   4   7
ENDBRANCH   2   3
ENDBRANCH   1   2
BRANCH   1  34
ATOM     34  C   UNL     1      -6.108  -0.166   0.436  1.00  0.00     0.023 C 
BRANCH  34  35
ATOM     35  C   UNL     1      -6.663  -1.337  -0.374  1.00  0.00     0.116 C 
BRANCH  35  36
ATOM     36  N   UNL     1      -5.981  -2.586  -0.108  1.00  0.00    -0.352 N 
ATOM     37  C   UNL     1      -6.259  -3.686   0.650  1.00  0.00     0.251 C 
ATOM     38  H   UNL     1      -5.121  -2.659  -0.582  1.00  0.00     0.163 HD
ATOM     39  O   UNL     1      -5.553  -4.678   0.451  1.00  0.00    -0.269 OA
BRANCH  37  40
ATOM     40  C   UNL     1      -7.263  -3.738   1.746  1.00  0.00     0.039 A 
ATOM     41  C   UNL     1      -8.087  -2.690   2.148  1.00  0.00     0.014 A 
ATOM     42  C   UNL     1      -7.277  -4.931   2.497  1.00  0.00     0.014 A 
ATOM     43  C   UNL     1      -8.777  -2.775   3.351  1.00  0.00     0.010 A 
ATOM     44  C   UNL     1      -7.991  -5.034   3.682  1.00  0.00     0.010 A 
ATOM     45  C   UNL     1      -8.679  -3.926   4.148  1.00  0.00    -0.014 A 
BRANCH  45  46
ATOM     46  C   UNL     1      -9.524  -4.018   5.340  1.00  0.00     0.031 A 
ATOM     47  C   UNL     1     -10.956  -3.883   4.954  1.00  0.00     0.074 A 
ATOM     48  C   UNL     1      -9.074  -4.255   6.597  1.00  0.00     0.049 A 
ATOM     49  N   UNL     1     -11.712  -2.857   5.161  1.00  0.00    -0.248 NA
ATOM     50  C   UNL     1     -11.540  -4.852   4.008  1.00  0.00     0.031 C 
ATOM     51  C   UNL     1      -7.712  -4.616   7.004  1.00  0.00     0.029 A 
ATOM     52  N   UNL     1      -9.758  -4.295   7.791  1.00  0.00    -0.354 N 
ATOM     53  C   UNL     1     -12.958  -3.189   4.629  1.00  0.00     0.074 A 
ATOM     54  C   UNL     1     -12.729  -4.300   3.753  1.00  0.00     0.031 C 
ATOM     55  C   UNL     1      -7.714  -5.072   8.281  1.00  0.00     0.029 A 
ATOM     56  C   UNL     1      -9.039  -4.892   8.845  1.00  0.00     0.049 A 
ATOM     57  H   UNL     1     -10.669  -3.938   7.899  1.00  0.00     0.167 HD
ATOM     58  C   UNL     1     -14.081  -2.743   5.259  1.00  0.00     0.037 A 
ATOM     59  C   UNL     1      -9.520  -5.210  10.082  1.00  0.00     0.037 A 
ATOM     60  C   UNL     1     -13.734  -1.638   6.123  1.00  0.00     0.049 A 
ATOM     61  C   UNL     1     -10.720  -4.378  10.300  1.00  0.00     0.074 A 
ATOM     62  C   UNL     1     -13.400  -0.309   5.982  1.00  0.00     0.029 A 
ATOM     63  N   UNL     1     -13.237  -2.058   7.327  1.00  0.00    -0.354 N 
ATOM     64  N   UNL     1     -10.667  -3.086  10.458  1.00  0.00    -0.248 NA
ATOM     65  C   UNL     1     -12.016  -4.919   9.920  1.00  0.00     0.031 C 
ATOM     66  C   UNL     1     -12.568   0.011   7.100  1.00  0.00     0.029 A 
ATOM     67  C   UNL     1     -12.498  -1.094   7.944  1.00  0.00     0.049 A 
ATOM     68  H   UNL     1     -13.395  -2.954   7.704  1.00  0.00     0.167 HD
ATOM     69  C   UNL     1     -11.761  -2.622   9.755  1.00  0.00     0.074 A 
ATOM     70  C   UNL     1     -12.632  -3.784   9.582  1.00  0.00     0.031 C 
ATOM     71  C   UNL     1     -11.696  -1.429   9.095  1.00  0.00     0.037 A 
BRANCH  58  72
ATOM     72  C   UNL     1     -15.262  -3.644   5.613  1.00  0.00     0.057 A 
ATOM     73  C   UNL     1     -15.273  -5.051   5.513  1.00  0.00     0.134 A 
ATOM     74  C   UNL     1     -16.292  -3.109   6.415  1.00  0.00     0.134 A 
ATOM     75  F   UNL     1     -14.371  -5.738   4.807  1.00  0.00    -0.206 F 
ATOM     76  C   UNL     1     -16.174  -5.860   6.214  1.00  0.00     0.040 A 
ATOM     77  C   UNL     1     -17.180  -3.912   7.146  1.00  0.00     0.040 A 
ATOM     78  F   UNL     1     -16.416  -1.783   6.585  1.00  0.00    -0.206 F 
ATOM     79  C   UNL     1     -17.110  -5.295   7.062  1.00  0.00     0.006 A 
ENDBRANCH  58  72
BRANCH  59  80
ATOM     80  C   UNL     1      -9.219  -6.343  10.999  1.00  0.00     0.057 A 
ATOM     81  C   UNL     1      -8.879  -7.601  10.479  1.00  0.00     0.134 A 
ATOM     82  C   UNL     1      -9.584  -6.325  12.360  1.00  0.00     0.134 A 
ATOM     83  F   UNL     1      -8.592  -7.745   9.178  1.00  0.00    -0.206 F 
ATOM     84  C   UNL     1      -8.927  -8.772  11.249  1.00  0.00     0.040 A 
ATOM     85  C   UNL     1      -9.631  -7.491  13.144  1.00  0.00     0.040 A 
ATOM     86  F   UNL     1      -9.978  -5.185  12.946  1.00  0.00    -0.206 F 
ATOM     87  C   UNL     1      -9.316  -8.724  12.583  1.00  0.00     0.006 A 
ENDBRANCH  59  80
BRANCH  71  88
ATOM     88  C   UNL     1     -10.661  -0.447   9.543  1.00  0.00     0.057 A 
ATOM     89  C   UNL     1     -11.117   0.761  10.080  1.00  0.00     0.134 A 
ATOM     90  C   UNL     1      -9.274  -0.611   9.418  1.00  0.00     0.134 A 
ATOM     91  F   UNL     1     -12.434   0.996  10.187  1.00  0.00    -0.206 F 
ATOM     92  C   UNL     1     -10.242   1.765  10.486  1.00  0.00     0.040 A 
ATOM     93  C   UNL     1      -8.383   0.376   9.854  1.00  0.00     0.040 A 
ATOM     94  F   UNL     1      -8.752  -1.704   8.842  1.00  0.00    -0.206 F 
ATOM     95  C   UNL     1      -8.868   1.569  10.388  1.00  0.00     0.006 A 
ENDBRANCH  71  88
ENDBRANCH  45  46
ENDBRANCH  37  40
ENDBRANCH  35  36
ENDBRANCH  34  35
ENDBRANCH   1  34
TORSDOF 14
