REMARK SMILES Cc1cc(=O)c(Oc2ccc(C(=O)NCCCCNC(=O)c3ccc(-c4c5nc(c(-c6c(F)cccc6F)c6ccc([nH]6)c(-c6c(F)cccc6F)c6nc(c(-c7c(F)cccc7F)c7ccc4[nH]7)C=C6)C=C5)cc3)cc2)c(-c2ccc(S(C)(=O)=O)cc2)o1
REMARK SMILES IDX 15 1 14 2 12 3 13 4 11 6 8 7 9 8 77 9 10 10 76 11 7 12 6 13
REMARK SMILES IDX 1 14 2 15 3 16 89 17 4 18 78 19 5 20 79 21 80 22 88 23 81 24
REMARK SMILES IDX 87 25 82 26 83 27 84 28 85 29 86 30 16 31 17 32 18 33 19 34
REMARK SMILES IDX 20 35 21 37 22 38 23 39 75 40 24 41 74 42 25 43 26 44 27 45
REMARK SMILES IDX 68 46 28 47 73 48 67 49 69 50 29 51 72 52 66 53 65 54 30 56
REMARK SMILES IDX 56 57 39 58 55 59 40 60 43 61 54 62 70 63 41 64 42 65 53 67
REMARK SMILES IDX 71 68 44 69 31 70 32 71 37 72 33 73 34 74 36 75 38 76 35 77
REMARK SMILES IDX 57 78 58 79 63 80 59 81 60 82 62 83 64 84 61 85 45 86 46 87
REMARK SMILES IDX 51 88 47 89 48 90 50 91 52 92 49 93
REMARK H PARENT 14 5 19 36 69 55 43 66
REMARK Flexibility Score: inf
ROOT
ATOM      1  C   UNL     1       3.233   9.664   2.228  1.00  0.00     0.116 C 
ENDROOT
BRANCH   1   2
ATOM      2  N   UNL     1       2.765  10.091   0.922  1.00  0.00    -0.352 N 
ATOM      3  C   UNL     1       1.562   9.865   0.283  1.00  0.00     0.251 C 
ATOM      4  O   UNL     1       1.318  10.468  -0.759  1.00  0.00    -0.269 OA
ATOM      5  H   UNL     1       3.410  10.628   0.409  1.00  0.00     0.163 HD
BRANCH   3   6
ATOM      6  C   UNL     1       0.619   8.811   0.748  1.00  0.00     0.040 A 
ATOM      7  C   UNL     1      -0.530   6.375   1.420  1.00  0.00     0.127 A 
ATOM      8  C   UNL     1      -0.635   6.833   0.113  1.00  0.00     0.048 A 
ATOM      9  C   UNL     1      -0.100   7.238   2.426  1.00  0.00     0.048 A 
ATOM     10  C   UNL     1      -0.018   8.037  -0.234  1.00  0.00     0.017 A 
ATOM     11  C   UNL     1       0.433   8.481   2.090  1.00  0.00     0.017 A 
BRANCH   7  12
ATOM     12  O   UNL     1      -0.903   5.120   1.796  1.00  0.00    -0.449 OA
BRANCH  12  13
ATOM     13  C   UNL     1      -0.308   3.960   1.312  1.00  0.00     0.217 A 
ATOM     14  C   UNL     1       1.021   0.084  -0.073  1.00  0.00     0.088 C 
ATOM     15  C   UNL     1       0.504   1.362   0.505  1.00  0.00     0.105 A 
ATOM     16  C   UNL     1      -0.488   1.413   1.396  1.00  0.00     0.098 A 
ATOM     17  O   UNL     1       1.148   2.490   0.051  1.00  0.00    -0.457 OA
ATOM     18  C   UNL     1      -0.942   2.724   1.878  1.00  0.00     0.228 A 
ATOM     19  C   UNL     1       0.739   3.755   0.466  1.00  0.00     0.180 A 
ATOM     20  O   UNL     1      -1.825   2.772   2.730  1.00  0.00    -0.285 OA
BRANCH  19  21
ATOM     21  C   UNL     1       1.599   4.767  -0.177  1.00  0.00     0.021 A 
ATOM     22  C   UNL     1       1.482   4.998  -1.560  1.00  0.00     0.013 A 
ATOM     23  C   UNL     1       2.565   5.473   0.553  1.00  0.00     0.013 A 
ATOM     24  C   UNL     1       2.258   5.976  -2.188  1.00  0.00     0.021 A 
ATOM     25  C   UNL     1       3.357   6.441  -0.075  1.00  0.00     0.021 A 
ATOM     26  C   UNL     1       3.190   6.697  -1.439  1.00  0.00     0.067 A 
BRANCH  26  27
ATOM     27  S   UNL     1       4.104   8.008  -2.223  1.00  0.00     0.175 S 
ATOM     28  C   UNL     1       5.340   7.150  -3.157  1.00  0.00     0.163 C 
ATOM     29  O   UNL     1       3.211   8.655  -3.161  1.00  0.00    -0.224 OA
ATOM     30  O   UNL     1       4.786   8.762  -1.184  1.00  0.00    -0.224 OA
ENDBRANCH  26  27
ENDBRANCH  19  21
ENDBRANCH  12  13
ENDBRANCH   7  12
ENDBRANCH   3   6
ENDBRANCH   1   2
BRANCH   1  31
ATOM     31  C   UNL     1       4.739   9.493   2.389  1.00  0.00     0.023 C 
BRANCH  31  32
ATOM     32  C   UNL     1       5.614  10.685   2.037  1.00  0.00     0.023 C 
BRANCH  32  33
ATOM     33  C   UNL     1       5.175  12.023   2.610  1.00  0.00     0.116 C 
BRANCH  33  34
ATOM     34  N   UNL     1       5.157  12.074   4.068  1.00  0.00    -0.352 N 
ATOM     35  C   UNL     1       5.811  12.933   4.926  1.00  0.00     0.251 C 
ATOM     36  H   UNL     1       4.594  11.395   4.504  1.00  0.00     0.163 HD
ATOM     37  O   UNL     1       5.726  12.786   6.141  1.00  0.00    -0.269 OA
BRANCH  35  38
ATOM     38  C   UNL     1       6.674  13.995   4.366  1.00  0.00     0.039 A 
ATOM     39  C   UNL     1       6.220  14.789   3.314  1.00  0.00     0.014 A 
ATOM     40  C   UNL     1       7.990  14.111   4.820  1.00  0.00     0.014 A 
ATOM     41  C   UNL     1       7.142  15.494   2.551  1.00  0.00     0.010 A 
ATOM     42  C   UNL     1       8.890  14.918   4.119  1.00  0.00     0.010 A 
ATOM     43  C   UNL     1       8.493  15.547   2.928  1.00  0.00    -0.014 A 
BRANCH  43  44
ATOM     44  C   UNL     1       9.483  16.209   2.036  1.00  0.00     0.031 A 
ATOM     45  C   UNL     1      10.621  15.422   1.433  1.00  0.00     0.074 A 
ATOM     46  C   UNL     1       9.328  17.508   1.716  1.00  0.00     0.049 A 
ATOM     47  N   UNL     1      11.604  15.836   0.672  1.00  0.00    -0.248 NA
ATOM     48  C   UNL     1      10.664  13.980   1.728  1.00  0.00     0.031 C 
ATOM     49  C   UNL     1       8.249  18.374   2.196  1.00  0.00     0.029 A 
ATOM     50  N   UNL     1      10.069  18.324   0.900  1.00  0.00    -0.354 N 
ATOM     51  C   UNL     1      12.392  14.718   0.421  1.00  0.00     0.074 A 
ATOM     52  C   UNL     1      11.792  13.613   1.137  1.00  0.00     0.031 C 
ATOM     53  C   UNL     1       8.374  19.585   1.635  1.00  0.00     0.029 A 
ATOM     54  C   UNL     1       9.586  19.607   0.824  1.00  0.00     0.049 A 
ATOM     55  H   UNL     1      10.870  18.019   0.415  1.00  0.00     0.167 HD
ATOM     56  C   UNL     1      13.508  14.617  -0.344  1.00  0.00     0.037 A 
ATOM     57  C   UNL     1      10.081  20.692   0.202  1.00  0.00     0.037 A 
ATOM     58  C   UNL     1      14.093  15.715  -1.071  1.00  0.00     0.049 A 
ATOM     59  C   UNL     1      11.365  20.573  -0.568  1.00  0.00     0.074 A 
ATOM     60  C   UNL     1      15.213  15.712  -1.885  1.00  0.00     0.029 A 
ATOM     61  N   UNL     1      13.605  17.013  -1.069  1.00  0.00    -0.354 N 
ATOM     62  N   UNL     1      12.101  19.512  -0.792  1.00  0.00    -0.248 NA
ATOM     63  C   UNL     1      11.892  21.808  -1.163  1.00  0.00     0.031 C 
ATOM     64  C   UNL     1      15.436  17.020  -2.328  1.00  0.00     0.029 A 
ATOM     65  C   UNL     1      14.419  17.826  -1.843  1.00  0.00     0.049 A 
ATOM     66  H   UNL     1      12.800  17.314  -0.589  1.00  0.00     0.167 HD
ATOM     67  C   UNL     1      13.162  19.945  -1.576  1.00  0.00     0.074 A 
ATOM     68  C   UNL     1      12.964  21.362  -1.801  1.00  0.00     0.031 C 
ATOM     69  C   UNL     1      14.208  19.234  -2.064  1.00  0.00     0.037 A 
BRANCH  56  70
ATOM     70  C   UNL     1      14.190  13.278  -0.407  1.00  0.00     0.057 A 
ATOM     71  C   UNL     1      15.448  13.093   0.184  1.00  0.00     0.134 A 
ATOM     72  C   UNL     1      13.624  12.181  -1.070  1.00  0.00     0.134 A 
ATOM     73  F   UNL     1      16.055  14.102   0.825  1.00  0.00    -0.206 F 
ATOM     74  C   UNL     1      16.115  11.868   0.119  1.00  0.00     0.040 A 
ATOM     75  C   UNL     1      14.268  10.942  -1.115  1.00  0.00     0.040 A 
ATOM     76  F   UNL     1      12.419  12.284  -1.649  1.00  0.00    -0.206 F 
ATOM     77  C   UNL     1      15.520  10.784  -0.523  1.00  0.00     0.006 A 
ENDBRANCH  56  70
BRANCH  57  78
ATOM     78  C   UNL     1       9.381  21.997   0.314  1.00  0.00     0.057 A 
ATOM     79  C   UNL     1       9.301  22.678   1.535  1.00  0.00     0.134 A 
ATOM     80  C   UNL     1       8.798  22.605  -0.803  1.00  0.00     0.134 A 
ATOM     81  F   UNL     1       9.835  22.147   2.645  1.00  0.00    -0.206 F 
ATOM     82  C   UNL     1       8.660  23.912   1.644  1.00  0.00     0.040 A 
ATOM     83  C   UNL     1       8.182  23.854  -0.716  1.00  0.00     0.040 A 
ATOM     84  F   UNL     1       8.859  22.011  -2.004  1.00  0.00    -0.206 F 
ATOM     85  C   UNL     1       8.108  24.509   0.512  1.00  0.00     0.006 A 
ENDBRANCH  57  78
BRANCH  69  86
ATOM     86  C   UNL     1      15.190  19.969  -2.929  1.00  0.00     0.057 A 
ATOM     87  C   UNL     1      15.262  19.706  -4.304  1.00  0.00     0.134 A 
ATOM     88  C   UNL     1      16.079  20.917  -2.406  1.00  0.00     0.134 A 
ATOM     89  F   UNL     1      14.445  18.805  -4.869  1.00  0.00    -0.206 F 
ATOM     90  C   UNL     1      16.183  20.358  -5.125  1.00  0.00     0.040 A 
ATOM     91  C   UNL     1      16.984  21.597  -3.223  1.00  0.00     0.040 A 
ATOM     92  F   UNL     1      16.052  21.227  -1.101  1.00  0.00    -0.206 F 
ATOM     93  C   UNL     1      17.042  21.312  -4.586  1.00  0.00     0.006 A 
ENDBRANCH  69  86
ENDBRANCH  43  44
ENDBRANCH  35  38
ENDBRANCH  33  34
ENDBRANCH  32  33
ENDBRANCH  31  32
ENDBRANCH   1  31
TORSDOF 15
