REMARK SMILES CCC(CC)(NC(=O)N1CC[C@@H]2CC[C@H](C1)[N@H+]2C)C(=O)NCCCCNC(=O)c1ccc(-c2c3nc(c(-c4c(F)cccc4F)c4ccc([nH]4)c(-c4c(F)cccc4F)c4nc(c(-c5c(F)cccc5F)c5ccc2[nH]5)C=C4)C=C3)cc1
REMARK SMILES IDX 22 1 21 2 19 3 20 4 3 6 2 7 1 8 4 9 5 10 6 11 7 12 8 14 9 15
REMARK SMILES IDX 10 16 11 17 12 18 13 19 17 20 14 21 15 22 18 23 16 26 23 28
REMARK SMILES IDX 24 29 25 30 26 31 27 32 28 34 29 35 30 36 82 37 31 38 81 39
REMARK SMILES IDX 32 40 33 41 34 42 75 43 35 44 80 45 74 46 76 47 36 48 79 49
REMARK SMILES IDX 73 50 72 51 37 53 63 54 46 55 62 56 47 57 50 58 61 59 77 60
REMARK SMILES IDX 48 61 49 62 60 64 78 65 51 66 38 67 39 68 44 69 40 70 41 71
REMARK SMILES IDX 43 72 45 73 42 74 64 75 65 76 70 77 66 78 67 79 69 80 71 81
REMARK SMILES IDX 68 82 52 83 53 84 58 85 54 86 55 87 57 88 59 89 56 90
REMARK H PARENT 21 5 6 13 17 24 26 33 76 52 50 63
REMARK Flexibility Score: 90.00
ROOT
ATOM      1  C   UNL     1       1.810  -3.731  -4.267  1.00  0.00     0.116 C 
ENDROOT
BRANCH   1   2
ATOM      2  N   UNL     1       2.377  -3.280  -3.000  1.00  0.00    -0.354 N 
ATOM      3  C   UNL     1       1.986  -2.324  -2.084  1.00  0.00     0.245 C 
ATOM      4  O   UNL     1       2.543  -2.377  -0.983  1.00  0.00    -0.272 OA
ATOM      5  H   UNL     1       3.203  -3.752  -2.748  1.00  0.00     0.163 HD
BRANCH   3   6
ATOM      6  C   UNL     1       0.790  -1.372  -2.368  1.00  0.00     0.120 C 
BRANCH   6   7
ATOM      7  C   UNL     1       0.578  -0.126  -1.468  1.00  0.00     0.035 C 
ATOM      8  C   UNL     1       0.861  -0.226   0.019  1.00  0.00     0.007 C 
ENDBRANCH   6   7
BRANCH   6   9
ATOM      9  C   UNL     1      -0.440  -2.334  -2.131  1.00  0.00     0.035 C 
ATOM     10  C   UNL     1      -1.846  -1.795  -2.360  1.00  0.00     0.007 C 
ENDBRANCH   6   9
BRANCH   6  11
ATOM     11  N   UNL     1       0.892  -0.871  -3.766  1.00  0.00    -0.323 N 
ATOM     12  C   UNL     1       1.653   0.059  -4.398  1.00  0.00     0.318 C 
ATOM     13  H   UNL     1       0.261  -1.319  -4.375  1.00  0.00     0.166 HD
ATOM     14  O   UNL     1       1.061   0.612  -5.335  1.00  0.00    -0.249 OA
BRANCH  12  15
ATOM     15  N   UNL     1       2.956   0.382  -4.096  1.00  0.00    -0.319 N 
BRANCH  15  16
ATOM     16  C   UNL     1       3.967  -0.407  -3.401  1.00  0.00     0.128 C 
BRANCH  16  17
ATOM     17  C   UNL     1       4.409   0.100  -2.034  1.00  0.00     0.086 C 
BRANCH  17  18
ATOM     18  C   UNL     1       4.732   1.595  -1.948  1.00  0.00     0.186 C 
ATOM     19  C   UNL     1       3.490   2.476  -1.803  1.00  0.00     0.071 C 
ATOM     20  N   UNL     1       5.418   2.041  -3.175  1.00  0.00    -0.331 N 
ATOM     21  C   UNL     1       3.381   3.274  -3.088  1.00  0.00     0.073 C 
ATOM     22  C   UNL     1       4.333   2.571  -4.045  1.00  0.00     0.204 CG0
ATOM     23  C   UNL     1       6.404   3.075  -2.845  1.00  0.00     0.333 C 
ATOM     24  H   UNL     1       5.932   1.293  -3.641  1.00  0.00     0.348 HD
ATOM     25  G   UNL     1       3.576   1.485  -4.872  1.00  0.00     0.000 G0
ENDBRANCH  17  18
ENDBRANCH  16  17
ENDBRANCH  15  16
BRANCH  15  26
ATOM     26  C   UNL     1       3.576   1.485  -4.872  1.00  0.00     0.186 CG0
ATOM     27  G   UNL     1       4.333   2.571  -4.045  1.00  0.00     0.000 G0
ENDBRANCH  15  26
ENDBRANCH  12  15
ENDBRANCH   6  11
ENDBRANCH   3   6
ENDBRANCH   1   2
BRANCH   1  28
ATOM     28  C   UNL     1       2.344  -3.135  -5.575  1.00  0.00     0.023 C 
BRANCH  28  29
ATOM     29  C   UNL     1       3.846  -3.121  -5.829  1.00  0.00     0.023 C 
BRANCH  29  30
ATOM     30  C   UNL     1       4.606  -4.359  -5.398  1.00  0.00     0.116 C 
BRANCH  30  31
ATOM     31  N   UNL     1       4.136  -5.555  -6.075  1.00  0.00    -0.352 N 
ATOM     32  C   UNL     1       4.845  -6.472  -6.802  1.00  0.00     0.251 C 
ATOM     33  H   UNL     1       3.171  -5.730  -6.001  1.00  0.00     0.163 HD
ATOM     34  O   UNL     1       4.244  -7.329  -7.457  1.00  0.00    -0.269 OA
BRANCH  32  35
ATOM     35  C   UNL     1       6.321  -6.433  -6.824  1.00  0.00     0.039 A 
ATOM     36  C   UNL     1       6.980  -6.641  -8.039  1.00  0.00     0.014 A 
ATOM     37  C   UNL     1       7.057  -6.219  -5.655  1.00  0.00     0.014 A 
ATOM     38  C   UNL     1       8.374  -6.598  -8.088  1.00  0.00     0.010 A 
ATOM     39  C   UNL     1       8.441  -6.100  -5.718  1.00  0.00     0.010 A 
ATOM     40  C   UNL     1       9.114  -6.307  -6.931  1.00  0.00    -0.014 A 
BRANCH  40  41
ATOM     41  C   UNL     1      10.597  -6.255  -6.962  1.00  0.00     0.031 A 
ATOM     42  C   UNL     1      11.398  -7.266  -6.189  1.00  0.00     0.074 A 
ATOM     43  C   UNL     1      11.219  -5.272  -7.638  1.00  0.00     0.049 A 
ATOM     44  N   UNL     1      12.694  -7.353  -6.035  1.00  0.00    -0.248 NA
ATOM     45  C   UNL     1      10.638  -8.303  -5.470  1.00  0.00     0.031 C 
ATOM     46  C   UNL     1      10.552  -4.209  -8.392  1.00  0.00     0.029 A 
ATOM     47  N   UNL     1      12.555  -5.002  -7.792  1.00  0.00    -0.354 N 
ATOM     48  C   UNL     1      12.903  -8.434  -5.188  1.00  0.00     0.074 A 
ATOM     49  C   UNL     1      11.600  -8.944  -4.822  1.00  0.00     0.031 C 
ATOM     50  C   UNL     1      11.483  -3.416  -8.948  1.00  0.00     0.029 A 
ATOM     51  C   UNL     1      12.807  -3.893  -8.562  1.00  0.00     0.049 A 
ATOM     52  H   UNL     1      13.266  -5.552  -7.389  1.00  0.00     0.167 HD
ATOM     53  C   UNL     1      14.075  -8.967  -4.770  1.00  0.00     0.037 A 
ATOM     54  C   UNL     1      13.976  -3.325  -8.913  1.00  0.00     0.037 A 
ATOM     55  C   UNL     1      15.370  -8.481  -5.165  1.00  0.00     0.049 A 
ATOM     56  C   UNL     1      15.264  -3.940  -8.440  1.00  0.00     0.074 A 
ATOM     57  C   UNL     1      16.616  -8.996  -4.854  1.00  0.00     0.029 A 
ATOM     58  N   UNL     1      15.584  -7.366  -5.960  1.00  0.00    -0.354 N 
ATOM     59  N   UNL     1      15.448  -5.001  -7.694  1.00  0.00    -0.248 NA
ATOM     60  C   UNL     1      16.507  -3.280  -8.864  1.00  0.00     0.031 C 
ATOM     61  C   UNL     1      17.586  -8.169  -5.429  1.00  0.00     0.029 A 
ATOM     62  C   UNL     1      16.943  -7.164  -6.134  1.00  0.00     0.049 A 
ATOM     63  H   UNL     1      14.875  -6.801  -6.345  1.00  0.00     0.167 HD
ATOM     64  C   UNL     1      16.824  -5.153  -7.581  1.00  0.00     0.074 A 
ATOM     65  C   UNL     1      17.427  -4.081  -8.345  1.00  0.00     0.031 C 
ATOM     66  C   UNL     1      17.525  -6.096  -6.906  1.00  0.00     0.037 A 
BRANCH  53  67
ATOM     67  C   UNL     1      14.007 -10.142  -3.838  1.00  0.00     0.057 A 
ATOM     68  C   UNL     1      13.583 -11.405  -4.271  1.00  0.00     0.134 A 
ATOM     69  C   UNL     1      14.400 -10.016  -2.500  1.00  0.00     0.134 A 
ATOM     70  F   UNL     1      13.181 -11.591  -5.537  1.00  0.00    -0.206 F 
ATOM     71  C   UNL     1      13.526 -12.495  -3.399  1.00  0.00     0.040 A 
ATOM     72  C   UNL     1      14.373 -11.104  -1.626  1.00  0.00     0.040 A 
ATOM     73  F   UNL     1      14.822  -8.836  -2.022  1.00  0.00    -0.206 F 
ATOM     74  C   UNL     1      13.928 -12.347  -2.074  1.00  0.00     0.006 A 
ENDBRANCH  53  67
BRANCH  54  75
ATOM     75  C   UNL     1      13.985  -2.121  -9.781  1.00  0.00     0.057 A 
ATOM     76  C   UNL     1      14.424  -2.196 -11.108  1.00  0.00     0.134 A 
ATOM     77  C   UNL     1      13.563  -0.873  -9.309  1.00  0.00     0.134 A 
ATOM     78  F   UNL     1      14.858  -3.361 -11.610  1.00  0.00    -0.206 F 
ATOM     79  C   UNL     1      14.460  -1.069 -11.931  1.00  0.00     0.040 A 
ATOM     80  C   UNL     1      13.572   0.258 -10.127  1.00  0.00     0.040 A 
ATOM     81  F   UNL     1      13.126  -0.738  -8.048  1.00  0.00    -0.206 F 
ATOM     82  C   UNL     1      14.028   0.162 -11.441  1.00  0.00     0.006 A 
ENDBRANCH  54  75
BRANCH  66  83
ATOM     83  C   UNL     1      19.020  -6.031  -6.992  1.00  0.00     0.057 A 
ATOM     84  C   UNL     1      19.757  -5.054  -6.312  1.00  0.00     0.134 A 
ATOM     85  C   UNL     1      19.733  -6.982  -7.734  1.00  0.00     0.134 A 
ATOM     86  F   UNL     1      19.133  -4.107  -5.595  1.00  0.00    -0.206 F 
ATOM     87  C   UNL     1      21.151  -5.013  -6.384  1.00  0.00     0.040 A 
ATOM     88  C   UNL     1      21.126  -6.965  -7.793  1.00  0.00     0.040 A 
ATOM     89  F   UNL     1      19.086  -7.949  -8.402  1.00  0.00    -0.206 F 
ATOM     90  C   UNL     1      21.839  -5.975  -7.120  1.00  0.00     0.006 A 
ENDBRANCH  66  83
ENDBRANCH  40  41
ENDBRANCH  32  35
ENDBRANCH  30  31
ENDBRANCH  29  30
ENDBRANCH  28  29
ENDBRANCH   1  28
TORSDOF 15
