REMARK SMILES O=C(NCCCCNC(=O)c1cn(-c2ccccc2)c2c1N=C(O)C[C@@H]2c1cccs1)c1ccc(-c2c3nc(c(-c4c(F)cccc4F)c4ccc([nH]4)c(-c4c(F)cccc4F)c4nc(c(-c5c(F)cccc5F)c5ccc2[nH]5)C=C4)C=C3)cc1
REMARK SMILES IDX 5 1 4 2 3 3 1 4 2 5 32 7 33 8 85 9 34 10 84 11 35 12 36 13
REMARK SMILES IDX 37 14 78 15 38 16 83 17 77 18 79 19 39 20 82 21 76 22 75 23
REMARK SMILES IDX 40 25 66 26 49 27 65 28 50 29 53 30 64 31 80 32 51 33 52 34
REMARK SMILES IDX 63 36 81 37 54 38 41 39 42 40 47 41 43 42 44 43 46 44 48 45
REMARK SMILES IDX 45 46 67 47 68 48 73 49 69 50 70 51 72 52 74 53 71 54 55 55
REMARK SMILES IDX 56 56 61 57 57 58 58 59 60 60 62 61 59 62 6 63 7 64 8 65
REMARK SMILES IDX 9 66 10 68 11 69 12 70 21 71 13 72 20 73 22 74 26 75 23 76
REMARK SMILES IDX 25 77 14 78 15 79 19 80 16 81 18 82 17 83 27 84 28 85 31 86
REMARK SMILES IDX 29 87 30 88 24 89
REMARK H PARENT 3 6 79 24 53 35 8 67 24 90
REMARK Flexibility Score: inf
ROOT
ATOM      1  C   UNL     1       5.060   0.531  -2.070  1.00  0.00     0.023 C 
ENDROOT
BRANCH   1   2
ATOM      2  C   UNL     1       4.755   0.798  -0.595  1.00  0.00     0.116 C 
BRANCH   2   3
ATOM      3  N   UNL     1       3.352   1.016  -0.301  1.00  0.00    -0.352 N 
ATOM      4  O   UNL     1       1.260   0.758   0.363  1.00  0.00    -0.269 OA
ATOM      5  C   UNL     1       2.291   0.199  -0.021  1.00  0.00     0.251 C 
ATOM      6  H   UNL     1       3.107   1.969  -0.303  1.00  0.00     0.163 HD
BRANCH   5   7
ATOM      7  C   UNL     1       2.272  -1.281  -0.200  1.00  0.00     0.039 A 
ATOM      8  C   UNL     1       3.355  -2.069  -0.588  1.00  0.00     0.014 A 
ATOM      9  C   UNL     1       1.027  -1.910  -0.005  1.00  0.00     0.014 A 
ATOM     10  C   UNL     1       3.186  -3.423  -0.866  1.00  0.00     0.010 A 
ATOM     11  C   UNL     1       0.855  -3.268  -0.257  1.00  0.00     0.010 A 
ATOM     12  C   UNL     1       1.931  -4.016  -0.725  1.00  0.00    -0.014 A 
BRANCH  12  13
ATOM     13  C   UNL     1       1.827  -5.453  -0.967  1.00  0.00     0.031 A 
ATOM     14  C   UNL     1       2.582  -6.322  -0.015  1.00  0.00     0.074 A 
ATOM     15  C   UNL     1       0.997  -5.995  -1.879  1.00  0.00     0.049 A 
ATOM     16  N   UNL     1       3.476  -7.222  -0.273  1.00  0.00    -0.248 NA
ATOM     17  C   UNL     1       2.347  -6.109   1.422  1.00  0.00     0.031 C 
ATOM     18  C   UNL     1      -0.036  -5.322  -2.670  1.00  0.00     0.029 A 
ATOM     19  N   UNL     1       0.836  -7.308  -2.212  1.00  0.00    -0.354 N 
ATOM     20  C   UNL     1       3.800  -7.809   0.952  1.00  0.00     0.074 A 
ATOM     21  C   UNL     1       3.164  -7.010   1.966  1.00  0.00     0.031 C 
ATOM     22  C   UNL     1      -0.850  -6.251  -3.219  1.00  0.00     0.029 A 
ATOM     23  C   UNL     1      -0.323  -7.574  -2.925  1.00  0.00     0.049 A 
ATOM     24  H   UNL     1       1.486  -8.006  -1.967  1.00  0.00     0.167 HD
ATOM     25  C   UNL     1       4.410  -9.024   1.034  1.00  0.00     0.037 A 
ATOM     26  C   UNL     1      -0.850  -8.794  -3.194  1.00  0.00     0.037 A 
ATOM     27  C   UNL     1       5.099  -9.353  -0.186  1.00  0.00     0.049 A 
ATOM     28  C   UNL     1       0.215  -9.807  -3.010  1.00  0.00     0.074 A 
ATOM     29  C   UNL     1       6.120  -8.778  -0.919  1.00  0.00     0.029 A 
ATOM     30  N   UNL     1       4.552 -10.303  -1.011  1.00  0.00    -0.354 N 
ATOM     31  N   UNL     1       1.241  -9.951  -3.799  1.00  0.00    -0.248 NA
ATOM     32  C   UNL     1       0.343 -10.426  -1.700  1.00  0.00     0.031 C 
ATOM     33  C   UNL     1       5.796  -9.053  -2.281  1.00  0.00     0.029 A 
ATOM     34  C   UNL     1       4.620  -9.803  -2.283  1.00  0.00     0.049 A 
ATOM     35  H   UNL     1       4.183 -11.174  -0.740  1.00  0.00     0.167 HD
ATOM     36  C   UNL     1       2.287 -10.294  -2.957  1.00  0.00     0.074 A 
ATOM     37  C   UNL     1       1.654 -10.677  -1.699  1.00  0.00     0.031 C 
ATOM     38  C   UNL     1       3.578  -9.973  -3.265  1.00  0.00     0.037 A 
BRANCH  25  39
ATOM     39  C   UNL     1       4.085 -10.072   2.079  1.00  0.00     0.057 A 
ATOM     40  C   UNL     1       4.814 -11.278   2.093  1.00  0.00     0.134 A 
ATOM     41  C   UNL     1       2.904 -10.085   2.848  1.00  0.00     0.134 A 
ATOM     42  F   UNL     1       5.961 -11.400   1.409  1.00  0.00    -0.206 F 
ATOM     43  C   UNL     1       4.345 -12.435   2.728  1.00  0.00     0.040 A 
ATOM     44  C   UNL     1       2.453 -11.221   3.528  1.00  0.00     0.040 A 
ATOM     45  F   UNL     1       2.072  -9.039   2.909  1.00  0.00    -0.206 F 
ATOM     46  C   UNL     1       3.152 -12.413   3.436  1.00  0.00     0.006 A 
ENDBRANCH  25  39
BRANCH  26  47
ATOM     47  C   UNL     1      -2.275  -9.171  -3.327  1.00  0.00     0.057 A 
ATOM     48  C   UNL     1      -2.658 -10.371  -3.943  1.00  0.00     0.134 A 
ATOM     49  C   UNL     1      -3.280  -8.493  -2.616  1.00  0.00     0.134 A 
ATOM     50  F   UNL     1      -1.759 -11.114  -4.605  1.00  0.00    -0.206 F 
ATOM     51  C   UNL     1      -3.961 -10.875  -3.844  1.00  0.00     0.040 A 
ATOM     52  C   UNL     1      -4.587  -8.980  -2.518  1.00  0.00     0.040 A 
ATOM     53  F   UNL     1      -3.007  -7.381  -1.918  1.00  0.00    -0.206 F 
ATOM     54  C   UNL     1      -4.929 -10.182  -3.122  1.00  0.00     0.006 A 
ENDBRANCH  26  47
BRANCH  38  55
ATOM     55  C   UNL     1       3.872  -9.486  -4.653  1.00  0.00     0.057 A 
ATOM     56  C   UNL     1       3.351  -8.299  -5.189  1.00  0.00     0.134 A 
ATOM     57  C   UNL     1       4.835 -10.157  -5.414  1.00  0.00     0.134 A 
ATOM     58  F   UNL     1       2.503  -7.535  -4.489  1.00  0.00    -0.206 F 
ATOM     59  C   UNL     1       3.737  -7.828  -6.447  1.00  0.00     0.040 A 
ATOM     60  C   UNL     1       5.255  -9.679  -6.657  1.00  0.00     0.040 A 
ATOM     61  F   UNL     1       5.421 -11.267  -4.938  1.00  0.00    -0.206 F 
ATOM     62  C   UNL     1       4.698  -8.516  -7.183  1.00  0.00     0.006 A 
ENDBRANCH  38  55
ENDBRANCH  12  13
ENDBRANCH   5   7
ENDBRANCH   2   3
ENDBRANCH   1   2
BRANCH   1  63
ATOM     63  C   UNL     1       4.579   1.609  -3.040  1.00  0.00     0.023 C 
BRANCH  63  64
ATOM     64  C   UNL     1       5.071   3.018  -2.740  1.00  0.00     0.116 C 
BRANCH  64  65
ATOM     65  N   UNL     1       6.513   3.146  -2.858  1.00  0.00    -0.352 N 
ATOM     66  C   UNL     1       7.230   4.113  -3.532  1.00  0.00     0.255 C 
ATOM     67  H   UNL     1       7.046   2.457  -2.399  1.00  0.00     0.163 HD
ATOM     68  O   UNL     1       8.443   4.008  -3.622  1.00  0.00    -0.269 OA
BRANCH  66  69
ATOM     69  C   UNL     1       6.488   5.180  -4.182  1.00  0.00     0.084 A 
ATOM     70  C   UNL     1       6.582   5.491  -5.527  1.00  0.00     0.107 A 
ATOM     71  C   UNL     1       5.516   6.057  -3.663  1.00  0.00     0.101 A 
ATOM     72  N   UNL     1       5.667   6.480  -5.838  1.00  0.00    -0.317 N 
ATOM     73  C   UNL     1       4.947   6.768  -4.689  1.00  0.00     0.058 A 
ATOM     74  N   UNL     1       5.046   6.043  -2.352  1.00  0.00    -0.215 NA
ATOM     75  C   UNL     1       3.650   7.497  -4.577  1.00  0.00     0.088 C 
ATOM     76  C   UNL     1       4.017   6.789  -2.138  1.00  0.00     0.187 C 
ATOM     77  C   UNL     1       3.327   7.738  -3.087  1.00  0.00     0.112 C 
BRANCH  72  78
ATOM     78  C   UNL     1       5.472   7.001  -7.140  1.00  0.00     0.045 A 
ATOM     79  C   UNL     1       5.315   8.376  -7.334  1.00  0.00     0.026 A 
ATOM     80  C   UNL     1       5.468   6.128  -8.236  1.00  0.00     0.026 A 
ATOM     81  C   UNL     1       5.154   8.874  -8.628  1.00  0.00     0.002 A 
ATOM     82  C   UNL     1       5.272   6.630  -9.522  1.00  0.00     0.002 A 
ATOM     83  C   UNL     1       5.122   8.002  -9.718  1.00  0.00     0.000 A 
ENDBRANCH  72  78
BRANCH  75  84
ATOM     84  C   UNL     1       2.461   6.821  -5.262  1.00  0.00     0.014 A 
ATOM     85  C   UNL     1       1.235   7.406  -5.543  1.00  0.00     0.016 A 
ATOM     86  S   UNL     1       2.468   5.177  -5.770  1.00  0.00    -0.148 S 
ATOM     87  C   UNL     1       0.334   6.523  -6.203  1.00  0.00     0.012 A 
ATOM     88  C   UNL     1       0.896   5.288  -6.423  1.00  0.00     0.065 A 
ENDBRANCH  75  84
BRANCH  76  89
ATOM     89  O   UNL     1       3.497   6.788  -0.892  1.00  0.00    -0.496 OA
ATOM     90  H   UNL     1       3.860   6.230  -0.233  1.00  0.00     0.294 HD
ENDBRANCH  76  89
ENDBRANCH  66  69
ENDBRANCH  64  65
ENDBRANCH  63  64
ENDBRANCH   1  63
TORSDOF 14
