REMARK SMILES CC(C)(C)OC(=O)N[C@@H](C(=O)NCCCCNC(=O)c1ccc(-c2c3nc(c(-c4c(F)cccc4F)c4ccc([nH]4)c(-c4c(F)cccc4F)c4nc(c(-c5c(F)cccc5F)c5ccc2[nH]5)C=C4)C=C3)cc1)[C@H](O)c1ccccc1F
REMARK SMILES IDX 14 1 13 2 12 3 10 4 11 5 9 7 8 8 6 9 7 10 5 12 2 13 1 14
REMARK SMILES IDX 3 15 4 16 74 17 76 18 77 19 81 20 78 21 80 22 82 23 79 24
REMARK SMILES IDX 75 25 15 27 16 28 17 29 18 30 19 32 20 33 21 34 73 35 22 36
REMARK SMILES IDX 72 37 23 38 24 39 25 40 66 41 26 42 71 43 65 44 67 45 27 46
REMARK SMILES IDX 70 47 64 48 63 49 28 51 54 52 37 53 53 54 38 55 41 56 52 57
REMARK SMILES IDX 68 58 39 59 40 60 51 62 69 63 42 64 29 65 30 66 35 67 31 68
REMARK SMILES IDX 32 69 34 70 36 71 33 72 55 73 56 74 61 75 57 76 58 77 60 78
REMARK SMILES IDX 62 79 59 80 43 81 44 82 49 83 45 84 46 85 48 86 50 87 47 88
REMARK H PARENT 12 6 8 11 75 26 17 31 67 50 41 61
REMARK Flexibility Score: inf
ROOT
ATOM      1  C   UNL     1      -3.811  -4.590   0.751  1.00  0.00     0.023 C 
ENDROOT
BRANCH   1   2
ATOM      2  C   UNL     1      -2.500  -4.152   0.096  1.00  0.00     0.116 C 
BRANCH   2   3
ATOM      3  N   UNL     1      -1.603  -3.592   1.087  1.00  0.00    -0.354 N 
ATOM      4  C   UNL     1      -0.560  -4.200   1.727  1.00  0.00     0.245 C 
ATOM      5  O   UNL     1      -0.113  -3.650   2.737  1.00  0.00    -0.273 OA
ATOM      6  H   UNL     1      -1.767  -2.652   1.331  1.00  0.00     0.163 HD
BRANCH   4   7
ATOM      7  C   UNL     1      -0.015  -5.546   1.212  1.00  0.00     0.208 C 
BRANCH   7   8
ATOM      8  N   UNL     1      -1.009  -6.576   1.573  1.00  0.00    -0.307 N 
ATOM      9  C   UNL     1      -1.648  -7.451   0.753  1.00  0.00     0.408 C 
ATOM     10  O   UNL     1      -2.469  -8.238   1.207  1.00  0.00    -0.225 OA
ATOM     11  H   UNL     1      -1.238  -6.637   2.529  1.00  0.00     0.168 HD
BRANCH   9  12
ATOM     12  O   UNL     1      -1.317  -7.313  -0.550  1.00  0.00    -0.444 OA
BRANCH  12  13
ATOM     13  C   UNL     1      -2.010  -8.077  -1.576  1.00  0.00     0.106 C 
ATOM     14  C   UNL     1      -1.411  -7.596  -2.907  1.00  0.00     0.056 C 
ATOM     15  C   UNL     1      -3.513  -7.768  -1.595  1.00  0.00     0.056 C 
ATOM     16  C   UNL     1      -1.738  -9.577  -1.428  1.00  0.00     0.056 C 
ENDBRANCH  12  13
ENDBRANCH   9  12
ENDBRANCH   7   8
BRANCH   7  17
ATOM     17  C   UNL     1       1.369  -5.912   1.837  1.00  0.00     0.179 C 
BRANCH  17  18
ATOM     18  C   UNL     1       2.228  -6.663   0.838  1.00  0.00     0.019 A 
ATOM     19  C   UNL     1       2.119  -8.058   0.722  1.00  0.00     0.009 A 
ATOM     20  C   UNL     1       3.116  -5.997  -0.017  1.00  0.00     0.129 A 
ATOM     21  C   UNL     1       2.900  -8.759  -0.202  1.00  0.00     0.001 A 
ATOM     22  C   UNL     1       3.913  -6.694  -0.921  1.00  0.00     0.039 A 
ATOM     23  F   UNL     1       3.204  -4.660  -0.005  1.00  0.00    -0.207 F 
ATOM     24  C   UNL     1       3.806  -8.078  -1.014  1.00  0.00     0.003 A 
ENDBRANCH  17  18
BRANCH  17  25
ATOM     25  O   UNL     1       2.132  -4.826   2.361  1.00  0.00    -0.386 OA
ATOM     26  H   UNL     1       2.398  -4.238   1.636  1.00  0.00     0.211 HD
ENDBRANCH  17  25
ENDBRANCH   7  17
ENDBRANCH   4   7
ENDBRANCH   2   3
ENDBRANCH   1   2
BRANCH   1  27
ATOM     27  C   UNL     1      -4.697  -3.424   1.196  1.00  0.00     0.023 C 
BRANCH  27  28
ATOM     28  C   UNL     1      -5.089  -2.463   0.080  1.00  0.00     0.116 C 
BRANCH  28  29
ATOM     29  N   UNL     1      -5.818  -3.114  -0.998  1.00  0.00    -0.352 N 
ATOM     30  C   UNL     1      -6.917  -2.659  -1.685  1.00  0.00     0.251 C 
ATOM     31  H   UNL     1      -5.478  -3.996  -1.272  1.00  0.00     0.163 HD
ATOM     32  O   UNL     1      -7.504  -3.392  -2.474  1.00  0.00    -0.269 OA
BRANCH  30  33
ATOM     33  C   UNL     1      -7.407  -1.288  -1.436  1.00  0.00     0.039 A 
ATOM     34  C   UNL     1      -8.769  -1.093  -1.200  1.00  0.00     0.014 A 
ATOM     35  C   UNL     1      -6.521  -0.208  -1.398  1.00  0.00     0.014 A 
ATOM     36  C   UNL     1      -9.233   0.179  -0.862  1.00  0.00     0.010 A 
ATOM     37  C   UNL     1      -6.972   1.040  -0.982  1.00  0.00     0.010 A 
ATOM     38  C   UNL     1      -8.333   1.248  -0.711  1.00  0.00    -0.014 A 
BRANCH  38  39
ATOM     39  C   UNL     1      -8.799   2.585  -0.263  1.00  0.00     0.031 A 
ATOM     40  C   UNL     1      -8.649   3.780  -1.163  1.00  0.00     0.074 A 
ATOM     41  C   UNL     1      -9.306   2.732   0.977  1.00  0.00     0.049 A 
ATOM     42  N   UNL     1      -8.948   5.033  -0.930  1.00  0.00    -0.248 NA
ATOM     43  C   UNL     1      -8.062   3.543  -2.492  1.00  0.00     0.031 C 
ATOM     44  C   UNL     1      -9.458   1.661   1.963  1.00  0.00     0.029 A 
ATOM     45  N   UNL     1      -9.781   3.846   1.624  1.00  0.00    -0.354 N 
ATOM     46  C   UNL     1      -8.579   5.730  -2.073  1.00  0.00     0.074 A 
ATOM     47  C   UNL     1      -7.981   4.773  -2.978  1.00  0.00     0.031 C 
ATOM     48  C   UNL     1     -10.013   2.163   3.078  1.00  0.00     0.029 A 
ATOM     49  C   UNL     1     -10.215   3.598   2.904  1.00  0.00     0.049 A 
ATOM     50  H   UNL     1      -9.808   4.739   1.210  1.00  0.00     0.167 HD
ATOM     51  C   UNL     1      -8.746   7.044  -2.354  1.00  0.00     0.037 A 
ATOM     52  C   UNL     1     -10.709   4.434   3.837  1.00  0.00     0.037 A 
ATOM     53  C   UNL     1      -9.359   7.990  -1.459  1.00  0.00     0.049 A 
ATOM     54  C   UNL     1     -10.864   5.894   3.505  1.00  0.00     0.074 A 
ATOM     55  C   UNL     1      -9.626   9.331  -1.676  1.00  0.00     0.029 A 
ATOM     56  N   UNL     1      -9.793   7.699  -0.175  1.00  0.00    -0.354 N 
ATOM     57  N   UNL     1     -10.581   6.524   2.390  1.00  0.00    -0.248 NA
ATOM     58  C   UNL     1     -11.414   6.758   4.559  1.00  0.00     0.031 C 
ATOM     59  C   UNL     1     -10.168   9.864  -0.503  1.00  0.00     0.029 A 
ATOM     60  C   UNL     1     -10.300   8.842   0.422  1.00  0.00     0.049 A 
ATOM     61  H   UNL     1      -9.749   6.811   0.249  1.00  0.00     0.167 HD
ATOM     62  C   UNL     1     -10.949   7.847   2.597  1.00  0.00     0.074 A 
ATOM     63  C   UNL     1     -11.492   7.925   3.937  1.00  0.00     0.031 C 
ATOM     64  C   UNL     1     -10.847   8.903   1.754  1.00  0.00     0.037 A 
BRANCH  51  65
ATOM     65  C   UNL     1      -8.260   7.540  -3.686  1.00  0.00     0.057 A 
ATOM     66  C   UNL     1      -8.892   7.183  -4.885  1.00  0.00     0.134 A 
ATOM     67  C   UNL     1      -7.183   8.432  -3.766  1.00  0.00     0.134 A 
ATOM     68  F   UNL     1      -9.923   6.324  -4.881  1.00  0.00    -0.206 F 
ATOM     69  C   UNL     1      -8.456   7.676  -6.116  1.00  0.00     0.040 A 
ATOM     70  C   UNL     1      -6.757   8.955  -4.988  1.00  0.00     0.040 A 
ATOM     71  F   UNL     1      -6.536   8.822  -2.657  1.00  0.00    -0.206 F 
ATOM     72  C   UNL     1      -7.391   8.573  -6.168  1.00  0.00     0.006 A 
ENDBRANCH  51  65
BRANCH  52  73
ATOM     73  C   UNL     1     -11.101   3.918   5.175  1.00  0.00     0.057 A 
ATOM     74  C   UNL     1     -12.440   3.913   5.586  1.00  0.00     0.134 A 
ATOM     75  C   UNL     1     -10.147   3.448   6.086  1.00  0.00     0.134 A 
ATOM     76  F   UNL     1     -13.399   4.367   4.767  1.00  0.00    -0.206 F 
ATOM     77  C   UNL     1     -12.812   3.490   6.863  1.00  0.00     0.040 A 
ATOM     78  C   UNL     1     -10.509   2.993   7.355  1.00  0.00     0.040 A 
ATOM     79  F   UNL     1      -8.849   3.418   5.752  1.00  0.00    -0.206 F 
ATOM     80  C   UNL     1     -11.844   3.024   7.751  1.00  0.00     0.006 A 
ENDBRANCH  52  73
BRANCH  64  81
ATOM     81  C   UNL     1     -11.373  10.225   2.236  1.00  0.00     0.057 A 
ATOM     82  C   UNL     1     -10.734  10.957   3.245  1.00  0.00     0.134 A 
ATOM     83  C   UNL     1     -12.516  10.790   1.655  1.00  0.00     0.134 A 
ATOM     84  F   UNL     1      -9.641  10.469   3.852  1.00  0.00    -0.206 F 
ATOM     85  C   UNL     1     -11.229  12.189   3.678  1.00  0.00     0.040 A 
ATOM     86  C   UNL     1     -13.002  12.034   2.057  1.00  0.00     0.040 A 
ATOM     87  F   UNL     1     -13.171  10.148   0.676  1.00  0.00    -0.206 F 
ATOM     88  C   UNL     1     -12.362  12.734   3.078  1.00  0.00     0.006 A 
ENDBRANCH  64  81
ENDBRANCH  38  39
ENDBRANCH  30  33
ENDBRANCH  28  29
ENDBRANCH  27  28
ENDBRANCH   1  27
TORSDOF 17
