REMARK SMILES C[C@H](Nc1cccc(F)c1C(=O)NCCCCNC(=O)c1ccc(-c2c3nc(c(-c4c(F)cccc4F)c4ccc([nH]4)c(-c4c(F)cccc4F)c4nc(c(-c5c(F)cccc5F)c5ccc2[nH]5)C=C4)C=C3)cc1)c1cccc(Cl)c1
REMARK SMILES IDX 15 1 14 2 13 3 11 4 12 5 10 7 4 8 5 9 6 10 8 11 7 12 9 13
REMARK SMILES IDX 3 14 2 16 1 17 75 18 76 19 81 20 77 21 79 22 78 23 80 24
REMARK SMILES IDX 16 25 17 26 18 27 19 28 20 30 21 31 22 32 74 33 23 34 73 35
REMARK SMILES IDX 24 36 25 37 26 38 67 39 27 40 72 41 66 42 68 43 28 44 71 45
REMARK SMILES IDX 65 46 64 47 29 49 55 50 38 51 54 52 39 53 42 54 53 55 69 56
REMARK SMILES IDX 40 57 41 58 52 60 70 61 43 62 30 63 31 64 36 65 32 66 33 67
REMARK SMILES IDX 35 68 37 69 34 70 56 71 57 72 62 73 58 74 59 75 61 76 63 77
REMARK SMILES IDX 60 78 44 79 45 80 50 81 46 82 47 83 49 84 51 85 48 86
REMARK H PARENT 13 6 3 15 18 29 68 48 42 59
REMARK Flexibility Score: inf
ROOT
ATOM      1  C   UNL     1       0.866   0.267   6.251  1.00  0.00     0.023 C 
ENDROOT
BRANCH   1   2
ATOM      2  C   UNL     1       0.383  -0.666   5.144  1.00  0.00     0.116 C 
BRANCH   2   3
ATOM      3  N   UNL     1      -0.178   0.018   3.991  1.00  0.00    -0.352 N 
ATOM      4  C   UNL     1      -0.047  -0.214   2.638  1.00  0.00     0.256 C 
ATOM      5  O   UNL     1      -0.597   0.595   1.889  1.00  0.00    -0.269 OA
ATOM      6  H   UNL     1      -0.754   0.784   4.216  1.00  0.00     0.163 HD
BRANCH   4   7
ATOM      7  C   UNL     1       0.812  -1.300   2.073  1.00  0.00     0.098 A 
ATOM      8  C   UNL     1       1.538  -1.084   0.875  1.00  0.00     0.050 A 
ATOM      9  C   UNL     1       2.560  -1.992   0.547  1.00  0.00     0.027 A 
ATOM     10  C   UNL     1       2.779  -3.151   1.288  1.00  0.00     0.005 A 
ATOM     11  C   UNL     1       0.949  -2.532   2.717  1.00  0.00     0.138 A 
ATOM     12  C   UNL     1       1.934  -3.446   2.347  1.00  0.00     0.040 A 
ATOM     13  F   UNL     1       0.124  -2.893   3.711  1.00  0.00    -0.206 F 
BRANCH   8  14
ATOM     14  N   UNL     1       1.236  -0.050  -0.022  1.00  0.00    -0.378 N 
ATOM     15  H   UNL     1       1.438   0.877   0.241  1.00  0.00     0.161 HD
BRANCH  14  16
ATOM     16  C   UNL     1       0.628  -0.295  -1.348  1.00  0.00     0.106 C 
ATOM     17  C   UNL     1       1.224  -1.449  -2.158  1.00  0.00     0.036 C 
BRANCH  16  18
ATOM     18  C   UNL     1      -0.892  -0.354  -1.236  1.00  0.00    -0.025 A 
ATOM     19  C   UNL     1      -1.625   0.848  -1.243  1.00  0.00     0.006 A 
ATOM     20  C   UNL     1      -1.600  -1.560  -1.106  1.00  0.00     0.026 A 
ATOM     21  C   UNL     1      -3.018   0.846  -1.149  1.00  0.00     0.002 A 
ATOM     22  C   UNL     1      -2.995  -1.557  -1.021  1.00  0.00     0.041 A 
ATOM     23  C   UNL     1      -3.706  -0.360  -1.046  1.00  0.00     0.020 A 
ATOM     24  Cl  UNL     1      -3.845  -3.048  -0.891  1.00  0.00    -0.084 Cl
ENDBRANCH  16  18
ENDBRANCH  14  16
ENDBRANCH   8  14
ENDBRANCH   4   7
ENDBRANCH   2   3
ENDBRANCH   1   2
BRANCH   1  25
ATOM     25  C   UNL     1      -0.176   1.190   6.877  1.00  0.00     0.023 C 
BRANCH  25  26
ATOM     26  C   UNL     1      -1.467   0.533   7.354  1.00  0.00     0.116 C 
BRANCH  26  27
ATOM     27  N   UNL     1      -1.264  -0.523   8.333  1.00  0.00    -0.352 N 
ATOM     28  C   UNL     1      -1.808  -0.695   9.586  1.00  0.00     0.251 C 
ATOM     29  H   UNL     1      -0.636  -1.229   8.056  1.00  0.00     0.163 HD
ATOM     30  O   UNL     1      -1.439  -1.630  10.288  1.00  0.00    -0.269 OA
BRANCH  28  31
ATOM     31  C   UNL     1      -2.803   0.267  10.114  1.00  0.00     0.039 A 
ATOM     32  C   UNL     1      -2.659   0.723  11.428  1.00  0.00     0.014 A 
ATOM     33  C   UNL     1      -3.864   0.727   9.331  1.00  0.00     0.014 A 
ATOM     34  C   UNL     1      -3.518   1.709  11.921  1.00  0.00     0.010 A 
ATOM     35  C   UNL     1      -4.671   1.764   9.795  1.00  0.00     0.010 A 
ATOM     36  C   UNL     1      -4.499   2.275  11.091  1.00  0.00    -0.014 A 
BRANCH  36  37
ATOM     37  C   UNL     1      -5.332   3.417  11.547  1.00  0.00     0.031 A 
ATOM     38  C   UNL     1      -6.823   3.272  11.670  1.00  0.00     0.074 A 
ATOM     39  C   UNL     1      -4.753   4.611  11.785  1.00  0.00     0.049 A 
ATOM     40  N   UNL     1      -7.719   4.178  11.971  1.00  0.00    -0.248 NA
ATOM     41  C   UNL     1      -7.385   1.940  11.394  1.00  0.00     0.031 C 
ATOM     42  C   UNL     1      -3.323   4.898  11.659  1.00  0.00     0.029 A 
ATOM     43  N   UNL     1      -5.298   5.809  12.177  1.00  0.00    -0.354 N 
ATOM     44  C   UNL     1      -8.947   3.532  11.904  1.00  0.00     0.074 A 
ATOM     45  C   UNL     1      -8.687   2.171  11.489  1.00  0.00     0.031 C 
ATOM     46  C   UNL     1      -3.100   6.178  11.995  1.00  0.00     0.029 A 
ATOM     47  C   UNL     1      -4.372   6.814  12.323  1.00  0.00     0.049 A 
ATOM     48  H   UNL     1      -6.261   5.937  12.337  1.00  0.00     0.167 HD
ATOM     49  C   UNL     1     -10.177   4.023  12.187  1.00  0.00     0.037 A 
ATOM     50  C   UNL     1      -4.528   8.104  12.679  1.00  0.00     0.037 A 
ATOM     51  C   UNL     1     -10.433   5.367  12.633  1.00  0.00     0.049 A 
ATOM     52  C   UNL     1      -5.902   8.624  12.990  1.00  0.00     0.074 A 
ATOM     53  C   UNL     1     -11.640   5.936  12.998  1.00  0.00     0.029 A 
ATOM     54  N   UNL     1      -9.466   6.349  12.779  1.00  0.00    -0.354 N 
ATOM     55  N   UNL     1      -7.048   7.989  12.967  1.00  0.00    -0.248 NA
ATOM     56  C   UNL     1      -6.007  10.039  13.377  1.00  0.00     0.031 C 
ATOM     57  C   UNL     1     -11.410   7.273  13.333  1.00  0.00     0.029 A 
ATOM     58  C   UNL     1     -10.053   7.526  13.215  1.00  0.00     0.049 A 
ATOM     59  H   UNL     1      -8.506   6.229  12.600  1.00  0.00     0.167 HD
ATOM     60  C   UNL     1      -8.006   8.916  13.354  1.00  0.00     0.074 A 
ATOM     61  C   UNL     1      -7.306  10.156  13.619  1.00  0.00     0.031 C 
ATOM     62  C   UNL     1      -9.345   8.752  13.479  1.00  0.00     0.037 A 
BRANCH  49  63
ATOM     63  C   UNL     1     -11.345   3.094  12.040  1.00  0.00     0.057 A 
ATOM     64  C   UNL     1     -12.285   3.280  11.018  1.00  0.00     0.134 A 
ATOM     65  C   UNL     1     -11.571   2.050  12.945  1.00  0.00     0.134 A 
ATOM     66  F   UNL     1     -12.132   4.267  10.122  1.00  0.00    -0.206 F 
ATOM     67  C   UNL     1     -13.412   2.464  10.908  1.00  0.00     0.040 A 
ATOM     68  C   UNL     1     -12.681   1.211  12.830  1.00  0.00     0.040 A 
ATOM     69  F   UNL     1     -10.702   1.812  13.939  1.00  0.00    -0.206 F 
ATOM     70  C   UNL     1     -13.610   1.423  11.813  1.00  0.00     0.006 A 
ENDBRANCH  49  63
BRANCH  50  71
ATOM     71  C   UNL     1      -3.338   8.983  12.795  1.00  0.00     0.057 A 
ATOM     72  C   UNL     1      -2.637   9.425  11.667  1.00  0.00     0.134 A 
ATOM     73  C   UNL     1      -2.861   9.380  14.049  1.00  0.00     0.134 A 
ATOM     74  F   UNL     1      -3.041   9.073  10.438  1.00  0.00    -0.206 F 
ATOM     75  C   UNL     1      -1.495  10.219  11.783  1.00  0.00     0.040 A 
ATOM     76  C   UNL     1      -1.732  10.191  14.179  1.00  0.00     0.040 A 
ATOM     77  F   UNL     1      -3.502   9.002  15.165  1.00  0.00    -0.206 F 
ATOM     78  C   UNL     1      -1.042  10.607  13.042  1.00  0.00     0.006 A 
ENDBRANCH  50  71
BRANCH  62  79
ATOM     79  C   UNL     1     -10.149   9.930  13.940  1.00  0.00     0.057 A 
ATOM     80  C   UNL     1     -10.709   9.954  15.223  1.00  0.00     0.134 A 
ATOM     81  C   UNL     1     -10.432  11.005  13.088  1.00  0.00     0.134 A 
ATOM     82  F   UNL     1     -10.483   8.950  16.084  1.00  0.00    -0.206 F 
ATOM     83  C   UNL     1     -11.536  10.998  15.639  1.00  0.00     0.040 A 
ATOM     84  C   UNL     1     -11.240  12.066  13.500  1.00  0.00     0.040 A 
ATOM     85  F   UNL     1      -9.916  11.045  11.851  1.00  0.00    -0.206 F 
ATOM     86  C   UNL     1     -11.802  12.059  14.775  1.00  0.00     0.006 A 
ENDBRANCH  62  79
ENDBRANCH  36  37
ENDBRANCH  28  31
ENDBRANCH  26  27
ENDBRANCH  25  26
ENDBRANCH   1  25
TORSDOF 14
