REMARK SMILES CN(C)S(=O)(=O)c1cccc(-c2cc(Cl)cc(C(=O)NCCCCNC(=O)c3ccc(-c4c5nc(c(-c6c(F)cccc6F)c6ccc([nH]6)c(-c6c(F)cccc6F)c6nc(c(-c7c(F)cccc7F)c7ccc4[nH]7)C=C6)C=C5)cc3)c2)c1
REMARK SMILES IDX 22 1 21 2 20 3 18 4 19 5 17 7 12 8 13 9 82 10 14 11 15 12
REMARK SMILES IDX 16 13 11 14 7 15 8 16 83 17 9 18 10 19 4 20 5 21 6 22 2 23
REMARK SMILES IDX 1 24 3 25 23 26 24 27 25 28 26 29 27 31 28 32 29 33 81 34
REMARK SMILES IDX 30 35 80 36 31 37 32 38 33 39 74 40 34 41 79 42 73 43 75 44
REMARK SMILES IDX 35 45 78 46 72 47 71 48 36 50 62 51 45 52 61 53 46 54 49 55
REMARK SMILES IDX 60 56 76 57 47 58 48 59 59 61 77 62 50 63 37 64 38 65 43 66
REMARK SMILES IDX 39 67 40 68 42 69 44 70 41 71 63 72 64 73 69 74 65 75 66 76
REMARK SMILES IDX 68 77 70 78 67 79 51 80 52 81 57 82 53 83 54 84 56 85 58 86
REMARK SMILES IDX 55 87
REMARK H PARENT 20 6 25 30 75 49 49 60
REMARK Flexibility Score: inf
ROOT
ATOM      1  C   UNL     1       3.729   3.241   7.898  1.00  0.00     0.023 C 
ENDROOT
BRANCH   1   2
ATOM      2  C   UNL     1       2.298   2.752   7.714  1.00  0.00     0.116 C 
BRANCH   2   3
ATOM      3  N   UNL     1       1.538   2.583   8.946  1.00  0.00    -0.352 N 
ATOM      4  C   UNL     1       0.230   2.899   9.253  1.00  0.00     0.251 C 
ATOM      5  O   UNL     1      -0.193   2.662  10.383  1.00  0.00    -0.269 OA
ATOM      6  H   UNL     1       2.044   2.174   9.685  1.00  0.00     0.163 HD
BRANCH   4   7
ATOM      7  C   UNL     1      -0.664   3.575   8.276  1.00  0.00     0.041 A 
ATOM      8  C   UNL     1      -1.181   4.162   5.960  1.00  0.00    -0.016 A 
ATOM      9  C   UNL     1      -2.073   5.133   6.432  1.00  0.00     0.029 A 
ATOM     10  C   UNL     1      -0.584   3.314   6.909  1.00  0.00     0.022 A 
ATOM     11  C   UNL     1      -2.282   5.294   7.806  1.00  0.00     0.042 A 
ATOM     12  Cl  UNL     1      -3.379   6.501   8.359  1.00  0.00    -0.084 Cl
ATOM     13  C   UNL     1      -1.560   4.543   8.732  1.00  0.00     0.034 A 
BRANCH   8  14
ATOM     14  C   UNL     1      -0.688   4.125   4.564  1.00  0.00    -0.017 A 
ATOM     15  C   UNL     1       0.426   2.907   2.775  1.00  0.00     0.083 A 
ATOM     16  C   UNL     1       0.775   4.097   2.137  1.00  0.00     0.022 A 
ATOM     17  C   UNL     1      -0.327   2.913   3.954  1.00  0.00     0.030 A 
ATOM     18  C   UNL     1       0.361   5.305   2.689  1.00  0.00     0.002 A 
ATOM     19  C   UNL     1      -0.354   5.317   3.892  1.00  0.00     0.009 A 
BRANCH  15  20
ATOM     20  S   UNL     1       1.071   1.372   2.162  1.00  0.00     0.242 S 
ATOM     21  O   UNL     1       0.496   0.297   2.947  1.00  0.00    -0.207 OA
ATOM     22  O   UNL     1       2.504   1.535   2.057  1.00  0.00    -0.207 OA
BRANCH  20  23
ATOM     23  N   UNL     1       0.418   1.263   0.587  1.00  0.00    -0.204 NA
ATOM     24  C   UNL     1       1.032   0.164  -0.196  1.00  0.00     0.124 C 
ATOM     25  C   UNL     1      -1.059   1.211   0.525  1.00  0.00     0.124 C 
ENDBRANCH  20  23
ENDBRANCH  15  20
ENDBRANCH   8  14
ENDBRANCH   4   7
ENDBRANCH   2   3
ENDBRANCH   1   2
BRANCH   1  26
ATOM     26  C   UNL     1       4.659   2.355   8.716  1.00  0.00     0.023 C 
BRANCH  26  27
ATOM     27  C   UNL     1       4.707   0.879   8.336  1.00  0.00     0.116 C 
BRANCH  27  28
ATOM     28  N   UNL     1       5.061   0.630   6.948  1.00  0.00    -0.352 N 
ATOM     29  C   UNL     1       6.021  -0.191   6.404  1.00  0.00     0.251 C 
ATOM     30  H   UNL     1       4.525   1.131   6.290  1.00  0.00     0.163 HD
ATOM     31  O   UNL     1       6.185  -0.208   5.187  1.00  0.00    -0.269 OA
BRANCH  29  32
ATOM     32  C   UNL     1       6.899  -1.016   7.264  1.00  0.00     0.039 A 
ATOM     33  C   UNL     1       8.262  -1.076   6.951  1.00  0.00     0.014 A 
ATOM     34  C   UNL     1       6.410  -1.726   8.362  1.00  0.00     0.014 A 
ATOM     35  C   UNL     1       9.142  -1.764   7.791  1.00  0.00     0.010 A 
ATOM     36  C   UNL     1       7.297  -2.345   9.242  1.00  0.00     0.010 A 
ATOM     37  C   UNL     1       8.673  -2.361   8.971  1.00  0.00    -0.014 A 
BRANCH  37  38
ATOM     38  C   UNL     1       9.617  -2.973   9.941  1.00  0.00     0.031 A 
ATOM     39  C   UNL     1       9.569  -4.446  10.234  1.00  0.00     0.074 A 
ATOM     40  C   UNL     1      10.482  -2.184  10.608  1.00  0.00     0.049 A 
ATOM     41  N   UNL     1      10.295  -5.145  11.070  1.00  0.00    -0.248 NA
ATOM     42  C   UNL     1       8.556  -5.234   9.515  1.00  0.00     0.031 C 
ATOM     43  C   UNL     1      10.582  -0.729  10.469  1.00  0.00     0.029 A 
ATOM     44  N   UNL     1      11.438  -2.494  11.542  1.00  0.00    -0.354 N 
ATOM     45  C   UNL     1       9.815  -6.446  10.993  1.00  0.00     0.074 A 
ATOM     46  C   UNL     1       8.708  -6.432  10.061  1.00  0.00     0.031 C 
ATOM     47  C   UNL     1      11.563  -0.278  11.266  1.00  0.00     0.029 A 
ATOM     48  C   UNL     1      12.144  -1.404  11.990  1.00  0.00     0.049 A 
ATOM     49  H   UNL     1      11.603  -3.410  11.861  1.00  0.00     0.167 HD
ATOM     50  C   UNL     1      10.269  -7.556  11.623  1.00  0.00     0.037 A 
ATOM     51  C   UNL     1      13.151  -1.321  12.880  1.00  0.00     0.037 A 
ATOM     52  C   UNL     1      11.393  -7.579  12.521  1.00  0.00     0.049 A 
ATOM     53  C   UNL     1      13.665  -2.572  13.531  1.00  0.00     0.074 A 
ATOM     54  C   UNL     1      11.976  -8.668  13.146  1.00  0.00     0.029 A 
ATOM     55  N   UNL     1      12.107  -6.460  12.920  1.00  0.00    -0.354 N 
ATOM     56  N   UNL     1      13.252  -3.807  13.386  1.00  0.00    -0.248 NA
ATOM     57  C   UNL     1      14.791  -2.418  14.463  1.00  0.00     0.031 C 
ATOM     58  C   UNL     1      13.025  -8.203  13.948  1.00  0.00     0.029 A 
ATOM     59  C   UNL     1      13.116  -6.829  13.795  1.00  0.00     0.049 A 
ATOM     60  H   UNL     1      11.924  -5.538  12.626  1.00  0.00     0.167 HD
ATOM     61  C   UNL     1      14.078  -4.580  14.191  1.00  0.00     0.074 A 
ATOM     62  C   UNL     1      15.027  -3.676  14.808  1.00  0.00     0.031 C 
ATOM     63  C   UNL     1      14.052  -5.918  14.400  1.00  0.00     0.037 A 
BRANCH  50  64
ATOM     64  C   UNL     1       9.551  -8.844  11.351  1.00  0.00     0.057 A 
ATOM     65  C   UNL     1       9.676  -9.511  10.125  1.00  0.00     0.134 A 
ATOM     66  C   UNL     1       8.750  -9.439  12.333  1.00  0.00     0.134 A 
ATOM     67  F   UNL     1      10.419  -8.986   9.139  1.00  0.00    -0.206 F 
ATOM     68  C   UNL     1       9.010 -10.712   9.877  1.00  0.00     0.040 A 
ATOM     69  C   UNL     1       8.098 -10.652  12.105  1.00  0.00     0.040 A 
ATOM     70  F   UNL     1       8.592  -8.855  13.530  1.00  0.00    -0.206 F 
ATOM     71  C   UNL     1       8.223 -11.289  10.872  1.00  0.00     0.006 A 
ENDBRANCH  50  64
BRANCH  51  72
ATOM     72  C   UNL     1      13.768  -0.005  13.178  1.00  0.00     0.057 A 
ATOM     73  C   UNL     1      15.043   0.315  12.697  1.00  0.00     0.134 A 
ATOM     74  C   UNL     1      13.105   0.957  13.948  1.00  0.00     0.134 A 
ATOM     75  F   UNL     1      15.732  -0.575  11.969  1.00  0.00    -0.206 F 
ATOM     76  C   UNL     1      15.645   1.541  12.984  1.00  0.00     0.040 A 
ATOM     77  C   UNL     1      13.687   2.194  14.226  1.00  0.00     0.040 A 
ATOM     78  F   UNL     1      11.879   0.710  14.431  1.00  0.00    -0.206 F 
ATOM     79  C   UNL     1      14.964   2.486  13.748  1.00  0.00     0.006 A 
ENDBRANCH  51  72
BRANCH  63  80
ATOM     80  C   UNL     1      15.091  -6.483  15.320  1.00  0.00     0.057 A 
ATOM     81  C   UNL     1      15.014  -6.314  16.708  1.00  0.00     0.134 A 
ATOM     82  C   UNL     1      16.168  -7.222  14.815  1.00  0.00     0.134 A 
ATOM     83  F   UNL     1      14.015  -5.603  17.252  1.00  0.00    -0.206 F 
ATOM     84  C   UNL     1      15.985  -6.842  17.561  1.00  0.00     0.040 A 
ATOM     85  C   UNL     1      17.133  -7.773  15.658  1.00  0.00     0.040 A 
ATOM     86  F   UNL     1      16.295  -7.424  13.495  1.00  0.00    -0.206 F 
ATOM     87  C   UNL     1      17.046  -7.578  17.036  1.00  0.00     0.006 A 
ENDBRANCH  63  80
ENDBRANCH  37  38
ENDBRANCH  29  32
ENDBRANCH  27  28
ENDBRANCH  26  27
ENDBRANCH   1  26
TORSDOF 14
