REMARK SMILES O=C(CCCc1nc(-c2ccc(Cl)c(Cl)c2)c(-c2ccccc2)o1)NCCCCNC(=O)c1ccc(-c2c3nc(c(-c4c(F)cccc4F)c4ccc([nH]4)c(-c4c(F)cccc4F)c4nc(c(-c5c(F)cccc5F)c5ccc2[nH]5)C=C4)C=C3)cc1
REMARK SMILES IDX 26 1 25 2 1 3 2 4 3 6 4 7 5 8 6 9 7 10 24 11 8 12 17 13 9 14
REMARK SMILES IDX 10 15 16 16 11 17 14 18 12 19 15 20 13 21 18 22 19 23 23 24
REMARK SMILES IDX 20 25 22 26 21 27 27 28 28 29 29 30 30 31 31 32 32 34 33 35
REMARK SMILES IDX 34 36 86 37 35 38 85 39 36 40 37 41 38 42 79 43 39 44 84 45
REMARK SMILES IDX 78 46 80 47 40 48 83 49 77 50 76 51 41 53 67 54 50 55 66 56
REMARK SMILES IDX 51 57 54 58 65 59 81 60 52 61 53 62 64 64 82 65 55 66 42 67
REMARK SMILES IDX 43 68 48 69 44 70 45 71 47 72 49 73 46 74 68 75 69 76 74 77
REMARK SMILES IDX 70 78 71 79 73 80 75 81 72 82 56 83 57 84 62 85 58 86 59 87
REMARK SMILES IDX 61 88 63 89 60 90
REMARK H PARENT 25 5 30 33 80 52 54 63
REMARK Flexibility Score: inf
ROOT
ATOM      1  C   UNL     1       2.101  -2.368   0.728  1.00  0.00     0.116 C 
ENDROOT
BRANCH   1   2
ATOM      2  N   UNL     1       2.762  -1.208   0.165  1.00  0.00    -0.356 N 
ATOM      3  O   UNL     1       1.083   0.264   0.709  1.00  0.00    -0.275 OA
ATOM      4  C   UNL     1       2.182   0.040   0.211  1.00  0.00     0.220 C 
ATOM      5  H   UNL     1       3.644  -1.314  -0.259  1.00  0.00     0.163 HD
BRANCH   4   6
ATOM      6  C   UNL     1       3.026   1.144  -0.385  1.00  0.00     0.100 C 
BRANCH   6   7
ATOM      7  C   UNL     1       3.971   1.774   0.641  1.00  0.00     0.020 C 
BRANCH   7   8
ATOM      8  C   UNL     1       5.115   0.875   1.119  1.00  0.00     0.098 C 
BRANCH   8   9
ATOM      9  C   UNL     1       5.893   0.295  -0.006  1.00  0.00     0.195 A 
ATOM     10  N   UNL     1       5.909  -0.957  -0.427  1.00  0.00    -0.213 NA
ATOM     11  O   UNL     1       6.621   1.171  -0.765  1.00  0.00    -0.440 OA
ATOM     12  C   UNL     1       6.766  -0.914  -1.503  1.00  0.00     0.117 A 
ATOM     13  C   UNL     1       7.154   0.388  -1.751  1.00  0.00     0.162 A 
BRANCH  12  14
ATOM     14  C   UNL     1       7.209  -2.066  -2.258  1.00  0.00     0.006 A 
ATOM     15  C   UNL     1       6.287  -2.936  -2.845  1.00  0.00     0.012 A 
ATOM     16  C   UNL     1       8.581  -2.287  -2.447  1.00  0.00     0.032 A 
ATOM     17  C   UNL     1       6.733  -4.011  -3.621  1.00  0.00     0.023 A 
ATOM     18  C   UNL     1       9.026  -3.346  -3.240  1.00  0.00     0.060 A 
ATOM     19  C   UNL     1       8.101  -4.217  -3.822  1.00  0.00     0.059 A 
ATOM     20  Cl  UNL     1      10.724  -3.493  -3.495  1.00  0.00    -0.083 Cl
ATOM     21  Cl  UNL     1       8.584  -5.552  -4.808  1.00  0.00    -0.083 Cl
ENDBRANCH  12  14
BRANCH  13  22
ATOM     22  C   UNL     1       7.930   1.048  -2.783  1.00  0.00     0.020 A 
ATOM     23  C   UNL     1       9.042   1.831  -2.459  1.00  0.00     0.012 A 
ATOM     24  C   UNL     1       7.607   0.845  -4.134  1.00  0.00     0.012 A 
ATOM     25  C   UNL     1       9.832   2.381  -3.471  1.00  0.00     0.001 A 
ATOM     26  C   UNL     1       8.392   1.402  -5.143  1.00  0.00     0.001 A 
ATOM     27  C   UNL     1       9.509   2.165  -4.810  1.00  0.00     0.000 A 
ENDBRANCH  13  22
ENDBRANCH   8   9
ENDBRANCH   7   8
ENDBRANCH   6   7
ENDBRANCH   4   6
ENDBRANCH   1   2
BRANCH   1  28
ATOM     28  C   UNL     1       2.429  -3.656  -0.022  1.00  0.00     0.023 C 
BRANCH  28  29
ATOM     29  C   UNL     1       3.904  -4.059  -0.014  1.00  0.00     0.023 C 
BRANCH  29  30
ATOM     30  C   UNL     1       4.532  -4.247   1.363  1.00  0.00     0.116 C 
BRANCH  30  31
ATOM     31  N   UNL     1       3.960  -5.372   2.084  1.00  0.00    -0.352 N 
ATOM     32  C   UNL     1       4.585  -6.455   2.652  1.00  0.00     0.251 C 
ATOM     33  H   UNL     1       2.980  -5.355   2.179  1.00  0.00     0.163 HD
ATOM     34  O   UNL     1       3.912  -7.396   3.077  1.00  0.00    -0.269 OA
BRANCH  32  35
ATOM     35  C   UNL     1       6.061  -6.517   2.736  1.00  0.00     0.039 A 
ATOM     36  C   UNL     1       6.703  -7.718   2.421  1.00  0.00     0.014 A 
ATOM     37  C   UNL     1       6.813  -5.413   3.146  1.00  0.00     0.014 A 
ATOM     38  C   UNL     1       8.098  -7.793   2.453  1.00  0.00     0.010 A 
ATOM     39  C   UNL     1       8.206  -5.468   3.116  1.00  0.00     0.010 A 
ATOM     40  C   UNL     1       8.864  -6.659   2.769  1.00  0.00    -0.014 A 
BRANCH  40  41
ATOM     41  C   UNL     1      10.349  -6.701   2.736  1.00  0.00     0.031 A 
ATOM     42  C   UNL     1      11.146  -6.503   3.997  1.00  0.00     0.074 A 
ATOM     43  C   UNL     1      10.987  -6.862   1.561  1.00  0.00     0.049 A 
ATOM     44  N   UNL     1      12.444  -6.425   4.152  1.00  0.00    -0.248 NA
ATOM     45  C   UNL     1      10.382  -6.347   5.244  1.00  0.00     0.031 C 
ATOM     46  C   UNL     1      10.339  -7.017   0.257  1.00  0.00     0.029 A 
ATOM     47  N   UNL     1      12.329  -6.910   1.273  1.00  0.00    -0.354 N 
ATOM     48  C   UNL     1      12.651  -6.197   5.506  1.00  0.00     0.074 A 
ATOM     49  C   UNL     1      11.344  -6.103   6.121  1.00  0.00     0.031 C 
ATOM     50  C   UNL     1      11.283  -7.161  -0.688  1.00  0.00     0.029 A 
ATOM     51  C   UNL     1      12.600  -7.075  -0.063  1.00  0.00     0.049 A 
ATOM     52  H   UNL     1      13.030  -6.833   1.960  1.00  0.00     0.167 HD
ATOM     53  C   UNL     1      13.822  -6.094   6.179  1.00  0.00     0.037 A 
ATOM     54  C   UNL     1      13.776  -7.136  -0.715  1.00  0.00     0.037 A 
ATOM     55  C   UNL     1      15.124  -6.211   5.575  1.00  0.00     0.049 A 
ATOM     56  C   UNL     1      15.060  -7.006   0.051  1.00  0.00     0.074 A 
ATOM     57  C   UNL     1      16.366  -6.177   6.187  1.00  0.00     0.029 A 
ATOM     58  N   UNL     1      15.353  -6.383   4.218  1.00  0.00    -0.354 N 
ATOM     59  N   UNL     1      15.240  -6.829   1.336  1.00  0.00    -0.248 NA
ATOM     60  C   UNL     1      16.303  -7.080  -0.729  1.00  0.00     0.031 C 
ATOM     61  C   UNL     1      17.347  -6.290   5.196  1.00  0.00     0.029 A 
ATOM     62  C   UNL     1      16.716  -6.438   3.972  1.00  0.00     0.049 A 
ATOM     63  H   UNL     1      14.652  -6.455   3.531  1.00  0.00     0.167 HD
ATOM     64  C   UNL     1      16.615  -6.788   1.522  1.00  0.00     0.074 A 
ATOM     65  C   UNL     1      17.222  -6.971   0.220  1.00  0.00     0.031 C 
ATOM     66  C   UNL     1      17.310  -6.616   2.672  1.00  0.00     0.037 A 
BRANCH  53  67
ATOM     67  C   UNL     1      13.748  -5.845   7.658  1.00  0.00     0.057 A 
ATOM     68  C   UNL     1      13.316  -6.834   8.552  1.00  0.00     0.134 A 
ATOM     69  C   UNL     1      14.146  -4.616   8.198  1.00  0.00     0.134 A 
ATOM     70  F   UNL     1      12.911  -8.030   8.098  1.00  0.00    -0.206 F 
ATOM     71  C   UNL     1      13.257  -6.600   9.927  1.00  0.00     0.040 A 
ATOM     72  C   UNL     1      14.117  -4.379   9.574  1.00  0.00     0.040 A 
ATOM     73  F   UNL     1      14.578  -3.628   7.400  1.00  0.00    -0.206 F 
ATOM     74  C   UNL     1      13.665  -5.371  10.442  1.00  0.00     0.006 A 
ENDBRANCH  53  67
BRANCH  54  75
ATOM     75  C   UNL     1      13.794  -7.309  -2.186  1.00  0.00     0.057 A 
ATOM     76  C   UNL     1      14.155  -8.525  -2.776  1.00  0.00     0.134 A 
ATOM     77  C   UNL     1      13.458  -6.251  -3.034  1.00  0.00     0.134 A 
ATOM     78  F   UNL     1      14.527  -9.562  -2.011  1.00  0.00    -0.206 F 
ATOM     79  C   UNL     1      14.175  -8.682  -4.162  1.00  0.00     0.040 A 
ATOM     80  C   UNL     1      13.442  -6.401  -4.420  1.00  0.00     0.040 A 
ATOM     81  F   UNL     1      13.146  -5.055  -2.516  1.00  0.00    -0.206 F 
ATOM     82  C   UNL     1      13.806  -7.621  -4.988  1.00  0.00     0.006 A 
ENDBRANCH  54  75
BRANCH  66  83
ATOM     83  C   UNL     1      18.806  -6.650   2.577  1.00  0.00     0.057 A 
ATOM     84  C   UNL     1      19.536  -5.588   2.028  1.00  0.00     0.134 A 
ATOM     85  C   UNL     1      19.525  -7.748   3.064  1.00  0.00     0.134 A 
ATOM     86  F   UNL     1      18.905  -4.515   1.530  1.00  0.00    -0.206 F 
ATOM     87  C   UNL     1      20.929  -5.628   1.949  1.00  0.00     0.040 A 
ATOM     88  C   UNL     1      20.919  -7.789   3.012  1.00  0.00     0.040 A 
ATOM     89  F   UNL     1      18.886  -8.796   3.607  1.00  0.00    -0.206 F 
ATOM     90  C   UNL     1      21.625  -6.728   2.447  1.00  0.00     0.006 A 
ENDBRANCH  66  83
ENDBRANCH  40  41
ENDBRANCH  32  35
ENDBRANCH  30  31
ENDBRANCH  29  30
ENDBRANCH  28  29
ENDBRANCH   1  28
TORSDOF 16
