REMARK SMILES CC[NH+]1CCC([N@@H+]2CCO[C@H](CC(=O)NCCCCNC(=O)c3ccc(-c4c5nc(c(-c6c(F)cccc6F)c6ccc([nH]6)c(-c6c(F)cccc6F)c6nc(c(-c7c(F)cccc7F)c7ccc4[nH]7)C=C6)C=C5)cc3)C2)CC1
REMARK SMILES IDX 17 1 16 2 15 3 13 4 14 5 12 7 11 8 7 9 8 10 77 11 9 13 10 14
REMARK SMILES IDX 6 15 3 16 4 17 79 18 5 20 78 21 2 22 1 23 18 24 19 25 20 26
REMARK SMILES IDX 21 27 22 29 23 30 24 31 76 32 25 33 75 34 26 35 27 36 28 37
REMARK SMILES IDX 69 38 29 39 74 40 68 41 70 42 30 43 73 44 67 45 66 46 31 48
REMARK SMILES IDX 57 49 40 50 56 51 41 52 44 53 55 54 71 55 42 56 43 57 54 59
REMARK SMILES IDX 72 60 45 61 32 62 33 63 38 64 34 65 35 66 37 67 39 68 36 69
REMARK SMILES IDX 58 70 59 71 64 72 60 73 61 74 63 75 65 76 62 77 46 78 47 79
REMARK SMILES IDX 52 80 48 81 49 82 51 83 53 84 50 85
REMARK H PARENT 15 6 7 12 3 19 20 28 70 47 44 58
REMARK Flexibility Score: inf
ROOT
ATOM      1  C   UNL     1       6.010   9.097   2.006  1.00  0.00     0.023 C 
ENDROOT
BRANCH   1   2
ATOM      2  C   UNL     1       6.536   7.717   1.602  1.00  0.00     0.116 C 
BRANCH   2   3
ATOM      3  N   UNL     1       5.827   6.661   2.298  1.00  0.00    -0.356 N 
ATOM      4  C   UNL     1       4.882   5.803   1.822  1.00  0.00     0.222 C 
ATOM      5  O   UNL     1       4.339   5.033   2.613  1.00  0.00    -0.275 OA
ATOM      6  H   UNL     1       6.062   6.547   3.248  1.00  0.00     0.163 HD
BRANCH   4   7
ATOM      7  C   UNL     1       4.536   5.806   0.351  1.00  0.00     0.138 C 
BRANCH   7   8
ATOM      8  C   UNL     1       3.701   7.018  -0.048  1.00  0.00     0.182 C 
ATOM      9  N   UNL     1       1.269   6.316  -0.438  1.00  0.00    -0.328 N 
ATOM     10  C   UNL     1       1.512   6.639  -1.848  1.00  0.00     0.291 C 
ATOM     11  C   UNL     1       2.230   6.999   0.427  1.00  0.00     0.295 C 
ATOM     12  H   UNL     1       0.383   6.735  -0.153  1.00  0.00     0.348 HD
ATOM     13  C   UNL     1       2.982   6.464  -2.254  1.00  0.00     0.222 C 
ATOM     14  O   UNL     1       3.836   7.288  -1.456  1.00  0.00    -0.366 OA
BRANCH   9  15
ATOM     15  C   UNL     1       0.802   4.955  -0.134  1.00  0.00     0.195 C 
ATOM     16  N   UNL     1       0.837   2.169   0.834  1.00  0.00    -0.335 N 
ATOM     17  C   UNL     1       0.803   2.467  -0.600  1.00  0.00     0.268 C 
ATOM     18  C   UNL     1       0.157   3.224   1.604  1.00  0.00     0.268 C 
ATOM     19  H   UNL     1       1.823   2.135   1.093  1.00  0.00     0.348 HD
ATOM     20  C   UNL     1       1.469   3.809  -0.908  1.00  0.00     0.126 C 
ATOM     21  C   UNL     1       0.778   4.600   1.363  1.00  0.00     0.126 C 
BRANCH  16  22
ATOM     22  C   UNL     1       0.249   0.860   1.163  1.00  0.00     0.258 C 
ATOM     23  C   UNL     1       0.858  -0.312   0.399  1.00  0.00     0.071 C 
ENDBRANCH  16  22
ENDBRANCH   9  15
ENDBRANCH   7   8
ENDBRANCH   4   7
ENDBRANCH   2   3
ENDBRANCH   1   2
BRANCH   1  24
ATOM     24  C   UNL     1       6.258   9.472   3.466  1.00  0.00     0.023 C 
BRANCH  24  25
ATOM     25  C   UNL     1       7.715   9.413   3.900  1.00  0.00     0.116 C 
BRANCH  25  26
ATOM     26  N   UNL     1       8.582  10.250   3.084  1.00  0.00    -0.352 N 
ATOM     27  C   UNL     1       9.611  11.064   3.486  1.00  0.00     0.251 C 
ATOM     28  H   UNL     1       8.407  10.229   2.115  1.00  0.00     0.163 HD
ATOM     29  O   UNL     1      10.166  11.808   2.684  1.00  0.00    -0.269 OA
BRANCH  27  30
ATOM     30  C   UNL     1      10.018  11.062   4.904  1.00  0.00     0.039 A 
ATOM     31  C   UNL     1      10.161  12.283   5.565  1.00  0.00     0.014 A 
ATOM     32  C   UNL     1      10.214   9.857   5.585  1.00  0.00     0.014 A 
ATOM     33  C   UNL     1      10.439  12.294   6.932  1.00  0.00     0.010 A 
ATOM     34  C   UNL     1      10.414   9.870   6.960  1.00  0.00     0.010 A 
ATOM     35  C   UNL     1      10.531  11.088   7.646  1.00  0.00    -0.014 A 
BRANCH  35  36
ATOM     36  C   UNL     1      10.752  11.080   9.113  1.00  0.00     0.031 A 
ATOM     37  C   UNL     1      12.009  10.483   9.680  1.00  0.00     0.074 A 
ATOM     38  C   UNL     1       9.792  11.548   9.933  1.00  0.00     0.049 A 
ATOM     39  N   UNL     1      12.355  10.322  10.931  1.00  0.00    -0.248 NA
ATOM     40  C   UNL     1      12.995   9.974   8.713  1.00  0.00     0.031 C 
ATOM     41  C   UNL     1       8.507  12.103   9.505  1.00  0.00     0.029 A 
ATOM     42  N   UNL     1       9.746  11.622  11.302  1.00  0.00    -0.354 N 
ATOM     43  C   UNL     1      13.587   9.682  10.902  1.00  0.00     0.074 A 
ATOM     44  C   UNL     1      13.903   9.434   9.512  1.00  0.00     0.031 C 
ATOM     45  C   UNL     1       7.809  12.482  10.588  1.00  0.00     0.029 A 
ATOM     46  C   UNL     1       8.580  12.164  11.786  1.00  0.00     0.049 A 
ATOM     47  H   UNL     1      10.479  11.315  11.884  1.00  0.00     0.167 HD
ATOM     48  C   UNL     1      14.395   9.353  11.938  1.00  0.00     0.037 A 
ATOM     49  C   UNL     1       8.176  12.374  13.053  1.00  0.00     0.037 A 
ATOM     50  C   UNL     1      14.089   9.625  13.317  1.00  0.00     0.049 A 
ATOM     51  C   UNL     1       9.091  12.000  14.185  1.00  0.00     0.074 A 
ATOM     52  C   UNL     1      14.868   9.387  14.436  1.00  0.00     0.029 A 
ATOM     53  N   UNL     1      12.906  10.194  13.766  1.00  0.00    -0.354 N 
ATOM     54  N   UNL     1      10.285  11.460  14.140  1.00  0.00    -0.248 NA
ATOM     55  C   UNL     1       8.605  12.270  15.546  1.00  0.00     0.031 C 
ATOM     56  C   UNL     1      14.139   9.774  15.566  1.00  0.00     0.029 A 
ATOM     57  C   UNL     1      12.926  10.296  15.147  1.00  0.00     0.049 A 
ATOM     58  H   UNL     1      12.163  10.482  13.188  1.00  0.00     0.167 HD
ATOM     59  C   UNL     1      10.704  11.351  15.460  1.00  0.00     0.074 A 
ATOM     60  C   UNL     1       9.642  11.895  16.281  1.00  0.00     0.031 C 
ATOM     61  C   UNL     1      11.863  10.847  15.948  1.00  0.00     0.037 A 
BRANCH  48  62
ATOM     62  C   UNL     1      15.690   8.668  11.613  1.00  0.00     0.057 A 
ATOM     63  C   UNL     1      16.743   9.342  10.981  1.00  0.00     0.134 A 
ATOM     64  C   UNL     1      15.898   7.328  11.962  1.00  0.00     0.134 A 
ATOM     65  F   UNL     1      16.604  10.624  10.608  1.00  0.00    -0.206 F 
ATOM     66  C   UNL     1      17.947   8.701  10.683  1.00  0.00     0.040 A 
ATOM     67  C   UNL     1      17.107   6.684  11.694  1.00  0.00     0.040 A 
ATOM     68  F   UNL     1      14.933   6.625  12.574  1.00  0.00    -0.206 F 
ATOM     69  C   UNL     1      18.133   7.369  11.046  1.00  0.00     0.006 A 
ENDBRANCH  48  62
BRANCH  49  70
ATOM     70  C   UNL     1       6.854  12.993  13.319  1.00  0.00     0.057 A 
ATOM     71  C   UNL     1       6.755  14.294  13.826  1.00  0.00     0.134 A 
ATOM     72  C   UNL     1       5.660  12.301  13.083  1.00  0.00     0.134 A 
ATOM     73  F   UNL     1       7.864  15.001  14.089  1.00  0.00    -0.206 F 
ATOM     74  C   UNL     1       5.519  14.878  14.108  1.00  0.00     0.040 A 
ATOM     75  C   UNL     1       4.416  12.881  13.337  1.00  0.00     0.040 A 
ATOM     76  F   UNL     1       5.686  11.054  12.590  1.00  0.00    -0.206 F 
ATOM     77  C   UNL     1       4.344  14.171  13.859  1.00  0.00     0.006 A 
ENDBRANCH  49  70
BRANCH  61  78
ATOM     78  C   UNL     1      12.057  10.890  17.435  1.00  0.00     0.057 A 
ATOM     79  C   UNL     1      11.351  10.043  18.298  1.00  0.00     0.134 A 
ATOM     80  C   UNL     1      12.989  11.767  18.006  1.00  0.00     0.134 A 
ATOM     81  F   UNL     1      10.435   9.190  17.816  1.00  0.00    -0.206 F 
ATOM     82  C   UNL     1      11.550  10.081  19.679  1.00  0.00     0.040 A 
ATOM     83  C   UNL     1      13.215  11.795  19.382  1.00  0.00     0.040 A 
ATOM     84  F   UNL     1      13.704  12.599  17.234  1.00  0.00    -0.206 F 
ATOM     85  C   UNL     1      12.490  10.955  20.224  1.00  0.00     0.006 A 
ENDBRANCH  61  78
ENDBRANCH  35  36
ENDBRANCH  27  30
ENDBRANCH  25  26
ENDBRANCH  24  25
ENDBRANCH   1  24
TORSDOF 14
