REMARK SMILES O=C(CCC/[NH+]=C1/CCCc2ccccc2N1)NCCCCNC(=O)c1ccc(-c2c3nc(c(-c4c(F)cccc4F)c4ccc([nH]4)c(-c4c(F)cccc4F)c4nc(c(-c5c(F)cccc5F)c5ccc2[nH]5)C=C4)C=C3)cc1
REMARK SMILES IDX 19 1 18 2 1 3 2 4 3 6 4 7 5 8 6 9 7 10 17 12 8 14 9 15 16 17
REMARK SMILES IDX 11 18 15 19 12 20 14 21 13 22 10 23 20 25 21 26 22 27 23 28
REMARK SMILES IDX 24 29 25 31 26 32 27 33 79 34 28 35 78 36 29 37 30 38 31 39
REMARK SMILES IDX 72 40 32 41 77 42 71 43 73 44 33 45 76 46 70 47 69 48 34 50
REMARK SMILES IDX 60 51 43 52 59 53 44 54 47 55 58 56 74 57 45 58 46 59 57 61
REMARK SMILES IDX 75 62 48 63 35 64 36 65 41 66 37 67 38 68 40 69 42 70 39 71
REMARK SMILES IDX 61 72 62 73 67 74 63 75 64 76 66 77 68 78 65 79 49 80 50 81
REMARK SMILES IDX 55 82 51 83 52 84 54 85 56 86 53 87
REMARK H PARENT 18 5 6 11 17 13 23 30 73 49 47 60
REMARK Flexibility Score: 90.00
ROOT
ATOM      1  C   UNL     1       2.029   2.525   1.089  1.00  0.00     0.116 C 
ENDROOT
BRANCH   1   2
ATOM      2  N   UNL     1       2.423   1.291   0.434  1.00  0.00    -0.356 N 
ATOM      3  O   UNL     1       0.883   1.444  -1.245  1.00  0.00    -0.275 OA
ATOM      4  C   UNL     1       1.867   0.892  -0.759  1.00  0.00     0.220 C 
ATOM      5  H   UNL     1       3.108   0.724   0.855  1.00  0.00     0.163 HD
BRANCH   4   6
ATOM      6  C   UNL     1       2.504  -0.318  -1.429  1.00  0.00     0.104 C 
BRANCH   6   7
ATOM      7  C   UNL     1       3.947  -0.137  -1.893  1.00  0.00     0.056 C 
BRANCH   7   8
ATOM      8  C   UNL     1       5.007   0.247  -0.870  1.00  0.00     0.234 C 
BRANCH   8   9
ATOM      9  N   UNL     1       5.529  -0.819  -0.039  1.00  0.00    -0.278 N 
ATOM     10  C   UNL     1       5.067  -1.353   1.029  1.00  0.00     0.247 C 
ATOM     11  H   UNL     1       6.384  -1.197  -0.347  1.00  0.00     0.304 HD
ATOM     12  N   UNL     1       3.810  -1.237   1.558  1.00  0.00    -0.245 N 
ATOM     13  H   UNL     1       3.104  -1.148   0.878  1.00  0.00     0.312 HD
BRANCH  10  14
ATOM     14  C   UNL     1       6.076  -2.229   1.742  1.00  0.00     0.128 C 
BRANCH  14  15
ATOM     15  C   UNL     1       6.447  -1.614   3.077  1.00  0.00     0.018 CG0
ATOM     16  G   UNL     1       5.437  -1.989   4.143  1.00  0.00     0.000 G0
ENDBRANCH  14  15
ENDBRANCH  10  14
BRANCH  12  17
ATOM     17  C   UNL     1       3.321  -1.217   2.883  1.00  0.00     0.127 A 
ATOM     18  C   UNL     1       4.080  -1.338   4.056  1.00  0.00    -0.001 A 
ATOM     19  C   UNL     1       1.946  -0.908   3.026  1.00  0.00     0.052 A 
ATOM     20  C   UNL     1       3.496  -0.972   5.293  1.00  0.00     0.008 A 
ATOM     21  C   UNL     1       1.374  -0.588   4.260  1.00  0.00     0.004 A 
ATOM     22  C   UNL     1       2.168  -0.567   5.391  1.00  0.00     0.001 A 
BRANCH  18  23
ATOM     23  C   UNL     1       5.437  -1.989   4.143  1.00  0.00     0.040 CG0
ATOM     24  G   UNL     1       6.447  -1.614   3.077  1.00  0.00     0.000 G0
ENDBRANCH  18  23
ENDBRANCH  12  17
ENDBRANCH   8   9
ENDBRANCH   7   8
ENDBRANCH   6   7
ENDBRANCH   4   6
ENDBRANCH   1   2
BRANCH   1  25
ATOM     25  C   UNL     1       2.383   2.554   2.574  1.00  0.00     0.023 C 
BRANCH  25  26
ATOM     26  C   UNL     1       3.880   2.537   2.885  1.00  0.00     0.023 C 
BRANCH  26  27
ATOM     27  C   UNL     1       4.553   3.885   2.673  1.00  0.00     0.116 C 
BRANCH  27  28
ATOM     28  N   UNL     1       4.094   4.890   3.627  1.00  0.00    -0.352 N 
ATOM     29  C   UNL     1       4.770   5.576   4.614  1.00  0.00     0.251 C 
ATOM     30  H   UNL     1       3.139   5.117   3.553  1.00  0.00     0.163 HD
ATOM     31  O   UNL     1       4.153   6.232   5.435  1.00  0.00    -0.269 OA
BRANCH  29  32
ATOM     32  C   UNL     1       6.246   5.492   4.690  1.00  0.00     0.039 A 
ATOM     33  C   UNL     1       7.012   5.465   3.529  1.00  0.00     0.014 A 
ATOM     34  C   UNL     1       6.872   5.422   5.939  1.00  0.00     0.014 A 
ATOM     35  C   UNL     1       8.354   5.129   3.602  1.00  0.00     0.010 A 
ATOM     36  C   UNL     1       8.255   5.225   6.013  1.00  0.00     0.010 A 
ATOM     37  C   UNL     1       9.000   5.015   4.843  1.00  0.00    -0.014 A 
BRANCH  37  38
ATOM     38  C   UNL     1      10.447   4.672   4.868  1.00  0.00     0.031 A 
ATOM     39  C   UNL     1      10.941   3.430   5.561  1.00  0.00     0.074 A 
ATOM     40  C   UNL     1      11.312   5.447   4.183  1.00  0.00     0.049 A 
ATOM     41  N   UNL     1      12.167   2.981   5.674  1.00  0.00    -0.248 NA
ATOM     42  C   UNL     1       9.935   2.590   6.227  1.00  0.00     0.031 C 
ATOM     43  C   UNL     1      10.956   6.674   3.466  1.00  0.00     0.029 A 
ATOM     44  N   UNL     1      12.653   5.301   3.940  1.00  0.00    -0.354 N 
ATOM     45  C   UNL     1      12.083   1.831   6.449  1.00  0.00     0.074 A 
ATOM     46  C   UNL     1      10.689   1.664   6.802  1.00  0.00     0.031 C 
ATOM     47  C   UNL     1      12.026   7.121   2.797  1.00  0.00     0.029 A 
ATOM     48  C   UNL     1      13.166   6.271   3.114  1.00  0.00     0.049 A 
ATOM     49  H   UNL     1      13.194   4.572   4.320  1.00  0.00     0.167 HD
ATOM     50  C   UNL     1      13.074   0.986   6.826  1.00  0.00     0.037 A 
ATOM     51  C   UNL     1      14.422   6.476   2.679  1.00  0.00     0.037 A 
ATOM     52  C   UNL     1      14.456   1.142   6.449  1.00  0.00     0.049 A 
ATOM     53  C   UNL     1      15.504   5.540   3.123  1.00  0.00     0.074 A 
ATOM     54  C   UNL     1      15.538   0.341   6.772  1.00  0.00     0.029 A 
ATOM     55  N   UNL     1      14.946   2.170   5.655  1.00  0.00    -0.354 N 
ATOM     56  N   UNL     1      15.411   4.473   3.879  1.00  0.00    -0.248 NA
ATOM     57  C   UNL     1      16.866   5.846   2.672  1.00  0.00     0.031 C 
ATOM     58  C   UNL     1      16.687   0.904   6.203  1.00  0.00     0.029 A 
ATOM     59  C   UNL     1      16.316   2.033   5.490  1.00  0.00     0.049 A 
ATOM     60  H   UNL     1      14.400   2.891   5.266  1.00  0.00     0.167 HD
ATOM     61  C   UNL     1      16.703   3.983   4.003  1.00  0.00     0.074 A 
ATOM     62  C   UNL     1      17.554   4.851   3.213  1.00  0.00     0.031 C 
ATOM     63  C   UNL     1      17.147   2.920   4.717  1.00  0.00     0.037 A 
BRANCH  50  64
ATOM     64  C   UNL     1      12.695  -0.162   7.718  1.00  0.00     0.057 A 
ATOM     65  C   UNL     1      13.084  -0.176   9.065  1.00  0.00     0.134 A 
ATOM     66  C   UNL     1      11.942  -1.250   7.255  1.00  0.00     0.134 A 
ATOM     67  F   UNL     1      13.811   0.829   9.575  1.00  0.00    -0.206 F 
ATOM     68  C   UNL     1      12.730  -1.223   9.918  1.00  0.00     0.040 A 
ATOM     69  C   UNL     1      11.560  -2.290   8.106  1.00  0.00     0.040 A 
ATOM     70  F   UNL     1      11.522  -1.293   5.982  1.00  0.00    -0.206 F 
ATOM     71  C   UNL     1      11.957  -2.280   9.441  1.00  0.00     0.006 A 
ENDBRANCH  50  64
BRANCH  51  72
ATOM     72  C   UNL     1      14.714   7.641   1.808  1.00  0.00     0.057 A 
ATOM     73  C   UNL     1      14.618   8.951   2.295  1.00  0.00     0.134 A 
ATOM     74  C   UNL     1      15.058   7.476   0.462  1.00  0.00     0.134 A 
ATOM     75  F   UNL     1      14.284   9.174   3.575  1.00  0.00    -0.206 F 
ATOM     76  C   UNL     1      14.828  10.056   1.470  1.00  0.00     0.040 A 
ATOM     77  C   UNL     1      15.299   8.572  -0.368  1.00  0.00     0.040 A 
ATOM     78  F   UNL     1      15.183   6.246  -0.058  1.00  0.00    -0.206 F 
ATOM     79  C   UNL     1      15.174   9.867   0.134  1.00  0.00     0.006 A 
ENDBRANCH  51  72
BRANCH  63  80
ATOM     80  C   UNL     1      18.620   2.650   4.665  1.00  0.00     0.057 A 
ATOM     81  C   UNL     1      19.126   1.572   3.930  1.00  0.00     0.134 A 
ATOM     82  C   UNL     1      19.539   3.464   5.341  1.00  0.00     0.134 A 
ATOM     83  F   UNL     1      18.298   0.753   3.264  1.00  0.00    -0.206 F 
ATOM     84  C   UNL     1      20.495   1.314   3.865  1.00  0.00     0.040 A 
ATOM     85  C   UNL     1      20.912   3.231   5.264  1.00  0.00     0.040 A 
ATOM     86  F   UNL     1      19.117   4.524   6.047  1.00  0.00    -0.206 F 
ATOM     87  C   UNL     1      21.393   2.151   4.526  1.00  0.00     0.006 A 
ENDBRANCH  63  80
ENDBRANCH  37  38
ENDBRANCH  29  32
ENDBRANCH  27  28
ENDBRANCH  26  27
ENDBRANCH  25  26
ENDBRANCH   1  25
TORSDOF 14
