REMARK SMILES CC(C)c1ccc(-c2cnc([C@@H]3[NH2+][C@H](C(=O)NCCCCNC(=O)c4ccc(-c5c6nc(c(-c7c(F)cccc7F)c7ccc([nH]7)c(-c7c(F)cccc7F)c7nc(c(-c8c(F)cccc8F)c8ccc5[nH]8)C=C7)C=C6)cc4)C(C)(C)S3)s2)cc1
REMARK SMILES IDX 19 1 18 2 17 3 15 4 16 5 14 7 12 8 13 9 82 10 79 13 80 14
REMARK SMILES IDX 81 15 11 16 8 17 9 18 83 19 10 20 7 21 4 22 5 23 85 24 6 25
REMARK SMILES IDX 84 26 2 27 1 28 3 29 20 30 21 31 22 32 23 33 24 35 25 36
REMARK SMILES IDX 26 37 78 38 27 39 77 40 28 41 29 42 30 43 71 44 31 45 76 46
REMARK SMILES IDX 70 47 72 48 32 49 75 50 69 51 68 52 33 54 59 55 42 56 58 57
REMARK SMILES IDX 43 58 46 59 57 60 73 61 44 62 45 63 56 65 74 66 47 67 34 68
REMARK SMILES IDX 35 69 40 70 36 71 37 72 39 73 41 74 38 75 60 76 61 77 66 78
REMARK SMILES IDX 62 79 63 80 65 81 67 82 64 83 48 84 49 85 54 86 50 87 51 88
REMARK SMILES IDX 53 89 55 90 52 91
REMARK H PARENT 17 6 13 11 13 12 22 34 72 53 46 64
REMARK Flexibility Score: inf
ROOT
ATOM      1  C   UNL     1     -15.420  -2.324  -0.516  1.00  0.00     0.023 C 
ENDROOT
BRANCH   1   2
ATOM      2  C   UNL     1     -14.214  -3.119  -1.030  1.00  0.00     0.116 C 
BRANCH   2   3
ATOM      3  N   UNL     1     -13.310  -2.265  -1.772  1.00  0.00    -0.351 N 
ATOM      4  C   UNL     1     -12.370  -1.425  -1.241  1.00  0.00     0.279 C 
ATOM      5  O   UNL     1     -12.348  -0.294  -1.715  1.00  0.00    -0.268 OA
ATOM      6  H   UNL     1     -13.379  -2.292  -2.754  1.00  0.00     0.163 HD
BRANCH   4   7
ATOM      7  C   UNL     1     -11.414  -1.962  -0.149  1.00  0.00     0.289 C 
ATOM      8  C   UNL     1      -9.242  -0.917  -0.443  1.00  0.00     0.304 C 
ATOM      9  N   UNL     1     -10.030  -2.146  -0.693  1.00  0.00    -0.318 N 
ATOM     10  S   UNL     1      -9.905  -0.090   1.034  1.00  0.00    -0.079 SA
ATOM     11  H   UNL     1      -9.583  -2.937  -0.230  1.00  0.00     0.348 HD
ATOM     12  H   UNL     1     -10.077  -2.325  -1.696  1.00  0.00     0.348 HD
ATOM     13  C   UNL     1     -11.354  -1.182   1.181  1.00  0.00     0.078 C 
ATOM     14  C   UNL     1     -11.068  -2.145   2.349  1.00  0.00     0.030 C 
ATOM     15  C   UNL     1     -12.600  -0.362   1.512  1.00  0.00     0.030 C 
BRANCH   8  16
ATOM     16  C   UNL     1      -9.138   0.018  -1.632  1.00  0.00     0.162 A 
ATOM     17  C   UNL     1      -8.418   1.255  -3.613  1.00  0.00     0.055 A 
ATOM     18  C   UNL     1      -9.675   1.553  -3.124  1.00  0.00     0.132 A 
ATOM     19  S   UNL     1      -7.735   0.009  -2.646  1.00  0.00    -0.112 S 
ATOM     20  N   UNL     1     -10.038   0.917  -1.968  1.00  0.00    -0.242 NA
BRANCH  17  21
ATOM     21  C   UNL     1      -7.721   1.888  -4.736  1.00  0.00    -0.007 A 
ATOM     22  C   UNL     1      -6.520   3.197  -6.952  1.00  0.00    -0.045 A 
ATOM     23  C   UNL     1      -6.293   1.835  -6.708  1.00  0.00     0.004 A 
ATOM     24  C   UNL     1      -7.345   3.897  -6.063  1.00  0.00     0.004 A 
ATOM     25  C   UNL     1      -6.883   1.188  -5.610  1.00  0.00     0.010 A 
ATOM     26  C   UNL     1      -7.935   3.253  -4.976  1.00  0.00     0.010 A 
BRANCH  22  27
ATOM     27  C   UNL     1      -5.947   3.950  -8.143  1.00  0.00     0.013 C 
ATOM     28  C   UNL     1      -4.717   3.306  -8.786  1.00  0.00     0.012 C 
ATOM     29  C   UNL     1      -7.034   4.174  -9.200  1.00  0.00     0.012 C 
ENDBRANCH  22  27
ENDBRANCH  17  21
ENDBRANCH   8  16
ENDBRANCH   4   7
ENDBRANCH   2   3
ENDBRANCH   1   2
BRANCH   1  30
ATOM     30  C   UNL     1     -16.188  -1.530  -1.579  1.00  0.00     0.023 C 
BRANCH  30  31
ATOM     31  C   UNL     1     -16.636  -2.327  -2.798  1.00  0.00     0.116 C 
BRANCH  31  32
ATOM     32  N   UNL     1     -17.493  -3.447  -2.451  1.00  0.00    -0.352 N 
ATOM     33  C   UNL     1     -18.685  -3.837  -3.002  1.00  0.00     0.251 C 
ATOM     34  H   UNL     1     -17.169  -4.010  -1.710  1.00  0.00     0.163 HD
ATOM     35  O   UNL     1     -19.330  -4.747  -2.479  1.00  0.00    -0.269 OA
BRANCH  33  36
ATOM     36  C   UNL     1     -19.220  -3.155  -4.199  1.00  0.00     0.039 A 
ATOM     37  C   UNL     1     -20.578  -2.824  -4.230  1.00  0.00     0.014 A 
ATOM     38  C   UNL     1     -18.401  -2.851  -5.291  1.00  0.00     0.014 A 
ATOM     39  C   UNL     1     -21.102  -2.136  -5.327  1.00  0.00     0.010 A 
ATOM     40  C   UNL     1     -18.909  -2.106  -6.353  1.00  0.00     0.010 A 
ATOM     41  C   UNL     1     -20.264  -1.743  -6.383  1.00  0.00    -0.014 A 
BRANCH  41  42
ATOM     42  C   UNL     1     -20.790  -0.954  -7.526  1.00  0.00     0.031 A 
ATOM     43  C   UNL     1     -20.804  -1.543  -8.909  1.00  0.00     0.074 A 
ATOM     44  C   UNL     1     -21.201   0.314  -7.330  1.00  0.00     0.049 A 
ATOM     45  N   UNL     1     -21.152  -0.987 -10.042  1.00  0.00    -0.248 NA
ATOM     46  C   UNL     1     -20.345  -2.935  -9.040  1.00  0.00     0.031 C 
ATOM     47  C   UNL     1     -21.202   1.015  -6.044  1.00  0.00     0.029 A 
ATOM     48  N   UNL     1     -21.689   1.243  -8.215  1.00  0.00    -0.354 N 
ATOM     49  C   UNL     1     -20.941  -1.953 -11.018  1.00  0.00     0.074 A 
ATOM     50  C   UNL     1     -20.390  -3.113 -10.352  1.00  0.00     0.031 C 
ATOM     51  C   UNL     1     -21.687   2.255  -6.221  1.00  0.00     0.029 A 
ATOM     52  C   UNL     1     -21.995   2.450  -7.634  1.00  0.00     0.049 A 
ATOM     53  H   UNL     1     -21.808   1.061  -9.175  1.00  0.00     0.167 HD
ATOM     54  C   UNL     1     -21.204  -1.887 -12.345  1.00  0.00     0.037 A 
ATOM     55  C   UNL     1     -22.463   3.587  -8.181  1.00  0.00     0.037 A 
ATOM     56  C   UNL     1     -21.774  -0.742 -13.004  1.00  0.00     0.049 A 
ATOM     57  C   UNL     1     -22.735   3.637  -9.659  1.00  0.00     0.074 A 
ATOM     58  C   UNL     1     -22.120  -0.598 -14.336  1.00  0.00     0.029 A 
ATOM     59  N   UNL     1     -22.084   0.455 -12.378  1.00  0.00    -0.354 N 
ATOM     60  N   UNL     1     -22.581   2.697 -10.560  1.00  0.00    -0.248 NA
ATOM     61  C   UNL     1     -23.249   4.905 -10.195  1.00  0.00     0.031 C 
ATOM     62  C   UNL     1     -22.608   0.700 -14.524  1.00  0.00     0.029 A 
ATOM     63  C   UNL     1     -22.604   1.349 -13.300  1.00  0.00     0.049 A 
ATOM     64  H   UNL     1     -21.954   0.643 -11.420  1.00  0.00     0.167 HD
ATOM     65  C   UNL     1     -23.007   3.250 -11.761  1.00  0.00     0.074 A 
ATOM     66  C   UNL     1     -23.436   4.602 -11.472  1.00  0.00     0.031 C 
ATOM     67  C   UNL     1     -23.040   2.687 -12.993  1.00  0.00     0.037 A 
BRANCH  54  68
ATOM     68  C   UNL     1     -20.883  -3.097 -13.172  1.00  0.00     0.057 A 
ATOM     69  C   UNL     1     -21.641  -4.272 -13.083  1.00  0.00     0.134 A 
ATOM     70  C   UNL     1     -19.829  -3.076 -14.095  1.00  0.00     0.134 A 
ATOM     71  F   UNL     1     -22.656  -4.360 -12.210  1.00  0.00    -0.206 F 
ATOM     72  C   UNL     1     -21.348  -5.391 -13.864  1.00  0.00     0.040 A 
ATOM     73  C   UNL     1     -19.542  -4.181 -14.899  1.00  0.00     0.040 A 
ATOM     74  F   UNL     1     -19.067  -1.981 -14.235  1.00  0.00    -0.206 F 
ATOM     75  C   UNL     1     -20.299  -5.345 -14.780  1.00  0.00     0.006 A 
ENDBRANCH  54  68
BRANCH  55  76
ATOM     76  C   UNL     1     -22.728   4.771  -7.327  1.00  0.00     0.057 A 
ATOM     77  C   UNL     1     -24.037   5.196  -7.071  1.00  0.00     0.134 A 
ATOM     78  C   UNL     1     -21.686   5.517  -6.764  1.00  0.00     0.134 A 
ATOM     79  F   UNL     1     -25.076   4.533  -7.600  1.00  0.00    -0.206 F 
ATOM     80  C   UNL     1     -24.301   6.331  -6.303  1.00  0.00     0.040 A 
ATOM     81  C   UNL     1     -21.936   6.640  -5.974  1.00  0.00     0.040 A 
ATOM     82  F   UNL     1     -20.410   5.159  -6.968  1.00  0.00    -0.206 F 
ATOM     83  C   UNL     1     -23.247   7.054  -5.749  1.00  0.00     0.006 A 
ENDBRANCH  55  76
BRANCH  67  84
ATOM     84  C   UNL     1     -23.594   3.518 -14.112  1.00  0.00     0.057 A 
ATOM     85  C   UNL     1     -22.878   4.587 -14.665  1.00  0.00     0.134 A 
ATOM     86  C   UNL     1     -24.846   3.220 -14.666  1.00  0.00     0.134 A 
ATOM     87  F   UNL     1     -21.680   4.931 -14.169  1.00  0.00    -0.206 F 
ATOM     88  C   UNL     1     -23.397   5.344 -15.716  1.00  0.00     0.040 A 
ATOM     89  C   UNL     1     -25.364   3.954 -15.733  1.00  0.00     0.040 A 
ATOM     90  F   UNL     1     -25.579   2.204 -14.187  1.00  0.00    -0.206 F 
ATOM     91  C   UNL     1     -24.641   5.024 -16.258  1.00  0.00     0.006 A 
ENDBRANCH  67  84
ENDBRANCH  41  42
ENDBRANCH  33  36
ENDBRANCH  31  32
ENDBRANCH  30  31
ENDBRANCH   1  30
TORSDOF 14
