REMARK SMILES O=C(NCCCCNC(=O)c1ccc(S(=O)(=O)NCC[NH+]2CCCC2)c(F)c1)c1ccc(-c2c3nc(c(-c4c(F)cccc4F)c4ccc([nH]4)c(-c4c(F)cccc4F)c4nc(c(-c5c(F)cccc5F)c5ccc2[nH]5)C=C4)C=C3)cc1
REMARK SMILES IDX 7 1 6 2 5 3 4 4 3 5 1 6 2 7 29 9 30 10 82 11 31 12 81 13
REMARK SMILES IDX 32 14 33 15 34 16 75 17 35 18 80 19 74 20 76 21 36 22 79 23
REMARK SMILES IDX 73 24 72 25 37 27 63 28 46 29 62 30 47 31 50 32 61 33 77 34
REMARK SMILES IDX 48 35 49 36 60 38 78 39 51 40 38 41 39 42 44 43 40 44 41 45
REMARK SMILES IDX 43 46 45 47 42 48 64 49 65 50 70 51 66 52 67 53 69 54 71 55
REMARK SMILES IDX 68 56 52 57 53 58 58 59 54 60 55 61 57 62 59 63 56 64 8 65
REMARK SMILES IDX 9 66 10 68 11 69 12 70 28 71 13 72 26 73 14 74 27 75 15 76
REMARK SMILES IDX 16 77 17 78 18 79 19 81 20 82 21 83 22 84 25 85 23 87 24 88
REMARK H PARENT 3 8 76 26 50 37 8 67 18 80 21 86
REMARK Flexibility Score: inf
ROOT
ATOM      1  C   UNL     1       4.869  -3.674   2.438  1.00  0.00     0.116 C 
ENDROOT
BRANCH   1   2
ATOM      2  C   UNL     1       4.433  -2.364   3.091  1.00  0.00     0.023 C 
BRANCH   2   3
ATOM      3  C   UNL     1       4.886  -1.087   2.386  1.00  0.00     0.023 C 
BRANCH   3   4
ATOM      4  C   UNL     1       4.577  -1.014   0.895  1.00  0.00     0.116 C 
BRANCH   4   5
ATOM      5  N   UNL     1       3.152  -1.055   0.611  1.00  0.00    -0.352 N 
ATOM      6  O   UNL     1       1.138  -0.290  -0.046  1.00  0.00    -0.269 OA
ATOM      7  C   UNL     1       2.356  -0.136  -0.028  1.00  0.00     0.251 C 
ATOM      8  H   UNL     1       2.688  -1.865   0.923  1.00  0.00     0.163 HD
BRANCH   7   9
ATOM      9  C   UNL     1       2.954   1.056  -0.668  1.00  0.00     0.039 A 
ATOM     10  C   UNL     1       4.079   0.949  -1.490  1.00  0.00     0.014 A 
ATOM     11  C   UNL     1       2.358   2.302  -0.453  1.00  0.00     0.014 A 
ATOM     12  C   UNL     1       4.685   2.100  -1.988  1.00  0.00     0.010 A 
ATOM     13  C   UNL     1       2.929   3.450  -1.008  1.00  0.00     0.010 A 
ATOM     14  C   UNL     1       4.115   3.361  -1.752  1.00  0.00    -0.014 A 
BRANCH  14  15
ATOM     15  C   UNL     1       4.746   4.580  -2.313  1.00  0.00     0.031 A 
ATOM     16  C   UNL     1       5.362   5.611  -1.410  1.00  0.00     0.074 A 
ATOM     17  C   UNL     1       4.762   4.758  -3.647  1.00  0.00     0.049 A 
ATOM     18  N   UNL     1       5.905   6.761  -1.722  1.00  0.00    -0.248 NA
ATOM     19  C   UNL     1       5.364   5.316   0.031  1.00  0.00     0.031 C 
ATOM     20  C   UNL     1       4.205   3.824  -4.627  1.00  0.00     0.029 A 
ATOM     21  N   UNL     1       5.267   5.780  -4.409  1.00  0.00    -0.354 N 
ATOM     22  C   UNL     1       6.293   7.335  -0.519  1.00  0.00     0.074 A 
ATOM     23  C   UNL     1       5.910   6.416   0.531  1.00  0.00     0.031 C 
ATOM     24  C   UNL     1       4.422   4.303  -5.861  1.00  0.00     0.029 A 
ATOM     25  C   UNL     1       5.083   5.600  -5.757  1.00  0.00     0.049 A 
ATOM     26  H   UNL     1       5.718   6.566  -4.026  1.00  0.00     0.167 HD
ATOM     27  C   UNL     1       6.917   8.520  -0.314  1.00  0.00     0.037 A 
ATOM     28  C   UNL     1       5.392   6.397  -6.796  1.00  0.00     0.037 A 
ATOM     29  C   UNL     1       7.316   9.422  -1.362  1.00  0.00     0.049 A 
ATOM     30  C   UNL     1       6.051   7.720  -6.541  1.00  0.00     0.074 A 
ATOM     31  C   UNL     1       7.987  10.628  -1.251  1.00  0.00     0.029 A 
ATOM     32  N   UNL     1       7.082   9.216  -2.713  1.00  0.00    -0.354 N 
ATOM     33  N   UNL     1       6.417   8.248  -5.399  1.00  0.00    -0.248 NA
ATOM     34  C   UNL     1       6.328   8.562  -7.713  1.00  0.00     0.031 C 
ATOM     35  C   UNL     1       8.127  11.169  -2.532  1.00  0.00     0.029 A 
ATOM     36  C   UNL     1       7.577  10.283  -3.444  1.00  0.00     0.049 A 
ATOM     37  H   UNL     1       6.631   8.430  -3.095  1.00  0.00     0.167 HD
ATOM     38  C   UNL     1       6.978   9.478  -5.713  1.00  0.00     0.074 A 
ATOM     39  C   UNL     1       6.911   9.615  -7.153  1.00  0.00     0.031 C 
ATOM     40  C   UNL     1       7.502  10.406  -4.878  1.00  0.00     0.037 A 
BRANCH  27  41
ATOM     41  C   UNL     1       7.196   8.921   1.104  1.00  0.00     0.057 A 
ATOM     42  C   UNL     1       6.462   9.948   1.711  1.00  0.00     0.134 A 
ATOM     43  C   UNL     1       8.226   8.334   1.848  1.00  0.00     0.134 A 
ATOM     44  F   UNL     1       5.466  10.556   1.049  1.00  0.00    -0.206 F 
ATOM     45  C   UNL     1       6.746  10.381   3.007  1.00  0.00     0.040 A 
ATOM     46  C   UNL     1       8.508   8.745   3.152  1.00  0.00     0.040 A 
ATOM     47  F   UNL     1       8.959   7.338   1.327  1.00  0.00    -0.206 F 
ATOM     48  C   UNL     1       7.771   9.776   3.732  1.00  0.00     0.006 A 
ENDBRANCH  27  41
BRANCH  28  49
ATOM     49  C   UNL     1       5.073   5.945  -8.170  1.00  0.00     0.057 A 
ATOM     50  C   UNL     1       3.753   5.900  -8.633  1.00  0.00     0.134 A 
ATOM     51  C   UNL     1       6.077   5.482  -9.025  1.00  0.00     0.134 A 
ATOM     52  F   UNL     1       2.747   6.323  -7.853  1.00  0.00    -0.206 F 
ATOM     53  C   UNL     1       3.439   5.385  -9.891  1.00  0.00     0.040 A 
ATOM     54  C   UNL     1       5.780   4.981 -10.293  1.00  0.00     0.040 A 
ATOM     55  F   UNL     1       7.361   5.513  -8.638  1.00  0.00    -0.206 F 
ATOM     56  C   UNL     1       4.455   4.922 -10.725  1.00  0.00     0.006 A 
ENDBRANCH  28  49
BRANCH  40  57
ATOM     57  C   UNL     1       8.062  11.651  -5.493  1.00  0.00     0.057 A 
ATOM     58  C   UNL     1       9.447  11.844  -5.579  1.00  0.00     0.134 A 
ATOM     59  C   UNL     1       7.232  12.692  -5.923  1.00  0.00     0.134 A 
ATOM     60  F   UNL     1      10.294  10.885  -5.175  1.00  0.00    -0.206 F 
ATOM     61  C   UNL     1       9.987  13.037  -6.059  1.00  0.00     0.040 A 
ATOM     62  C   UNL     1       7.760  13.884  -6.421  1.00  0.00     0.040 A 
ATOM     63  F   UNL     1       5.898  12.562  -5.875  1.00  0.00    -0.206 F 
ATOM     64  C   UNL     1       9.142  14.062  -6.481  1.00  0.00     0.006 A 
ENDBRANCH  40  57
ENDBRANCH  14  15
ENDBRANCH   7   9
ENDBRANCH   4   5
ENDBRANCH   3   4
ENDBRANCH   2   3
ENDBRANCH   1   2
BRANCH   1  65
ATOM     65  N   UNL     1       6.313  -3.794   2.303  1.00  0.00    -0.352 N 
ATOM     66  C   UNL     1       7.130  -4.853   2.610  1.00  0.00     0.251 C 
ATOM     67  H   UNL     1       6.769  -3.001   1.938  1.00  0.00     0.163 HD
ATOM     68  O   UNL     1       8.349  -4.746   2.526  1.00  0.00    -0.269 OA
BRANCH  66  69
ATOM     69  C   UNL     1       6.541  -6.120   3.088  1.00  0.00     0.042 A 
ATOM     70  C   UNL     1       5.514  -6.748   2.377  1.00  0.00     0.015 A 
ATOM     71  C   UNL     1       7.021  -6.675   4.278  1.00  0.00     0.054 A 
ATOM     72  C   UNL     1       4.883  -7.860   2.928  1.00  0.00     0.026 A 
ATOM     73  C   UNL     1       6.402  -7.805   4.809  1.00  0.00     0.144 A 
ATOM     74  C   UNL     1       5.312  -8.370   4.163  1.00  0.00     0.118 A 
ATOM     75  F   UNL     1       6.873  -8.294   5.963  1.00  0.00    -0.205 F 
BRANCH  74  76
ATOM     76  S   UNL     1       4.344  -9.658   4.872  1.00  0.00     0.243 S 
ATOM     77  O   UNL     1       2.965  -9.251   4.720  1.00  0.00    -0.207 OA
ATOM     78  O   UNL     1       4.827 -10.898   4.303  1.00  0.00    -0.207 OA
BRANCH  76  79
ATOM     79  N   UNL     1       4.673  -9.736   6.497  1.00  0.00    -0.205 NA
ATOM     80  H   UNL     1       5.685  -9.838   6.569  1.00  0.00     0.141 HD
BRANCH  79  81
ATOM     81  C   UNL     1       4.311  -8.696   7.457  1.00  0.00     0.160 C 
BRANCH  81  82
ATOM     82  C   UNL     1       2.824  -8.664   7.863  1.00  0.00     0.278 C 
BRANCH  82  83
ATOM     83  N   UNL     1       2.206  -9.806   8.544  1.00  0.00    -0.334 N 
ATOM     84  C   UNL     1       2.870 -10.269   9.757  1.00  0.00     0.262 C 
ATOM     85  C   UNL     1       1.943 -10.965   7.693  1.00  0.00     0.262 C 
ATOM     86  H   UNL     1       1.319  -9.384   8.819  1.00  0.00     0.348 HD
ATOM     87  C   UNL     1       3.600 -11.535   9.360  1.00  0.00     0.067 C 
ATOM     88  C   UNL     1       2.730 -12.133   8.271  1.00  0.00     0.067 C 
ENDBRANCH  82  83
ENDBRANCH  81  82
ENDBRANCH  79  81
ENDBRANCH  76  79
ENDBRANCH  74  76
ENDBRANCH  66  69
ENDBRANCH   1  65
TORSDOF 16
