REMARK SMILES C=CCn1nc(C(=O)NCCCCNC(=O)c2ccc(-c3c4nc(c(-c5c(F)cccc5F)c5ccc([nH]5)c(-c5c(F)cccc5F)c5nc(c(-c6c(F)cccc6F)c6ccc3[nH]6)C=C5)C=C4)cc2)c2c1CC[C@@H]([NH+]1CCC(C(C)(C)O)CC1)C2
REMARK SMILES IDX 11 1 10 2 9 3 7 4 8 5 6 7 4 8 5 9 72 10 71 11 73 12 86 13
REMARK SMILES IDX 74 14 75 15 3 16 2 17 1 18 76 19 77 20 85 21 78 23 84 24
REMARK SMILES IDX 79 25 80 26 81 27 82 28 83 29 12 31 13 32 14 33 15 34 16 36
REMARK SMILES IDX 17 37 18 38 70 39 19 40 69 41 20 42 21 43 22 44 63 45 23 46
REMARK SMILES IDX 68 47 62 48 64 49 24 50 67 51 61 52 60 53 25 55 51 56 34 57
REMARK SMILES IDX 50 58 35 59 38 60 49 61 65 62 36 63 37 64 48 66 66 67 39 68
REMARK SMILES IDX 26 69 27 70 32 71 28 72 29 73 31 74 33 75 30 76 52 77 53 78
REMARK SMILES IDX 58 79 54 80 55 81 57 82 59 83 56 84 40 85 41 86 46 87 42 88
REMARK SMILES IDX 43 89 45 90 47 91 44 92
REMARK H PARENT 9 6 76 22 83 30 14 35 64 54 38 65
REMARK Flexibility Score: inf
ROOT
ATOM      1  C   UNL     1      -2.842   7.782  -2.687  1.00  0.00     0.023 C 
ENDROOT
BRANCH   1   2
ATOM      2  C   UNL     1      -3.979   7.117  -1.882  1.00  0.00     0.116 C 
BRANCH   2   3
ATOM      3  N   UNL     1      -4.487   5.900  -2.503  1.00  0.00    -0.351 N 
ATOM      4  C   UNL     1      -4.273   4.539  -2.384  1.00  0.00     0.272 C 
ATOM      5  O   UNL     1      -5.087   3.865  -3.032  1.00  0.00    -0.267 OA
ATOM      6  H   UNL     1      -5.163   6.101  -3.191  1.00  0.00     0.163 HD
BRANCH   4   7
ATOM      7  C   UNL     1      -3.210   3.880  -1.573  1.00  0.00     0.153 A 
ATOM      8  N   UNL     1      -2.134   2.188  -0.737  1.00  0.00    -0.265 N 
ATOM      9  N   UNL     1      -3.249   2.534  -1.421  1.00  0.00    -0.167 NA
ATOM     10  C   UNL     1      -1.477   3.287  -0.264  1.00  0.00     0.043 A 
ATOM     11  C   UNL     1      -2.044   4.358  -0.924  1.00  0.00     0.012 A 
ATOM     12  C   UNL     1      -0.308   3.362   0.652  1.00  0.00     0.062 C 
ATOM     13  C   UNL     1      -1.404   5.682  -0.928  1.00  0.00     0.105 C 
ATOM     14  C   UNL     1       0.270   4.799   0.678  1.00  0.00     0.072 C 
ATOM     15  C   UNL     1       0.093   5.683  -0.585  1.00  0.00     0.189 C 
BRANCH   8  16
ATOM     16  C   UNL     1      -1.845   0.757  -0.589  1.00  0.00     0.171 C 
BRANCH  16  17
ATOM     17  C   UNL     1      -0.411   0.339  -0.772  1.00  0.00    -0.011 C 
ATOM     18  C   UNL     1       0.266  -0.426   0.098  1.00  0.00     0.006 C 
ENDBRANCH  16  17
ENDBRANCH   8  16
BRANCH  15  19
ATOM     19  N   UNL     1       0.876   5.608  -1.839  1.00  0.00    -0.332 N 
ATOM     20  C   UNL     1       0.914   4.379  -2.608  1.00  0.00     0.262 C 
ATOM     21  C   UNL     1       2.200   6.207  -1.812  1.00  0.00     0.262 C 
ATOM     22  H   UNL     1       0.239   6.209  -2.362  1.00  0.00     0.348 HD
ATOM     23  C   UNL     1       1.853   3.337  -2.030  1.00  0.00     0.068 C 
ATOM     24  C   UNL     1       3.203   5.351  -1.064  1.00  0.00     0.068 C 
ATOM     25  C   UNL     1       3.188   3.844  -1.430  1.00  0.00     0.031 C 
BRANCH  25  26
ATOM     26  C   UNL     1       3.677   2.970  -0.219  1.00  0.00     0.062 C 
ATOM     27  C   UNL     1       3.554   1.466  -0.469  1.00  0.00     0.042 C 
ATOM     28  C   UNL     1       5.119   3.316   0.162  1.00  0.00     0.042 C 
BRANCH  26  29
ATOM     29  O   UNL     1       2.875   3.245   0.931  1.00  0.00    -0.390 OA
ATOM     30  H   UNL     1       1.947   3.039   0.735  1.00  0.00     0.211 HD
ENDBRANCH  26  29
ENDBRANCH  25  26
ENDBRANCH  15  19
ENDBRANCH   4   7
ENDBRANCH   2   3
ENDBRANCH   1   2
BRANCH   1  31
ATOM     31  C   UNL     1      -3.162   9.097  -3.398  1.00  0.00     0.023 C 
BRANCH  31  32
ATOM     32  C   UNL     1      -3.298  10.280  -2.447  1.00  0.00     0.116 C 
BRANCH  32  33
ATOM     33  N   UNL     1      -2.027  10.727  -1.865  1.00  0.00    -0.352 N 
ATOM     34  C   UNL     1      -1.867  11.662  -0.850  1.00  0.00     0.251 C 
ATOM     35  H   UNL     1      -1.206  10.325  -2.231  1.00  0.00     0.163 HD
ATOM     36  O   UNL     1      -0.838  12.288  -0.694  1.00  0.00    -0.269 OA
BRANCH  34  37
ATOM     37  C   UNL     1      -3.005  11.841   0.069  1.00  0.00     0.039 A 
ATOM     38  C   UNL     1      -3.528  13.101   0.368  1.00  0.00     0.014 A 
ATOM     39  C   UNL     1      -3.606  10.672   0.530  1.00  0.00     0.014 A 
ATOM     40  C   UNL     1      -4.729  13.169   1.069  1.00  0.00     0.010 A 
ATOM     41  C   UNL     1      -4.861  10.740   1.071  1.00  0.00     0.010 A 
ATOM     42  C   UNL     1      -5.403  11.980   1.395  1.00  0.00    -0.014 A 
BRANCH  42  43
ATOM     43  C   UNL     1      -6.750  12.002   1.958  1.00  0.00     0.031 A 
ATOM     44  C   UNL     1      -7.744  12.762   1.149  1.00  0.00     0.074 A 
ATOM     45  C   UNL     1      -7.114  11.201   2.985  1.00  0.00     0.049 A 
ATOM     46  N   UNL     1      -8.350  13.855   1.472  1.00  0.00    -0.248 NA
ATOM     47  C   UNL     1      -7.990  12.341  -0.242  1.00  0.00     0.031 C 
ATOM     48  C   UNL     1      -6.318  10.168   3.660  1.00  0.00     0.029 A 
ATOM     49  N   UNL     1      -8.331  11.063   3.579  1.00  0.00    -0.354 N 
ATOM     50  C   UNL     1      -9.226  14.135   0.424  1.00  0.00     0.074 A 
ATOM     51  C   UNL     1      -8.819  13.296  -0.671  1.00  0.00     0.031 C 
ATOM     52  C   UNL     1      -7.129   9.362   4.379  1.00  0.00     0.029 A 
ATOM     53  C   UNL     1      -8.466   9.921   4.364  1.00  0.00     0.049 A 
ATOM     54  H   UNL     1      -9.057  11.718   3.463  1.00  0.00     0.167 HD
ATOM     55  C   UNL     1     -10.371  14.841   0.644  1.00  0.00     0.037 A 
ATOM     56  C   UNL     1      -9.606   9.460   4.938  1.00  0.00     0.037 A 
ATOM     57  C   UNL     1     -10.315  15.525   1.914  1.00  0.00     0.049 A 
ATOM     58  C   UNL     1     -10.563  10.592   4.982  1.00  0.00     0.074 A 
ATOM     59  C   UNL     1      -9.474  16.464   2.479  1.00  0.00     0.029 A 
ATOM     60  N   UNL     1     -11.005  14.966   2.962  1.00  0.00    -0.354 N 
ATOM     61  N   UNL     1     -10.399  11.648   5.729  1.00  0.00    -0.248 NA
ATOM     62  C   UNL     1     -11.446  10.765   3.840  1.00  0.00     0.031 C 
ATOM     63  C   UNL     1      -9.341  16.063   3.842  1.00  0.00     0.029 A 
ATOM     64  C   UNL     1     -10.173  14.962   4.051  1.00  0.00     0.049 A 
ATOM     65  H   UNL     1     -11.930  14.630   2.936  1.00  0.00     0.167 HD
ATOM     66  C   UNL     1     -10.769  12.710   4.918  1.00  0.00     0.074 A 
ATOM     67  C   UNL     1     -11.482  12.099   3.796  1.00  0.00     0.031 C 
ATOM     68  C   UNL     1     -10.206  13.944   5.075  1.00  0.00     0.037 A 
BRANCH  55  69
ATOM     69  C   UNL     1     -11.687  14.590  -0.062  1.00  0.00     0.057 A 
ATOM     70  C   UNL     1     -12.778  15.438   0.215  1.00  0.00     0.134 A 
ATOM     71  C   UNL     1     -12.019  13.400  -0.740  1.00  0.00     0.134 A 
ATOM     72  F   UNL     1     -12.600  16.604   0.856  1.00  0.00    -0.206 F 
ATOM     73  C   UNL     1     -14.102  15.079  -0.067  1.00  0.00     0.040 A 
ATOM     74  C   UNL     1     -13.334  13.056  -1.071  1.00  0.00     0.040 A 
ATOM     75  F   UNL     1     -11.117  12.457  -1.031  1.00  0.00    -0.206 F 
ATOM     76  C   UNL     1     -14.385  13.878  -0.701  1.00  0.00     0.006 A 
ENDBRANCH  55  69
BRANCH  56  77
ATOM     77  C   UNL     1     -10.041   8.058   5.144  1.00  0.00     0.057 A 
ATOM     78  C   UNL     1     -11.123   7.753   5.984  1.00  0.00     0.134 A 
ATOM     79  C   UNL     1      -9.608   7.022   4.299  1.00  0.00     0.134 A 
ATOM     80  F   UNL     1     -11.633   8.686   6.802  1.00  0.00    -0.206 F 
ATOM     81  C   UNL     1     -11.761   6.505   5.958  1.00  0.00     0.040 A 
ATOM     82  C   UNL     1     -10.232   5.770   4.266  1.00  0.00     0.040 A 
ATOM     83  F   UNL     1      -8.625   7.220   3.408  1.00  0.00    -0.206 F 
ATOM     84  C   UNL     1     -11.325   5.513   5.085  1.00  0.00     0.006 A 
ENDBRANCH  56  77
BRANCH  68  85
ATOM     85  C   UNL     1      -9.379  14.189   6.309  1.00  0.00     0.057 A 
ATOM     86  C   UNL     1      -8.201  13.496   6.634  1.00  0.00     0.134 A 
ATOM     87  C   UNL     1      -9.722  15.263   7.138  1.00  0.00     0.134 A 
ATOM     88  F   UNL     1      -7.730  12.520   5.849  1.00  0.00    -0.206 F 
ATOM     89  C   UNL     1      -7.436  13.823   7.758  1.00  0.00     0.040 A 
ATOM     90  C   UNL     1      -8.947  15.623   8.242  1.00  0.00     0.040 A 
ATOM     91  F   UNL     1     -10.802  16.010   6.861  1.00  0.00    -0.206 F 
ATOM     92  C   UNL     1      -7.807  14.893   8.564  1.00  0.00     0.006 A 
ENDBRANCH  68  85
ENDBRANCH  42  43
ENDBRANCH  34  37
ENDBRANCH  32  33
ENDBRANCH  31  32
ENDBRANCH   1  31
TORSDOF 16
