REMARK SMILES Cc1cccc(S(=O)(=O)Nc2cc(C(=O)NCCCCNC(=O)c3ccc(-c4c5nc(c(-c6c(F)cccc6F)c6ccc([nH]6)c(-c6c(F)cccc6F)c6nc(c(-c7c(F)cccc7F)c7ccc4[nH]7)C=C6)C=C5)cc3)cnc2N2CCC[C@H](C)C2)c1
REMARK SMILES IDX 18 1 17 2 16 3 14 4 15 5 13 7 11 8 12 9 80 10 79 11 78 12
REMARK SMILES IDX 10 13 7 15 8 16 9 17 6 18 1 19 2 20 3 21 88 22 4 23 5 24
REMARK SMILES IDX 81 25 82 26 87 27 83 28 85 29 84 30 86 31 19 32 20 33 21 34
REMARK SMILES IDX 22 35 23 37 24 38 25 39 77 40 26 41 76 42 27 43 28 44 29 45
REMARK SMILES IDX 70 46 30 47 75 48 69 49 71 50 31 51 74 52 68 53 67 54 32 56
REMARK SMILES IDX 58 57 41 58 57 59 42 60 45 61 56 62 72 63 43 64 44 65 55 67
REMARK SMILES IDX 73 68 46 69 33 70 34 71 39 72 35 73 36 74 38 75 40 76 37 77
REMARK SMILES IDX 59 78 60 79 65 80 61 81 62 82 64 83 66 84 63 85 47 86 48 87
REMARK SMILES IDX 53 88 49 89 50 90 52 91 54 92 51 93
REMARK H PARENT 16 6 10 14 21 36 71 55 45 66
REMARK Flexibility Score: inf
ROOT
ATOM      1  C   UNL     1       0.524   1.709  -4.161  1.00  0.00     0.023 C 
ENDROOT
BRANCH   1   2
ATOM      2  C   UNL     1       1.232   0.985  -3.005  1.00  0.00     0.116 C 
BRANCH   2   3
ATOM      3  N   UNL     1       2.623   1.399  -2.865  1.00  0.00    -0.352 N 
ATOM      4  C   UNL     1       3.251   2.355  -2.101  1.00  0.00     0.252 C 
ATOM      5  O   UNL     1       4.480   2.407  -2.147  1.00  0.00    -0.269 OA
ATOM      6  H   UNL     1       3.242   0.888  -3.435  1.00  0.00     0.163 HD
BRANCH   4   7
ATOM      7  C   UNL     1       2.539   3.283  -1.192  1.00  0.00     0.060 A 
ATOM      8  C   UNL     1       0.584   4.280  -0.232  1.00  0.00     0.092 A 
ATOM      9  C   UNL     1       1.188   3.563  -1.256  1.00  0.00     0.046 A 
ATOM     10  C   UNL     1       1.364   4.885   0.771  1.00  0.00     0.153 A 
ATOM     11  N   UNL     1       2.700   4.708   0.791  1.00  0.00    -0.236 NA
ATOM     12  C   UNL     1       3.250   3.894  -0.159  1.00  0.00     0.127 A 
BRANCH   8  13
ATOM     13  N   UNL     1      -0.843   4.344  -0.219  1.00  0.00    -0.276 N 
ATOM     14  H   UNL     1      -1.300   5.164  -0.513  1.00  0.00     0.180 HD
BRANCH  13  15
ATOM     15  S   UNL     1      -1.753   3.008   0.304  1.00  0.00     0.262 S 
ATOM     16  O   UNL     1      -2.692   2.774  -0.784  1.00  0.00    -0.201 OA
ATOM     17  O   UNL     1      -2.245   3.324   1.623  1.00  0.00    -0.201 OA
BRANCH  15  18
ATOM     18  C   UNL     1      -0.784   1.518   0.461  1.00  0.00     0.088 A 
ATOM     19  C   UNL     1       2.743   0.214   1.140  1.00  0.00     0.044 C 
ATOM     20  C   UNL     1       1.272   0.266   0.844  1.00  0.00    -0.050 A 
ATOM     21  C   UNL     1       0.645  -0.891   0.383  1.00  0.00     0.003 A 
ATOM     22  C   UNL     1       0.524   1.452   0.961  1.00  0.00     0.025 A 
ATOM     23  C   UNL     1      -0.689  -0.846   0.007  1.00  0.00     0.002 A 
ATOM     24  C   UNL     1      -1.397   0.347   0.017  1.00  0.00     0.022 A 
ENDBRANCH  15  18
ENDBRANCH  13  15
ENDBRANCH   8  13
BRANCH  10  25
ATOM     25  N   UNL     1       0.775   5.752   1.666  1.00  0.00    -0.355 N 
ATOM     26  C   UNL     1      -0.034   5.313   2.793  1.00  0.00     0.118 C 
ATOM     27  C   UNL     1       1.322   7.096   1.771  1.00  0.00     0.121 C 
ATOM     28  C   UNL     1      -1.271   6.217   2.862  1.00  0.00     0.022 C 
ATOM     29  C   UNL     1       0.138   8.080   1.754  1.00  0.00     0.005 C 
ATOM     30  C   UNL     1      -0.902   7.707   2.833  1.00  0.00     0.007 C 
ATOM     31  C   UNL     1      -0.488   8.155   0.355  1.00  0.00     0.009 C 
ENDBRANCH  10  25
ENDBRANCH   4   7
ENDBRANCH   2   3
ENDBRANCH   1   2
BRANCH   1  32
ATOM     32  C   UNL     1       0.996   1.259  -5.542  1.00  0.00     0.023 C 
BRANCH  32  33
ATOM     33  C   UNL     1       0.425  -0.089  -5.959  1.00  0.00     0.116 C 
BRANCH  33  34
ATOM     34  N   UNL     1      -0.822  -0.005  -6.707  1.00  0.00    -0.352 N 
ATOM     35  C   UNL     1      -1.667  -1.015  -7.146  1.00  0.00     0.251 C 
ATOM     36  H   UNL     1      -1.109   0.908  -6.938  1.00  0.00     0.163 HD
ATOM     37  O   UNL     1      -2.647  -0.743  -7.811  1.00  0.00    -0.269 OA
BRANCH  35  38
ATOM     38  C   UNL     1      -1.457  -2.409  -6.668  1.00  0.00     0.039 A 
ATOM     39  C   UNL     1      -2.589  -3.118  -6.243  1.00  0.00     0.014 A 
ATOM     40  C   UNL     1      -0.186  -2.918  -6.425  1.00  0.00     0.014 A 
ATOM     41  C   UNL     1      -2.439  -4.166  -5.339  1.00  0.00     0.010 A 
ATOM     42  C   UNL     1      -0.035  -3.885  -5.454  1.00  0.00     0.010 A 
ATOM     43  C   UNL     1      -1.165  -4.447  -4.854  1.00  0.00    -0.014 A 
BRANCH  43  44
ATOM     44  C   UNL     1      -0.929  -5.161  -3.607  1.00  0.00     0.031 A 
ATOM     45  C   UNL     1      -0.327  -6.503  -3.593  1.00  0.00     0.074 A 
ATOM     46  C   UNL     1      -1.157  -4.516  -2.444  1.00  0.00     0.049 A 
ATOM     47  N   UNL     1      -0.360  -7.302  -2.582  1.00  0.00    -0.248 NA
ATOM     48  C   UNL     1       0.318  -7.081  -4.760  1.00  0.00     0.031 C 
ATOM     49  C   UNL     1      -0.687  -4.885  -1.115  1.00  0.00     0.029 A 
ATOM     50  N   UNL     1      -2.088  -3.502  -2.220  1.00  0.00    -0.354 N 
ATOM     51  C   UNL     1       0.496  -8.346  -2.839  1.00  0.00     0.074 A 
ATOM     52  C   UNL     1       0.811  -8.210  -4.242  1.00  0.00     0.031 C 
ATOM     53  C   UNL     1      -1.494  -4.329  -0.201  1.00  0.00     0.029 A 
ATOM     54  C   UNL     1      -2.580  -3.681  -0.920  1.00  0.00     0.049 A 
ATOM     55  H   UNL     1      -2.349  -2.796  -2.854  1.00  0.00     0.167 HD
ATOM     56  C   UNL     1       0.940  -9.100  -1.789  1.00  0.00     0.037 A 
ATOM     57  C   UNL     1      -3.904  -3.849  -0.659  1.00  0.00     0.037 A 
ATOM     58  C   UNL     1       0.229  -8.743  -0.551  1.00  0.00     0.049 A 
ATOM     59  C   UNL     1      -4.164  -5.155   0.039  1.00  0.00     0.074 A 
ATOM     60  C   UNL     1       0.578  -7.976   0.550  1.00  0.00     0.029 A 
ATOM     61  N   UNL     1      -1.151  -8.942  -0.462  1.00  0.00    -0.354 N 
ATOM     62  N   UNL     1      -3.347  -6.171  -0.030  1.00  0.00    -0.248 NA
ATOM     63  C   UNL     1      -5.312  -5.413   0.899  1.00  0.00     0.031 C 
ATOM     64  C   UNL     1      -0.606  -7.667   1.269  1.00  0.00     0.029 A 
ATOM     65  C   UNL     1      -1.676  -8.264   0.623  1.00  0.00     0.049 A 
ATOM     66  H   UNL     1      -1.678  -9.491  -1.086  1.00  0.00     0.167 HD
ATOM     67  C   UNL     1      -3.797  -7.172   0.783  1.00  0.00     0.074 A 
ATOM     68  C   UNL     1      -5.041  -6.659   1.330  1.00  0.00     0.031 C 
ATOM     69  C   UNL     1      -3.096  -8.331   0.954  1.00  0.00     0.037 A 
BRANCH  56  70
ATOM     70  C   UNL     1       2.221  -9.925  -1.816  1.00  0.00     0.057 A 
ATOM     71  C   UNL     1       2.927 -10.210  -0.627  1.00  0.00     0.134 A 
ATOM     72  C   UNL     1       2.863 -10.405  -2.973  1.00  0.00     0.134 A 
ATOM     73  F   UNL     1       2.417  -9.933   0.580  1.00  0.00    -0.206 F 
ATOM     74  C   UNL     1       4.201 -10.800  -0.607  1.00  0.00     0.040 A 
ATOM     75  C   UNL     1       4.156 -10.953  -2.974  1.00  0.00     0.040 A 
ATOM     76  F   UNL     1       2.254 -10.438  -4.160  1.00  0.00    -0.206 F 
ATOM     77  C   UNL     1       4.839 -11.140  -1.787  1.00  0.00     0.006 A 
ENDBRANCH  56  70
BRANCH  57  78
ATOM     78  C   UNL     1      -4.784  -3.141  -1.621  1.00  0.00     0.057 A 
ATOM     79  C   UNL     1      -4.782  -1.734  -1.586  1.00  0.00     0.134 A 
ATOM     80  C   UNL     1      -5.235  -3.745  -2.797  1.00  0.00     0.134 A 
ATOM     81  F   UNL     1      -4.362  -1.095  -0.483  1.00  0.00    -0.206 F 
ATOM     82  C   UNL     1      -5.081  -0.962  -2.711  1.00  0.00     0.040 A 
ATOM     83  C   UNL     1      -5.556  -2.981  -3.928  1.00  0.00     0.040 A 
ATOM     84  F   UNL     1      -5.243  -5.080  -2.918  1.00  0.00    -0.206 F 
ATOM     85  C   UNL     1      -5.435  -1.591  -3.900  1.00  0.00     0.006 A 
ENDBRANCH  57  78
BRANCH  69  86
ATOM     86  C   UNL     1      -3.653  -9.593   1.558  1.00  0.00     0.057 A 
ATOM     87  C   UNL     1      -5.012  -9.943   1.517  1.00  0.00     0.134 A 
ATOM     88  C   UNL     1      -2.792 -10.594   2.059  1.00  0.00     0.134 A 
ATOM     89  F   UNL     1      -5.929  -9.137   0.965  1.00  0.00    -0.206 F 
ATOM     90  C   UNL     1      -5.487 -11.172   1.989  1.00  0.00     0.040 A 
ATOM     91  C   UNL     1      -3.249 -11.845   2.482  1.00  0.00     0.040 A 
ATOM     92  F   UNL     1      -1.465 -10.415   2.131  1.00  0.00    -0.206 F 
ATOM     93  C   UNL     1      -4.604 -12.134   2.460  1.00  0.00     0.006 A 
ENDBRANCH  69  86
ENDBRANCH  43  44
ENDBRANCH  35  38
ENDBRANCH  33  34
ENDBRANCH  32  33
ENDBRANCH   1  32
TORSDOF 15
