REMARK SMILES Cc1nsc(N[C@H](C)c2cccs2)c1C(=O)NCCCCNC(=O)c1ccc(-c2c3nc(c(-c4c(F)cccc4F)c4ccc([nH]4)c(-c4c(F)cccc4F)c4nc(c(-c5c(F)cccc5F)c5ccc2[nH]5)C=C4)C=C3)cc1
REMARK SMILES IDX 19 1 18 2 17 3 15 4 16 5 14 7 1 8 2 9 3 10 4 11 5 12 6 13
REMARK SMILES IDX 7 15 8 16 9 17 10 18 13 19 11 20 12 21 20 22 21 23 22 24
REMARK SMILES IDX 23 25 24 27 25 28 26 29 78 30 27 31 77 32 28 33 29 34 30 35
REMARK SMILES IDX 71 36 31 37 76 38 70 39 72 40 32 41 75 42 69 43 68 44 33 46
REMARK SMILES IDX 59 47 42 48 58 49 43 50 46 51 57 52 73 53 44 54 45 55 56 57
REMARK SMILES IDX 74 58 47 59 34 60 35 61 40 62 36 63 37 64 39 65 41 66 38 67
REMARK SMILES IDX 60 68 61 69 66 70 62 71 63 72 65 73 67 74 64 75 48 76 49 77
REMARK SMILES IDX 54 78 50 79 51 80 53 81 55 82 52 83
REMARK H PARENT 17 6 6 14 22 26 72 45 46 56
REMARK Flexibility Score: inf
ROOT
ATOM      1  C   UNL     1      -5.423  10.680  -2.194  1.00  0.00     0.023 C 
ENDROOT
BRANCH   1   2
ATOM      2  C   UNL     1      -4.360  10.558  -1.103  1.00  0.00     0.116 C 
BRANCH   2   3
ATOM      3  N   UNL     1      -3.842   9.226  -0.930  1.00  0.00    -0.352 N 
ATOM      4  C   UNL     1      -2.797   8.506  -1.442  1.00  0.00     0.256 C 
ATOM      5  O   UNL     1      -2.604   7.457  -0.806  1.00  0.00    -0.269 OA
ATOM      6  H   UNL     1      -4.370   8.704  -0.283  1.00  0.00     0.163 HD
BRANCH   4   7
ATOM      7  C   UNL     1      -2.012   8.809  -2.657  1.00  0.00     0.097 A 
ATOM      8  C   UNL     1      -2.237  11.400  -3.327  1.00  0.00     0.069 C 
ATOM      9  C   UNL     1      -1.850   9.978  -3.518  1.00  0.00     0.066 A 
ATOM     10  N   UNL     1      -1.211   9.774  -4.672  1.00  0.00    -0.195 NA
ATOM     11  S   UNL     1      -0.662   8.238  -4.733  1.00  0.00    -0.018 S 
ATOM     12  C   UNL     1      -1.125   7.818  -3.136  1.00  0.00     0.123 A 
BRANCH  12  13
ATOM     13  N   UNL     1      -0.720   6.699  -2.465  1.00  0.00    -0.368 N 
ATOM     14  H   UNL     1      -1.152   6.531  -1.597  1.00  0.00     0.162 HD
BRANCH  13  15
ATOM     15  C   UNL     1       0.285   5.724  -2.889  1.00  0.00     0.117 C 
ATOM     16  C   UNL     1       0.528   4.763  -1.711  1.00  0.00     0.037 C 
BRANCH  15  17
ATOM     17  C   UNL     1       1.620   6.274  -3.364  1.00  0.00     0.027 A 
ATOM     18  C   UNL     1       2.225   7.486  -3.080  1.00  0.00     0.017 A 
ATOM     19  S   UNL     1       2.577   5.353  -4.458  1.00  0.00    -0.147 S 
ATOM     20  C   UNL     1       3.405   7.703  -3.849  1.00  0.00     0.012 A 
ATOM     21  C   UNL     1       3.720   6.612  -4.626  1.00  0.00     0.065 A 
ENDBRANCH  15  17
ENDBRANCH  13  15
ENDBRANCH  12  13
ENDBRANCH   4   7
ENDBRANCH   2   3
ENDBRANCH   1   2
BRANCH   1  22
ATOM     22  C   UNL     1      -6.868  10.415  -1.746  1.00  0.00     0.023 C 
BRANCH  22  23
ATOM     23  C   UNL     1      -7.428  11.411  -0.731  1.00  0.00     0.116 C 
BRANCH  23  24
ATOM     24  N   UNL     1      -7.439  12.799  -1.211  1.00  0.00    -0.352 N 
ATOM     25  C   UNL     1      -7.629  13.962  -0.475  1.00  0.00     0.251 C 
ATOM     26  H   UNL     1      -7.294  12.921  -2.177  1.00  0.00     0.163 HD
ATOM     27  O   UNL     1      -8.005  14.999  -0.994  1.00  0.00    -0.269 OA
BRANCH  25  28
ATOM     28  C   UNL     1      -7.302  13.923   0.960  1.00  0.00     0.039 A 
ATOM     29  C   UNL     1      -8.084  14.529   1.951  1.00  0.00     0.014 A 
ATOM     30  C   UNL     1      -6.170  13.191   1.286  1.00  0.00     0.014 A 
ATOM     31  C   UNL     1      -7.729  14.339   3.286  1.00  0.00     0.010 A 
ATOM     32  C   UNL     1      -5.984  12.800   2.574  1.00  0.00     0.010 A 
ATOM     33  C   UNL     1      -6.673  13.470   3.576  1.00  0.00    -0.014 A 
BRANCH  33  34
ATOM     34  C   UNL     1      -6.228  13.153   4.921  1.00  0.00     0.031 A 
ATOM     35  C   UNL     1      -7.163  12.301   5.696  1.00  0.00     0.074 A 
ATOM     36  C   UNL     1      -4.920  13.303   5.234  1.00  0.00     0.049 A 
ATOM     37  N   UNL     1      -7.808  12.613   6.769  1.00  0.00    -0.248 NA
ATOM     38  C   UNL     1      -7.561  11.001   5.124  1.00  0.00     0.031 C 
ATOM     39  C   UNL     1      -3.831  13.794   4.374  1.00  0.00     0.029 A 
ATOM     40  N   UNL     1      -4.252  12.865   6.334  1.00  0.00    -0.354 N 
ATOM     41  C   UNL     1      -8.498  11.461   7.138  1.00  0.00     0.074 A 
ATOM     42  C   UNL     1      -8.517  10.620   5.973  1.00  0.00     0.031 C 
ATOM     43  C   UNL     1      -2.642  13.400   4.877  1.00  0.00     0.029 A 
ATOM     44  C   UNL     1      -2.871  12.763   6.158  1.00  0.00     0.049 A 
ATOM     45  H   UNL     1      -4.703  12.640   7.180  1.00  0.00     0.167 HD
ATOM     46  C   UNL     1      -8.730  11.167   8.448  1.00  0.00     0.037 A 
ATOM     47  C   UNL     1      -2.025  12.106   6.992  1.00  0.00     0.037 A 
ATOM     48  C   UNL     1      -8.463  12.314   9.285  1.00  0.00     0.049 A 
ATOM     49  C   UNL     1      -2.738  11.967   8.296  1.00  0.00     0.074 A 
ATOM     50  C   UNL     1      -8.915  13.621   9.306  1.00  0.00     0.029 A 
ATOM     51  N   UNL     1      -7.290  12.318  10.006  1.00  0.00    -0.354 N 
ATOM     52  N   UNL     1      -3.066  12.985   9.049  1.00  0.00    -0.248 NA
ATOM     53  C   UNL     1      -3.547  10.769   8.485  1.00  0.00     0.031 C 
ATOM     54  C   UNL     1      -7.748  14.402   9.555  1.00  0.00     0.029 A 
ATOM     55  C   UNL     1      -6.684  13.528   9.781  1.00  0.00     0.049 A 
ATOM     56  H   UNL     1      -6.950  11.590  10.576  1.00  0.00     0.167 HD
ATOM     57  C   UNL     1      -4.361  12.712   9.473  1.00  0.00     0.074 A 
ATOM     58  C   UNL     1      -4.582  11.305   9.139  1.00  0.00     0.031 C 
ATOM     59  C   UNL     1      -5.250  13.711   9.761  1.00  0.00     0.037 A 
BRANCH  46  60
ATOM     60  C   UNL     1      -8.803   9.770   9.021  1.00  0.00     0.057 A 
ATOM     61  C   UNL     1      -9.178   9.613  10.369  1.00  0.00     0.134 A 
ATOM     62  C   UNL     1      -8.261   8.615   8.419  1.00  0.00     0.134 A 
ATOM     63  F   UNL     1      -9.706  10.635  11.060  1.00  0.00    -0.206 F 
ATOM     64  C   UNL     1      -8.946   8.431  11.083  1.00  0.00     0.040 A 
ATOM     65  C   UNL     1      -8.078   7.413   9.108  1.00  0.00     0.040 A 
ATOM     66  F   UNL     1      -7.784   8.604   7.170  1.00  0.00    -0.206 F 
ATOM     67  C   UNL     1      -8.385   7.328  10.454  1.00  0.00     0.006 A 
ENDBRANCH  46  60
BRANCH  47  68
ATOM     68  C   UNL     1      -0.837  11.296   6.616  1.00  0.00     0.057 A 
ATOM     69  C   UNL     1       0.088  10.861   7.575  1.00  0.00     0.134 A 
ATOM     70  C   UNL     1      -0.706  10.716   5.339  1.00  0.00     0.134 A 
ATOM     71  F   UNL     1       0.023  11.314   8.836  1.00  0.00    -0.206 F 
ATOM     72  C   UNL     1       1.074   9.903   7.286  1.00  0.00     0.040 A 
ATOM     73  C   UNL     1       0.277   9.768   5.034  1.00  0.00     0.040 A 
ATOM     74  F   UNL     1      -1.581  10.983   4.359  1.00  0.00    -0.206 F 
ATOM     75  C   UNL     1       1.165   9.348   6.013  1.00  0.00     0.006 A 
ENDBRANCH  47  68
BRANCH  59  76
ATOM     76  C   UNL     1      -4.763  15.136   9.815  1.00  0.00     0.057 A 
ATOM     77  C   UNL     1      -4.198  15.823   8.728  1.00  0.00     0.134 A 
ATOM     78  C   UNL     1      -5.069  15.903  10.945  1.00  0.00     0.134 A 
ATOM     79  F   UNL     1      -3.966  15.208   7.564  1.00  0.00    -0.206 F 
ATOM     80  C   UNL     1      -3.922  17.194   8.776  1.00  0.00     0.040 A 
ATOM     81  C   UNL     1      -4.831  17.279  10.995  1.00  0.00     0.040 A 
ATOM     82  F   UNL     1      -5.667  15.335  12.004  1.00  0.00    -0.206 F 
ATOM     83  C   UNL     1      -4.248  17.928   9.910  1.00  0.00     0.006 A 
ENDBRANCH  59  76
ENDBRANCH  33  34
ENDBRANCH  25  28
ENDBRANCH  23  24
ENDBRANCH  22  23
ENDBRANCH   1  22
TORSDOF 14
