REMARK SMILES CCc1ccc2nc(O)c(C(=O)NCCCCNC(=O)c3ccc(-c4c5nc(c(-c6c(F)cccc6F)c6ccc([nH]6)c(-c6c(F)cccc6F)c6nc(c(-c7c(F)cccc7F)c7ccc4[nH]7)C=C6)C=C5)cc3)cc2c1
REMARK SMILES IDX 16 1 15 2 14 3 13 4 11 5 12 6 10 8 3 9 4 10 77 11 5 12 76 13
REMARK SMILES IDX 6 14 75 15 7 16 8 17 2 18 1 19 9 20 17 22 18 23 19 24 20 26
REMARK SMILES IDX 21 27 22 28 74 29 23 30 73 31 24 32 25 33 26 34 67 35 27 36
REMARK SMILES IDX 72 37 66 38 68 39 28 40 71 41 65 42 64 43 29 45 55 46 38 47
REMARK SMILES IDX 54 48 39 49 42 50 53 51 69 52 40 53 41 54 52 56 70 57 43 58
REMARK SMILES IDX 30 59 31 60 36 61 32 62 33 63 35 64 37 65 34 66 56 67 57 68
REMARK SMILES IDX 62 69 58 70 59 71 61 72 63 73 60 74 44 75 45 76 50 77 46 78
REMARK SMILES IDX 47 79 49 80 51 81 48 82
REMARK H PARENT 13 7 9 21 18 25 68 44 42 55
REMARK Flexibility Score: inf
ROOT
ATOM      1  C   UNL     1       2.010   3.037  11.650  1.00  0.00     0.023 C 
ENDROOT
BRANCH   1   2
ATOM      2  C   UNL     1       1.931   3.213  10.138  1.00  0.00     0.023 C 
BRANCH   2   3
ATOM      3  C   UNL     1       3.093   2.612   9.340  1.00  0.00     0.116 C 
BRANCH   3   4
ATOM      4  N   UNL     1       2.897   1.192   9.127  1.00  0.00    -0.352 N 
ATOM      5  C   UNL     1       2.375   0.485   8.074  1.00  0.00     0.256 C 
ATOM      6  O   UNL     1       2.361  -0.744   8.193  1.00  0.00    -0.269 OA
ATOM      7  H   UNL     1       3.195   0.629   9.879  1.00  0.00     0.163 HD
BRANCH   5   8
ATOM      8  C   UNL     1       1.899   1.069   6.790  1.00  0.00     0.102 A 
ATOM      9  C   UNL     1       0.797   0.251   2.101  1.00  0.00    -0.048 A 
ATOM     10  C   UNL     1       0.414   1.591   2.000  1.00  0.00     0.006 A 
ATOM     11  C   UNL     1       1.340  -0.201   3.312  1.00  0.00     0.014 A 
ATOM     12  C   UNL     1       0.517   2.439   3.104  1.00  0.00     0.029 A 
ATOM     13  C   UNL     1       1.437   0.656   4.424  1.00  0.00     0.002 A 
ATOM     14  C   UNL     1       0.977   1.980   4.325  1.00  0.00     0.074 A 
ATOM     15  C   UNL     1       1.937   0.229   5.667  1.00  0.00     0.030 A 
ATOM     16  N   UNL     1       0.919   2.794   5.383  1.00  0.00    -0.213 NA
ATOM     17  C   UNL     1       1.321   2.306   6.574  1.00  0.00     0.224 A 
BRANCH   9  18
ATOM     18  C   UNL     1       0.531  -0.721   0.978  1.00  0.00     0.032 C 
ATOM     19  C   UNL     1       1.060  -0.276  -0.377  1.00  0.00     0.009 C 
ENDBRANCH   9  18
BRANCH  17  20
ATOM     20  O   UNL     1       0.952   3.164   7.543  1.00  0.00    -0.493 OA
ATOM     21  H   UNL     1       0.565   3.987   7.317  1.00  0.00     0.295 HD
ENDBRANCH  17  20
ENDBRANCH   5   8
ENDBRANCH   3   4
ENDBRANCH   2   3
ENDBRANCH   1   2
BRANCH   1  22
ATOM     22  C   UNL     1       3.172   3.751  12.320  1.00  0.00     0.116 C 
BRANCH  22  23
ATOM     23  N   UNL     1       3.204   5.190  12.096  1.00  0.00    -0.352 N 
ATOM     24  C   UNL     1       3.725   6.163  12.920  1.00  0.00     0.251 C 
ATOM     25  H   UNL     1       2.805   5.506  11.253  1.00  0.00     0.163 HD
ATOM     26  O   UNL     1       3.622   7.352  12.637  1.00  0.00    -0.269 OA
BRANCH  24  27
ATOM     27  C   UNL     1       4.360   5.749  14.188  1.00  0.00     0.039 A 
ATOM     28  C   UNL     1       5.283   4.704  14.198  1.00  0.00     0.014 A 
ATOM     29  C   UNL     1       3.950   6.343  15.385  1.00  0.00     0.014 A 
ATOM     30  C   UNL     1       5.634   4.118  15.405  1.00  0.00     0.010 A 
ATOM     31  C   UNL     1       4.390   5.816  16.602  1.00  0.00     0.010 A 
ATOM     32  C   UNL     1       5.186   4.660  16.622  1.00  0.00    -0.014 A 
BRANCH  32  33
ATOM     33  C   UNL     1       5.567   3.980  17.886  1.00  0.00     0.031 A 
ATOM     34  C   UNL     1       4.528   3.342  18.770  1.00  0.00     0.074 A 
ATOM     35  C   UNL     1       6.874   3.857  18.185  1.00  0.00     0.049 A 
ATOM     36  N   UNL     1       4.697   2.636  19.861  1.00  0.00    -0.248 NA
ATOM     37  C   UNL     1       3.119   3.524  18.390  1.00  0.00     0.031 C 
ATOM     38  C   UNL     1       7.973   4.432  17.405  1.00  0.00     0.029 A 
ATOM     39  N   UNL     1       7.503   3.173  19.192  1.00  0.00    -0.354 N 
ATOM     40  C   UNL     1       3.421   2.310  20.307  1.00  0.00     0.074 A 
ATOM     41  C   UNL     1       2.486   2.917  19.384  1.00  0.00     0.031 C 
ATOM     42  C   UNL     1       9.140   4.013  17.915  1.00  0.00     0.029 A 
ATOM     43  C   UNL     1       8.873   3.193  19.091  1.00  0.00     0.049 A 
ATOM     44  H   UNL     1       7.021   2.712  19.916  1.00  0.00     0.167 HD
ATOM     45  C   UNL     1       3.062   1.565  21.381  1.00  0.00     0.037 A 
ATOM     46  C   UNL     1       9.812   2.614  19.860  1.00  0.00     0.037 A 
ATOM     47  C   UNL     1       3.994   0.942  22.287  1.00  0.00     0.049 A 
ATOM     48  C   UNL     1       9.385   1.796  21.041  1.00  0.00     0.074 A 
ATOM     49  C   UNL     1       3.729   0.161  23.400  1.00  0.00     0.029 A 
ATOM     50  N   UNL     1       5.374   1.024  22.179  1.00  0.00    -0.354 N 
ATOM     51  N   UNL     1       8.175   1.500  21.448  1.00  0.00    -0.248 NA
ATOM     52  C   UNL     1      10.458   1.240  21.875  1.00  0.00     0.031 C 
ATOM     53  C   UNL     1       4.949  -0.204  23.982  1.00  0.00     0.029 A 
ATOM     54  C   UNL     1       5.974   0.317  23.210  1.00  0.00     0.049 A 
ATOM     55  H   UNL     1       5.857   1.513  21.474  1.00  0.00     0.167 HD
ATOM     56  C   UNL     1       8.340   0.715  22.580  1.00  0.00     0.074 A 
ATOM     57  C   UNL     1       9.767   0.557  22.776  1.00  0.00     0.031 C 
ATOM     58  C   UNL     1       7.396   0.179  23.392  1.00  0.00     0.037 A 
BRANCH  45  59
ATOM     59  C   UNL     1       1.593   1.397  21.645  1.00  0.00     0.057 A 
ATOM     60  C   UNL     1       0.983   2.047  22.726  1.00  0.00     0.134 A 
ATOM     61  C   UNL     1       0.786   0.576  20.847  1.00  0.00     0.134 A 
ATOM     62  F   UNL     1       1.699   2.844  23.533  1.00  0.00    -0.206 F 
ATOM     63  C   UNL     1      -0.376   1.887  23.003  1.00  0.00     0.040 A 
ATOM     64  C   UNL     1      -0.579   0.426  21.100  1.00  0.00     0.040 A 
ATOM     65  F   UNL     1       1.304  -0.063  19.788  1.00  0.00    -0.206 F 
ATOM     66  C   UNL     1      -1.163   1.079  22.185  1.00  0.00     0.006 A 
ENDBRANCH  45  59
BRANCH  46  67
ATOM     67  C   UNL     1      11.248   2.784  19.529  1.00  0.00     0.057 A 
ATOM     68  C   UNL     1      11.887   4.021  19.676  1.00  0.00     0.134 A 
ATOM     69  C   UNL     1      12.013   1.711  19.061  1.00  0.00     0.134 A 
ATOM     70  F   UNL     1      11.204   5.089  20.113  1.00  0.00    -0.206 F 
ATOM     71  C   UNL     1      13.235   4.187  19.359  1.00  0.00     0.040 A 
ATOM     72  C   UNL     1      13.369   1.856  18.766  1.00  0.00     0.040 A 
ATOM     73  F   UNL     1      11.459   0.498  18.917  1.00  0.00    -0.206 F 
ATOM     74  C   UNL     1      13.982   3.099  18.910  1.00  0.00     0.006 A 
ENDBRANCH  46  67
BRANCH  58  75
ATOM     75  C   UNL     1       7.894  -0.636  24.548  1.00  0.00     0.057 A 
ATOM     76  C   UNL     1       7.786  -2.031  24.536  1.00  0.00     0.134 A 
ATOM     77  C   UNL     1       8.502  -0.040  25.660  1.00  0.00     0.134 A 
ATOM     78  F   UNL     1       7.209  -2.662  23.503  1.00  0.00    -0.206 F 
ATOM     79  C   UNL     1       8.278  -2.807  25.586  1.00  0.00     0.040 A 
ATOM     80  C   UNL     1       9.021  -0.807  26.704  1.00  0.00     0.040 A 
ATOM     81  F   UNL     1       8.652   1.292  25.721  1.00  0.00    -0.206 F 
ATOM     82  C   UNL     1       8.908  -2.196  26.669  1.00  0.00     0.006 A 
ENDBRANCH  58  75
ENDBRANCH  32  33
ENDBRANCH  24  27
ENDBRANCH  22  23
ENDBRANCH   1  22
TORSDOF 13
