REMARK SMILES CC(C)C[C@H](C)NS(=O)(=O)c1cc(C(=O)NCCCCNC(=O)c2ccc(-c3c4nc(c(-c5c(F)cccc5F)c5ccc([nH]5)c(-c5c(F)cccc5F)c5nc(c(-c6c(F)cccc6F)c6ccc3[nH]6)C=C5)C=C4)cc2)ccc1Cl
REMARK SMILES IDX 17 1 16 2 14 3 15 4 13 6 11 7 12 8 80 9 79 10 81 11 78 12
REMARK SMILES IDX 8 13 9 14 10 15 7 16 5 18 6 19 4 20 2 21 1 22 3 23 18 24
REMARK SMILES IDX 19 25 20 26 21 27 22 28 23 30 24 31 25 32 77 33 26 34 76 35
REMARK SMILES IDX 27 36 28 37 29 38 70 39 30 40 75 41 69 42 71 43 31 44 74 45
REMARK SMILES IDX 68 46 67 47 32 49 58 50 41 51 57 52 42 53 45 54 56 55 72 56
REMARK SMILES IDX 43 57 44 58 55 60 73 61 46 62 33 63 34 64 39 65 35 66 36 67
REMARK SMILES IDX 38 68 40 69 37 70 59 71 60 72 65 73 61 74 62 75 64 76 66 77
REMARK SMILES IDX 63 78 47 79 48 80 53 81 49 82 50 83 52 84 54 85 51 86
REMARK H PARENT 16 5 7 17 21 29 71 48 45 59
REMARK Flexibility Score: inf
ROOT
ATOM      1  C   UNL     1      -1.494  -1.063   7.062  1.00  0.00     0.116 C 
ENDROOT
BRANCH   1   2
ATOM      2  N   UNL     1      -2.084  -1.648   5.882  1.00  0.00    -0.352 N 
ATOM      3  C   UNL     1      -2.561  -1.141   4.707  1.00  0.00     0.251 C 
ATOM      4  O   UNL     1      -3.006  -1.969   3.908  1.00  0.00    -0.269 OA
ATOM      5  H   UNL     1      -2.158  -2.628   5.936  1.00  0.00     0.163 HD
BRANCH   3   6
ATOM      6  C   UNL     1      -2.576   0.305   4.320  1.00  0.00     0.041 A 
ATOM      7  C   UNL     1      -3.225   1.914   2.569  1.00  0.00     0.101 A 
ATOM      8  C   UNL     1      -3.122   0.596   3.056  1.00  0.00     0.037 A 
ATOM      9  C   UNL     1      -2.751   2.968   3.345  1.00  0.00     0.061 A 
ATOM     10  C   UNL     1      -2.195   2.689   4.595  1.00  0.00     0.023 A 
ATOM     11  Cl  UNL     1      -2.787   4.634   2.925  1.00  0.00    -0.083 Cl
ATOM     12  C   UNL     1      -2.138   1.381   5.088  1.00  0.00     0.015 A 
BRANCH   7  13
ATOM     13  S   UNL     1      -4.178   2.144   1.097  1.00  0.00     0.242 S 
ATOM     14  O   UNL     1      -4.784   3.452   1.102  1.00  0.00    -0.207 OA
ATOM     15  O   UNL     1      -5.035   0.980   0.967  1.00  0.00    -0.207 OA
BRANCH  13  16
ATOM     16  N   UNL     1      -3.166   2.030  -0.246  1.00  0.00    -0.208 NA
ATOM     17  H   UNL     1      -3.554   1.279  -0.818  1.00  0.00     0.141 HD
BRANCH  16  18
ATOM     18  C   UNL     1      -1.720   1.769  -0.179  1.00  0.00     0.067 C 
ATOM     19  C   UNL     1      -1.386   0.665  -1.191  1.00  0.00     0.025 C 
BRANCH  18  20
ATOM     20  C   UNL     1      -0.877   3.036  -0.438  1.00  0.00     0.022 C 
BRANCH  20  21
ATOM     21  C   UNL     1      -1.414   4.144  -1.377  1.00  0.00    -0.016 C 
ATOM     22  C   UNL     1      -2.603   4.912  -0.795  1.00  0.00     0.007 C 
ATOM     23  C   UNL     1      -0.290   5.156  -1.645  1.00  0.00     0.007 C 
ENDBRANCH  20  21
ENDBRANCH  18  20
ENDBRANCH  16  18
ENDBRANCH  13  16
ENDBRANCH   7  13
ENDBRANCH   3   6
ENDBRANCH   1   2
BRANCH   1  24
ATOM     24  C   UNL     1      -2.563  -0.739   8.106  1.00  0.00     0.023 C 
BRANCH  24  25
ATOM     25  C   UNL     1      -2.943  -1.941   8.978  1.00  0.00     0.023 C 
BRANCH  25  26
ATOM     26  C   UNL     1      -1.769  -2.609   9.687  1.00  0.00     0.116 C 
BRANCH  26  27
ATOM     27  N   UNL     1      -0.940  -1.673  10.433  1.00  0.00    -0.352 N 
ATOM     28  C   UNL     1      -0.210  -1.912  11.571  1.00  0.00     0.251 C 
ATOM     29  H   UNL     1      -0.896  -0.756  10.077  1.00  0.00     0.163 HD
ATOM     30  O   UNL     1       0.350  -0.998  12.164  1.00  0.00    -0.269 OA
BRANCH  28  31
ATOM     31  C   UNL     1      -0.150  -3.291  12.086  1.00  0.00     0.039 A 
ATOM     32  C   UNL     1      -0.500  -3.530  13.414  1.00  0.00     0.014 A 
ATOM     33  C   UNL     1       0.178  -4.345  11.229  1.00  0.00     0.014 A 
ATOM     34  C   UNL     1      -0.574  -4.844  13.872  1.00  0.00     0.010 A 
ATOM     35  C   UNL     1       0.016  -5.654  11.662  1.00  0.00     0.010 A 
ATOM     36  C   UNL     1      -0.351  -5.916  12.990  1.00  0.00    -0.014 A 
BRANCH  36  37
ATOM     37  C   UNL     1      -0.488  -7.318  13.452  1.00  0.00     0.031 A 
ATOM     38  C   UNL     1       0.706  -8.232  13.445  1.00  0.00     0.074 A 
ATOM     39  C   UNL     1      -1.694  -7.777  13.839  1.00  0.00     0.049 A 
ATOM     40  N   UNL     1       0.786  -9.488  13.802  1.00  0.00    -0.248 NA
ATOM     41  C   UNL     1       1.971  -7.669  12.945  1.00  0.00     0.031 C 
ATOM     42  C   UNL     1      -2.937  -7.001  13.834  1.00  0.00     0.029 A 
ATOM     43  N   UNL     1      -2.072  -9.006  14.314  1.00  0.00    -0.354 N 
ATOM     44  C   UNL     1       2.102  -9.863  13.564  1.00  0.00     0.074 A 
ATOM     45  C   UNL     1       2.766  -8.727  12.967  1.00  0.00     0.031 C 
ATOM     46  C   UNL     1      -3.930  -7.762  14.320  1.00  0.00     0.029 A 
ATOM     47  C   UNL     1      -3.406  -9.087  14.634  1.00  0.00     0.049 A 
ATOM     48  H   UNL     1      -1.447  -9.760  14.416  1.00  0.00     0.167 HD
ATOM     49  C   UNL     1       2.710 -11.039  13.848  1.00  0.00     0.037 A 
ATOM     50  C   UNL     1      -4.123 -10.115  15.124  1.00  0.00     0.037 A 
ATOM     51  C   UNL     1       2.046 -12.161  14.458  1.00  0.00     0.049 A 
ATOM     52  C   UNL     1      -3.427 -11.416  15.416  1.00  0.00     0.074 A 
ATOM     53  C   UNL     1       2.584 -13.376  14.839  1.00  0.00     0.029 A 
ATOM     54  N   UNL     1       0.695 -12.205  14.768  1.00  0.00    -0.354 N 
ATOM     55  N   UNL     1      -2.162 -11.731  15.265  1.00  0.00    -0.248 NA
ATOM     56  C   UNL     1      -4.256 -12.503  15.954  1.00  0.00     0.031 C 
ATOM     57  C   UNL     1       1.548 -14.178  15.327  1.00  0.00     0.029 A 
ATOM     58  C   UNL     1       0.375 -13.440  15.308  1.00  0.00     0.049 A 
ATOM     59  H   UNL     1       0.058 -11.468  14.625  1.00  0.00     0.167 HD
ATOM     60  C   UNL     1      -2.039 -13.040  15.714  1.00  0.00     0.074 A 
ATOM     61  C   UNL     1      -3.354 -13.451  16.163  1.00  0.00     0.031 C 
ATOM     62  C   UNL     1      -0.939 -13.832  15.751  1.00  0.00     0.037 A 
BRANCH  49  63
ATOM     63  C   UNL     1       4.166 -11.166  13.502  1.00  0.00     0.057 A 
ATOM     64  C   UNL     1       5.155 -10.437  14.177  1.00  0.00     0.134 A 
ATOM     65  C   UNL     1       4.589 -12.048  12.500  1.00  0.00     0.134 A 
ATOM     66  F   UNL     1       4.818  -9.563  15.139  1.00  0.00    -0.206 F 
ATOM     67  C   UNL     1       6.506 -10.557  13.848  1.00  0.00     0.040 A 
ATOM     68  C   UNL     1       5.940 -12.201  12.184  1.00  0.00     0.040 A 
ATOM     69  F   UNL     1       3.697 -12.781  11.815  1.00  0.00    -0.206 F 
ATOM     70  C   UNL     1       6.902 -11.448  12.854  1.00  0.00     0.006 A 
ENDBRANCH  49  63
BRANCH  50  71
ATOM     71  C   UNL     1      -5.575  -9.953  15.392  1.00  0.00     0.057 A 
ATOM     72  C   UNL     1      -6.077  -9.968  16.699  1.00  0.00     0.134 A 
ATOM     73  C   UNL     1      -6.498  -9.797  14.351  1.00  0.00     0.134 A 
ATOM     74  F   UNL     1      -5.246 -10.131  17.739  1.00  0.00    -0.206 F 
ATOM     75  C   UNL     1      -7.444  -9.860  16.960  1.00  0.00     0.040 A 
ATOM     76  C   UNL     1      -7.865  -9.658  14.599  1.00  0.00     0.040 A 
ATOM     77  F   UNL     1      -6.082  -9.764  13.076  1.00  0.00    -0.206 F 
ATOM     78  C   UNL     1      -8.342  -9.700  15.907  1.00  0.00     0.006 A 
ENDBRANCH  50  71
BRANCH  62  79
ATOM     79  C   UNL     1      -1.105 -15.211  16.322  1.00  0.00     0.057 A 
ATOM     80  C   UNL     1      -1.824 -16.210  15.652  1.00  0.00     0.134 A 
ATOM     81  C   UNL     1      -0.510 -15.552  17.543  1.00  0.00     0.134 A 
ATOM     82  F   UNL     1      -2.429 -15.946  14.484  1.00  0.00    -0.206 F 
ATOM     83  C   UNL     1      -1.970 -17.489  16.192  1.00  0.00     0.040 A 
ATOM     84  C   UNL     1      -0.621 -16.836  18.077  1.00  0.00     0.040 A 
ATOM     85  F   UNL     1       0.202 -14.647  18.231  1.00  0.00    -0.206 F 
ATOM     86  C   UNL     1      -1.361 -17.807  17.404  1.00  0.00     0.006 A 
ENDBRANCH  62  79
ENDBRANCH  36  37
ENDBRANCH  28  31
ENDBRANCH  26  27
ENDBRANCH  25  26
ENDBRANCH  24  25
ENDBRANCH   1  24
TORSDOF 16
