REMARK SMILES C[C@@H]1[C@H](C(=O)NCCCCNC(=O)c2ccc(-c3c4nc(c(-c5c(F)cccc5F)c5ccc([nH]5)c(-c5c(F)cccc5F)c5nc(c(-c6c(F)cccc6F)c6ccc3[nH]6)C=C5)C=C4)cc2)CC[N@@H+]1[C@@H](C)c1cc(F)cc(F)c1
REMARK SMILES IDX 8 1 7 2 6 3 4 4 5 5 3 7 1 8 2 9 70 10 68 11 69 12 71 14
REMARK SMILES IDX 72 15 73 16 74 17 80 18 75 19 78 20 76 21 77 22 79 23 9 24
REMARK SMILES IDX 10 25 11 26 12 27 13 29 14 30 15 31 67 32 16 33 66 34 17 35
REMARK SMILES IDX 18 36 19 37 60 38 20 39 65 40 59 41 61 42 21 43 64 44 58 45
REMARK SMILES IDX 57 46 22 48 48 49 31 50 47 51 32 52 35 53 46 54 62 55 33 56
REMARK SMILES IDX 34 57 45 59 63 60 36 61 23 62 24 63 29 64 25 65 26 66 28 67
REMARK SMILES IDX 30 68 27 69 49 70 50 71 55 72 51 73 52 74 54 75 56 76 53 77
REMARK SMILES IDX 37 78 38 79 43 80 39 81 40 82 42 83 44 84 41 85
REMARK H PARENT 6 6 70 13 11 28 61 47 35 58
REMARK Flexibility Score: inf
ROOT
ATOM      1  C   UNL     1       2.935   1.296   2.302  1.00  0.00     0.023 C 
ENDROOT
BRANCH   1   2
ATOM      2  C   UNL     1       1.494   1.705   2.001  1.00  0.00     0.116 C 
BRANCH   2   3
ATOM      3  N   UNL     1       1.403   2.499   0.798  1.00  0.00    -0.356 N 
ATOM      4  C   UNL     1       0.765   2.257  -0.376  1.00  0.00     0.229 C 
ATOM      5  O   UNL     1       0.926   3.093  -1.271  1.00  0.00    -0.275 OA
ATOM      6  H   UNL     1       1.883   3.358   0.835  1.00  0.00     0.163 HD
BRANCH   4   7
ATOM      7  C   UNL     1      -0.126   1.043  -0.626  1.00  0.00     0.142 C 
ATOM      8  C   UNL     1       2.021  -0.468  -0.690  1.00  0.00     0.076 C 
ATOM      9  C   UNL     1       0.505  -0.355  -0.778  1.00  0.00     0.194 C 
ATOM     10  N   UNL     1      -0.309  -1.240   0.056  1.00  0.00    -0.326 N 
ATOM     11  C   UNL     1      -1.297   0.884   0.342  1.00  0.00     0.081 C 
ATOM     12  C   UNL     1      -1.573  -0.610   0.384  1.00  0.00     0.264 C 
ATOM     13  H   UNL     1      -0.442  -2.049  -0.552  1.00  0.00     0.348 HD
BRANCH  10  14
ATOM     14  C   UNL     1       0.224  -2.307   0.893  1.00  0.00     0.212 C 
ATOM     15  C   UNL     1       0.684  -1.827   2.277  1.00  0.00     0.081 C 
BRANCH  14  16
ATOM     16  C   UNL     1      -0.742  -3.490   0.972  1.00  0.00     0.015 A 
ATOM     17  C   UNL     1      -1.411  -3.863   2.151  1.00  0.00     0.049 A 
ATOM     18  C   UNL     1      -0.961  -4.267  -0.179  1.00  0.00     0.049 A 
ATOM     19  C   UNL     1      -2.234  -4.988   2.174  1.00  0.00     0.126 A 
ATOM     20  C   UNL     1      -1.795  -5.383  -0.134  1.00  0.00     0.126 A 
ATOM     21  F   UNL     1      -2.837  -5.332   3.320  1.00  0.00    -0.207 F 
ATOM     22  C   UNL     1      -2.430  -5.758   1.040  1.00  0.00     0.078 A 
ATOM     23  F   UNL     1      -1.977  -6.112  -1.242  1.00  0.00    -0.207 F 
ENDBRANCH  14  16
ENDBRANCH  10  14
ENDBRANCH   4   7
ENDBRANCH   2   3
ENDBRANCH   1   2
BRANCH   1  24
ATOM     24  C   UNL     1       3.802   2.384   2.919  1.00  0.00     0.023 C 
BRANCH  24  25
ATOM     25  C   UNL     1       3.308   2.912   4.256  1.00  0.00     0.116 C 
BRANCH  25  26
ATOM     26  N   UNL     1       3.130   1.877   5.267  1.00  0.00    -0.352 N 
ATOM     27  C   UNL     1       3.528   1.885   6.583  1.00  0.00     0.251 C 
ATOM     28  H   UNL     1       2.663   1.064   4.968  1.00  0.00     0.163 HD
ATOM     29  O   UNL     1       3.385   0.891   7.288  1.00  0.00    -0.269 OA
BRANCH  27  30
ATOM     30  C   UNL     1       4.170   3.098   7.125  1.00  0.00     0.039 A 
ATOM     31  C   UNL     1       5.384   2.980   7.806  1.00  0.00     0.014 A 
ATOM     32  C   UNL     1       3.608   4.353   6.885  1.00  0.00     0.014 A 
ATOM     33  C   UNL     1       6.077   4.134   8.173  1.00  0.00     0.010 A 
ATOM     34  C   UNL     1       4.344   5.496   7.162  1.00  0.00     0.010 A 
ATOM     35  C   UNL     1       5.583   5.399   7.815  1.00  0.00    -0.014 A 
BRANCH  35  36
ATOM     36  C   UNL     1       6.321   6.644   8.135  1.00  0.00     0.031 A 
ATOM     37  C   UNL     1       5.686   7.668   9.035  1.00  0.00     0.074 A 
ATOM     38  C   UNL     1       7.508   6.895   7.551  1.00  0.00     0.049 A 
ATOM     39  N   UNL     1       6.098   8.870   9.342  1.00  0.00    -0.248 NA
ATOM     40  C   UNL     1       4.391   7.305   9.635  1.00  0.00     0.031 C 
ATOM     41  C   UNL     1       8.199   6.009   6.612  1.00  0.00     0.029 A 
ATOM     42  N   UNL     1       8.339   7.981   7.654  1.00  0.00    -0.354 N 
ATOM     43  C   UNL     1       5.099   9.416  10.138  1.00  0.00     0.074 A 
ATOM     44  C   UNL     1       4.038   8.438  10.220  1.00  0.00     0.031 C 
ATOM     45  C   UNL     1       9.362   6.575   6.248  1.00  0.00     0.029 A 
ATOM     46  C   UNL     1       9.482   7.875   6.901  1.00  0.00     0.049 A 
ATOM     47  H   UNL     1       8.135   8.764   8.216  1.00  0.00     0.167 HD
ATOM     48  C   UNL     1       5.079  10.614  10.768  1.00  0.00     0.037 A 
ATOM     49  C   UNL     1      10.511   8.732   6.756  1.00  0.00     0.037 A 
ATOM     50  C   UNL     1       6.160  11.560  10.730  1.00  0.00     0.049 A 
ATOM     51  C   UNL     1      10.489  10.035   7.506  1.00  0.00     0.074 A 
ATOM     52  C   UNL     1       6.271  12.773  11.386  1.00  0.00     0.029 A 
ATOM     53  N   UNL     1       7.328  11.389  10.002  1.00  0.00    -0.354 N 
ATOM     54  N   UNL     1       9.564  10.516   8.299  1.00  0.00    -0.248 NA
ATOM     55  C   UNL     1      11.660  10.909   7.347  1.00  0.00     0.031 C 
ATOM     56  C   UNL     1       7.498  13.346  11.037  1.00  0.00     0.029 A 
ATOM     57  C   UNL     1       8.165  12.475  10.191  1.00  0.00     0.049 A 
ATOM     58  H   UNL     1       7.531  10.610   9.434  1.00  0.00     0.167 HD
ATOM     59  C   UNL     1      10.051  11.732   8.758  1.00  0.00     0.074 A 
ATOM     60  C   UNL     1      11.358  11.912   8.160  1.00  0.00     0.031 C 
ATOM     61  C   UNL     1       9.470  12.622   9.600  1.00  0.00     0.037 A 
BRANCH  48  62
ATOM     62  C   UNL     1       3.852  10.950  11.562  1.00  0.00     0.057 A 
ATOM     63  C   UNL     1       3.544  10.289  12.759  1.00  0.00     0.134 A 
ATOM     64  C   UNL     1       2.967  11.943  11.126  1.00  0.00     0.134 A 
ATOM     65  F   UNL     1       4.341   9.314  13.221  1.00  0.00    -0.206 F 
ATOM     66  C   UNL     1       2.383  10.581  13.476  1.00  0.00     0.040 A 
ATOM     67  C   UNL     1       1.817  12.264  11.850  1.00  0.00     0.040 A 
ATOM     68  F   UNL     1       3.203  12.616   9.990  1.00  0.00    -0.206 F 
ATOM     69  C   UNL     1       1.518  11.575  13.024  1.00  0.00     0.006 A 
ENDBRANCH  48  62
BRANCH  49  70
ATOM     70  C   UNL     1      11.669   8.365   5.905  1.00  0.00     0.057 A 
ATOM     71  C   UNL     1      12.899   8.024   6.480  1.00  0.00     0.134 A 
ATOM     72  C   UNL     1      11.581   8.348   4.509  1.00  0.00     0.134 A 
ATOM     73  F   UNL     1      13.048   8.038   7.812  1.00  0.00    -0.206 F 
ATOM     74  C   UNL     1      14.007   7.695   5.696  1.00  0.00     0.040 A 
ATOM     75  C   UNL     1      12.675   8.002   3.713  1.00  0.00     0.040 A 
ATOM     76  F   UNL     1      10.428   8.658   3.899  1.00  0.00    -0.206 F 
ATOM     77  C   UNL     1      13.894   7.680   4.308  1.00  0.00     0.006 A 
ENDBRANCH  49  70
BRANCH  61  78
ATOM     78  C   UNL     1      10.261  13.842   9.958  1.00  0.00     0.057 A 
ATOM     79  C   UNL     1      10.431  14.902   9.060  1.00  0.00     0.134 A 
ATOM     80  C   UNL     1      10.822  13.974  11.235  1.00  0.00     0.134 A 
ATOM     81  F   UNL     1       9.928  14.829   7.819  1.00  0.00    -0.206 F 
ATOM     82  C   UNL     1      11.148  16.046   9.414  1.00  0.00     0.040 A 
ATOM     83  C   UNL     1      11.522  15.122  11.607  1.00  0.00     0.040 A 
ATOM     84  F   UNL     1      10.687  12.996  12.143  1.00  0.00    -0.206 F 
ATOM     85  C   UNL     1      11.690  16.160  10.693  1.00  0.00     0.006 A 
ENDBRANCH  61  78
ENDBRANCH  35  36
ENDBRANCH  27  30
ENDBRANCH  25  26
ENDBRANCH  24  25
ENDBRANCH   1  24
TORSDOF 13
