REMARK SMILES CCCC[C@@H](C(=O)NCCCCNC(=O)c1ccc(-c2c3nc(c(-c4c(F)cccc4F)c4ccc([nH]4)c(-c4c(F)cccc4F)c4nc(c(-c5c(F)cccc5F)c5ccc2[nH]5)C=C4)C=C3)cc1)[C@H](O)c1ccc(Br)cc1F
REMARK SMILES IDX 10 1 9 2 8 3 6 4 7 5 5 7 4 8 3 9 2 10 1 11 70 12 72 13 73 14
REMARK SMILES IDX 78 15 74 16 77 17 79 18 75 19 76 20 71 21 11 23 12 24 13 25
REMARK SMILES IDX 14 26 15 28 16 29 17 30 69 31 18 32 68 33 19 34 20 35 21 36
REMARK SMILES IDX 62 37 22 38 67 39 61 40 63 41 23 42 66 43 60 44 59 45 24 47
REMARK SMILES IDX 50 48 33 49 49 50 34 51 37 52 48 53 64 54 35 55 36 56 47 58
REMARK SMILES IDX 65 59 38 60 25 61 26 62 31 63 27 64 28 65 30 66 32 67 29 68
REMARK SMILES IDX 51 69 52 70 57 71 53 72 54 73 56 74 58 75 55 76 39 77 40 78
REMARK SMILES IDX 45 79 41 80 42 81 44 82 46 83 43 84
REMARK H PARENT 8 6 71 22 13 27 63 46 37 57
REMARK Flexibility Score: inf
ROOT
ATOM      1  C   UNL     1       0.768  -6.408  -0.650  1.00  0.00     0.023 C 
ENDROOT
BRANCH   1   2
ATOM      2  C   UNL     1       0.882  -4.888  -0.532  1.00  0.00     0.116 C 
BRANCH   2   3
ATOM      3  N   UNL     1       1.059  -4.289  -1.832  1.00  0.00    -0.356 N 
ATOM      4  C   UNL     1       0.201  -3.615  -2.639  1.00  0.00     0.226 C 
ATOM      5  O   UNL     1       0.702  -3.199  -3.691  1.00  0.00    -0.275 OA
ATOM      6  H   UNL     1       1.966  -4.388  -2.202  1.00  0.00     0.163 HD
BRANCH   4   7
ATOM      7  C   UNL     1      -1.268  -3.306  -2.265  1.00  0.00     0.112 C 
BRANCH   7   8
ATOM      8  C   UNL     1      -2.192  -4.552  -2.302  1.00  0.00     0.016 C 
BRANCH   8   9
ATOM      9  C   UNL     1      -2.414  -5.419  -1.059  1.00  0.00     0.001 C 
BRANCH   9  10
ATOM     10  C   UNL     1      -2.701  -4.719   0.268  1.00  0.00    -0.003 C 
ATOM     11  C   UNL     1      -4.116  -4.178   0.362  1.00  0.00     0.004 C 
ENDBRANCH   9  10
ENDBRANCH   8   9
ENDBRANCH   7   8
BRANCH   7  12
ATOM     12  C   UNL     1      -1.731  -2.233  -3.330  1.00  0.00     0.160 C 
BRANCH  12  13
ATOM     13  C   UNL     1      -3.207  -1.886  -3.343  1.00  0.00     0.017 A 
ATOM     14  C   UNL     1      -3.752  -0.859  -2.562  1.00  0.00     0.010 A 
ATOM     15  C   UNL     1      -4.080  -2.644  -4.140  1.00  0.00     0.130 A 
ATOM     16  C   UNL     1      -5.134  -0.643  -2.545  1.00  0.00     0.016 A 
ATOM     17  C   UNL     1      -5.457  -2.464  -4.102  1.00  0.00     0.055 A 
ATOM     18  F   UNL     1      -3.589  -3.632  -4.905  1.00  0.00    -0.207 F 
ATOM     19  C   UNL     1      -5.980  -1.463  -3.294  1.00  0.00     0.020 A 
ATOM     20  Br  UNL     1      -7.852  -1.228  -3.195  1.00  0.00    -0.051 Br
ENDBRANCH  12  13
BRANCH  12  21
ATOM     21  O   UNL     1      -0.999  -1.015  -3.108  1.00  0.00    -0.387 OA
ATOM     22  H   UNL     1      -1.225  -0.656  -2.236  1.00  0.00     0.211 HD
ENDBRANCH  12  21
ENDBRANCH   7  12
ENDBRANCH   4   7
ENDBRANCH   2   3
ENDBRANCH   1   2
BRANCH   1  23
ATOM     23  C   UNL     1       2.076  -7.169  -0.522  1.00  0.00     0.023 C 
BRANCH  23  24
ATOM     24  C   UNL     1       2.708  -7.091   0.860  1.00  0.00     0.116 C 
BRANCH  24  25
ATOM     25  N   UNL     1       1.844  -7.568   1.937  1.00  0.00    -0.352 N 
ATOM     26  C   UNL     1       2.148  -8.427   2.972  1.00  0.00     0.251 C 
ATOM     27  H   UNL     1       0.919  -7.230   1.921  1.00  0.00     0.163 HD
ATOM     28  O   UNL     1       1.295  -8.792   3.765  1.00  0.00    -0.269 OA
BRANCH  26  29
ATOM     29  C   UNL     1       3.528  -8.939   3.061  1.00  0.00     0.039 A 
ATOM     30  C   UNL     1       3.738 -10.318   3.034  1.00  0.00     0.014 A 
ATOM     31  C   UNL     1       4.600  -8.046   3.007  1.00  0.00     0.014 A 
ATOM     32  C   UNL     1       5.027 -10.805   2.821  1.00  0.00     0.010 A 
ATOM     33  C   UNL     1       5.863  -8.529   2.700  1.00  0.00     0.010 A 
ATOM     34  C   UNL     1       6.083  -9.911   2.580  1.00  0.00    -0.014 A 
BRANCH  34  35
ATOM     35  C   UNL     1       7.423 -10.382   2.155  1.00  0.00     0.031 A 
ATOM     36  C   UNL     1       8.624 -10.066   2.998  1.00  0.00     0.074 A 
ATOM     37  C   UNL     1       7.572 -10.985   0.959  1.00  0.00     0.049 A 
ATOM     38  N   UNL     1       9.891 -10.242   2.730  1.00  0.00    -0.248 NA
ATOM     39  C   UNL     1       8.364  -9.430   4.299  1.00  0.00     0.031 C 
ATOM     40  C   UNL     1       6.490 -11.301   0.023  1.00  0.00     0.029 A 
ATOM     41  N   UNL     1       8.702 -11.426   0.317  1.00  0.00    -0.354 N 
ATOM     42  C   UNL     1      10.578  -9.715   3.814  1.00  0.00     0.074 A 
ATOM     43  C   UNL     1       9.591  -9.166   4.718  1.00  0.00     0.031 C 
ATOM     44  C   UNL     1       7.005 -11.910  -1.058  1.00  0.00     0.029 A 
ATOM     45  C   UNL     1       8.455 -11.984  -0.915  1.00  0.00     0.049 A 
ATOM     46  H   UNL     1       9.605 -11.350   0.702  1.00  0.00     0.167 HD
ATOM     47  C   UNL     1      11.911  -9.712   4.048  1.00  0.00     0.037 A 
ATOM     48  C   UNL     1       9.304 -12.486  -1.830  1.00  0.00     0.037 A 
ATOM     49  C   UNL     1      12.886 -10.296   3.168  1.00  0.00     0.049 A 
ATOM     50  C   UNL     1      10.781 -12.458  -1.555  1.00  0.00     0.074 A 
ATOM     51  C   UNL     1      14.251 -10.421   3.354  1.00  0.00     0.029 A 
ATOM     52  N   UNL     1      12.595 -10.854   1.932  1.00  0.00    -0.354 N 
ATOM     53  N   UNL     1      11.414 -12.010  -0.499  1.00  0.00    -0.248 NA
ATOM     54  C   UNL     1      11.661 -12.994  -2.603  1.00  0.00     0.031 C 
ATOM     55  C   UNL     1      14.792 -11.026   2.214  1.00  0.00     0.029 A 
ATOM     56  C   UNL     1      13.759 -11.304   1.333  1.00  0.00     0.049 A 
ATOM     57  H   UNL     1      11.695 -10.921   1.540  1.00  0.00     0.167 HD
ATOM     58  C   UNL     1      12.763 -12.223  -0.746  1.00  0.00     0.074 A 
ATOM     59  C   UNL     1      12.857 -12.851  -2.048  1.00  0.00     0.031 C 
ATOM     60  C   UNL     1      13.829 -11.924   0.035  1.00  0.00     0.037 A 
BRANCH  47  61
ATOM     61  C   UNL     1      12.380  -9.062   5.314  1.00  0.00     0.057 A 
ATOM     62  C   UNL     1      12.151  -9.644   6.569  1.00  0.00     0.134 A 
ATOM     63  C   UNL     1      13.068  -7.843   5.281  1.00  0.00     0.134 A 
ATOM     64  F   UNL     1      11.482 -10.802   6.668  1.00  0.00    -0.206 F 
ATOM     65  C   UNL     1      12.561  -9.020   7.747  1.00  0.00     0.040 A 
ATOM     66  C   UNL     1      13.505  -7.222   6.452  1.00  0.00     0.040 A 
ATOM     67  F   UNL     1      13.320  -7.234   4.113  1.00  0.00    -0.206 F 
ATOM     68  C   UNL     1      13.245  -7.807   7.691  1.00  0.00     0.006 A 
ENDBRANCH  47  61
BRANCH  48  69
ATOM     69  C   UNL     1       8.779 -13.074  -3.087  1.00  0.00     0.057 A 
ATOM     70  C   UNL     1       8.795 -14.459  -3.288  1.00  0.00     0.134 A 
ATOM     71  C   UNL     1       8.248 -12.278  -4.108  1.00  0.00     0.134 A 
ATOM     72  F   UNL     1       9.309 -15.270  -2.351  1.00  0.00    -0.206 F 
ATOM     73  C   UNL     1       8.311 -15.033  -4.464  1.00  0.00     0.040 A 
ATOM     74  C   UNL     1       7.744 -12.840  -5.283  1.00  0.00     0.040 A 
ATOM     75  F   UNL     1       8.201 -10.945  -3.973  1.00  0.00    -0.206 F 
ATOM     76  C   UNL     1       7.778 -14.222  -5.464  1.00  0.00     0.006 A 
ENDBRANCH  48  69
BRANCH  60  77
ATOM     77  C   UNL     1      15.185 -12.281  -0.492  1.00  0.00     0.057 A 
ATOM     78  C   UNL     1      15.808 -11.518  -1.486  1.00  0.00     0.134 A 
ATOM     79  C   UNL     1      15.895 -13.366   0.037  1.00  0.00     0.134 A 
ATOM     80  F   UNL     1      15.171 -10.476  -2.042  1.00  0.00    -0.206 F 
ATOM     81  C   UNL     1      17.090 -11.826  -1.943  1.00  0.00     0.040 A 
ATOM     82  C   UNL     1      17.185 -13.672  -0.397  1.00  0.00     0.040 A 
ATOM     83  F   UNL     1      15.353 -14.133   0.995  1.00  0.00    -0.206 F 
ATOM     84  C   UNL     1      17.785 -12.902  -1.391  1.00  0.00     0.006 A 
ENDBRANCH  60  77
ENDBRANCH  34  35
ENDBRANCH  26  29
ENDBRANCH  24  25
ENDBRANCH  23  24
ENDBRANCH   1  23
TORSDOF 17
