REMARK SMILES COc1cc2c(cc1OC)C1=C(C#N)C[N@@H+](CC(=O)NCCCCNC(=O)c3ccc(-c4c5nc(c(-c6c(F)cccc6F)c6ccc([nH]6)c(-c6c(F)cccc6F)c6nc(c(-c7c(F)cccc7F)c7ccc4[nH]7)C=C6)C=C5)cc3)CN1CC2
REMARK SMILES IDX 22 1 21 2 20 3 18 4 19 5 17 7 16 8 3 9 4 10 8 11 5 12 7 13
REMARK SMILES IDX 6 14 85 15 11 16 84 17 12 18 83 19 15 20 82 21 2 23 1 24
REMARK SMILES IDX 9 25 10 26 13 27 14 28 23 29 24 30 25 31 26 32 27 34 28 35
REMARK SMILES IDX 29 36 81 37 30 38 80 39 31 40 32 41 33 42 74 43 34 44 79 45
REMARK SMILES IDX 73 46 75 47 35 48 78 49 72 50 71 51 36 53 62 54 45 55 61 56
REMARK SMILES IDX 46 57 49 58 60 59 76 60 47 61 48 62 59 64 77 65 50 66 37 67
REMARK SMILES IDX 38 68 43 69 39 70 40 71 42 72 44 73 41 74 63 75 64 76 69 77
REMARK SMILES IDX 65 78 66 79 68 80 70 81 67 82 51 83 52 84 57 85 53 86 54 87
REMARK SMILES IDX 56 88 58 89 55 90
REMARK H PARENT 20 6 16 22 25 33 75 52 49 63
REMARK Flexibility Score: inf
ROOT
ATOM      1  C   UNL     1       0.366   7.327   1.189  1.00  0.00     0.023 C 
ENDROOT
BRANCH   1   2
ATOM      2  C   UNL     1       0.919   8.537   1.922  1.00  0.00     0.116 C 
BRANCH   2   3
ATOM      3  N   UNL     1       2.331   8.343   2.175  1.00  0.00    -0.351 N 
ATOM      4  C   UNL     1       3.384   8.626   1.352  1.00  0.00     0.275 C 
ATOM      5  O   UNL     1       4.487   8.156   1.648  1.00  0.00    -0.269 OA
ATOM      6  H   UNL     1       2.562   7.959   3.052  1.00  0.00     0.163 HD
BRANCH   4   7
ATOM      7  C   UNL     1       3.216   9.581   0.163  1.00  0.00     0.365 C 
BRANCH   7   8
ATOM      8  N   UNL     1       3.105   8.982  -1.171  1.00  0.00    -0.306 N 
ATOM      9  C   UNL     1       1.013   2.010  -1.063  1.00  0.00     0.161 A 
ATOM     10  C   UNL     1       2.294   2.493  -0.796  1.00  0.00     0.055 A 
ATOM     11  C   UNL     1       0.044   2.913  -1.503  1.00  0.00     0.161 A 
ATOM     12  C   UNL     1       2.620   3.856  -0.974  1.00  0.00    -0.033 A 
ATOM     13  C   UNL     1       0.389   4.273  -1.696  1.00  0.00     0.061 A 
ATOM     14  C   UNL     1       1.673   4.792  -1.456  1.00  0.00     0.006 A 
ATOM     15  C   UNL     1       4.006   4.299  -0.575  1.00  0.00     0.058 C 
ATOM     16  C   UNL     1       2.084   6.257  -1.617  1.00  0.00     0.068 C 
ATOM     17  C   UNL     1       4.455   5.461  -1.437  1.00  0.00     0.127 C 
ATOM     18  C   UNL     1       1.275   7.323  -1.870  1.00  0.00     0.108 C 
ATOM     19  N   UNL     1       3.452   6.521  -1.383  1.00  0.00    -0.323 N 
ATOM     20  C   UNL     1       1.776   8.755  -1.718  1.00  0.00     0.314 C 
ATOM     21  C   UNL     1       3.988   7.875  -1.464  1.00  0.00     0.390 C 
ATOM     22  H   UNL     1       3.460   9.785  -1.689  1.00  0.00     0.350 HD
BRANCH   9  23
ATOM     23  O   UNL     1       0.734   0.672  -1.006  1.00  0.00    -0.493 OA
ATOM     24  C   UNL     1       1.208  -0.004   0.154  1.00  0.00     0.278 C 
ENDBRANCH   9  23
BRANCH  11  25
ATOM     25  O   UNL     1      -1.278   2.668  -1.779  1.00  0.00    -0.493 OA
ATOM     26  C   UNL     1      -1.790   1.356  -1.603  1.00  0.00     0.278 C 
ENDBRANCH  11  25
BRANCH  18  27
ATOM     27  C   UNL     1      -0.117   7.258  -2.174  1.00  0.00     0.103 C 
ATOM     28  N   UNL     1      -1.255   7.296  -2.387  1.00  0.00    -0.192 NA
ENDBRANCH  18  27
ENDBRANCH   7   8
ENDBRANCH   4   7
ENDBRANCH   2   3
ENDBRANCH   1   2
BRANCH   1  29
ATOM     29  C   UNL     1       0.012   6.119   2.028  1.00  0.00     0.023 C 
BRANCH  29  30
ATOM     30  C   UNL     1      -1.174   6.349   2.930  1.00  0.00     0.116 C 
BRANCH  30  31
ATOM     31  N   UNL     1      -2.425   6.634   2.232  1.00  0.00    -0.352 N 
ATOM     32  C   UNL     1      -3.693   6.193   2.557  1.00  0.00     0.251 C 
ATOM     33  H   UNL     1      -2.356   7.209   1.436  1.00  0.00     0.163 HD
ATOM     34  O   UNL     1      -4.664   6.463   1.862  1.00  0.00    -0.269 OA
BRANCH  32  35
ATOM     35  C   UNL     1      -3.833   5.325   3.743  1.00  0.00     0.039 A 
ATOM     36  C   UNL     1      -3.165   5.674   4.912  1.00  0.00     0.014 A 
ATOM     37  C   UNL     1      -4.444   4.077   3.618  1.00  0.00     0.014 A 
ATOM     38  C   UNL     1      -2.847   4.677   5.814  1.00  0.00     0.010 A 
ATOM     39  C   UNL     1      -4.277   3.129   4.633  1.00  0.00     0.010 A 
ATOM     40  C   UNL     1      -3.411   3.393   5.705  1.00  0.00    -0.014 A 
BRANCH  40  41
ATOM     41  C   UNL     1      -3.059   2.378   6.737  1.00  0.00     0.031 A 
ATOM     42  C   UNL     1      -2.430   1.056   6.371  1.00  0.00     0.074 A 
ATOM     43  C   UNL     1      -3.216   2.709   8.035  1.00  0.00     0.049 A 
ATOM     44  N   UNL     1      -2.023   0.092   7.162  1.00  0.00    -0.248 NA
ATOM     45  C   UNL     1      -2.236   0.767   4.941  1.00  0.00     0.031 C 
ATOM     46  C   UNL     1      -3.807   3.962   8.522  1.00  0.00     0.029 A 
ATOM     47  N   UNL     1      -2.853   2.054   9.182  1.00  0.00    -0.354 N 
ATOM     48  C   UNL     1      -1.534  -0.911   6.332  1.00  0.00     0.074 A 
ATOM     49  C   UNL     1      -1.745  -0.464   4.972  1.00  0.00     0.031 C 
ATOM     50  C   UNL     1      -3.683   4.023   9.853  1.00  0.00     0.029 A 
ATOM     51  C   UNL     1      -3.114   2.771  10.325  1.00  0.00     0.049 A 
ATOM     52  H   UNL     1      -2.445   1.158   9.187  1.00  0.00     0.167 HD
ATOM     53  C   UNL     1      -0.944  -2.085   6.669  1.00  0.00     0.037 A 
ATOM     54  C   UNL     1      -2.949   2.445  11.618  1.00  0.00     0.037 A 
ATOM     55  C   UNL     1      -0.744  -2.534   8.025  1.00  0.00     0.049 A 
ATOM     56  C   UNL     1      -2.379   1.097  11.952  1.00  0.00     0.074 A 
ATOM     57  C   UNL     1      -0.186  -3.721   8.471  1.00  0.00     0.029 A 
ATOM     58  N   UNL     1      -1.094  -1.813   9.157  1.00  0.00    -0.354 N 
ATOM     59  N   UNL     1      -1.929   0.162  11.151  1.00  0.00    -0.248 NA
ATOM     60  C   UNL     1      -2.297   0.763  13.378  1.00  0.00     0.031 C 
ATOM     61  C   UNL     1      -0.242  -3.737   9.869  1.00  0.00     0.029 A 
ATOM     62  C   UNL     1      -0.771  -2.532  10.298  1.00  0.00     0.049 A 
ATOM     63  H   UNL     1      -1.510  -0.920   9.152  1.00  0.00     0.167 HD
ATOM     64  C   UNL     1      -1.480  -0.858  11.979  1.00  0.00     0.074 A 
ATOM     65  C   UNL     1      -1.673  -0.403  13.340  1.00  0.00     0.031 C 
ATOM     66  C   UNL     1      -0.964  -2.067  11.648  1.00  0.00     0.037 A 
BRANCH  53  67
ATOM     67  C   UNL     1      -0.472  -2.973   5.549  1.00  0.00     0.057 A 
ATOM     68  C   UNL     1      -1.080  -4.212   5.306  1.00  0.00     0.134 A 
ATOM     69  C   UNL     1       0.617  -2.623   4.738  1.00  0.00     0.134 A 
ATOM     70  F   UNL     1      -2.119  -4.620   6.049  1.00  0.00    -0.206 F 
ATOM     71  C   UNL     1      -0.620  -5.069   4.303  1.00  0.00     0.040 A 
ATOM     72  C   UNL     1       1.067  -3.458   3.713  1.00  0.00     0.040 A 
ATOM     73  F   UNL     1       1.241  -1.447   4.907  1.00  0.00    -0.206 F 
ATOM     74  C   UNL     1       0.451  -4.689   3.498  1.00  0.00     0.006 A 
ENDBRANCH  53  67
BRANCH  54  75
ATOM     75  C   UNL     1      -3.380   3.371  12.699  1.00  0.00     0.057 A 
ATOM     76  C   UNL     1      -4.730   3.705  12.873  1.00  0.00     0.134 A 
ATOM     77  C   UNL     1      -2.469   3.873  13.636  1.00  0.00     0.134 A 
ATOM     78  F   UNL     1      -5.655   3.273  12.003  1.00  0.00    -0.206 F 
ATOM     79  C   UNL     1      -5.159   4.484  13.946  1.00  0.00     0.040 A 
ATOM     80  C   UNL     1      -2.891   4.614  14.740  1.00  0.00     0.040 A 
ATOM     81  F   UNL     1      -1.163   3.582  13.531  1.00  0.00    -0.206 F 
ATOM     82  C   UNL     1      -4.241   4.920  14.897  1.00  0.00     0.006 A 
ENDBRANCH  54  75
BRANCH  66  83
ATOM     83  C   UNL     1      -0.517  -2.938  12.789  1.00  0.00     0.057 A 
ATOM     84  C   UNL     1       0.845  -3.195  12.991  1.00  0.00     0.134 A 
ATOM     85  C   UNL     1      -1.419  -3.471  13.722  1.00  0.00     0.134 A 
ATOM     86  F   UNL     1       1.763  -2.732  12.131  1.00  0.00    -0.206 F 
ATOM     87  C   UNL     1       1.295  -3.923  14.093  1.00  0.00     0.040 A 
ATOM     88  C   UNL     1      -0.977  -4.162  14.851  1.00  0.00     0.040 A 
ATOM     89  F   UNL     1      -2.737  -3.253  13.596  1.00  0.00    -0.206 F 
ATOM     90  C   UNL     1       0.385  -4.389  15.039  1.00  0.00     0.006 A 
ENDBRANCH  66  83
ENDBRANCH  40  41
ENDBRANCH  32  35
ENDBRANCH  30  31
ENDBRANCH  29  30
ENDBRANCH   1  29
TORSDOF 15
