REMARK SMILES C/C(C(=O)NCCCCNC(=O)c1ccc(-c2c3nc(c(-c4c(F)cccc4F)c4ccc([nH]4)c(-c4c(F)cccc4F)c4nc(c(-c5c(F)cccc5F)c5ccc2[nH]5)C=C4)C=C3)cc1)=C(\C)C(=O)N[C@H]1CCCC1(C)C
REMARK SMILES IDX 7 1 6 2 5 3 3 4 4 5 2 7 1 8 67 9 68 10 69 11 70 12 71 13
REMARK SMILES IDX 72 15 73 16 76 17 74 18 75 19 77 20 78 21 8 22 9 23 10 24
REMARK SMILES IDX 11 25 12 27 13 28 14 29 66 30 15 31 65 32 16 33 17 34 18 35
REMARK SMILES IDX 59 36 19 37 64 38 58 39 60 40 20 41 63 42 57 43 56 44 21 46
REMARK SMILES IDX 47 47 30 48 46 49 31 50 34 51 45 52 61 53 32 54 33 55 44 57
REMARK SMILES IDX 62 58 35 59 22 60 23 61 28 62 24 63 25 64 27 65 29 66 26 67
REMARK SMILES IDX 48 68 49 69 54 70 50 71 51 72 53 73 55 74 52 75 36 76 37 77
REMARK SMILES IDX 42 78 38 79 39 80 41 81 43 82 40 83
REMARK H PARENT 5 6 71 14 10 26 60 45 34 56
REMARK Flexibility Score: inf
ROOT
ATOM      1  C   UNL     1      -1.428   1.258  -2.061  1.00  0.00     0.023 C 
ENDROOT
BRANCH   1   2
ATOM      2  C   UNL     1      -0.211   2.037  -1.562  1.00  0.00     0.116 C 
BRANCH   2   3
ATOM      3  N   UNL     1      -0.262   2.437  -0.161  1.00  0.00    -0.352 N 
ATOM      4  C   UNL     1       0.106   1.833   1.014  1.00  0.00     0.247 C 
ATOM      5  O   UNL     1       0.134   2.528   2.028  1.00  0.00    -0.270 OA
ATOM      6  H   UNL     1      -0.643   3.335  -0.030  1.00  0.00     0.163 HD
BRANCH   4   7
ATOM      7  C   UNL     1       0.452   0.376   1.054  1.00  0.00     0.022 C 
ATOM      8  C   UNL     1       1.271  -0.190  -0.067  1.00  0.00     0.051 C 
ATOM      9  C   UNL     1       0.151  -0.408   2.123  1.00  0.00     0.022 C 
ATOM     10  C   UNL     1       0.011  -1.893   1.940  1.00  0.00     0.051 C 
BRANCH   9  11
ATOM     11  C   UNL     1      -0.387   0.105   3.406  1.00  0.00     0.247 C 
ATOM     12  O   UNL     1      -1.574   0.437   3.453  1.00  0.00    -0.270 OA
ATOM     13  N   UNL     1       0.338   0.159   4.558  1.00  0.00    -0.349 N 
ATOM     14  H   UNL     1      -0.229   0.575   5.247  1.00  0.00     0.164 HD
BRANCH  13  15
ATOM     15  C   UNL     1       1.656  -0.161   5.192  1.00  0.00     0.088 C 
ATOM     16  C   UNL     1       1.406  -1.212   6.299  1.00  0.00     0.025 C 
ATOM     17  C   UNL     1       2.859  -0.773   4.429  1.00  0.00    -0.015 C 
ATOM     18  C   UNL     1       1.806  -2.563   5.698  1.00  0.00     0.003 C 
ATOM     19  C   UNL     1       2.447  -2.248   4.344  1.00  0.00     0.008 C 
ATOM     20  C   UNL     1       3.196  -0.067   3.119  1.00  0.00     0.013 C 
ATOM     21  C   UNL     1       4.176  -0.737   5.262  1.00  0.00     0.013 C 
ENDBRANCH  13  15
ENDBRANCH   9  11
ENDBRANCH   4   7
ENDBRANCH   2   3
ENDBRANCH   1   2
BRANCH   1  22
ATOM     22  C   UNL     1      -2.537   2.111  -2.688  1.00  0.00     0.023 C 
BRANCH  22  23
ATOM     23  C   UNL     1      -2.110   3.073  -3.797  1.00  0.00     0.116 C 
BRANCH  23  24
ATOM     24  N   UNL     1      -1.359   2.458  -4.883  1.00  0.00    -0.352 N 
ATOM     25  C   UNL     1      -1.256   2.891  -6.186  1.00  0.00     0.251 C 
ATOM     26  H   UNL     1      -0.867   1.635  -4.659  1.00  0.00     0.163 HD
ATOM     27  O   UNL     1      -0.632   2.239  -7.019  1.00  0.00    -0.269 OA
BRANCH  25  28
ATOM     28  C   UNL     1      -1.955   4.130  -6.586  1.00  0.00     0.039 A 
ATOM     29  C   UNL     1      -2.856   4.083  -7.652  1.00  0.00     0.014 A 
ATOM     30  C   UNL     1      -1.776   5.309  -5.859  1.00  0.00     0.014 A 
ATOM     31  C   UNL     1      -3.647   5.199  -7.933  1.00  0.00     0.010 A 
ATOM     32  C   UNL     1      -2.611   6.396  -6.098  1.00  0.00     0.010 A 
ATOM     33  C   UNL     1      -3.562   6.348  -7.128  1.00  0.00    -0.014 A 
BRANCH  33  34
ATOM     34  C   UNL     1      -4.479   7.498  -7.330  1.00  0.00     0.031 A 
ATOM     35  C   UNL     1      -3.934   8.835  -7.742  1.00  0.00     0.074 A 
ATOM     36  C   UNL     1      -5.792   7.356  -7.062  1.00  0.00     0.049 A 
ATOM     37  N   UNL     1      -4.564   9.972  -7.898  1.00  0.00    -0.248 NA
ATOM     38  C   UNL     1      -2.485   8.914  -7.982  1.00  0.00     0.031 C 
ATOM     39  C   UNL     1      -6.434   6.125  -6.594  1.00  0.00     0.029 A 
ATOM     40  N   UNL     1      -6.823   8.259  -7.130  1.00  0.00    -0.354 N 
ATOM     41  C   UNL     1      -3.589  10.900  -8.237  1.00  0.00     0.074 A 
ATOM     42  C   UNL     1      -2.319  10.207  -8.214  1.00  0.00     0.031 C 
ATOM     43  C   UNL     1      -7.749   6.345  -6.437  1.00  0.00     0.029 A 
ATOM     44  C   UNL     1      -8.040   7.738  -6.760  1.00  0.00     0.049 A 
ATOM     45  H   UNL     1      -6.702   9.193  -7.418  1.00  0.00     0.167 HD
ATOM     46  C   UNL     1      -3.740  12.206  -8.560  1.00  0.00     0.037 A 
ATOM     47  C   UNL     1      -9.252   8.320  -6.686  1.00  0.00     0.037 A 
ATOM     48  C   UNL     1      -5.008  12.885  -8.610  1.00  0.00     0.049 A 
ATOM     49  C   UNL     1      -9.395   9.768  -7.063  1.00  0.00     0.074 A 
ATOM     50  C   UNL     1      -5.274  14.187  -8.997  1.00  0.00     0.029 A 
ATOM     51  N   UNL     1      -6.223  12.315  -8.259  1.00  0.00    -0.354 N 
ATOM     52  N   UNL     1      -8.475  10.614  -7.460  1.00  0.00    -0.248 NA
ATOM     53  C   UNL     1     -10.746  10.342  -6.988  1.00  0.00     0.031 C 
ATOM     54  C   UNL     1      -6.645  14.417  -8.842  1.00  0.00     0.029 A 
ATOM     55  C   UNL     1      -7.239  13.245  -8.401  1.00  0.00     0.049 A 
ATOM     56  H   UNL     1      -6.344  11.387  -7.955  1.00  0.00     0.167 HD
ATOM     57  C   UNL     1      -9.138  11.809  -7.708  1.00  0.00     0.074 A 
ATOM     58  C   UNL     1     -10.540  11.575  -7.430  1.00  0.00     0.031 C 
ATOM     59  C   UNL     1      -8.630  12.993  -8.127  1.00  0.00     0.037 A 
BRANCH  46  60
ATOM     60  C   UNL     1      -2.501  12.984  -8.893  1.00  0.00     0.057 A 
ATOM     61  C   UNL     1      -1.786  12.761 -10.078  1.00  0.00     0.134 A 
ATOM     62  C   UNL     1      -2.034  13.989  -8.037  1.00  0.00     0.134 A 
ATOM     63  F   UNL     1      -2.173  11.805 -10.936  1.00  0.00    -0.206 F 
ATOM     64  C   UNL     1      -0.636  13.491 -10.386  1.00  0.00     0.040 A 
ATOM     65  C   UNL     1      -0.901  14.743  -8.346  1.00  0.00     0.040 A 
ATOM     66  F   UNL     1      -2.674  14.258  -6.889  1.00  0.00    -0.206 F 
ATOM     67  C   UNL     1      -0.195  14.490  -9.521  1.00  0.00     0.006 A 
ENDBRANCH  46  60
BRANCH  47  68
ATOM     68  C   UNL     1     -10.433   7.528  -6.260  1.00  0.00     0.057 A 
ATOM     69  C   UNL     1     -11.437   7.183  -7.172  1.00  0.00     0.134 A 
ATOM     70  C   UNL     1     -10.592   7.105  -4.935  1.00  0.00     0.134 A 
ATOM     71  F   UNL     1     -11.349   7.575  -8.451  1.00  0.00    -0.206 F 
ATOM     72  C   UNL     1     -12.567   6.464  -6.779  1.00  0.00     0.040 A 
ATOM     73  C   UNL     1     -11.706   6.364  -4.533  1.00  0.00     0.040 A 
ATOM     74  F   UNL     1      -9.662   7.397  -4.014  1.00  0.00    -0.206 F 
ATOM     75  C   UNL     1     -12.701   6.048  -5.456  1.00  0.00     0.006 A 
ENDBRANCH  47  68
BRANCH  59  76
ATOM     76  C   UNL     1      -9.601  14.117  -8.340  1.00  0.00     0.057 A 
ATOM     77  C   UNL     1     -10.199  14.790  -7.268  1.00  0.00     0.134 A 
ATOM     78  C   UNL     1      -9.907  14.557  -9.634  1.00  0.00     0.134 A 
ATOM     79  F   UNL     1      -9.957  14.408  -6.005  1.00  0.00    -0.206 F 
ATOM     80  C   UNL     1     -11.085  15.849  -7.476  1.00  0.00     0.040 A 
ATOM     81  C   UNL     1     -10.770  15.631  -9.854  1.00  0.00     0.040 A 
ATOM     82  F   UNL     1      -9.360  13.961 -10.704  1.00  0.00    -0.206 F 
ATOM     83  C   UNL     1     -11.367  16.276  -8.773  1.00  0.00     0.006 A 
ENDBRANCH  59  76
ENDBRANCH  33  34
ENDBRANCH  25  28
ENDBRANCH  23  24
ENDBRANCH  22  23
ENDBRANCH   1  22
TORSDOF 13
