REMARK SMILES CCCCCCCNC(=O)Oc1cccc(-c2ccc([C@@H](C)C(=O)NCCCCNC(=O)c3ccc(-c4c5nc(c(-c6c(F)cccc6F)c6ccc([nH]6)c(-c6c(F)cccc6F)c6nc(c(-c7c(F)cccc7F)c7ccc4[nH]7)C=C6)C=C5)cc3)cc2F)c1
REMARK SMILES IDX 17 1 18 2 19 3 20 4 87 5 88 6 89 7 16 8 12 9 13 10 90 11
REMARK SMILES IDX 14 12 15 13 11 14 9 15 8 16 10 18 7 19 6 20 5 21 4 22 3 23
REMARK SMILES IDX 2 24 1 25 21 26 22 27 23 28 24 29 25 30 26 32 27 33 28 34
REMARK SMILES IDX 29 35 30 36 31 37 32 39 33 40 34 41 86 42 35 43 85 44 36 45
REMARK SMILES IDX 37 46 38 47 79 48 39 49 84 50 78 51 80 52 40 53 83 54 77 55
REMARK SMILES IDX 76 56 41 58 67 59 50 60 66 61 51 62 54 63 65 64 81 65 52 66
REMARK SMILES IDX 53 67 64 69 82 70 55 71 42 72 43 73 48 74 44 75 45 76 47 77
REMARK SMILES IDX 49 78 46 79 68 80 69 81 74 82 70 83 71 84 73 85 75 86 72 87
REMARK SMILES IDX 56 88 57 89 62 90 58 91 59 92 61 93 63 94 60 95
REMARK H PARENT 8 17 25 31 30 38 80 57 54 68
REMARK Flexibility Score: inf
ROOT
ATOM      1  C   UNL     1      -6.998   4.666   8.513  1.00  0.00     0.018 A 
ATOM      2  C   UNL     1      -7.620   5.496   9.461  1.00  0.00     0.012 A 
ATOM      3  C   UNL     1      -8.847   6.123   9.208  1.00  0.00     0.005 A 
ATOM      4  C   UNL     1      -9.467   6.018   7.962  1.00  0.00    -0.033 A 
ATOM      5  C   UNL     1      -8.877   5.168   7.018  1.00  0.00     0.044 A 
ATOM      6  C   UNL     1      -7.686   4.492   7.301  1.00  0.00     0.131 A 
ATOM      7  F   UNL     1      -7.217   3.658   6.359  1.00  0.00    -0.206 F 
ENDROOT
BRANCH   1   8
ATOM      8  C   UNL     1      -5.681   4.041   8.795  1.00  0.00    -0.012 A 
ATOM      9  C   UNL     1      -3.509   3.213   8.066  1.00  0.00     0.133 A 
ATOM     10  C   UNL     1      -3.154   2.879   9.367  1.00  0.00     0.047 A 
ATOM     11  C   UNL     1      -4.748   3.787   7.774  1.00  0.00     0.056 A 
ATOM     12  C   UNL     1      -4.053   3.128  10.395  1.00  0.00     0.004 A 
ATOM     13  C   UNL     1      -5.303   3.689  10.109  1.00  0.00     0.009 A 
BRANCH   9  14
ATOM     14  O   UNL     1      -2.630   2.804   7.051  1.00  0.00    -0.410 OA
BRANCH  14  15
ATOM     15  C   UNL     1      -2.253   3.709   6.071  1.00  0.00     0.412 C 
ATOM     16  N   UNL     1      -1.506   3.130   5.082  1.00  0.00    -0.321 N 
ATOM     17  H   UNL     1      -1.180   3.724   4.367  1.00  0.00     0.167 HD
ATOM     18  O   UNL     1      -2.517   4.904   6.051  1.00  0.00    -0.224 OA
BRANCH  16  19
ATOM     19  C   UNL     1      -1.145   1.729   4.982  1.00  0.00     0.119 C 
BRANCH  19  20
ATOM     20  C   UNL     1      -1.664   1.095   3.691  1.00  0.00     0.021 C 
BRANCH  20  21
ATOM     21  C   UNL     1      -1.074   1.686   2.405  1.00  0.00     0.002 C 
BRANCH  21  22
ATOM     22  C   UNL     1       0.453   1.622   2.296  1.00  0.00     0.000 C 
BRANCH  22  23
ATOM     23  C   UNL     1       1.052   0.212   2.338  1.00  0.00    -0.000 C 
BRANCH  23  24
ATOM     24  C   UNL     1       0.593  -0.726   1.218  1.00  0.00    -0.003 C 
ATOM     25  C   UNL     1       0.950  -0.222  -0.172  1.00  0.00     0.004 C 
ENDBRANCH  23  24
ENDBRANCH  22  23
ENDBRANCH  21  22
ENDBRANCH  20  21
ENDBRANCH  19  20
ENDBRANCH  16  19
ENDBRANCH  14  15
ENDBRANCH   9  14
ENDBRANCH   1   8
BRANCH   4  26
ATOM     26  C   UNL     1     -10.706   6.812   7.580  1.00  0.00     0.105 C 
ATOM     27  C   UNL     1     -11.785   6.932   8.655  1.00  0.00     0.023 C 
BRANCH  26  28
ATOM     28  C   UNL     1     -10.388   8.138   6.868  1.00  0.00     0.227 C 
ATOM     29  O   UNL     1     -10.607   8.254   5.656  1.00  0.00    -0.274 OA
ATOM     30  N   UNL     1      -9.878   9.233   7.497  1.00  0.00    -0.356 N 
ATOM     31  H   UNL     1      -9.789  10.025   6.920  1.00  0.00     0.163 HD
BRANCH  30  32
ATOM     32  C   UNL     1      -9.443   9.439   8.862  1.00  0.00     0.116 C 
BRANCH  32  33
ATOM     33  C   UNL     1      -7.934   9.243   9.024  1.00  0.00     0.023 C 
BRANCH  33  34
ATOM     34  C   UNL     1      -7.089  10.483   8.744  1.00  0.00     0.023 C 
BRANCH  34  35
ATOM     35  C   UNL     1      -7.346  11.661   9.673  1.00  0.00     0.116 C 
BRANCH  35  36
ATOM     36  N   UNL     1      -7.118  11.374  11.084  1.00  0.00    -0.352 N 
ATOM     37  C   UNL     1      -6.716  12.258  12.062  1.00  0.00     0.251 C 
ATOM     38  H   UNL     1      -7.267  10.444  11.370  1.00  0.00     0.163 HD
ATOM     39  O   UNL     1      -6.495  11.885  13.207  1.00  0.00    -0.269 OA
BRANCH  37  40
ATOM     40  C   UNL     1      -6.511  13.669  11.678  1.00  0.00     0.039 A 
ATOM     41  C   UNL     1      -5.258  14.253  11.879  1.00  0.00     0.014 A 
ATOM     42  C   UNL     1      -7.524  14.359  11.010  1.00  0.00     0.014 A 
ATOM     43  C   UNL     1      -4.991  15.506  11.325  1.00  0.00     0.010 A 
ATOM     44  C   UNL     1      -7.230  15.567  10.393  1.00  0.00     0.010 A 
ATOM     45  C   UNL     1      -5.959  16.149  10.538  1.00  0.00    -0.014 A 
BRANCH  45  46
ATOM     46  C   UNL     1      -5.691  17.437   9.853  1.00  0.00     0.031 A 
ATOM     47  C   UNL     1      -6.514  18.643  10.208  1.00  0.00     0.074 A 
ATOM     48  C   UNL     1      -4.799  17.497   8.846  1.00  0.00     0.049 A 
ATOM     49  N   UNL     1      -6.579  19.807   9.616  1.00  0.00    -0.248 NA
ATOM     50  C   UNL     1      -7.415  18.502  11.363  1.00  0.00     0.031 C 
ATOM     51  C   UNL     1      -3.963  16.389   8.381  1.00  0.00     0.029 A 
ATOM     52  N   UNL     1      -4.465  18.536   8.014  1.00  0.00    -0.354 N 
ATOM     53  C   UNL     1      -7.550  20.522  10.304  1.00  0.00     0.074 A 
ATOM     54  C   UNL     1      -8.081  19.646  11.325  1.00  0.00     0.031 C 
ATOM     55  C   UNL     1      -3.200  16.812   7.359  1.00  0.00     0.029 A 
ATOM     56  C   UNL     1      -3.526  18.204   7.067  1.00  0.00     0.049 A 
ATOM     57  H   UNL     1      -4.860  19.435   8.088  1.00  0.00     0.167 HD
ATOM     58  C   UNL     1      -7.949  21.802  10.116  1.00  0.00     0.037 A 
ATOM     59  C   UNL     1      -3.000  18.937   6.067  1.00  0.00     0.037 A 
ATOM     60  C   UNL     1      -7.392  22.682   9.124  1.00  0.00     0.049 A 
ATOM     61  C   UNL     1      -3.458  20.357   5.877  1.00  0.00     0.074 A 
ATOM     62  C   UNL     1      -7.689  24.012   8.886  1.00  0.00     0.029 A 
ATOM     63  N   UNL     1      -6.415  22.318   8.210  1.00  0.00    -0.354 N 
ATOM     64  N   UNL     1      -4.348  21.036   6.558  1.00  0.00    -0.248 NA
ATOM     65  C   UNL     1      -2.838  21.112   4.779  1.00  0.00     0.031 C 
ATOM     66  C   UNL     1      -6.914  24.445   7.805  1.00  0.00     0.029 A 
ATOM     67  C   UNL     1      -6.104  23.396   7.399  1.00  0.00     0.049 A 
ATOM     68  H   UNL     1      -6.004  21.426   8.146  1.00  0.00     0.167 HD
ATOM     69  C   UNL     1      -4.370  22.307   5.997  1.00  0.00     0.074 A 
ATOM     70  C   UNL     1      -3.402  22.304   4.920  1.00  0.00     0.031 C 
ATOM     71  C   UNL     1      -5.120  23.380   6.346  1.00  0.00     0.037 A 
BRANCH  58  72
ATOM     72  C   UNL     1      -9.039  22.318  11.009  1.00  0.00     0.057 A 
ATOM     73  C   UNL     1      -8.828  22.550  12.375  1.00  0.00     0.134 A 
ATOM     74  C   UNL     1     -10.315  22.587  10.498  1.00  0.00     0.134 A 
ATOM     75  F   UNL     1      -7.633  22.297  12.930  1.00  0.00    -0.206 F 
ATOM     76  C   UNL     1      -9.855  22.997  13.207  1.00  0.00     0.040 A 
ATOM     77  C   UNL     1     -11.342  23.062  11.314  1.00  0.00     0.040 A 
ATOM     78  F   UNL     1     -10.585  22.390   9.198  1.00  0.00    -0.206 F 
ATOM     79  C   UNL     1     -11.116  23.259  12.675  1.00  0.00     0.006 A 
ENDBRANCH  58  72
BRANCH  59  80
ATOM     80  C   UNL     1      -1.960  18.353   5.183  1.00  0.00     0.057 A 
ATOM     81  C   UNL     1      -0.628  18.774   5.271  1.00  0.00     0.134 A 
ATOM     82  C   UNL     1      -2.265  17.369   4.236  1.00  0.00     0.134 A 
ATOM     83  F   UNL     1      -0.279  19.728   6.146  1.00  0.00    -0.206 F 
ATOM     84  C   UNL     1       0.361  18.250   4.438  1.00  0.00     0.040 A 
ATOM     85  C   UNL     1      -1.282  16.820   3.411  1.00  0.00     0.040 A 
ATOM     86  F   UNL     1      -3.522  16.919   4.107  1.00  0.00    -0.206 F 
ATOM     87  C   UNL     1       0.036  17.265   3.507  1.00  0.00     0.006 A 
ENDBRANCH  59  80
BRANCH  71  88
ATOM     88  C   UNL     1      -4.887  24.657   5.597  1.00  0.00     0.057 A 
ATOM     89  C   UNL     1      -5.349  24.845   4.289  1.00  0.00     0.134 A 
ATOM     90  C   UNL     1      -4.241  25.734   6.218  1.00  0.00     0.134 A 
ATOM     91  F   UNL     1      -5.964  23.848   3.635  1.00  0.00    -0.206 F 
ATOM     92  C   UNL     1      -5.165  26.056   3.620  1.00  0.00     0.040 A 
ATOM     93  C   UNL     1      -4.072  26.956   5.569  1.00  0.00     0.040 A 
ATOM     94  F   UNL     1      -3.782  25.620   7.474  1.00  0.00    -0.206 F 
ATOM     95  C   UNL     1      -4.532  27.119   4.263  1.00  0.00     0.006 A 
ENDBRANCH  71  88
ENDBRANCH  45  46
ENDBRANCH  37  40
ENDBRANCH  35  36
ENDBRANCH  34  35
ENDBRANCH  33  34
ENDBRANCH  32  33
ENDBRANCH  30  32
ENDBRANCH  26  28
ENDBRANCH   4  26
TORSDOF 21
