REMARK SMILES C[N@H+]1CCO[C@@H](CN2C[C@H](C(=O)NCCCCNC(=O)c3ccc(-c4c5nc(c(-c6c(F)cccc6F)c6ccc([nH]6)c(-c6c(F)cccc6F)c6nc(c(-c7c(F)cccc7F)c7ccc4[nH]7)C=C6)C=C5)cc3)CC2=O)C1
REMARK SMILES IDX 15 1 14 2 13 3 11 4 12 5 10 7 8 8 9 9 76 10 75 11 77 12 7 13
REMARK SMILES IDX 6 14 1 15 2 16 3 17 78 18 4 20 5 21 16 22 17 23 18 24 19 25
REMARK SMILES IDX 20 27 21 28 22 29 74 30 23 31 73 32 24 33 25 34 26 35 67 36
REMARK SMILES IDX 27 37 72 38 66 39 68 40 28 41 71 42 65 43 64 44 29 46 55 47
REMARK SMILES IDX 38 48 54 49 39 50 42 51 53 52 69 53 40 54 41 55 52 57 70 58
REMARK SMILES IDX 43 59 30 60 31 61 36 62 32 63 33 64 35 65 37 66 34 67 56 68
REMARK SMILES IDX 57 69 62 70 58 71 59 72 61 73 63 74 60 75 44 76 45 77 50 78
REMARK SMILES IDX 46 79 47 80 49 81 51 82 48 83
REMARK H PARENT 13 6 2 19 18 26 68 45 42 56
REMARK Flexibility Score: inf
ROOT
ATOM      1  C   UNL     1       5.065  -3.222   1.607  1.00  0.00     0.023 C 
ENDROOT
BRANCH   1   2
ATOM      2  C   UNL     1       4.194  -4.411   2.002  1.00  0.00     0.116 C 
BRANCH   2   3
ATOM      3  N   UNL     1       3.418  -4.155   3.198  1.00  0.00    -0.356 N 
ATOM      4  C   UNL     1       2.101  -3.888   3.385  1.00  0.00     0.225 C 
ATOM      5  O   UNL     1       1.726  -3.752   4.554  1.00  0.00    -0.275 OA
ATOM      6  H   UNL     1       3.944  -4.181   4.030  1.00  0.00     0.163 HD
BRANCH   4   7
ATOM      7  C   UNL     1       1.103  -3.679   2.256  1.00  0.00     0.107 C 
ATOM      8  N   UNL     1       1.883  -2.878   0.203  1.00  0.00    -0.339 N 
ATOM      9  C   UNL     1       1.390  -2.415   1.474  1.00  0.00     0.133 C 
ATOM     10  C   UNL     1       1.603  -4.214  -0.026  1.00  0.00     0.223 C 
ATOM     11  C   UNL     1       0.973  -4.791   1.221  1.00  0.00     0.115 C 
ATOM     12  O   UNL     1       1.862  -4.841  -1.036  1.00  0.00    -0.275 OA
BRANCH   8  13
ATOM     13  C   UNL     1       2.649  -2.030  -0.701  1.00  0.00     0.157 C 
BRANCH  13  14
ATOM     14  C   UNL     1       2.006  -1.764  -2.069  1.00  0.00     0.192 C 
ATOM     15  C   UNL     1       0.424   0.552  -0.372  1.00  0.00     0.332 C 
ATOM     16  N   UNL     1       0.335   0.177  -1.775  1.00  0.00    -0.333 N 
ATOM     17  C   UNL     1       1.256   0.951  -2.624  1.00  0.00     0.290 C 
ATOM     18  C   UNL     1       0.544  -1.261  -2.027  1.00  0.00     0.296 C 
ATOM     19  H   UNL     1      -0.628   0.401  -2.027  1.00  0.00     0.348 HD
ATOM     20  C   UNL     1       2.715   0.486  -2.530  1.00  0.00     0.222 C 
ATOM     21  O   UNL     1       2.849  -0.900  -2.862  1.00  0.00    -0.365 OA
ENDBRANCH  13  14
ENDBRANCH   8  13
ENDBRANCH   4   7
ENDBRANCH   2   3
ENDBRANCH   1   2
BRANCH   1  22
ATOM     22  C   UNL     1       6.402  -3.158   2.337  1.00  0.00     0.023 C 
BRANCH  22  23
ATOM     23  C   UNL     1       7.260  -4.409   2.199  1.00  0.00     0.116 C 
BRANCH  23  24
ATOM     24  N   UNL     1       7.521  -4.798   0.819  1.00  0.00    -0.352 N 
ATOM     25  C   UNL     1       8.667  -5.366   0.310  1.00  0.00     0.251 C 
ATOM     26  H   UNL     1       6.794  -4.635   0.175  1.00  0.00     0.163 HD
ATOM     27  O   UNL     1       8.806  -5.552  -0.892  1.00  0.00    -0.269 OA
BRANCH  25  28
ATOM     28  C   UNL     1       9.750  -5.703   1.252  1.00  0.00     0.039 A 
ATOM     29  C   UNL     1      11.025  -5.182   1.033  1.00  0.00     0.014 A 
ATOM     30  C   UNL     1       9.463  -6.436   2.406  1.00  0.00     0.014 A 
ATOM     31  C   UNL     1      11.999  -5.331   2.019  1.00  0.00     0.010 A 
ATOM     32  C   UNL     1      10.402  -6.498   3.425  1.00  0.00     0.010 A 
ATOM     33  C   UNL     1      11.681  -5.948   3.242  1.00  0.00    -0.014 A 
BRANCH  33  34
ATOM     34  C   UNL     1      12.671  -6.031   4.343  1.00  0.00     0.031 A 
ATOM     35  C   UNL     1      13.123  -7.375   4.842  1.00  0.00     0.074 A 
ATOM     36  C   UNL     1      13.111  -4.903   4.934  1.00  0.00     0.049 A 
ATOM     37  N   UNL     1      13.932  -7.660   5.830  1.00  0.00    -0.248 NA
ATOM     38  C   UNL     1      12.567  -8.556   4.162  1.00  0.00     0.031 C 
ATOM     39  C   UNL     1      12.704  -3.542   4.577  1.00  0.00     0.029 A 
ATOM     40  N   UNL     1      13.995  -4.723   5.968  1.00  0.00    -0.354 N 
ATOM     41  C   UNL     1      13.971  -9.046   5.895  1.00  0.00     0.074 A 
ATOM     42  C   UNL     1      13.053  -9.545   4.896  1.00  0.00     0.031 C 
ATOM     43  C   UNL     1      13.361  -2.668   5.355  1.00  0.00     0.029 A 
ATOM     44  C   UNL     1      14.202  -3.404   6.294  1.00  0.00     0.049 A 
ATOM     45  H   UNL     1      14.439  -5.468   6.433  1.00  0.00     0.167 HD
ATOM     46  C   UNL     1      14.725  -9.835   6.696  1.00  0.00     0.037 A 
ATOM     47  C   UNL     1      14.978  -2.852   7.245  1.00  0.00     0.037 A 
ATOM     48  C   UNL     1      15.653  -9.333   7.675  1.00  0.00     0.049 A 
ATOM     49  C   UNL     1      15.796  -3.750   8.133  1.00  0.00     0.074 A 
ATOM     50  C   UNL     1      16.509 -10.047   8.495  1.00  0.00     0.029 A 
ATOM     51  N   UNL     1      15.842  -7.991   7.968  1.00  0.00    -0.354 N 
ATOM     52  N   UNL     1      15.881  -5.058   8.134  1.00  0.00    -0.248 NA
ATOM     53  C   UNL     1      16.633  -3.094   9.148  1.00  0.00     0.031 C 
ATOM     54  C   UNL     1      17.175  -9.139   9.323  1.00  0.00     0.029 A 
ATOM     55  C   UNL     1      16.782  -7.856   8.976  1.00  0.00     0.049 A 
ATOM     56  H   UNL     1      15.378  -7.244   7.524  1.00  0.00     0.167 HD
ATOM     57  C   UNL     1      16.800  -5.380   9.124  1.00  0.00     0.074 A 
ATOM     58  C   UNL     1      17.256  -4.129   9.692  1.00  0.00     0.031 C 
ATOM     59  C   UNL     1      17.230  -6.602   9.526  1.00  0.00     0.037 A 
BRANCH  46  60
ATOM     60  C   UNL     1      14.576 -11.321   6.544  1.00  0.00     0.057 A 
ATOM     61  C   UNL     1      15.011 -11.996   5.394  1.00  0.00     0.134 A 
ATOM     62  C   UNL     1      14.015 -12.092   7.569  1.00  0.00     0.134 A 
ATOM     63  F   UNL     1      15.545 -11.316   4.368  1.00  0.00    -0.206 F 
ATOM     64  C   UNL     1      14.867 -13.377   5.258  1.00  0.00     0.040 A 
ATOM     65  C   UNL     1      13.895 -13.479   7.458  1.00  0.00     0.040 A 
ATOM     66  F   UNL     1      13.581 -11.513   8.699  1.00  0.00    -0.206 F 
ATOM     67  C   UNL     1      14.314 -14.124   6.297  1.00  0.00     0.006 A 
ENDBRANCH  46  60
BRANCH  47  68
ATOM     68  C   UNL     1      15.040  -1.375   7.396  1.00  0.00     0.057 A 
ATOM     69  C   UNL     1      16.205  -0.664   7.084  1.00  0.00     0.134 A 
ATOM     70  C   UNL     1      13.944  -0.640   7.866  1.00  0.00     0.134 A 
ATOM     71  F   UNL     1      17.294  -1.312   6.646  1.00  0.00    -0.206 F 
ATOM     72  C   UNL     1      16.288   0.719   7.256  1.00  0.00     0.040 A 
ATOM     73  C   UNL     1      14.004   0.747   8.016  1.00  0.00     0.040 A 
ATOM     74  F   UNL     1      12.795  -1.258   8.174  1.00  0.00    -0.206 F 
ATOM     75  C   UNL     1      15.182   1.429   7.719  1.00  0.00     0.006 A 
ENDBRANCH  47  68
BRANCH  59  76
ATOM     76  C   UNL     1      18.274  -6.645  10.605  1.00  0.00     0.057 A 
ATOM     77  C   UNL     1      17.984  -6.309  11.933  1.00  0.00     0.134 A 
ATOM     78  C   UNL     1      19.577  -7.070  10.315  1.00  0.00     0.134 A 
ATOM     79  F   UNL     1      16.759  -5.883  12.276  1.00  0.00    -0.206 F 
ATOM     80  C   UNL     1      18.960  -6.371  12.930  1.00  0.00     0.040 A 
ATOM     81  C   UNL     1      20.552  -7.166  11.308  1.00  0.00     0.040 A 
ATOM     82  F   UNL     1      19.919  -7.417   9.064  1.00  0.00    -0.206 F 
ATOM     83  C   UNL     1      20.246  -6.809  12.619  1.00  0.00     0.006 A 
ENDBRANCH  59  76
ENDBRANCH  33  34
ENDBRANCH  25  28
ENDBRANCH  23  24
ENDBRANCH  22  23
ENDBRANCH   1  22
TORSDOF 13
