REMARK SMILES Cc1nc(S(=O)(=O)N[C@H]2C=C[C@H](C(=O)NCCCCNC(=O)c3ccc(-c4c5nc(c(-c6c(F)cccc6F)c6ccc([nH]6)c(-c6c(F)cccc6F)c6nc(c(-c7c(F)cccc7F)c7ccc4[nH]7)C=C6)C=C5)cc3)C2)cn1C
REMARK SMILES IDX 17 1 16 2 15 3 13 4 14 5 12 7 9 8 10 9 77 10 11 11 8 12 5 14
REMARK SMILES IDX 6 15 7 16 4 17 1 18 2 19 3 20 79 21 78 22 80 23 18 24 19 25
REMARK SMILES IDX 20 26 21 27 22 29 23 30 24 31 76 32 25 33 75 34 26 35 27 36
REMARK SMILES IDX 28 37 69 38 29 39 74 40 68 41 70 42 30 43 73 44 67 45 66 46
REMARK SMILES IDX 31 48 57 49 40 50 56 51 41 52 44 53 55 54 71 55 42 56 43 57
REMARK SMILES IDX 54 59 72 60 45 61 32 62 33 63 38 64 34 65 35 66 37 67 39 68
REMARK SMILES IDX 36 69 58 70 59 71 64 72 60 73 61 74 63 75 65 76 62 77 46 78
REMARK SMILES IDX 47 79 52 80 48 81 49 82 51 83 53 84 50 85
REMARK H PARENT 15 6 8 13 20 28 70 47 44 58
REMARK Flexibility Score: inf
ROOT
ATOM      1  C   UNL     1       1.483   6.991   0.455  1.00  0.00     0.023 C 
ENDROOT
BRANCH   1   2
ATOM      2  C   UNL     1       2.772   7.065   1.273  1.00  0.00     0.116 C 
BRANCH   2   3
ATOM      3  N   UNL     1       2.648   6.392   2.554  1.00  0.00    -0.356 N 
ATOM      4  C   UNL     1       3.309   5.287   3.020  1.00  0.00     0.226 C 
ATOM      5  O   UNL     1       3.049   4.892   4.156  1.00  0.00    -0.274 OA
ATOM      6  H   UNL     1       1.994   6.785   3.176  1.00  0.00     0.163 HD
BRANCH   4   7
ATOM      7  C   UNL     1       4.327   4.605   2.103  1.00  0.00     0.103 C 
ATOM      8  C   UNL     1       3.701   2.348   1.356  1.00  0.00     0.093 C 
ATOM      9  C   UNL     1       4.815   2.311   2.341  1.00  0.00    -0.011 C 
ATOM     10  C   UNL     1       3.625   3.834   0.979  1.00  0.00     0.042 C 
ATOM     11  C   UNL     1       5.136   3.535   2.774  1.00  0.00    -0.016 C 
BRANCH   8  12
ATOM     12  N   UNL     1       4.036   1.591   0.154  1.00  0.00    -0.203 NA
ATOM     13  H   UNL     1       3.666   2.107  -0.644  1.00  0.00     0.142 HD
BRANCH  12  14
ATOM     14  S   UNL     1       3.462   0.006   0.044  1.00  0.00     0.260 S 
ATOM     15  O   UNL     1       3.793  -0.658   1.285  1.00  0.00    -0.205 OA
ATOM     16  O   UNL     1       3.902  -0.486  -1.243  1.00  0.00    -0.205 OA
BRANCH  14  17
ATOM     17  C   UNL     1       1.718   0.014  -0.038  1.00  0.00     0.188 A 
ATOM     18  C   UNL     1      -1.487  -1.638   0.024  1.00  0.00     0.088 C 
ATOM     19  C   UNL     1      -0.309  -0.734  -0.013  1.00  0.00     0.106 A 
ATOM     20  N   UNL     1       0.946  -1.131   0.050  1.00  0.00    -0.221 NA
ATOM     21  N   UNL     1      -0.374   0.636  -0.118  1.00  0.00    -0.337 N 
ATOM     22  C   UNL     1       0.904   1.121  -0.177  1.00  0.00     0.129 A 
ATOM     23  C   UNL     1      -1.571   1.442  -0.134  1.00  0.00     0.151 C 
ENDBRANCH  14  17
ENDBRANCH  12  14
ENDBRANCH   8  12
ENDBRANCH   4   7
ENDBRANCH   2   3
ENDBRANCH   1   2
BRANCH   1  24
ATOM     24  C   UNL     1       0.272   7.683   1.085  1.00  0.00     0.023 C 
BRANCH  24  25
ATOM     25  C   UNL     1       0.463   9.157   1.423  1.00  0.00     0.116 C 
BRANCH  25  26
ATOM     26  N   UNL     1       0.757   9.976   0.257  1.00  0.00    -0.352 N 
ATOM     27  C   UNL     1       0.247  11.204  -0.090  1.00  0.00     0.251 C 
ATOM     28  H   UNL     1       1.413   9.597  -0.371  1.00  0.00     0.163 HD
ATOM     29  O   UNL     1       0.521  11.697  -1.179  1.00  0.00    -0.269 OA
BRANCH  27  30
ATOM     30  C   UNL     1      -0.662  11.916   0.835  1.00  0.00     0.039 A 
ATOM     31  C   UNL     1      -1.835  12.481   0.325  1.00  0.00     0.014 A 
ATOM     32  C   UNL     1      -0.366  12.024   2.196  1.00  0.00     0.014 A 
ATOM     33  C   UNL     1      -2.745  13.091   1.191  1.00  0.00     0.010 A 
ATOM     34  C   UNL     1      -1.302  12.575   3.067  1.00  0.00     0.010 A 
ATOM     35  C   UNL     1      -2.502  13.112   2.574  1.00  0.00    -0.014 A 
BRANCH  35  36
ATOM     36  C   UNL     1      -3.483  13.691   3.525  1.00  0.00     0.031 A 
ATOM     37  C   UNL     1      -3.123  14.908   4.330  1.00  0.00     0.074 A 
ATOM     38  C   UNL     1      -4.666  13.079   3.723  1.00  0.00     0.049 A 
ATOM     39  N   UNL     1      -3.794  15.496   5.288  1.00  0.00    -0.248 NA
ATOM     40  C   UNL     1      -1.821  15.529   4.038  1.00  0.00     0.031 C 
ATOM     41  C   UNL     1      -5.122  11.871   3.034  1.00  0.00     0.029 A 
ATOM     42  N   UNL     1      -5.696  13.383   4.578  1.00  0.00    -0.354 N 
ATOM     43  C   UNL     1      -2.989  16.539   5.726  1.00  0.00     0.074 A 
ATOM     44  C   UNL     1      -1.762  16.477   4.961  1.00  0.00     0.031 C 
ATOM     45  C   UNL     1      -6.347  11.546   3.480  1.00  0.00     0.029 A 
ATOM     46  C   UNL     1      -6.746  12.499   4.511  1.00  0.00     0.049 A 
ATOM     47  H   UNL     1      -5.684  14.160   5.182  1.00  0.00     0.167 HD
ATOM     48  C   UNL     1      -3.254  17.476   6.668  1.00  0.00     0.037 A 
ATOM     49  C   UNL     1      -7.896  12.457   5.209  1.00  0.00     0.037 A 
ATOM     50  C   UNL     1      -4.486  17.557   7.407  1.00  0.00     0.049 A 
ATOM     51  C   UNL     1      -8.169  13.508   6.248  1.00  0.00     0.074 A 
ATOM     52  C   UNL     1      -4.872  18.502   8.341  1.00  0.00     0.029 A 
ATOM     53  N   UNL     1      -5.535  16.657   7.292  1.00  0.00    -0.354 N 
ATOM     54  N   UNL     1      -7.420  14.518   6.618  1.00  0.00    -0.248 NA
ATOM     55  C   UNL     1      -9.450  13.415   6.965  1.00  0.00     0.031 C 
ATOM     56  C   UNL     1      -6.142  18.157   8.816  1.00  0.00     0.029 A 
ATOM     57  C   UNL     1      -6.562  17.018   8.149  1.00  0.00     0.049 A 
ATOM     58  H   UNL     1      -5.548  15.878   6.691  1.00  0.00     0.167 HD
ATOM     59  C   UNL     1      -8.148  15.196   7.587  1.00  0.00     0.074 A 
ATOM     60  C   UNL     1      -9.401  14.487   7.743  1.00  0.00     0.031 C 
ATOM     61  C   UNL     1      -7.809  16.308   8.283  1.00  0.00     0.037 A 
BRANCH  48  62
ATOM     62  C   UNL     1      -2.186  18.491   6.947  1.00  0.00     0.057 A 
ATOM     63  C   UNL     1      -1.871  19.501   6.028  1.00  0.00     0.134 A 
ATOM     64  C   UNL     1      -1.476  18.470   8.153  1.00  0.00     0.134 A 
ATOM     65  F   UNL     1      -2.505  19.568   4.848  1.00  0.00    -0.206 F 
ATOM     66  C   UNL     1      -0.867  20.436   6.287  1.00  0.00     0.040 A 
ATOM     67  C   UNL     1      -0.488  19.415   8.435  1.00  0.00     0.040 A 
ATOM     68  F   UNL     1      -1.731  17.532   9.079  1.00  0.00    -0.206 F 
ATOM     69  C   UNL     1      -0.176  20.397   7.497  1.00  0.00     0.006 A 
ENDBRANCH  48  62
BRANCH  49  70
ATOM     70  C   UNL     1      -8.894  11.396   4.928  1.00  0.00     0.057 A 
ATOM     71  C   UNL     1     -10.091  11.693   4.267  1.00  0.00     0.134 A 
ATOM     72  C   UNL     1      -8.679  10.067   5.312  1.00  0.00     0.134 A 
ATOM     73  F   UNL     1     -10.359  12.953   3.892  1.00  0.00    -0.206 F 
ATOM     74  C   UNL     1     -11.047  10.710   4.009  1.00  0.00     0.040 A 
ATOM     75  C   UNL     1      -9.617   9.069   5.042  1.00  0.00     0.040 A 
ATOM     76  F   UNL     1      -7.548   9.718   5.943  1.00  0.00    -0.206 F 
ATOM     77  C   UNL     1     -10.808   9.392   4.393  1.00  0.00     0.006 A 
ENDBRANCH  49  70
BRANCH  61  78
ATOM     78  C   UNL     1      -8.821  16.850   9.247  1.00  0.00     0.057 A 
ATOM     79  C   UNL     1      -9.074  16.231  10.478  1.00  0.00     0.134 A 
ATOM     80  C   UNL     1      -9.520  18.028   8.957  1.00  0.00     0.134 A 
ATOM     81  F   UNL     1      -8.447  15.093  10.808  1.00  0.00    -0.206 F 
ATOM     82  C   UNL     1     -10.001  16.758  11.379  1.00  0.00     0.040 A 
ATOM     83  C   UNL     1     -10.433  18.575   9.859  1.00  0.00     0.040 A 
ATOM     84  F   UNL     1      -9.318  18.671   7.797  1.00  0.00    -0.206 F 
ATOM     85  C   UNL     1     -10.678  17.937  11.073  1.00  0.00     0.006 A 
ENDBRANCH  61  78
ENDBRANCH  35  36
ENDBRANCH  27  30
ENDBRANCH  25  26
ENDBRANCH  24  25
ENDBRANCH   1  24
TORSDOF 14
