REMARK SMILES C[C@@H]1CCc2nc(NC(=O)[C@H]3CC=CC[C@@H]3C(=O)NCCCCNC(=O)c3ccc(-c4c5nc(c(-c6c(F)cccc6F)c6ccc([nH]6)c(-c6c(F)cccc6F)c6nc(c(-c7c(F)cccc7F)c7ccc4[nH]7)C=C6)C=C5)cc3)sc2C1
REMARK SMILES IDX 21 1 20 2 19 3 17 4 18 5 16 7 11 8 12 9 13 10 15 11 14 12
REMARK SMILES IDX 9 13 8 14 10 16 7 17 1 18 2 19 3 20 83 21 4 22 82 23 5 24
REMARK SMILES IDX 81 25 6 26 22 27 23 28 24 29 25 30 26 32 27 33 28 34 80 35
REMARK SMILES IDX 29 36 79 37 30 38 31 39 32 40 73 41 33 42 78 43 72 44 74 45
REMARK SMILES IDX 34 46 77 47 71 48 70 49 35 51 61 52 44 53 60 54 45 55 48 56
REMARK SMILES IDX 59 57 75 58 46 59 47 60 58 62 76 63 49 64 36 65 37 66 42 67
REMARK SMILES IDX 38 68 39 69 41 70 43 71 40 72 62 73 63 74 68 75 64 76 65 77
REMARK SMILES IDX 67 78 69 79 66 80 50 81 51 82 56 83 52 84 53 85 55 86 57 87
REMARK SMILES IDX 54 88
REMARK H PARENT 19 6 8 15 24 31 74 50 48 61
REMARK Flexibility Score: inf
ROOT
ATOM      1  C   UNL     1     -10.006   5.690   1.152  1.00  0.00     0.023 C 
ENDROOT
BRANCH   1   2
ATOM      2  C   UNL     1      -8.577   5.172   1.289  1.00  0.00     0.116 C 
BRANCH   2   3
ATOM      3  N   UNL     1      -8.413   3.777   0.925  1.00  0.00    -0.356 N 
ATOM      4  C   UNL     1      -7.377   3.158   0.284  1.00  0.00     0.224 C 
ATOM      5  O   UNL     1      -7.483   1.943   0.105  1.00  0.00    -0.275 OA
ATOM      6  H   UNL     1      -9.160   3.188   1.178  1.00  0.00     0.163 HD
BRANCH   4   7
ATOM      7  C   UNL     1      -6.202   3.970  -0.272  1.00  0.00     0.095 C 
ATOM      8  C   UNL     1      -5.178   3.057  -1.045  1.00  0.00     0.095 C 
ATOM      9  C   UNL     1      -4.433   2.190  -0.003  1.00  0.00     0.041 C 
ATOM     10  C   UNL     1      -3.991   2.880   1.242  1.00  0.00    -0.030 C 
ATOM     11  C   UNL     1      -5.447   4.828   0.776  1.00  0.00     0.041 C 
ATOM     12  C   UNL     1      -4.418   4.097   1.576  1.00  0.00    -0.030 C 
BRANCH   8  13
ATOM     13  C   UNL     1      -4.369   3.972  -1.995  1.00  0.00     0.230 C 
ATOM     14  N   UNL     1      -3.187   3.713  -2.592  1.00  0.00    -0.302 N 
ATOM     15  H   UNL     1      -2.831   4.493  -3.076  1.00  0.00     0.172 HD
ATOM     16  O   UNL     1      -4.832   5.088  -2.289  1.00  0.00    -0.274 OA
BRANCH  14  17
ATOM     17  C   UNL     1      -2.373   2.631  -2.682  1.00  0.00     0.189 A 
ATOM     18  C   UNL     1       0.932  -0.114   0.073  1.00  0.00     0.008 C 
ATOM     19  C   UNL     1       0.579  -0.750  -1.279  1.00  0.00    -0.009 C 
ATOM     20  C   UNL     1       1.376  -0.082  -2.427  1.00  0.00     0.010 C 
ATOM     21  C   UNL     1      -0.949  -0.718  -1.563  1.00  0.00     0.052 C 
ATOM     22  C   UNL     1       1.007   1.402  -2.624  1.00  0.00     0.058 C 
ATOM     23  C   UNL     1      -1.336   0.567  -2.209  1.00  0.00     0.030 A 
ATOM     24  C   UNL     1      -0.474   1.562  -2.623  1.00  0.00     0.057 A 
ATOM     25  S   UNL     1      -2.929   1.019  -2.619  1.00  0.00    -0.101 S 
ATOM     26  N   UNL     1      -1.085   2.761  -2.915  1.00  0.00    -0.225 NA
ENDBRANCH  14  17
ENDBRANCH   8  13
ENDBRANCH   4   7
ENDBRANCH   2   3
ENDBRANCH   1   2
BRANCH   1  27
ATOM     27  C   UNL     1     -11.085   4.945   1.943  1.00  0.00     0.023 C 
BRANCH  27  28
ATOM     28  C   UNL     1     -10.809   4.806   3.434  1.00  0.00     0.116 C 
BRANCH  28  29
ATOM     29  N   UNL     1     -10.788   6.082   4.133  1.00  0.00    -0.352 N 
ATOM     30  C   UNL     1     -10.801   6.299   5.497  1.00  0.00     0.251 C 
ATOM     31  H   UNL     1     -10.761   6.886   3.567  1.00  0.00     0.163 HD
ATOM     32  O   UNL     1     -11.080   7.395   5.952  1.00  0.00    -0.269 OA
BRANCH  30  33
ATOM     33  C   UNL     1     -10.488   5.176   6.406  1.00  0.00     0.039 A 
ATOM     34  C   UNL     1     -11.270   4.970   7.545  1.00  0.00     0.014 A 
ATOM     35  C   UNL     1      -9.418   4.328   6.114  1.00  0.00     0.014 A 
ATOM     36  C   UNL     1     -11.023   3.855   8.342  1.00  0.00     0.010 A 
ATOM     37  C   UNL     1      -9.223   3.181   6.858  1.00  0.00     0.010 A 
ATOM     38  C   UNL     1     -10.016   2.945   7.979  1.00  0.00    -0.014 A 
BRANCH  38  39
ATOM     39  C   UNL     1      -9.944   1.649   8.660  1.00  0.00     0.031 A 
ATOM     40  C   UNL     1     -11.217   0.872   8.598  1.00  0.00     0.074 A 
ATOM     41  C   UNL     1      -8.801   1.084   9.106  1.00  0.00     0.049 A 
ATOM     42  N   UNL     1     -11.977   0.515   9.579  1.00  0.00    -0.248 NA
ATOM     43  C   UNL     1     -11.784   0.571   7.272  1.00  0.00     0.031 C 
ATOM     44  C   UNL     1      -7.435   1.588   8.930  1.00  0.00     0.029 A 
ATOM     45  N   UNL     1      -8.602  -0.123   9.718  1.00  0.00    -0.354 N 
ATOM     46  C   UNL     1     -13.008  -0.237   9.014  1.00  0.00     0.074 A 
ATOM     47  C   UNL     1     -12.938  -0.017   7.597  1.00  0.00     0.031 C 
ATOM     48  C   UNL     1      -6.550   0.606   9.212  1.00  0.00     0.029 A 
ATOM     49  C   UNL     1      -7.273  -0.538   9.741  1.00  0.00     0.049 A 
ATOM     50  H   UNL     1      -9.334  -0.652  10.109  1.00  0.00     0.167 HD
ATOM     51  C   UNL     1     -13.652  -1.190   9.746  1.00  0.00     0.037 A 
ATOM     52  C   UNL     1      -6.792  -1.737  10.151  1.00  0.00     0.037 A 
ATOM     53  C   UNL     1     -13.369  -1.018  11.149  1.00  0.00     0.049 A 
ATOM     54  C   UNL     1      -7.817  -2.363  11.010  1.00  0.00     0.074 A 
ATOM     55  C   UNL     1     -13.700  -0.123  12.140  1.00  0.00     0.029 A 
ATOM     56  N   UNL     1     -12.281  -1.726  11.582  1.00  0.00    -0.354 N 
ATOM     57  N   UNL     1      -8.131  -1.930  12.197  1.00  0.00    -0.248 NA
ATOM     58  C   UNL     1      -8.749  -3.321  10.427  1.00  0.00     0.031 C 
ATOM     59  C   UNL     1     -12.620  -0.158  13.072  1.00  0.00     0.029 A 
ATOM     60  C   UNL     1     -11.689  -1.104  12.643  1.00  0.00     0.049 A 
ATOM     61  H   UNL     1     -11.968  -2.570  11.183  1.00  0.00     0.167 HD
ATOM     62  C   UNL     1      -9.481  -2.194  12.307  1.00  0.00     0.074 A 
ATOM     63  C   UNL     1      -9.754  -3.210  11.299  1.00  0.00     0.031 C 
ATOM     64  C   UNL     1     -10.299  -1.328  12.971  1.00  0.00     0.037 A 
BRANCH  51  65
ATOM     65  C   UNL     1     -14.089  -2.549   9.219  1.00  0.00     0.057 A 
ATOM     66  C   UNL     1     -14.701  -3.454  10.114  1.00  0.00     0.134 A 
ATOM     67  C   UNL     1     -13.644  -3.128   8.014  1.00  0.00     0.134 A 
ATOM     68  F   UNL     1     -15.176  -3.039  11.298  1.00  0.00    -0.206 F 
ATOM     69  C   UNL     1     -14.763  -4.834   9.873  1.00  0.00     0.040 A 
ATOM     70  C   UNL     1     -13.743  -4.499   7.745  1.00  0.00     0.040 A 
ATOM     71  F   UNL     1     -13.001  -2.432   7.071  1.00  0.00    -0.206 F 
ATOM     72  C   UNL     1     -14.269  -5.363   8.690  1.00  0.00     0.006 A 
ENDBRANCH  51  65
BRANCH  52  73
ATOM     73  C   UNL     1      -5.575  -2.479   9.750  1.00  0.00     0.057 A 
ATOM     74  C   UNL     1      -5.059  -3.512  10.548  1.00  0.00     0.134 A 
ATOM     75  C   UNL     1      -5.067  -2.394   8.444  1.00  0.00     0.134 A 
ATOM     76  F   UNL     1      -5.498  -3.691  11.802  1.00  0.00    -0.206 F 
ATOM     77  C   UNL     1      -4.128  -4.438  10.061  1.00  0.00     0.040 A 
ATOM     78  C   UNL     1      -4.132  -3.309   7.947  1.00  0.00     0.040 A 
ATOM     79  F   UNL     1      -5.530  -1.478   7.582  1.00  0.00    -0.206 F 
ATOM     80  C   UNL     1      -3.674  -4.348   8.749  1.00  0.00     0.006 A 
ENDBRANCH  52  73
BRANCH  64  81
ATOM     81  C   UNL     1      -9.666  -0.423  13.983  1.00  0.00     0.057 A 
ATOM     82  C   UNL     1      -8.743   0.590  13.688  1.00  0.00     0.134 A 
ATOM     83  C   UNL     1     -10.082  -0.540  15.314  1.00  0.00     0.134 A 
ATOM     84  F   UNL     1      -8.348   0.828  12.430  1.00  0.00    -0.206 F 
ATOM     85  C   UNL     1      -8.226   1.420  14.686  1.00  0.00     0.040 A 
ATOM     86  C   UNL     1      -9.602   0.307  16.312  1.00  0.00     0.040 A 
ATOM     87  F   UNL     1     -10.994  -1.463  15.659  1.00  0.00    -0.206 F 
ATOM     88  C   UNL     1      -8.661   1.284  16.002  1.00  0.00     0.006 A 
ENDBRANCH  64  81
ENDBRANCH  38  39
ENDBRANCH  30  33
ENDBRANCH  28  29
ENDBRANCH  27  28
ENDBRANCH   1  27
TORSDOF 13
