REMARK SMILES COC(=O)C[C@H](NC(=O)N1CC[N@H+]2CCC[C@@H]2C1)C(=O)NCCCCNC(=O)c1ccc(-c2c3nc(c(-c4c(F)cccc4F)c4ccc([nH]4)c(-c4c(F)cccc4F)c4nc(c(-c5c(F)cccc5F)c5ccc2[nH]5)C=C4)C=C3)cc1
REMARK SMILES IDX 23 1 22 2 21 3 19 4 20 5 6 7 5 8 3 9 4 10 2 11 1 12 7 13
REMARK SMILES IDX 8 14 9 16 10 17 11 18 18 19 12 20 17 21 13 22 16 23 14 24
REMARK SMILES IDX 15 26 24 27 25 28 26 29 27 30 28 32 29 33 30 34 82 35 31 36
REMARK SMILES IDX 81 37 32 38 33 39 34 40 75 41 35 42 80 43 74 44 76 45 36 46
REMARK SMILES IDX 79 47 73 48 72 49 37 51 63 52 46 53 62 54 47 55 50 56 61 57
REMARK SMILES IDX 77 58 48 59 49 60 60 62 78 63 51 64 38 65 39 66 44 67 40 68
REMARK SMILES IDX 41 69 43 70 45 71 42 72 64 73 65 74 70 75 66 76 67 77 69 78
REMARK SMILES IDX 71 79 68 80 52 81 53 82 58 83 54 84 55 85 57 86 59 87 56 88
REMARK H PARENT 21 6 7 15 13 25 26 31 76 50 50 61
REMARK Flexibility Score: inf
ROOT
ATOM      1  C   UNL     1      -3.776  -4.011   2.003  1.00  0.00     0.023 C 
ENDROOT
BRANCH   1   2
ATOM      2  C   UNL     1      -2.674  -3.175   2.625  1.00  0.00     0.116 C 
BRANCH   2   3
ATOM      3  N   UNL     1      -2.024  -3.849   3.717  1.00  0.00    -0.354 N 
ATOM      4  C   UNL     1      -0.841  -3.390   4.251  1.00  0.00     0.243 C 
ATOM      5  O   UNL     1      -0.751  -2.959   5.395  1.00  0.00    -0.273 OA
ATOM      6  H   UNL     1      -2.436  -4.661   4.093  1.00  0.00     0.163 HD
BRANCH   4   7
ATOM      7  C   UNL     1       0.354  -3.472   3.299  1.00  0.00     0.184 C 
BRANCH   7   8
ATOM      8  C   UNL     1       0.612  -2.077   2.638  1.00  0.00     0.157 C 
BRANCH   8   9
ATOM      9  C   UNL     1      -0.444  -0.993   2.844  1.00  0.00     0.308 C 
ATOM     10  O   UNL     1      -0.654  -0.419   3.906  1.00  0.00    -0.252 OA
BRANCH   9  11
ATOM     11  O   UNL     1      -1.153  -0.768   1.699  1.00  0.00    -0.469 OA
ATOM     12  C   UNL     1      -2.357   0.012   1.828  1.00  0.00     0.282 C 
ENDBRANCH   9  11
ENDBRANCH   8   9
ENDBRANCH   7   8
BRANCH   7  13
ATOM     13  N   UNL     1       0.158  -4.526   2.259  1.00  0.00    -0.326 N 
ATOM     14  C   UNL     1      -0.176  -5.823   2.142  1.00  0.00     0.318 C 
ATOM     15  H   UNL     1       0.332  -4.147   1.367  1.00  0.00     0.166 HD
ATOM     16  O   UNL     1      -0.074  -6.238   0.981  1.00  0.00    -0.249 OA
BRANCH  14  17
ATOM     17  N   UNL     1      -0.737  -6.594   3.120  1.00  0.00    -0.313 N 
ATOM     18  C   UNL     1      -0.683  -6.528   4.603  1.00  0.00     0.183 C 
ATOM     19  C   UNL     1      -1.428  -7.834   2.672  1.00  0.00     0.186 C 
ATOM     20  C   UNL     1      -2.096  -6.701   5.274  1.00  0.00     0.284 C 
ATOM     21  C   UNL     1      -2.851  -7.820   3.225  1.00  0.00     0.204 C 
ATOM     22  N   UNL     1      -2.870  -7.803   4.693  1.00  0.00    -0.330 N 
ATOM     23  C   UNL     1      -3.739  -9.024   2.974  1.00  0.00     0.073 C 
ATOM     24  C   UNL     1      -4.282  -7.896   5.066  1.00  0.00     0.262 C 
ATOM     25  H   UNL     1      -2.374  -8.594   5.102  1.00  0.00     0.348 HD
ATOM     26  C   UNL     1      -4.888  -8.775   3.959  1.00  0.00     0.068 C 
ENDBRANCH  14  17
ENDBRANCH   7  13
ENDBRANCH   4   7
ENDBRANCH   2   3
ENDBRANCH   1   2
BRANCH   1  27
ATOM     27  C   UNL     1      -4.765  -4.561   3.020  1.00  0.00     0.023 C 
BRANCH  27  28
ATOM     28  C   UNL     1      -5.352  -3.513   3.950  1.00  0.00     0.116 C 
BRANCH  28  29
ATOM     29  N   UNL     1      -6.684  -3.145   3.543  1.00  0.00    -0.352 N 
ATOM     30  C   UNL     1      -7.892  -3.759   3.725  1.00  0.00     0.251 C 
ATOM     31  H   UNL     1      -6.733  -2.298   3.043  1.00  0.00     0.163 HD
ATOM     32  O   UNL     1      -8.842  -3.338   3.065  1.00  0.00    -0.269 OA
BRANCH  30  33
ATOM     33  C   UNL     1      -8.106  -4.904   4.653  1.00  0.00     0.039 A 
ATOM     34  C   UNL     1      -9.201  -5.733   4.380  1.00  0.00     0.014 A 
ATOM     35  C   UNL     1      -7.388  -5.126   5.831  1.00  0.00     0.014 A 
ATOM     36  C   UNL     1      -9.600  -6.713   5.292  1.00  0.00     0.010 A 
ATOM     37  C   UNL     1      -7.712  -6.186   6.686  1.00  0.00     0.010 A 
ATOM     38  C   UNL     1      -8.866  -6.943   6.465  1.00  0.00    -0.014 A 
BRANCH  38  39
ATOM     39  C   UNL     1      -9.384  -7.881   7.500  1.00  0.00     0.031 A 
ATOM     40  C   UNL     1      -9.770  -7.375   8.871  1.00  0.00     0.074 A 
ATOM     41  C   UNL     1      -9.561  -9.182   7.200  1.00  0.00     0.049 A 
ATOM     42  N   UNL     1     -10.332  -8.022   9.864  1.00  0.00    -0.248 NA
ATOM     43  C   UNL     1      -9.468  -5.969   9.180  1.00  0.00     0.031 C 
ATOM     44  C   UNL     1      -9.194  -9.816   5.933  1.00  0.00     0.029 A 
ATOM     45  N   UNL     1     -10.120 -10.200   7.932  1.00  0.00    -0.354 N 
ATOM     46  C   UNL     1     -10.432  -7.109  10.908  1.00  0.00     0.074 A 
ATOM     47  C   UNL     1      -9.817  -5.883  10.454  1.00  0.00     0.031 C 
ATOM     48  C   UNL     1      -9.591 -11.099   5.954  1.00  0.00     0.029 A 
ATOM     49  C   UNL     1     -10.212 -11.386   7.244  1.00  0.00     0.049 A 
ATOM     50  H   UNL     1     -10.427 -10.091   8.861  1.00  0.00     0.167 HD
ATOM     51  C   UNL     1     -11.011  -7.258  12.123  1.00  0.00     0.037 A 
ATOM     52  C   UNL     1     -10.752 -12.565   7.604  1.00  0.00     0.037 A 
ATOM     53  C   UNL     1     -11.664  -8.461  12.569  1.00  0.00     0.049 A 
ATOM     54  C   UNL     1     -11.408 -12.702   8.950  1.00  0.00     0.074 A 
ATOM     55  C   UNL     1     -12.333  -8.689  13.759  1.00  0.00     0.029 A 
ATOM     56  N   UNL     1     -11.734  -9.637  11.839  1.00  0.00    -0.354 N 
ATOM     57  N   UNL     1     -11.562 -11.805   9.893  1.00  0.00    -0.248 NA
ATOM     58  C   UNL     1     -11.981 -14.017   9.274  1.00  0.00     0.031 C 
ATOM     59  C   UNL     1     -12.770 -10.018  13.768  1.00  0.00     0.029 A 
ATOM     60  C   UNL     1     -12.419 -10.600  12.561  1.00  0.00     0.049 A 
ATOM     61  H   UNL     1     -11.352  -9.768  10.941  1.00  0.00     0.167 HD
ATOM     62  C   UNL     1     -12.281 -12.434  10.903  1.00  0.00     0.074 A 
ATOM     63  C   UNL     1     -12.543 -13.784  10.451  1.00  0.00     0.031 C 
ATOM     64  C   UNL     1     -12.691 -11.935  12.095  1.00  0.00     0.037 A 
BRANCH  51  65
ATOM     65  C   UNL     1     -10.969  -6.085  13.061  1.00  0.00     0.057 A 
ATOM     66  C   UNL     1     -11.715  -4.921  12.828  1.00  0.00     0.134 A 
ATOM     67  C   UNL     1     -10.194  -6.129  14.227  1.00  0.00     0.134 A 
ATOM     68  F   UNL     1     -12.470  -4.808  11.725  1.00  0.00    -0.206 F 
ATOM     69  C   UNL     1     -11.668  -3.834  13.703  1.00  0.00     0.040 A 
ATOM     70  C   UNL     1     -10.161  -5.060  15.124  1.00  0.00     0.040 A 
ATOM     71  F   UNL     1      -9.461  -7.215  14.517  1.00  0.00    -0.206 F 
ATOM     72  C   UNL     1     -10.893  -3.905  14.859  1.00  0.00     0.006 A 
ENDBRANCH  51  65
BRANCH  52  73
ATOM     73  C   UNL     1     -10.741 -13.707   6.655  1.00  0.00     0.057 A 
ATOM     74  C   UNL     1     -11.925 -14.171   6.068  1.00  0.00     0.134 A 
ATOM     75  C   UNL     1      -9.555 -14.375   6.330  1.00  0.00     0.134 A 
ATOM     76  F   UNL     1     -13.096 -13.584   6.354  1.00  0.00    -0.206 F 
ATOM     77  C   UNL     1     -11.933 -15.275   5.214  1.00  0.00     0.040 A 
ATOM     78  C   UNL     1      -9.545 -15.463   5.456  1.00  0.00     0.040 A 
ATOM     79  F   UNL     1      -8.387 -13.973   6.852  1.00  0.00    -0.206 F 
ATOM     80  C   UNL     1     -10.739 -15.922   4.903  1.00  0.00     0.006 A 
ENDBRANCH  52  73
BRANCH  64  81
ATOM     81  C   UNL     1     -13.511 -12.835  12.973  1.00  0.00     0.057 A 
ATOM     82  C   UNL     1     -12.960 -13.944  13.628  1.00  0.00     0.134 A 
ATOM     83  C   UNL     1     -14.871 -12.570  13.186  1.00  0.00     0.134 A 
ATOM     84  F   UNL     1     -11.667 -14.259  13.459  1.00  0.00    -0.206 F 
ATOM     85  C   UNL     1     -13.738 -14.775  14.436  1.00  0.00     0.040 A 
ATOM     86  C   UNL     1     -15.652 -13.377  14.014  1.00  0.00     0.040 A 
ATOM     87  F   UNL     1     -15.460 -11.518  12.598  1.00  0.00    -0.206 F 
ATOM     88  C   UNL     1     -15.088 -14.489  14.635  1.00  0.00     0.006 A 
ENDBRANCH  64  81
ENDBRANCH  38  39
ENDBRANCH  30  33
ENDBRANCH  28  29
ENDBRANCH  27  28
ENDBRANCH   1  27
TORSDOF 16
