REMARK SMILES COc1cccc(C(=O)N2[C@@H](C(=O)NCCCCNC(=O)c3ccc(-c4c5nc(c(-c6c(F)cccc6F)c6ccc([nH]6)c(-c6c(F)cccc6F)c6nc(c(-c7c(F)cccc7F)c7ccc4[nH]7)C=C6)C=C5)cc3)CS[C@@H]2c2ccccc2Cl)c1
REMARK SMILES IDX 16 1 15 2 14 3 12 4 13 5 11 7 10 8 78 9 76 10 77 11 8 12
REMARK SMILES IDX 9 13 7 14 3 15 4 16 86 17 5 18 6 19 2 20 1 21 79 22 80 23
REMARK SMILES IDX 84 24 81 25 83 26 85 27 82 28 17 29 18 30 19 31 20 32 21 34
REMARK SMILES IDX 22 35 23 36 75 37 24 38 74 39 25 40 26 41 27 42 68 43 28 44
REMARK SMILES IDX 73 45 67 46 69 47 29 48 72 49 66 50 65 51 30 53 56 54 39 55
REMARK SMILES IDX 55 56 40 57 43 58 54 59 70 60 41 61 42 62 53 64 71 65 44 66
REMARK SMILES IDX 31 67 32 68 37 69 33 70 34 71 36 72 38 73 35 74 57 75 58 76
REMARK SMILES IDX 63 77 59 78 60 79 62 80 64 81 61 82 45 83 46 84 51 85 47 86
REMARK SMILES IDX 48 87 50 88 52 89 49 90
REMARK H PARENT 14 6 19 33 69 52 43 63
REMARK Flexibility Score: inf
ROOT
ATOM      1  C   UNL     1       2.417   5.439   0.677  1.00  0.00     0.023 C 
ENDROOT
BRANCH   1   2
ATOM      2  C   UNL     1       3.740   5.680   1.400  1.00  0.00     0.116 C 
BRANCH   2   3
ATOM      3  N   UNL     1       4.050   4.504   2.191  1.00  0.00    -0.354 N 
ATOM      4  C   UNL     1       4.585   3.330   1.726  1.00  0.00     0.243 C 
ATOM      5  O   UNL     1       4.261   2.292   2.307  1.00  0.00    -0.273 OA
ATOM      6  H   UNL     1       3.858   4.554   3.156  1.00  0.00     0.163 HD
BRANCH   4   7
ATOM      7  C   UNL     1       5.552   3.352   0.513  1.00  0.00     0.186 C 
ATOM      8  N   UNL     1       4.954   3.002  -0.804  1.00  0.00    -0.310 N 
ATOM      9  C   UNL     1       5.637   1.946  -1.526  1.00  0.00     0.176 C 
ATOM     10  C   UNL     1       6.665   2.332   0.829  1.00  0.00     0.107 C 
ATOM     11  S   UNL     1       6.270   0.885  -0.182  1.00  0.00    -0.129 SA
BRANCH   8  12
ATOM     12  C   UNL     1       4.080   3.832  -1.478  1.00  0.00     0.255 C 
ATOM     13  O   UNL     1       4.296   5.029  -1.639  1.00  0.00    -0.269 OA
BRANCH  12  14
ATOM     14  C   UNL     1       2.721   3.294  -1.839  1.00  0.00     0.043 A 
ATOM     15  C   UNL     1       0.852   1.796  -1.424  1.00  0.00     0.119 A 
ATOM     16  C   UNL     1       0.014   2.651  -2.146  1.00  0.00     0.046 A 
ATOM     17  C   UNL     1       2.205   2.118  -1.267  1.00  0.00     0.060 A 
ATOM     18  C   UNL     1       0.513   3.819  -2.716  1.00  0.00     0.005 A 
ATOM     19  C   UNL     1       1.863   4.135  -2.570  1.00  0.00     0.014 A 
BRANCH  15  20
ATOM     20  O   UNL     1       0.218   0.699  -0.907  1.00  0.00    -0.497 OA
ATOM     21  C   UNL     1       0.954  -0.106   0.006  1.00  0.00     0.278 C 
ENDBRANCH  15  20
ENDBRANCH  12  14
ENDBRANCH   8  12
BRANCH   9  22
ATOM     22  C   UNL     1       6.797   2.284  -2.476  1.00  0.00     0.003 A 
ATOM     23  C   UNL     1       7.215   1.200  -3.297  1.00  0.00     0.008 A 
ATOM     24  C   UNL     1       7.566   3.462  -2.574  1.00  0.00     0.047 A 
ATOM     25  C   UNL     1       8.343   1.267  -4.120  1.00  0.00     0.001 A 
ATOM     26  C   UNL     1       8.690   3.525  -3.420  1.00  0.00     0.021 A 
ATOM     27  Cl  UNL     1       7.314   4.921  -1.698  1.00  0.00    -0.084 Cl
ATOM     28  C   UNL     1       9.087   2.432  -4.178  1.00  0.00     0.002 A 
ENDBRANCH   9  22
ENDBRANCH   4   7
ENDBRANCH   2   3
ENDBRANCH   1   2
BRANCH   1  29
ATOM     29  C   UNL     1       1.173   5.851   1.441  1.00  0.00     0.023 C 
BRANCH  29  30
ATOM     30  C   UNL     1       0.967   7.352   1.457  1.00  0.00     0.116 C 
BRANCH  30  31
ATOM     31  N   UNL     1       0.782   7.935   0.131  1.00  0.00    -0.352 N 
ATOM     32  C   UNL     1      -0.004   9.009  -0.219  1.00  0.00     0.251 C 
ATOM     33  H   UNL     1       1.282   7.508  -0.602  1.00  0.00     0.163 HD
ATOM     34  O   UNL     1      -0.131   9.355  -1.383  1.00  0.00    -0.269 OA
BRANCH  32  35
ATOM     35  C   UNL     1      -0.744   9.697   0.857  1.00  0.00     0.039 A 
ATOM     36  C   UNL     1      -2.125   9.849   0.733  1.00  0.00     0.014 A 
ATOM     37  C   UNL     1      -0.085  10.053   2.035  1.00  0.00     0.014 A 
ATOM     38  C   UNL     1      -2.863  10.275   1.836  1.00  0.00     0.010 A 
ATOM     39  C   UNL     1      -0.831  10.368   3.159  1.00  0.00     0.010 A 
ATOM     40  C   UNL     1      -2.226  10.485   3.071  1.00  0.00    -0.014 A 
BRANCH  40  41
ATOM     41  C   UNL     1      -2.990  10.844   4.289  1.00  0.00     0.031 A 
ATOM     42  C   UNL     1      -2.702  12.145   4.982  1.00  0.00     0.074 A 
ATOM     43  C   UNL     1      -3.868   9.970   4.815  1.00  0.00     0.049 A 
ATOM     44  N   UNL     1      -3.168  12.599   6.117  1.00  0.00    -0.248 NA
ATOM     45  C   UNL     1      -1.724  13.036   4.335  1.00  0.00     0.031 C 
ATOM     46  C   UNL     1      -4.188   8.648   4.269  1.00  0.00     0.029 A 
ATOM     47  N   UNL     1      -4.651  10.061   5.938  1.00  0.00    -0.354 N 
ATOM     48  C   UNL     1      -2.518  13.807   6.330  1.00  0.00     0.074 A 
ATOM     49  C   UNL     1      -1.580  13.985   5.244  1.00  0.00     0.031 C 
ATOM     50  C   UNL     1      -5.127   8.071   5.036  1.00  0.00     0.029 A 
ATOM     51  C   UNL     1      -5.448   8.962   6.146  1.00  0.00     0.049 A 
ATOM     52  H   UNL     1      -4.641  10.841   6.539  1.00  0.00     0.167 HD
ATOM     53  C   UNL     1      -2.708  14.706   7.324  1.00  0.00     0.037 A 
ATOM     54  C   UNL     1      -6.339   8.709   7.122  1.00  0.00     0.037 A 
ATOM     55  C   UNL     1      -3.678  14.549   8.373  1.00  0.00     0.049 A 
ATOM     56  C   UNL     1      -6.556   9.734   8.198  1.00  0.00     0.074 A 
ATOM     57  C   UNL     1      -3.998  15.428   9.391  1.00  0.00     0.029 A 
ATOM     58  N   UNL     1      -4.494  13.439   8.527  1.00  0.00    -0.354 N 
ATOM     59  N   UNL     1      -5.975  10.899   8.359  1.00  0.00    -0.248 NA
ATOM     60  C   UNL     1      -7.554   9.412   9.227  1.00  0.00     0.031 C 
ATOM     61  C   UNL     1      -4.994  14.838  10.177  1.00  0.00     0.029 A 
ATOM     62  C   UNL     1      -5.315  13.607   9.628  1.00  0.00     0.049 A 
ATOM     63  H   UNL     1      -4.490  12.648   7.940  1.00  0.00     0.167 HD
ATOM     64  C   UNL     1      -6.556  11.461   9.488  1.00  0.00     0.074 A 
ATOM     65  C   UNL     1      -7.541  10.512   9.967  1.00  0.00     0.031 C 
ATOM     66  C   UNL     1      -6.297  12.654  10.076  1.00  0.00     0.037 A 
BRANCH  53  67
ATOM     67  C   UNL     1      -1.855  15.939   7.301  1.00  0.00     0.057 A 
ATOM     68  C   UNL     1      -2.025  16.934   6.328  1.00  0.00     0.134 A 
ATOM     69  C   UNL     1      -0.849  16.133   8.255  1.00  0.00     0.134 A 
ATOM     70  F   UNL     1      -2.960  16.799   5.375  1.00  0.00    -0.206 F 
ATOM     71  C   UNL     1      -1.202  18.060   6.283  1.00  0.00     0.040 A 
ATOM     72  C   UNL     1      -0.037  17.269   8.237  1.00  0.00     0.040 A 
ATOM     73  F   UNL     1      -0.633  15.220   9.214  1.00  0.00    -0.206 F 
ATOM     74  C   UNL     1      -0.207  18.231   7.243  1.00  0.00     0.006 A 
ENDBRANCH  53  67
BRANCH  54  75
ATOM     75  C   UNL     1      -7.130   7.453   7.100  1.00  0.00     0.057 A 
ATOM     76  C   UNL     1      -8.491   7.473   6.775  1.00  0.00     0.134 A 
ATOM     77  C   UNL     1      -6.554   6.214   7.400  1.00  0.00     0.134 A 
ATOM     78  F   UNL     1      -9.101   8.634   6.495  1.00  0.00    -0.206 F 
ATOM     79  C   UNL     1      -9.258   6.306   6.765  1.00  0.00     0.040 A 
ATOM     80  C   UNL     1      -7.304   5.037   7.374  1.00  0.00     0.040 A 
ATOM     81  F   UNL     1      -5.253   6.129   7.711  1.00  0.00    -0.206 F 
ATOM     82  C   UNL     1      -8.662   5.082   7.062  1.00  0.00     0.006 A 
ENDBRANCH  54  75
BRANCH  66  83
ATOM     83  C   UNL     1      -7.118  13.015  11.277  1.00  0.00     0.057 A 
ATOM     84  C   UNL     1      -6.894  12.424  12.526  1.00  0.00     0.134 A 
ATOM     85  C   UNL     1      -8.112  13.997  11.189  1.00  0.00     0.134 A 
ATOM     86  F   UNL     1      -5.965  11.468  12.670  1.00  0.00    -0.206 F 
ATOM     87  C   UNL     1      -7.645  12.787  13.645  1.00  0.00     0.040 A 
ATOM     88  C   UNL     1      -8.853  14.384  12.305  1.00  0.00     0.040 A 
ATOM     89  F   UNL     1      -8.368  14.605  10.021  1.00  0.00    -0.206 F 
ATOM     90  C   UNL     1      -8.623  13.775  13.537  1.00  0.00     0.006 A 
ENDBRANCH  66  83
ENDBRANCH  40  41
ENDBRANCH  32  35
ENDBRANCH  30  31
ENDBRANCH  29  30
ENDBRANCH   1  29
TORSDOF 15
