REMARK SMILES COc1ccc(/C=C(/Sc2nc(C)n[nH]2)C(=O)NCCCCNC(=O)c2ccc(-c3c4nc(c(-c5c(F)cccc5F)c5ccc([nH]5)c(-c5c(F)cccc5F)c5nc(c(-c6c(F)cccc6F)c6ccc3[nH]6)C=C5)C=C4)cc2)cc1OC
REMARK SMILES IDX 20 1 19 2 18 3 16 4 17 5 8 7 7 8 6 9 3 10 4 11 81 12 5 13
REMARK SMILES IDX 80 14 2 15 1 16 82 17 83 18 9 19 10 20 11 21 15 22 12 23
REMARK SMILES IDX 14 24 13 26 21 27 22 28 23 29 24 30 25 32 26 33 27 34 79 35
REMARK SMILES IDX 28 36 78 37 29 38 30 39 31 40 72 41 32 42 77 43 71 44 73 45
REMARK SMILES IDX 33 46 76 47 70 48 69 49 34 51 60 52 43 53 59 54 44 55 47 56
REMARK SMILES IDX 58 57 74 58 45 59 46 60 57 62 75 63 48 64 35 65 36 66 41 67
REMARK SMILES IDX 37 68 38 69 40 70 42 71 39 72 61 73 62 74 67 75 63 76 64 77
REMARK SMILES IDX 66 78 68 79 65 80 49 81 50 82 55 83 51 84 52 85 54 86 56 87
REMARK SMILES IDX 53 88
REMARK H PARENT 18 6 15 25 23 31 73 50 47 61
REMARK Flexibility Score: inf
ROOT
ATOM      1  C   UNL     1      -0.567  10.092   3.493  1.00  0.00     0.023 C 
ENDROOT
BRANCH   1   2
ATOM      2  C   UNL     1      -0.542   8.935   4.490  1.00  0.00     0.116 C 
BRANCH   2   3
ATOM      3  N   UNL     1      -0.801   7.606   3.941  1.00  0.00    -0.352 N 
ATOM      4  C   UNL     1      -0.093   6.430   3.908  1.00  0.00     0.258 C 
ATOM      5  O   UNL     1      -0.773   5.406   3.796  1.00  0.00    -0.269 OA
ATOM      6  H   UNL     1      -1.677   7.539   3.496  1.00  0.00     0.163 HD
BRANCH   4   7
ATOM      7  C   UNL     1       1.421   6.341   3.982  1.00  0.00     0.081 C 
ATOM      8  C   UNL     1       2.127   5.450   3.242  1.00  0.00     0.029 C 
BRANCH   8   9
ATOM      9  C   UNL     1       1.762   4.351   2.294  1.00  0.00    -0.020 A 
ATOM     10  C   UNL     1       1.303   2.122   0.565  1.00  0.00     0.160 A 
ATOM     11  C   UNL     1       0.364   3.154   0.688  1.00  0.00     0.051 A 
ATOM     12  C   UNL     1       2.498   2.202   1.280  1.00  0.00     0.161 A 
ATOM     13  C   UNL     1       0.602   4.263   1.524  1.00  0.00     0.012 A 
ATOM     14  C   UNL     1       2.698   3.304   2.140  1.00  0.00     0.058 A 
BRANCH  10  15
ATOM     15  O   UNL     1       1.072   1.169  -0.391  1.00  0.00    -0.493 OA
ATOM     16  C   UNL     1       0.285   0.077   0.085  1.00  0.00     0.278 C 
ENDBRANCH  10  15
BRANCH  12  17
ATOM     17  O   UNL     1       3.575   1.358   1.259  1.00  0.00    -0.493 OA
ATOM     18  C   UNL     1       3.503   0.151   0.518  1.00  0.00     0.278 C 
ENDBRANCH  12  17
ENDBRANCH   8   9
BRANCH   7  19
ATOM     19  S   UNL     1       2.102   7.235   5.320  1.00  0.00    -0.045 SA
BRANCH  19  20
ATOM     20  C   UNL     1       3.814   7.185   5.231  1.00  0.00     0.188 A 
ATOM     21  N   UNL     1       4.607   8.232   5.241  1.00  0.00    -0.206 NA
ATOM     22  N   UNL     1       4.513   6.085   5.623  1.00  0.00    -0.254 N 
ATOM     23  C   UNL     1       5.798   7.717   5.692  1.00  0.00     0.148 A 
ATOM     24  N   UNL     1       5.793   6.393   5.900  1.00  0.00    -0.158 NA
ATOM     25  H   UNL     1       4.132   5.181   5.695  1.00  0.00     0.192 HD
ATOM     26  C   UNL     1       6.939   8.581   6.066  1.00  0.00     0.092 C 
ENDBRANCH  19  20
ENDBRANCH   7  19
ENDBRANCH   4   7
ENDBRANCH   2   3
ENDBRANCH   1   2
BRANCH   1  27
ATOM     27  C   UNL     1      -1.921  10.465   2.878  1.00  0.00     0.023 C 
BRANCH  27  28
ATOM     28  C   UNL     1      -3.053  10.716   3.866  1.00  0.00     0.116 C 
BRANCH  28  29
ATOM     29  N   UNL     1      -2.790  11.792   4.827  1.00  0.00    -0.352 N 
ATOM     30  C   UNL     1      -3.595  12.190   5.880  1.00  0.00     0.251 C 
ATOM     31  H   UNL     1      -1.947  12.286   4.709  1.00  0.00     0.163 HD
ATOM     32  O   UNL     1      -3.495  13.314   6.374  1.00  0.00    -0.269 OA
BRANCH  30  33
ATOM     33  C   UNL     1      -4.564  11.228   6.426  1.00  0.00     0.039 A 
ATOM     34  C   UNL     1      -5.868  11.585   6.782  1.00  0.00     0.014 A 
ATOM     35  C   UNL     1      -4.133   9.910   6.534  1.00  0.00     0.014 A 
ATOM     36  C   UNL     1      -6.751  10.579   7.172  1.00  0.00     0.010 A 
ATOM     37  C   UNL     1      -5.045   8.911   6.722  1.00  0.00     0.010 A 
ATOM     38  C   UNL     1      -6.332   9.239   7.123  1.00  0.00    -0.014 A 
BRANCH  38  39
ATOM     39  C   UNL     1      -7.252   8.134   7.361  1.00  0.00     0.031 A 
ATOM     40  C   UNL     1      -8.445   8.146   6.471  1.00  0.00     0.074 A 
ATOM     41  C   UNL     1      -6.919   7.066   8.123  1.00  0.00     0.049 A 
ATOM     42  N   UNL     1      -9.679   8.326   6.804  1.00  0.00    -0.248 NA
ATOM     43  C   UNL     1      -8.224   8.110   5.013  1.00  0.00     0.031 C 
ATOM     44  C   UNL     1      -5.637   6.769   8.777  1.00  0.00     0.029 A 
ATOM     45  N   UNL     1      -7.643   5.946   8.389  1.00  0.00    -0.354 N 
ATOM     46  C   UNL     1     -10.413   8.189   5.629  1.00  0.00     0.074 A 
ATOM     47  C   UNL     1      -9.465   8.268   4.549  1.00  0.00     0.031 C 
ATOM     48  C   UNL     1      -5.599   5.469   9.146  1.00  0.00     0.029 A 
ATOM     49  C   UNL     1      -6.907   4.887   8.924  1.00  0.00     0.049 A 
ATOM     50  H   UNL     1      -8.610   5.886   8.218  1.00  0.00     0.167 HD
ATOM     51  C   UNL     1     -11.698   7.740   5.657  1.00  0.00     0.037 A 
ATOM     52  C   UNL     1      -7.357   3.623   9.133  1.00  0.00     0.037 A 
ATOM     53  C   UNL     1     -12.261   7.866   6.980  1.00  0.00     0.049 A 
ATOM     54  C   UNL     1      -8.841   3.683   9.115  1.00  0.00     0.074 A 
ATOM     55  C   UNL     1     -12.445   8.920   7.857  1.00  0.00     0.029 A 
ATOM     56  N   UNL     1     -12.352   6.731   7.749  1.00  0.00    -0.354 N 
ATOM     57  N   UNL     1      -9.552   4.280  10.029  1.00  0.00    -0.248 NA
ATOM     58  C   UNL     1      -9.492   3.504   7.826  1.00  0.00     0.031 C 
ATOM     59  C   UNL     1     -12.104   8.392   9.138  1.00  0.00     0.029 A 
ATOM     60  C   UNL     1     -11.830   7.033   8.982  1.00  0.00     0.049 A 
ATOM     61  H   UNL     1     -12.722   5.863   7.468  1.00  0.00     0.167 HD
ATOM     62  C   UNL     1     -10.548   4.937   9.323  1.00  0.00     0.074 A 
ATOM     63  C   UNL     1     -10.494   4.375   7.973  1.00  0.00     0.031 C 
ATOM     64  C   UNL     1     -11.119   6.081   9.802  1.00  0.00     0.037 A 
BRANCH  51  65
ATOM     65  C   UNL     1     -12.296   6.832   4.607  1.00  0.00     0.057 A 
ATOM     66  C   UNL     1     -13.668   6.528   4.663  1.00  0.00     0.134 A 
ATOM     67  C   UNL     1     -11.543   6.022   3.730  1.00  0.00     0.134 A 
ATOM     68  F   UNL     1     -14.491   7.210   5.474  1.00  0.00    -0.206 F 
ATOM     69  C   UNL     1     -14.230   5.457   3.957  1.00  0.00     0.040 A 
ATOM     70  C   UNL     1     -12.104   4.986   2.981  1.00  0.00     0.040 A 
ATOM     71  F   UNL     1     -10.212   6.114   3.624  1.00  0.00    -0.206 F 
ATOM     72  C   UNL     1     -13.447   4.678   3.116  1.00  0.00     0.006 A 
ENDBRANCH  51  65
BRANCH  52  73
ATOM     73  C   UNL     1      -6.642   2.329   9.016  1.00  0.00     0.057 A 
ATOM     74  C   UNL     1      -7.212   1.146   9.514  1.00  0.00     0.134 A 
ATOM     75  C   UNL     1      -5.554   2.166   8.143  1.00  0.00     0.134 A 
ATOM     76  F   UNL     1      -8.276   1.195  10.329  1.00  0.00    -0.206 F 
ATOM     77  C   UNL     1      -6.760  -0.123   9.128  1.00  0.00     0.040 A 
ATOM     78  C   UNL     1      -5.089   0.903   7.753  1.00  0.00     0.040 A 
ATOM     79  F   UNL     1      -4.968   3.223   7.562  1.00  0.00    -0.206 F 
ATOM     80  C   UNL     1      -5.705  -0.247   8.230  1.00  0.00     0.006 A 
ENDBRANCH  52  73
BRANCH  64  81
ATOM     81  C   UNL     1     -10.807   6.492  11.218  1.00  0.00     0.057 A 
ATOM     82  C   UNL     1      -9.525   6.810  11.695  1.00  0.00     0.134 A 
ATOM     83  C   UNL     1     -11.874   6.710  12.096  1.00  0.00     0.134 A 
ATOM     84  F   UNL     1      -8.449   6.730  10.903  1.00  0.00    -0.206 F 
ATOM     85  C   UNL     1      -9.314   7.280  12.996  1.00  0.00     0.040 A 
ATOM     86  C   UNL     1     -11.681   7.211  13.386  1.00  0.00     0.040 A 
ATOM     87  F   UNL     1     -13.134   6.480  11.697  1.00  0.00    -0.206 F 
ATOM     88  C   UNL     1     -10.396   7.488  13.845  1.00  0.00     0.006 A 
ENDBRANCH  64  81
ENDBRANCH  38  39
ENDBRANCH  30  33
ENDBRANCH  28  29
ENDBRANCH  27  28
ENDBRANCH   1  27
TORSDOF 16
