REMARK SMILES Cc1ccc2c(c1)c(-c1ccnc3c(C)cccc13)c(C)n2CC(=O)NCCCCNC(=O)c1ccc(-c2c3nc(c(-c4c(F)cccc4F)c4ccc([nH]4)c(-c4c(F)cccc4F)c4nc(c(-c5c(F)cccc5F)c5ccc2[nH]5)C=C4)C=C3)cc1
REMARK SMILES IDX 28 1 27 2 26 3 24 4 25 5 23 7 22 8 1 9 2 10 3 11 7 12 4 13
REMARK SMILES IDX 6 14 5 15 8 16 20 17 21 18 9 19 10 20 19 21 11 22 13 23
REMARK SMILES IDX 18 24 12 25 14 26 17 27 15 28 16 29 29 30 30 31 31 32 32 33
REMARK SMILES IDX 33 35 34 36 35 37 87 38 36 39 86 40 37 41 38 42 39 43 80 44
REMARK SMILES IDX 40 45 85 46 79 47 81 48 41 49 84 50 78 51 77 52 42 54 68 55
REMARK SMILES IDX 51 56 67 57 52 58 55 59 66 60 82 61 53 62 54 63 65 65 83 66
REMARK SMILES IDX 56 67 43 68 44 69 49 70 45 71 46 72 48 73 50 74 47 75 69 76
REMARK SMILES IDX 70 77 75 78 71 79 72 80 74 81 76 82 73 83 57 84 58 85 63 86
REMARK SMILES IDX 59 87 60 88 62 89 64 90 61 91
REMARK H PARENT 26 6 31 34 81 53 55 64
REMARK Flexibility Score: inf
ROOT
ATOM      1  C   UNL     1       3.157  -2.771   4.794  1.00  0.00     0.023 C 
ENDROOT
BRANCH   1   2
ATOM      2  C   UNL     1       2.726  -4.180   4.396  1.00  0.00     0.116 C 
BRANCH   2   3
ATOM      3  N   UNL     1       1.996  -4.852   5.453  1.00  0.00    -0.355 N 
ATOM      4  C   UNL     1       0.683  -5.227   5.493  1.00  0.00     0.239 C 
ATOM      5  O   UNL     1       0.293  -5.831   6.495  1.00  0.00    -0.273 OA
ATOM      6  H   UNL     1       2.521  -5.068   6.257  1.00  0.00     0.163 HD
BRANCH   4   7
ATOM      7  C   UNL     1      -0.243  -4.970   4.318  1.00  0.00     0.222 C 
BRANCH   7   8
ATOM      8  N   UNL     1      -0.545  -3.557   4.111  1.00  0.00    -0.335 N 
ATOM      9  C   UNL     1       0.964   0.108   0.080  1.00  0.00     0.044 C 
ATOM     10  C   UNL     1       0.502  -0.917   1.074  1.00  0.00    -0.050 A 
ATOM     11  C   UNL     1       0.721  -2.271   0.821  1.00  0.00     0.005 A 
ATOM     12  C   UNL     1      -0.109  -0.527   2.276  1.00  0.00     0.014 A 
ATOM     13  C   UNL     1       0.355  -3.251   1.748  1.00  0.00     0.027 A 
ATOM     14  C   UNL     1      -0.475  -1.498   3.236  1.00  0.00     0.008 A 
ATOM     15  C   UNL     1      -0.210  -2.842   2.970  1.00  0.00     0.049 A 
ATOM     16  C   UNL     1      -1.086  -1.437   4.523  1.00  0.00     0.011 A 
ATOM     17  C   UNL     1      -1.168  -2.728   5.024  1.00  0.00     0.024 A 
ATOM     18  C   UNL     1      -1.739  -3.197   6.324  1.00  0.00     0.065 C 
BRANCH  16  19
ATOM     19  C   UNL     1      -1.551  -0.271   5.265  1.00  0.00    -0.005 A 
ATOM     20  C   UNL     1      -2.774   0.285   4.903  1.00  0.00     0.029 A 
ATOM     21  C   UNL     1      -0.811   0.275   6.345  1.00  0.00     0.008 A 
ATOM     22  C   UNL     1      -3.236   1.350   5.643  1.00  0.00     0.112 A 
ATOM     23  C   UNL     1      -1.379   1.361   7.048  1.00  0.00     0.074 A 
ATOM     24  C   UNL     1       0.454  -0.217   6.745  1.00  0.00     0.011 A 
ATOM     25  N   UNL     1      -2.573   1.880   6.693  1.00  0.00    -0.256 NA
ATOM     26  C   UNL     1      -0.672   1.893   8.139  1.00  0.00    -0.025 A 
ATOM     27  C   UNL     1       1.154   0.337   7.809  1.00  0.00     0.001 A 
ATOM     28  C   UNL     1      -1.232   3.021   8.966  1.00  0.00     0.047 C 
ATOM     29  C   UNL     1       0.589   1.389   8.507  1.00  0.00     0.005 A 
ENDBRANCH  16  19
ENDBRANCH   7   8
ENDBRANCH   4   7
ENDBRANCH   2   3
ENDBRANCH   1   2
BRANCH   1  30
ATOM     30  C   UNL     1       4.205  -2.713   5.915  1.00  0.00     0.023 C 
BRANCH  30  31
ATOM     31  C   UNL     1       5.450  -3.559   5.644  1.00  0.00     0.116 C 
BRANCH  31  32
ATOM     32  N   UNL     1       6.100  -3.229   4.391  1.00  0.00    -0.352 N 
ATOM     33  C   UNL     1       7.086  -2.368   4.014  1.00  0.00     0.251 C 
ATOM     34  H   UNL     1       5.745  -3.750   3.635  1.00  0.00     0.163 HD
ATOM     35  O   UNL     1       7.451  -2.451   2.833  1.00  0.00    -0.269 OA
BRANCH  33  36
ATOM     36  C   UNL     1       7.697  -1.323   4.874  1.00  0.00     0.039 A 
ATOM     37  C   UNL     1       7.430  -1.120   6.229  1.00  0.00     0.014 A 
ATOM     38  C   UNL     1       8.575  -0.435   4.221  1.00  0.00     0.014 A 
ATOM     39  C   UNL     1       7.941  -0.009   6.888  1.00  0.00     0.010 A 
ATOM     40  C   UNL     1       9.101   0.667   4.878  1.00  0.00     0.010 A 
ATOM     41  C   UNL     1       8.738   0.905   6.198  1.00  0.00    -0.014 A 
BRANCH  41  42
ATOM     42  C   UNL     1       9.254   2.055   6.931  1.00  0.00     0.031 A 
ATOM     43  C   UNL     1      10.136   1.715   8.084  1.00  0.00     0.074 A 
ATOM     44  C   UNL     1       9.041   3.324   6.525  1.00  0.00     0.049 A 
ATOM     45  N   UNL     1       9.978   2.028   9.329  1.00  0.00    -0.248 NA
ATOM     46  C   UNL     1      11.271   0.809   7.838  1.00  0.00     0.031 C 
ATOM     47  C   UNL     1       8.395   3.782   5.293  1.00  0.00     0.029 A 
ATOM     48  N   UNL     1       9.455   4.488   7.098  1.00  0.00    -0.354 N 
ATOM     49  C   UNL     1      11.087   1.514  10.002  1.00  0.00     0.074 A 
ATOM     50  C   UNL     1      11.771   0.663   9.066  1.00  0.00     0.031 C 
ATOM     51  C   UNL     1       8.670   5.092   5.104  1.00  0.00     0.029 A 
ATOM     52  C   UNL     1       9.402   5.591   6.255  1.00  0.00     0.049 A 
ATOM     53  H   UNL     1       9.766   4.543   8.031  1.00  0.00     0.167 HD
ATOM     54  C   UNL     1      11.469   1.998  11.216  1.00  0.00     0.037 A 
ATOM     55  C   UNL     1       9.972   6.804   6.465  1.00  0.00     0.037 A 
ATOM     56  C   UNL     1      10.392   2.699  11.863  1.00  0.00     0.049 A 
ATOM     57  C   UNL     1      10.260   6.919   7.917  1.00  0.00     0.074 A 
ATOM     58  C   UNL     1       9.134   2.349  12.312  1.00  0.00     0.029 A 
ATOM     59  N   UNL     1      10.406   4.071  11.831  1.00  0.00    -0.354 N 
ATOM     60  N   UNL     1       9.335   7.046   8.826  1.00  0.00    -0.248 NA
ATOM     61  C   UNL     1      11.541   6.420   8.396  1.00  0.00     0.031 C 
ATOM     62  C   UNL     1       8.319   3.488  12.048  1.00  0.00     0.029 A 
ATOM     63  C   UNL     1       9.139   4.479  11.510  1.00  0.00     0.049 A 
ATOM     64  H   UNL     1      11.181   4.652  12.006  1.00  0.00     0.167 HD
ATOM     65  C   UNL     1       9.758   6.240   9.872  1.00  0.00     0.074 A 
ATOM     66  C   UNL     1      11.163   5.952   9.589  1.00  0.00     0.031 C 
ATOM     67  C   UNL     1       8.858   5.645  10.709  1.00  0.00     0.037 A 
BRANCH  54  68
ATOM     68  C   UNL     1      12.907   2.184  11.643  1.00  0.00     0.057 A 
ATOM     69  C   UNL     1      13.993   2.257  10.748  1.00  0.00     0.134 A 
ATOM     70  C   UNL     1      13.177   2.643  12.947  1.00  0.00     0.134 A 
ATOM     71  F   UNL     1      13.894   1.896   9.464  1.00  0.00    -0.206 F 
ATOM     72  C   UNL     1      15.227   2.810  11.100  1.00  0.00     0.040 A 
ATOM     73  C   UNL     1      14.394   3.241  13.296  1.00  0.00     0.040 A 
ATOM     74  F   UNL     1      12.232   2.613  13.899  1.00  0.00    -0.206 F 
ATOM     75  C   UNL     1      15.418   3.344  12.364  1.00  0.00     0.006 A 
ENDBRANCH  54  68
BRANCH  55  76
ATOM     76  C   UNL     1      10.518   7.755   5.469  1.00  0.00     0.057 A 
ATOM     77  C   UNL     1      11.030   7.312   4.236  1.00  0.00     0.134 A 
ATOM     78  C   UNL     1      10.787   9.091   5.798  1.00  0.00     0.134 A 
ATOM     79  F   UNL     1      10.910   6.032   3.854  1.00  0.00    -0.206 F 
ATOM     80  C   UNL     1      11.765   8.142   3.383  1.00  0.00     0.040 A 
ATOM     81  C   UNL     1      11.531   9.932   4.956  1.00  0.00     0.040 A 
ATOM     82  F   UNL     1      10.386   9.599   6.972  1.00  0.00    -0.206 F 
ATOM     83  C   UNL     1      12.029   9.455   3.748  1.00  0.00     0.006 A 
ENDBRANCH  55  76
BRANCH  67  84
ATOM     84  C   UNL     1       7.420   6.065  10.600  1.00  0.00     0.057 A 
ATOM     85  C   UNL     1       6.769   6.554  11.737  1.00  0.00     0.134 A 
ATOM     86  C   UNL     1       6.634   5.871   9.454  1.00  0.00     0.134 A 
ATOM     87  F   UNL     1       7.441   6.703  12.889  1.00  0.00    -0.206 F 
ATOM     88  C   UNL     1       5.406   6.855  11.731  1.00  0.00     0.040 A 
ATOM     89  C   UNL     1       5.277   6.202   9.424  1.00  0.00     0.040 A 
ATOM     90  F   UNL     1       7.142   5.303   8.353  1.00  0.00    -0.206 F 
ATOM     91  C   UNL     1       4.657   6.693  10.568  1.00  0.00     0.006 A 
ENDBRANCH  67  84
ENDBRANCH  41  42
ENDBRANCH  33  36
ENDBRANCH  31  32
ENDBRANCH  30  31
ENDBRANCH   1  30
TORSDOF 13
