REMARK SMILES O=C(NCCCCNC(=O)[C@H]1[C@@H]2CC[C@@H](C2)[C@@H]1C(=O)Nc1ccc([N+](=O)[O-])cc1)c1ccc(-c2c3nc(c(-c4c(F)cccc4F)c4ccc([nH]4)c(-c4c(F)cccc4F)c4nc(c(-c5c(F)cccc5F)c5ccc2[nH]5)C=C4)C=C3)cc1
REMARK SMILES IDX 6 1 5 2 4 3 3 4 1 5 2 6 30 8 31 9 83 10 32 11 82 12 33 13
REMARK SMILES IDX 34 14 35 15 76 16 36 17 81 18 75 19 77 20 37 21 80 22 74 23
REMARK SMILES IDX 73 24 38 26 64 27 47 28 63 29 48 30 51 31 62 32 78 33 49 34
REMARK SMILES IDX 50 35 61 37 79 38 52 39 39 40 40 41 45 42 41 43 42 44 44 45
REMARK SMILES IDX 46 46 43 47 65 48 66 49 71 50 67 51 68 52 70 53 72 54 69 55
REMARK SMILES IDX 53 56 54 57 59 58 55 59 56 60 58 61 60 62 57 63 7 64 8 65
REMARK SMILES IDX 9 66 10 68 11 69 12 70 17 71 13 72 16 73 15 74 14 75 18 76
REMARK SMILES IDX 19 77 20 78 21 80 22 81 29 82 23 83 28 84 24 85 25 86 26 87
REMARK SMILES IDX 27 88
REMARK H PARENT 3 7 77 25 51 36 8 67 20 79
REMARK Flexibility Score: inf
ROOT
ATOM      1  C   UNL     1       3.923   2.317  -3.160  1.00  0.00     0.023 C 
ENDROOT
BRANCH   1   2
ATOM      2  C   UNL     1       4.456   1.031  -2.533  1.00  0.00     0.023 C 
BRANCH   2   3
ATOM      3  C   UNL     1       4.253   0.936  -1.030  1.00  0.00     0.116 C 
BRANCH   3   4
ATOM      4  N   UNL     1       2.850   0.830  -0.661  1.00  0.00    -0.352 N 
ATOM      5  O   UNL     1       1.007  -0.125   0.222  1.00  0.00    -0.269 OA
ATOM      6  C   UNL     1       2.232  -0.092   0.151  1.00  0.00     0.251 C 
ATOM      7  H   UNL     1       2.258   1.515  -1.049  1.00  0.00     0.163 HD
BRANCH   6   8
ATOM      8  C   UNL     1       3.045  -1.057   0.925  1.00  0.00     0.039 A 
ATOM      9  C   UNL     1       4.226  -0.648   1.545  1.00  0.00     0.014 A 
ATOM     10  C   UNL     1       2.618  -2.384   1.040  1.00  0.00     0.014 A 
ATOM     11  C   UNL     1       5.054  -1.589   2.138  1.00  0.00     0.010 A 
ATOM     12  C   UNL     1       3.401  -3.311   1.738  1.00  0.00     0.010 A 
ATOM     13  C   UNL     1       4.638  -2.925   2.273  1.00  0.00    -0.014 A 
BRANCH  13  14
ATOM     14  C   UNL     1       5.490  -3.845   3.067  1.00  0.00     0.031 A 
ATOM     15  C   UNL     1       6.156  -5.040   2.449  1.00  0.00     0.074 A 
ATOM     16  C   UNL     1       5.718  -3.532   4.359  1.00  0.00     0.049 A 
ATOM     17  N   UNL     1       6.991  -5.887   2.997  1.00  0.00    -0.248 NA
ATOM     18  C   UNL     1       5.842  -5.334   1.043  1.00  0.00     0.031 C 
ATOM     19  C   UNL     1       5.100  -2.408   5.071  1.00  0.00     0.029 A 
ATOM     20  N   UNL     1       6.556  -4.090   5.288  1.00  0.00    -0.354 N 
ATOM     21  C   UNL     1       7.293  -6.819   2.013  1.00  0.00     0.074 A 
ATOM     22  C   UNL     1       6.530  -6.450   0.838  1.00  0.00     0.031 C 
ATOM     23  C   UNL     1       5.639  -2.311   6.293  1.00  0.00     0.029 A 
ATOM     24  C   UNL     1       6.584  -3.404   6.478  1.00  0.00     0.049 A 
ATOM     25  H   UNL     1       7.085  -4.902   5.119  1.00  0.00     0.167 HD
ATOM     26  C   UNL     1       8.134  -7.878   2.084  1.00  0.00     0.037 A 
ATOM     27  C   UNL     1       7.287  -3.631   7.602  1.00  0.00     0.037 A 
ATOM     28  C   UNL     1       8.901  -8.229   3.254  1.00  0.00     0.049 A 
ATOM     29  C   UNL     1       8.225  -4.800   7.642  1.00  0.00     0.074 A 
ATOM     30  C   UNL     1       9.782  -9.284   3.426  1.00  0.00     0.029 A 
ATOM     31  N   UNL     1       8.885  -7.526   4.450  1.00  0.00    -0.354 N 
ATOM     32  N   UNL     1       8.497  -5.669   6.700  1.00  0.00    -0.248 NA
ATOM     33  C   UNL     1       8.946  -5.023   8.900  1.00  0.00     0.031 C 
ATOM     34  C   UNL     1      10.275  -9.236   4.734  1.00  0.00     0.029 A 
ATOM     35  C   UNL     1       9.733  -8.129   5.365  1.00  0.00     0.049 A 
ATOM     36  H   UNL     1       8.350  -6.718   4.622  1.00  0.00     0.167 HD
ATOM     37  C   UNL     1       9.416  -6.548   7.252  1.00  0.00     0.074 A 
ATOM     38  C   UNL     1       9.686  -6.080   8.597  1.00  0.00     0.031 C 
ATOM     39  C   UNL     1       9.976  -7.653   6.703  1.00  0.00     0.037 A 
BRANCH  26  40
ATOM     40  C   UNL     1       8.269  -8.745   0.866  1.00  0.00     0.057 A 
ATOM     41  C   UNL     1       8.980  -8.322  -0.264  1.00  0.00     0.134 A 
ATOM     42  C   UNL     1       7.734 -10.040   0.845  1.00  0.00     0.134 A 
ATOM     43  F   UNL     1       9.510  -7.091  -0.312  1.00  0.00    -0.206 F 
ATOM     44  C   UNL     1       9.142  -9.151  -1.377  1.00  0.00     0.040 A 
ATOM     45  C   UNL     1       7.909 -10.886  -0.252  1.00  0.00     0.040 A 
ATOM     46  F   UNL     1       7.048 -10.511   1.898  1.00  0.00    -0.206 F 
ATOM     47  C   UNL     1       8.613 -10.440  -1.369  1.00  0.00     0.006 A 
ENDBRANCH  26  40
BRANCH  27  48
ATOM     48  C   UNL     1       7.113  -2.740   8.775  1.00  0.00     0.057 A 
ATOM     49  C   UNL     1       8.137  -1.888   9.201  1.00  0.00     0.134 A 
ATOM     50  C   UNL     1       5.909  -2.710   9.489  1.00  0.00     0.134 A 
ATOM     51  F   UNL     1       9.319  -1.882   8.567  1.00  0.00    -0.206 F 
ATOM     52  C   UNL     1       7.976  -1.049  10.305  1.00  0.00     0.040 A 
ATOM     53  C   UNL     1       5.723  -1.855  10.575  1.00  0.00     0.040 A 
ATOM     54  F   UNL     1       4.885  -3.495   9.123  1.00  0.00    -0.206 F 
ATOM     55  C   UNL     1       6.763  -1.026  10.991  1.00  0.00     0.006 A 
ENDBRANCH  27  48
BRANCH  39  56
ATOM     56  C   UNL     1      10.929  -8.419   7.568  1.00  0.00     0.057 A 
ATOM     57  C   UNL     1      10.479  -9.195   8.645  1.00  0.00     0.134 A 
ATOM     58  C   UNL     1      12.307  -8.377   7.329  1.00  0.00     0.134 A 
ATOM     59  F   UNL     1       9.171  -9.261   8.936  1.00  0.00    -0.206 F 
ATOM     60  C   UNL     1      11.371  -9.876   9.473  1.00  0.00     0.040 A 
ATOM     61  C   UNL     1      13.207  -9.074   8.135  1.00  0.00     0.040 A 
ATOM     62  F   UNL     1      12.800  -7.656   6.310  1.00  0.00    -0.206 F 
ATOM     63  C   UNL     1      12.740  -9.819   9.217  1.00  0.00     0.006 A 
ENDBRANCH  39  56
ENDBRANCH  13  14
ENDBRANCH   6   8
ENDBRANCH   3   4
ENDBRANCH   2   3
ENDBRANCH   1   2
BRANCH   1  64
ATOM     64  C   UNL     1       4.599   3.603  -2.686  1.00  0.00     0.116 C 
BRANCH  64  65
ATOM     65  N   UNL     1       6.050   3.576  -2.815  1.00  0.00    -0.356 N 
ATOM     66  C   UNL     1       6.891   4.274  -3.630  1.00  0.00     0.224 C 
ATOM     67  H   UNL     1       6.500   2.943  -2.210  1.00  0.00     0.163 HD
ATOM     68  O   UNL     1       8.103   4.103  -3.490  1.00  0.00    -0.275 OA
BRANCH  66  69
ATOM     69  C   UNL     1       6.328   5.161  -4.719  1.00  0.00     0.094 C 
ATOM     70  C   UNL     1       7.193   6.445  -4.923  1.00  0.00     0.002 C 
ATOM     71  C   UNL     1       6.400   4.499  -6.111  1.00  0.00     0.094 C 
ATOM     72  C   UNL     1       6.276   7.518  -5.521  1.00  0.00     0.005 C 
ATOM     73  C   UNL     1       8.069   6.128  -6.143  1.00  0.00     0.009 C 
ATOM     74  C   UNL     1       6.876   5.682  -6.994  1.00  0.00     0.002 C 
ATOM     75  C   UNL     1       5.976   6.940  -6.913  1.00  0.00     0.005 C 
BRANCH  71  76
ATOM     76  C   UNL     1       5.116   3.836  -6.552  1.00  0.00     0.228 C 
ATOM     77  O   UNL     1       4.120   4.505  -6.845  1.00  0.00    -0.274 OA
ATOM     78  N   UNL     1       4.977   2.481  -6.651  1.00  0.00    -0.326 N 
ATOM     79  H   UNL     1       4.167   2.235  -7.154  1.00  0.00     0.169 HD
BRANCH  78  80
ATOM     80  C   UNL     1       5.689   1.341  -6.220  1.00  0.00     0.041 A 
ATOM     81  C   UNL     1       5.096   0.102  -6.525  1.00  0.00     0.033 A 
ATOM     82  C   UNL     1       6.844   1.332  -5.439  1.00  0.00     0.033 A 
ATOM     83  C   UNL     1       5.610  -1.102  -6.024  1.00  0.00     0.088 A 
ATOM     84  C   UNL     1       7.371   0.137  -4.927  1.00  0.00     0.088 A 
ATOM     85  C   UNL     1       6.739  -1.073  -5.205  1.00  0.00     0.269 A 
BRANCH  85  86
ATOM     86  N   UNL     1       7.233  -2.307  -4.590  1.00  0.00     0.062 N 
ATOM     87  O   UNL     1       6.862  -3.382  -5.081  1.00  0.00    -0.258 OA
ATOM     88  O   UNL     1       7.971  -2.197  -3.601  1.00  0.00    -0.258 OA
ENDBRANCH  85  86
ENDBRANCH  78  80
ENDBRANCH  71  76
ENDBRANCH  66  69
ENDBRANCH  64  65
ENDBRANCH   1  64
TORSDOF 14
