REMARK SMILES COc1ccc(-c2cc(C(F)(F)F)n3nc(C(=O)NCCCCNC(=O)c4ccc(-c5c6nc(c(-c7c(F)cccc7F)c7ccc([nH]7)c(-c7c(F)cccc7F)c7nc(c(-c8c(F)cccc8F)c8ccc5[nH]8)C=C7)C=C6)cc4)cc3n2)cc1OC
REMARK SMILES IDX 21 1 20 2 19 3 17 4 18 5 16 7 7 8 8 9 83 10 9 11 82 12 14 13
REMARK SMILES IDX 81 14 15 15 6 16 3 17 4 18 85 19 5 20 84 21 2 22 1 23 86 24
REMARK SMILES IDX 87 25 10 26 11 27 12 28 13 29 22 30 23 31 24 32 25 33 26 35
REMARK SMILES IDX 27 36 28 37 80 38 29 39 79 40 30 41 31 42 32 43 73 44 33 45
REMARK SMILES IDX 78 46 72 47 74 48 34 49 77 50 71 51 70 52 35 54 61 55 44 56
REMARK SMILES IDX 60 57 45 58 48 59 59 60 75 61 46 62 47 63 58 65 76 66 49 67
REMARK SMILES IDX 36 68 37 69 42 70 38 71 39 72 41 73 43 74 40 75 62 76 63 77
REMARK SMILES IDX 68 78 64 79 65 80 67 81 69 82 66 83 50 84 51 85 56 86 52 87
REMARK SMILES IDX 53 88 55 89 57 90 54 91
REMARK H PARENT 19 6 24 34 74 53 48 64
REMARK Flexibility Score: inf
ROOT
ATOM      1  C   UNL     1      -0.102   8.386   8.658  1.00  0.00     0.023 C 
ENDROOT
BRANCH   1   2
ATOM      2  C   UNL     1      -0.406   9.304   7.474  1.00  0.00     0.116 C 
BRANCH   2   3
ATOM      3  N   UNL     1       0.681  10.231   7.252  1.00  0.00    -0.351 N 
ATOM      4  C   UNL     1       1.760  10.194   6.398  1.00  0.00     0.271 C 
ATOM      5  O   UNL     1       2.511  11.171   6.448  1.00  0.00    -0.267 OA
ATOM      6  H   UNL     1       0.642  11.037   7.816  1.00  0.00     0.163 HD
BRANCH   4   7
ATOM      7  C   UNL     1       1.982   9.072   5.459  1.00  0.00     0.152 A 
ATOM      8  C   UNL     1       2.202   5.720   2.572  1.00  0.00     0.075 A 
ATOM      9  C   UNL     1       3.317   6.543   2.001  1.00  0.00     0.062 A 
ATOM     10  N   UNL     1       1.519   6.034   3.633  1.00  0.00    -0.228 NA
ATOM     11  C   UNL     1       3.568   7.716   2.617  1.00  0.00     0.150 A 
ATOM     12  C   UNL     1       1.857   7.207   4.241  1.00  0.00     0.157 A 
ATOM     13  N   UNL     1       2.817   8.078   3.729  1.00  0.00    -0.209 N 
ATOM     14  C   UNL     1       1.416   7.777   5.408  1.00  0.00     0.085 A 
ATOM     15  N   UNL     1       2.864   9.218   4.449  1.00  0.00    -0.161 NA
BRANCH   8  16
ATOM     16  C   UNL     1       1.868   4.484   1.831  1.00  0.00     0.004 A 
ATOM     17  C   UNL     1       1.258   2.209   0.330  1.00  0.00     0.160 A 
ATOM     18  C   UNL     1       0.253   3.134   0.650  1.00  0.00     0.051 A 
ATOM     19  C   UNL     1       2.570   2.409   0.783  1.00  0.00     0.161 A 
ATOM     20  C   UNL     1       0.553   4.264   1.415  1.00  0.00     0.014 A 
ATOM     21  C   UNL     1       2.866   3.554   1.532  1.00  0.00     0.060 A 
BRANCH  17  22
ATOM     22  O   UNL     1       0.968   1.202  -0.551  1.00  0.00    -0.493 OA
ATOM     23  C   UNL     1       0.107   0.209   0.005  1.00  0.00     0.278 C 
ENDBRANCH  17  22
BRANCH  19  24
ATOM     24  O   UNL     1       3.670   1.628   0.553  1.00  0.00    -0.493 OA
ATOM     25  C   UNL     1       3.450   0.261   0.240  1.00  0.00     0.278 C 
ENDBRANCH  19  24
ENDBRANCH   8  16
BRANCH  11  26
ATOM     26  C   UNL     1       4.630   8.659   2.201  1.00  0.00     0.433 C 
ATOM     27  F   UNL     1       4.146   9.859   1.796  1.00  0.00    -0.165 F 
ATOM     28  F   UNL     1       5.546   8.884   3.175  1.00  0.00    -0.165 F 
ATOM     29  F   UNL     1       5.336   8.168   1.141  1.00  0.00    -0.165 F 
ENDBRANCH  11  26
ENDBRANCH   4   7
ENDBRANCH   2   3
ENDBRANCH   1   2
BRANCH   1  30
ATOM     30  C   UNL     1      -0.394   9.024  10.021  1.00  0.00     0.023 C 
BRANCH  30  31
ATOM     31  C   UNL     1      -1.845   9.449  10.233  1.00  0.00     0.116 C 
BRANCH  31  32
ATOM     32  N   UNL     1      -2.796   8.365  10.040  1.00  0.00    -0.352 N 
ATOM     33  C   UNL     1      -4.006   8.167  10.655  1.00  0.00     0.251 C 
ATOM     34  H   UNL     1      -2.536   7.683   9.379  1.00  0.00     0.163 HD
ATOM     35  O   UNL     1      -4.632   7.128  10.463  1.00  0.00    -0.269 OA
BRANCH  33  36
ATOM     36  C   UNL     1      -4.532   9.189  11.582  1.00  0.00     0.039 A 
ATOM     37  C   UNL     1      -5.044   8.773  12.812  1.00  0.00     0.014 A 
ATOM     38  C   UNL     1      -4.505  10.547  11.253  1.00  0.00     0.014 A 
ATOM     39  C   UNL     1      -5.475   9.726  13.735  1.00  0.00     0.010 A 
ATOM     40  C   UNL     1      -4.857  11.499  12.206  1.00  0.00     0.010 A 
ATOM     41  C   UNL     1      -5.351  11.098  13.455  1.00  0.00    -0.014 A 
BRANCH  41  42
ATOM     42  C   UNL     1      -5.726  12.108  14.477  1.00  0.00     0.031 A 
ATOM     43  C   UNL     1      -6.855  13.071  14.230  1.00  0.00     0.074 A 
ATOM     44  C   UNL     1      -5.030  12.165  15.630  1.00  0.00     0.049 A 
ATOM     45  N   UNL     1      -7.354  13.979  15.031  1.00  0.00    -0.248 NA
ATOM     46  C   UNL     1      -7.492  13.028  12.905  1.00  0.00     0.031 C 
ATOM     47  C   UNL     1      -3.869  11.333  15.959  1.00  0.00     0.029 A 
ATOM     48  N   UNL     1      -5.203  12.946  16.744  1.00  0.00    -0.354 N 
ATOM     49  C   UNL     1      -8.361  14.608  14.310  1.00  0.00     0.074 A 
ATOM     50  C   UNL     1      -8.356  14.029  12.985  1.00  0.00     0.031 C 
ATOM     51  C   UNL     1      -3.468  11.613  17.209  1.00  0.00     0.029 A 
ATOM     52  C   UNL     1      -4.318  12.664  17.756  1.00  0.00     0.049 A 
ATOM     53  H   UNL     1      -5.896  13.643  16.811  1.00  0.00     0.167 HD
ATOM     54  C   UNL     1      -9.233  15.559  14.723  1.00  0.00     0.037 A 
ATOM     55  C   UNL     1      -4.213  13.186  18.993  1.00  0.00     0.037 A 
ATOM     56  C   UNL     1      -9.241  16.128  16.047  1.00  0.00     0.049 A 
ATOM     57  C   UNL     1      -5.196  14.238  19.426  1.00  0.00     0.074 A 
ATOM     58  C   UNL     1     -10.109  17.065  16.578  1.00  0.00     0.029 A 
ATOM     59  N   UNL     1      -8.332  15.815  17.046  1.00  0.00    -0.354 N 
ATOM     60  N   UNL     1      -6.197  14.763  18.761  1.00  0.00    -0.248 NA
ATOM     61  C   UNL     1      -5.044  14.757  20.791  1.00  0.00     0.031 C 
ATOM     62  C   UNL     1      -9.697  17.355  17.884  1.00  0.00     0.029 A 
ATOM     63  C   UNL     1      -8.607  16.554  18.186  1.00  0.00     0.049 A 
ATOM     64  H   UNL     1      -7.599  15.163  16.959  1.00  0.00     0.167 HD
ATOM     65  C   UNL     1      -6.810  15.651  19.635  1.00  0.00     0.074 A 
ATOM     66  C   UNL     1      -6.085  15.570  20.886  1.00  0.00     0.031 C 
ATOM     67  C   UNL     1      -7.875  16.464  19.424  1.00  0.00     0.037 A 
BRANCH  54  68
ATOM     68  C   UNL     1     -10.260  16.035  13.735  1.00  0.00     0.057 A 
ATOM     69  C   UNL     1     -11.307  15.209  13.303  1.00  0.00     0.134 A 
ATOM     70  C   UNL     1     -10.228  17.344  13.239  1.00  0.00     0.134 A 
ATOM     71  F   UNL     1     -11.391  13.939  13.728  1.00  0.00    -0.206 F 
ATOM     72  C   UNL     1     -12.269  15.659  12.397  1.00  0.00     0.040 A 
ATOM     73  C   UNL     1     -11.201  17.815  12.356  1.00  0.00     0.040 A 
ATOM     74  F   UNL     1      -9.257  18.191  13.613  1.00  0.00    -0.206 F 
ATOM     75  C   UNL     1     -12.223  16.969  11.928  1.00  0.00     0.006 A 
ENDBRANCH  54  68
BRANCH  55  76
ATOM     76  C   UNL     1      -3.164  12.700  19.926  1.00  0.00     0.057 A 
ATOM     77  C   UNL     1      -3.499  11.985  21.083  1.00  0.00     0.134 A 
ATOM     78  C   UNL     1      -1.808  12.963  19.702  1.00  0.00     0.134 A 
ATOM     79  F   UNL     1      -4.783  11.715  21.362  1.00  0.00    -0.206 F 
ATOM     80  C   UNL     1      -2.528  11.578  21.999  1.00  0.00     0.040 A 
ATOM     81  C   UNL     1      -0.823  12.536  20.595  1.00  0.00     0.040 A 
ATOM     82  F   UNL     1      -1.419  13.633  18.608  1.00  0.00    -0.206 F 
ATOM     83  C   UNL     1      -1.184  11.851  21.754  1.00  0.00     0.006 A 
ENDBRANCH  55  76
BRANCH  67  84
ATOM     84  C   UNL     1      -8.334  17.297  20.587  1.00  0.00     0.057 A 
ATOM     85  C   UNL     1      -7.566  18.354  21.095  1.00  0.00     0.134 A 
ATOM     86  C   UNL     1      -9.559  17.031  21.213  1.00  0.00     0.134 A 
ATOM     87  F   UNL     1      -6.378  18.655  20.548  1.00  0.00    -0.206 F 
ATOM     88  C   UNL     1      -7.976  19.082  22.213  1.00  0.00     0.040 A 
ATOM     89  C   UNL     1      -9.995  17.775  22.310  1.00  0.00     0.040 A 
ATOM     90  F   UNL     1     -10.351  16.043  20.771  1.00  0.00    -0.206 F 
ATOM     91  C   UNL     1      -9.195  18.795  22.822  1.00  0.00     0.006 A 
ENDBRANCH  67  84
ENDBRANCH  41  42
ENDBRANCH  33  36
ENDBRANCH  31  32
ENDBRANCH  30  31
ENDBRANCH   1  30
TORSDOF 15
