REMARK SMILES Cc1cccc(O[C@H](C)C(=O)NNC(=O)[C@H]2[C@@H]3CC[C@@H](C3)[C@@H]2C(=O)NCCCCNC(=O)c2ccc(-c3c4nc(c(-c5c(F)cccc5F)c5ccc([nH]5)c(-c5c(F)cccc5F)c5nc(c(-c6c(F)cccc6F)c6ccc3[nH]6)C=C5)C=C4)cc2)c1
REMARK SMILES IDX 26 1 25 2 23 3 24 4 22 6 16 7 17 8 18 9 21 10 20 11 19 12
REMARK SMILES IDX 14 13 13 14 15 16 12 17 10 18 11 19 8 21 9 22 7 23 6 24 1 25
REMARK SMILES IDX 2 26 3 27 87 28 4 29 5 30 27 31 28 32 29 33 30 34 31 35
REMARK SMILES IDX 32 37 33 38 34 39 86 40 35 41 85 42 36 43 37 44 38 45 79 46
REMARK SMILES IDX 39 47 84 48 78 49 80 50 40 51 83 52 77 53 76 54 41 56 67 57
REMARK SMILES IDX 50 58 66 59 51 60 54 61 65 62 81 63 52 64 53 65 64 67 82 68
REMARK SMILES IDX 55 69 42 70 43 71 48 72 44 73 45 74 47 75 49 76 46 77 68 78
REMARK SMILES IDX 69 79 74 80 70 81 71 82 73 83 75 84 72 85 56 86 57 87 62 88
REMARK SMILES IDX 58 89 59 90 61 91 63 92 60 93
REMARK H PARENT 25 5 13 15 12 20 30 36 80 55 54 66
REMARK Flexibility Score: inf
ROOT
ATOM      1  C   UNL     1       3.476   5.251  -3.064  1.00  0.00     0.116 C 
ENDROOT
BRANCH   1   2
ATOM      2  N   UNL     1       4.556   4.306  -2.813  1.00  0.00    -0.356 N 
ATOM      3  C   UNL     1       4.508   2.942  -2.705  1.00  0.00     0.224 C 
ATOM      4  O   UNL     1       5.541   2.330  -2.446  1.00  0.00    -0.275 OA
ATOM      5  H   UNL     1       5.449   4.706  -2.705  1.00  0.00     0.163 HD
BRANCH   3   6
ATOM      6  C   UNL     1       3.168   2.260  -2.919  1.00  0.00     0.094 C 
ATOM      7  C   UNL     1       3.010   0.893  -2.238  1.00  0.00     0.096 C 
ATOM      8  C   UNL     1       2.441  -0.008  -3.365  1.00  0.00     0.002 C 
ATOM      9  C   UNL     1       3.611  -0.378  -4.298  1.00  0.00     0.005 C 
ATOM     10  C   UNL     1       1.680   0.961  -4.270  1.00  0.00     0.009 C 
ATOM     11  C   UNL     1       2.866   1.921  -4.402  1.00  0.00     0.002 C 
ATOM     12  C   UNL     1       3.925   0.962  -4.989  1.00  0.00     0.005 C 
BRANCH   7  13
ATOM     13  C   UNL     1       2.223   0.821  -0.932  1.00  0.00     0.242 C 
ATOM     14  N   UNL     1       1.125   1.568  -0.619  1.00  0.00    -0.267 N 
ATOM     15  H   UNL     1       0.789   1.455   0.300  1.00  0.00     0.191 HD
ATOM     16  O   UNL     1       2.575  -0.008  -0.082  1.00  0.00    -0.273 OA
BRANCH  14  17
ATOM     17  N   UNL     1       0.422   2.452  -1.396  1.00  0.00    -0.264 N 
ATOM     18  C   UNL     1      -0.441   3.425  -0.996  1.00  0.00     0.279 C 
ATOM     19  O   UNL     1      -0.665   4.305  -1.843  1.00  0.00    -0.269 OA
ATOM     20  H   UNL     1       0.558   2.373  -2.367  1.00  0.00     0.191 HD
BRANCH  18  21
ATOM     21  C   UNL     1      -1.240   3.433   0.338  1.00  0.00     0.260 C 
ATOM     22  C   UNL     1      -2.635   2.828   0.130  1.00  0.00     0.064 C 
BRANCH  21  23
ATOM     23  O   UNL     1      -0.712   3.316   1.640  1.00  0.00    -0.481 OA
BRANCH  23  24
ATOM     24  C   UNL     1      -0.270   2.176   2.222  1.00  0.00     0.120 A 
ATOM     25  C   UNL     1       2.369   1.578   4.915  1.00  0.00     0.044 C 
ATOM     26  C   UNL     1       1.322   1.332   3.871  1.00  0.00    -0.047 A 
ATOM     27  C   UNL     1       0.994   0.026   3.502  1.00  0.00     0.003 A 
ATOM     28  C   UNL     1       0.677   2.397   3.230  1.00  0.00     0.049 A 
ATOM     29  C   UNL     1       0.019  -0.204   2.533  1.00  0.00     0.004 A 
ATOM     30  C   UNL     1      -0.624   0.868   1.906  1.00  0.00     0.046 A 
ENDBRANCH  23  24
ENDBRANCH  21  23
ENDBRANCH  18  21
ENDBRANCH  14  17
ENDBRANCH   7  13
ENDBRANCH   3   6
ENDBRANCH   1   2
BRANCH   1  31
ATOM     31  C   UNL     1       2.914   5.881  -1.781  1.00  0.00     0.023 C 
BRANCH  31  32
ATOM     32  C   UNL     1       3.911   6.698  -0.951  1.00  0.00     0.023 C 
BRANCH  32  33
ATOM     33  C   UNL     1       4.561   7.864  -1.688  1.00  0.00     0.116 C 
BRANCH  33  34
ATOM     34  N   UNL     1       3.783   9.092  -1.739  1.00  0.00    -0.352 N 
ATOM     35  C   UNL     1       4.001  10.252  -2.473  1.00  0.00     0.251 C 
ATOM     36  H   UNL     1       2.981   9.104  -1.168  1.00  0.00     0.163 HD
ATOM     37  O   UNL     1       3.288  11.225  -2.286  1.00  0.00    -0.269 OA
BRANCH  35  38
ATOM     38  C   UNL     1       4.992  10.268  -3.589  1.00  0.00     0.039 A 
ATOM     39  C   UNL     1       4.639  10.948  -4.764  1.00  0.00     0.014 A 
ATOM     40  C   UNL     1       6.125   9.464  -3.581  1.00  0.00     0.014 A 
ATOM     41  C   UNL     1       5.236  10.590  -5.973  1.00  0.00     0.010 A 
ATOM     42  C   UNL     1       6.635   9.020  -4.784  1.00  0.00     0.010 A 
ATOM     43  C   UNL     1       6.134   9.526  -5.986  1.00  0.00    -0.014 A 
BRANCH  43  44
ATOM     44  C   UNL     1       6.469   8.761  -7.183  1.00  0.00     0.031 A 
ATOM     45  C   UNL     1       7.830   8.781  -7.755  1.00  0.00     0.074 A 
ATOM     46  C   UNL     1       5.553   7.896  -7.675  1.00  0.00     0.049 A 
ATOM     47  N   UNL     1       8.112   8.384  -8.950  1.00  0.00    -0.248 NA
ATOM     48  C   UNL     1       8.992   9.275  -7.023  1.00  0.00     0.031 C 
ATOM     49  C   UNL     1       5.773   6.800  -8.616  1.00  0.00     0.029 A 
ATOM     50  N   UNL     1       4.158   7.971  -7.557  1.00  0.00    -0.354 N 
ATOM     51  C   UNL     1       9.479   8.332  -9.064  1.00  0.00     0.074 A 
ATOM     52  C   UNL     1       9.985   8.930  -7.849  1.00  0.00     0.031 C 
ATOM     53  C   UNL     1       4.608   6.496  -9.207  1.00  0.00     0.029 A 
ATOM     54  C   UNL     1       3.638   7.488  -8.780  1.00  0.00     0.049 A 
ATOM     55  H   UNL     1       3.646   8.294  -6.781  1.00  0.00     0.167 HD
ATOM     56  C   UNL     1      10.047   7.699 -10.128  1.00  0.00     0.037 A 
ATOM     57  C   UNL     1       2.937   8.314  -9.612  1.00  0.00     0.037 A 
ATOM     58  C   UNL     1       9.051   7.197 -11.065  1.00  0.00     0.049 A 
ATOM     59  C   UNL     1       3.569   8.529 -10.973  1.00  0.00     0.074 A 
ATOM     60  C   UNL     1       8.426   5.975 -11.251  1.00  0.00     0.029 A 
ATOM     61  N   UNL     1       8.328   8.112 -11.803  1.00  0.00    -0.354 N 
ATOM     62  N   UNL     1       4.727   8.048 -11.333  1.00  0.00    -0.248 NA
ATOM     63  C   UNL     1       2.984   9.393 -12.002  1.00  0.00     0.031 C 
ATOM     64  C   UNL     1       7.287   6.182 -12.079  1.00  0.00     0.029 A 
ATOM     65  C   UNL     1       7.231   7.526 -12.402  1.00  0.00     0.049 A 
ATOM     66  H   UNL     1       8.564   9.064 -11.892  1.00  0.00     0.167 HD
ATOM     67  C   UNL     1       5.079   8.580 -12.543  1.00  0.00     0.074 A 
ATOM     68  C   UNL     1       3.950   9.399 -12.936  1.00  0.00     0.031 C 
ATOM     69  C   UNL     1       6.293   8.366 -13.120  1.00  0.00     0.037 A 
BRANCH  56  70
ATOM     70  C   UNL     1      11.510   7.373 -10.202  1.00  0.00     0.057 A 
ATOM     71  C   UNL     1      11.952   6.162 -10.764  1.00  0.00     0.134 A 
ATOM     72  C   UNL     1      12.527   8.209  -9.714  1.00  0.00     0.134 A 
ATOM     73  F   UNL     1      11.100   5.295 -11.326  1.00  0.00    -0.206 F 
ATOM     74  C   UNL     1      13.297   5.773 -10.760  1.00  0.00     0.040 A 
ATOM     75  C   UNL     1      13.869   7.810  -9.653  1.00  0.00     0.040 A 
ATOM     76  F   UNL     1      12.263   9.458  -9.304  1.00  0.00    -0.206 F 
ATOM     77  C   UNL     1      14.257   6.582 -10.171  1.00  0.00     0.006 A 
ENDBRANCH  56  70
BRANCH  57  78
ATOM     78  C   UNL     1       2.156   9.341  -8.871  1.00  0.00     0.057 A 
ATOM     79  C   UNL     1       1.152   8.914  -7.983  1.00  0.00     0.134 A 
ATOM     80  C   UNL     1       2.619  10.652  -8.730  1.00  0.00     0.134 A 
ATOM     81  F   UNL     1       0.667   7.664  -8.063  1.00  0.00    -0.206 F 
ATOM     82  C   UNL     1       0.720   9.712  -6.923  1.00  0.00     0.040 A 
ATOM     83  C   UNL     1       2.177  11.468  -7.684  1.00  0.00     0.040 A 
ATOM     84  F   UNL     1       3.590  11.124  -9.524  1.00  0.00    -0.206 F 
ATOM     85  C   UNL     1       1.259  10.984  -6.753  1.00  0.00     0.006 A 
ENDBRANCH  57  78
BRANCH  69  86
ATOM     86  C   UNL     1       6.679   8.957 -14.436  1.00  0.00     0.057 A 
ATOM     87  C   UNL     1       5.901   8.770 -15.585  1.00  0.00     0.134 A 
ATOM     88  C   UNL     1       7.912   9.610 -14.615  1.00  0.00     0.134 A 
ATOM     89  F   UNL     1       4.720   8.138 -15.517  1.00  0.00    -0.206 F 
ATOM     90  C   UNL     1       6.324   9.213 -16.842  1.00  0.00     0.040 A 
ATOM     91  C   UNL     1       8.363  10.020 -15.870  1.00  0.00     0.040 A 
ATOM     92  F   UNL     1       8.712   9.885 -13.573  1.00  0.00    -0.206 F 
ATOM     93  C   UNL     1       7.566   9.824 -16.991  1.00  0.00     0.006 A 
ENDBRANCH  69  86
ENDBRANCH  43  44
ENDBRANCH  35  38
ENDBRANCH  33  34
ENDBRANCH  32  33
ENDBRANCH  31  32
ENDBRANCH   1  31
TORSDOF 16
