REMARK SMILES CCc1cc2c(C)cc(=O)oc2cc1O[C@H](C)C(=O)NCCCCNC(=O)c1ccc(-c2c3nc(c(-c4c(F)cccc4F)c4ccc([nH]4)c(-c4c(F)cccc4F)c4nc(c(-c5c(F)cccc5F)c5ccc2[nH]5)C=C4)C=C3)cc1
REMARK SMILES IDX 22 1 21 2 20 3 18 4 19 5 16 7 17 8 15 9 14 10 3 11 4 12 5 13
REMARK SMILES IDX 13 14 6 15 12 16 7 17 8 18 11 19 9 20 10 21 2 22 1 23 23 24
REMARK SMILES IDX 24 25 25 26 26 27 27 29 28 30 29 31 81 32 30 33 80 34 31 35
REMARK SMILES IDX 32 36 33 37 74 38 34 39 79 40 73 41 75 42 35 43 78 44 72 45
REMARK SMILES IDX 71 46 36 48 62 49 45 50 61 51 46 52 49 53 60 54 76 55 47 56
REMARK SMILES IDX 48 57 59 59 77 60 50 61 37 62 38 63 43 64 39 65 40 66 42 67
REMARK SMILES IDX 44 68 41 69 63 70 64 71 69 72 65 73 66 74 68 75 70 76 67 77
REMARK SMILES IDX 51 78 52 79 57 80 53 81 54 82 56 83 58 84 55 85
REMARK H PARENT 20 6 25 28 75 47 49 58
REMARK Flexibility Score: inf
ROOT
ATOM      1  C   UNL     1       0.457   0.451   5.147  1.00  0.00     0.023 C 
ENDROOT
BRANCH   1   2
ATOM      2  C   UNL     1       1.429  -0.656   5.540  1.00  0.00     0.116 C 
BRANCH   2   3
ATOM      3  N   UNL     1       0.713  -1.895   5.772  1.00  0.00    -0.353 N 
ATOM      4  C   UNL     1       1.003  -3.143   5.307  1.00  0.00     0.260 C 
ATOM      5  O   UNL     1       0.216  -4.058   5.563  1.00  0.00    -0.271 OA
ATOM      6  H   UNL     1      -0.088  -1.826   6.340  1.00  0.00     0.163 HD
BRANCH   4   7
ATOM      7  C   UNL     1       2.292  -3.399   4.497  1.00  0.00     0.258 C 
ATOM      8  C   UNL     1       2.053  -2.865   3.074  1.00  0.00     0.064 C 
BRANCH   7   9
ATOM      9  O   UNL     1       3.551  -2.888   4.929  1.00  0.00    -0.480 OA
BRANCH   9  10
ATOM     10  C   UNL     1       3.953  -2.913   6.236  1.00  0.00     0.127 A 
ATOM     11  C   UNL     1       5.201  -2.313   6.507  1.00  0.00    -0.005 A 
ATOM     12  C   UNL     1       5.601  -2.112   7.848  1.00  0.00     0.019 A 
ATOM     13  C   UNL     1       4.793  -2.504   8.919  1.00  0.00     0.021 A 
ATOM     14  C   UNL     1       3.197  -3.397   7.300  1.00  0.00     0.094 A 
ATOM     15  C   UNL     1       5.136  -2.285  10.330  1.00  0.00    -0.033 A 
ATOM     16  C   UNL     1       3.596  -3.138   8.613  1.00  0.00     0.142 A 
ATOM     17  C   UNL     1       6.498  -1.787  10.708  1.00  0.00     0.045 C 
ATOM     18  C   UNL     1       4.204  -2.555  11.256  1.00  0.00     0.098 A 
ATOM     19  O   UNL     1       2.671  -3.487   9.618  1.00  0.00    -0.423 OA
ATOM     20  C   UNL     1       2.874  -3.091  10.928  1.00  0.00     0.336 A 
ATOM     21  O   UNL     1       2.012  -3.201  11.791  1.00  0.00    -0.246 OA
BRANCH  11  22
ATOM     22  C   UNL     1       6.125  -1.850   5.396  1.00  0.00     0.036 C 
ATOM     23  C   UNL     1       7.515  -2.476   5.478  1.00  0.00     0.009 C 
ENDBRANCH  11  22
ENDBRANCH   9  10
ENDBRANCH   7   9
ENDBRANCH   4   7
ENDBRANCH   2   3
ENDBRANCH   1   2
BRANCH   1  24
ATOM     24  C   UNL     1      -0.490   0.876   6.271  1.00  0.00     0.023 C 
BRANCH  24  25
ATOM     25  C   UNL     1       0.208   1.397   7.522  1.00  0.00     0.116 C 
BRANCH  25  26
ATOM     26  N   UNL     1       1.005   2.585   7.253  1.00  0.00    -0.352 N 
ATOM     27  C   UNL     1       0.953   3.813   7.862  1.00  0.00     0.251 C 
ATOM     28  H   UNL     1       1.673   2.495   6.536  1.00  0.00     0.163 HD
ATOM     29  O   UNL     1       1.560   4.769   7.387  1.00  0.00    -0.269 OA
BRANCH  27  30
ATOM     30  C   UNL     1       0.139   3.983   9.082  1.00  0.00     0.039 A 
ATOM     31  C   UNL     1      -0.720   5.079   9.178  1.00  0.00     0.014 A 
ATOM     32  C   UNL     1       0.208   3.045  10.116  1.00  0.00     0.014 A 
ATOM     33  C   UNL     1      -1.560   5.199  10.286  1.00  0.00     0.010 A 
ATOM     34  C   UNL     1      -0.687   3.122  11.177  1.00  0.00     0.010 A 
ATOM     35  C   UNL     1      -1.577   4.202  11.276  1.00  0.00    -0.014 A 
BRANCH  35  36
ATOM     36  C   UNL     1      -2.519   4.271  12.421  1.00  0.00     0.031 A 
ATOM     37  C   UNL     1      -1.994   4.381  13.825  1.00  0.00     0.074 A 
ATOM     38  C   UNL     1      -3.845   4.173  12.200  1.00  0.00     0.049 A 
ATOM     39  N   UNL     1      -2.654   4.398  14.956  1.00  0.00    -0.248 NA
ATOM     40  C   UNL     1      -0.533   4.457  13.983  1.00  0.00     0.031 C 
ATOM     41  C   UNL     1      -4.476   4.013  10.889  1.00  0.00     0.029 A 
ATOM     42  N   UNL     1      -4.901   4.183  13.077  1.00  0.00    -0.354 N 
ATOM     43  C   UNL     1      -1.691   4.474  15.954  1.00  0.00     0.074 A 
ATOM     44  C   UNL     1      -0.401   4.440  15.301  1.00  0.00     0.031 C 
ATOM     45  C   UNL     1      -5.808   3.967  11.045  1.00  0.00     0.029 A 
ATOM     46  C   UNL     1      -6.124   4.050  12.467  1.00  0.00     0.049 A 
ATOM     47  H   UNL     1      -4.791   4.278  14.051  1.00  0.00     0.167 HD
ATOM     48  C   UNL     1      -1.865   4.586  17.292  1.00  0.00     0.037 A 
ATOM     49  C   UNL     1      -7.361   3.991  12.995  1.00  0.00     0.037 A 
ATOM     50  C   UNL     1      -3.151   4.633  17.937  1.00  0.00     0.049 A 
ATOM     51  C   UNL     1      -7.527   4.096  14.487  1.00  0.00     0.074 A 
ATOM     52  C   UNL     1      -3.435   4.801  19.281  1.00  0.00     0.029 A 
ATOM     53  N   UNL     1      -4.368   4.502  17.285  1.00  0.00    -0.354 N 
ATOM     54  N   UNL     1      -6.612   4.244  15.413  1.00  0.00    -0.248 NA
ATOM     55  C   UNL     1      -8.901   4.033  15.006  1.00  0.00     0.031 C 
ATOM     56  C   UNL     1      -4.821   4.718  19.449  1.00  0.00     0.029 A 
ATOM     57  C   UNL     1      -5.405   4.559  18.202  1.00  0.00     0.049 A 
ATOM     58  H   UNL     1      -4.479   4.386  16.313  1.00  0.00     0.167 HD
ATOM     59  C   UNL     1      -7.298   4.322  16.619  1.00  0.00     0.074 A 
ATOM     60  C   UNL     1      -8.707   4.221  16.303  1.00  0.00     0.031 C 
ATOM     61  C   UNL     1      -6.805   4.465  17.873  1.00  0.00     0.037 A 
BRANCH  48  62
ATOM     62  C   UNL     1      -0.633   4.664  18.148  1.00  0.00     0.057 A 
ATOM     63  C   UNL     1       0.214   5.781  18.126  1.00  0.00     0.134 A 
ATOM     64  C   UNL     1      -0.306   3.625  19.029  1.00  0.00     0.134 A 
ATOM     65  F   UNL     1      -0.034   6.807  17.297  1.00  0.00    -0.206 F 
ATOM     66  C   UNL     1       1.355   5.848  18.927  1.00  0.00     0.040 A 
ATOM     67  C   UNL     1       0.816   3.695  19.856  1.00  0.00     0.040 A 
ATOM     68  F   UNL     1      -1.076   2.530  19.107  1.00  0.00    -0.206 F 
ATOM     69  C   UNL     1       1.655   4.806  19.801  1.00  0.00     0.006 A 
ENDBRANCH  48  62
BRANCH  49  70
ATOM     70  C   UNL     1      -8.544   3.842  12.109  1.00  0.00     0.057 A 
ATOM     71  C   UNL     1      -9.468   4.882  11.955  1.00  0.00     0.134 A 
ATOM     72  C   UNL     1      -8.788   2.655  11.407  1.00  0.00     0.134 A 
ATOM     73  F   UNL     1      -9.300   6.037  12.615  1.00  0.00    -0.206 F 
ATOM     74  C   UNL     1     -10.603   4.741  11.154  1.00  0.00     0.040 A 
ATOM     75  C   UNL     1      -9.903   2.510  10.580  1.00  0.00     0.040 A 
ATOM     76  F   UNL     1      -7.938   1.623  11.505  1.00  0.00    -0.206 F 
ATOM     77  C   UNL     1     -10.820   3.553  10.460  1.00  0.00     0.006 A 
ENDBRANCH  49  70
BRANCH  61  78
ATOM     78  C   UNL     1      -7.797   4.564  18.996  1.00  0.00     0.057 A 
ATOM     79  C   UNL     1      -8.554   3.464  19.419  1.00  0.00     0.134 A 
ATOM     80  C   UNL     1      -7.968   5.770  19.689  1.00  0.00     0.134 A 
ATOM     81  F   UNL     1      -8.448   2.283  18.791  1.00  0.00    -0.206 F 
ATOM     82  C   UNL     1      -9.464   3.567  20.473  1.00  0.00     0.040 A 
ATOM     83  C   UNL     1      -8.851   5.877  20.764  1.00  0.00     0.040 A 
ATOM     84  F   UNL     1      -7.267   6.861  19.343  1.00  0.00    -0.206 F 
ATOM     85  C   UNL     1      -9.608   4.774  21.154  1.00  0.00     0.006 A 
ENDBRANCH  61  78
ENDBRANCH  35  36
ENDBRANCH  27  30
ENDBRANCH  25  26
ENDBRANCH  24  25
ENDBRANCH   1  24
TORSDOF 14
