REMARK SMILES CC(C)[C@@](C)(CC(=O)N[C@H]1CCCC1(C)C)C(=O)NCCCCNC(=O)c1ccc(-c2c3nc(c(-c4c(F)cccc4F)c4ccc([nH]4)c(-c4c(F)cccc4F)c4nc(c(-c5c(F)cccc5F)c5ccc2[nH]5)C=C4)C=C3)cc1
REMARK SMILES IDX 21 1 20 2 19 3 17 4 18 5 4 7 5 8 2 9 1 10 3 11 6 12 7 13
REMARK SMILES IDX 8 14 9 15 10 17 11 18 14 19 12 20 13 21 15 22 16 23 22 24
REMARK SMILES IDX 23 25 24 26 25 27 26 29 27 30 28 31 80 32 29 33 79 34 30 35
REMARK SMILES IDX 31 36 32 37 73 38 33 39 78 40 72 41 74 42 34 43 77 44 71 45
REMARK SMILES IDX 70 46 35 48 61 49 44 50 60 51 45 52 48 53 59 54 75 55 46 56
REMARK SMILES IDX 47 57 58 59 76 60 49 61 36 62 37 63 42 64 38 65 39 66 41 67
REMARK SMILES IDX 43 68 40 69 62 70 63 71 68 72 64 73 65 74 67 75 69 76 66 77
REMARK SMILES IDX 50 78 51 79 56 80 52 81 53 82 55 83 57 84 54 85
REMARK H PARENT 19 6 9 16 24 28 74 47 48 58
REMARK Flexibility Score: inf
ROOT
ATOM      1  C   UNL     1      -4.898  -0.613   2.587  1.00  0.00     0.023 C 
ENDROOT
BRANCH   1   2
ATOM      2  C   UNL     1      -4.157  -0.624   1.253  1.00  0.00     0.116 C 
BRANCH   2   3
ATOM      3  N   UNL     1      -3.240   0.490   1.140  1.00  0.00    -0.356 N 
ATOM      4  C   UNL     1      -1.914   0.623   0.922  1.00  0.00     0.226 C 
ATOM      5  O   UNL     1      -1.553   1.799   0.800  1.00  0.00    -0.274 OA
ATOM      6  H   UNL     1      -3.692   1.359   1.246  1.00  0.00     0.163 HD
BRANCH   4   7
ATOM      7  C   UNL     1      -0.930  -0.554   0.730  1.00  0.00     0.057 C 
ATOM      8  C   UNL     1      -1.381  -1.341  -0.532  1.00  0.00     0.022 C 
BRANCH   7   9
ATOM      9  C   UNL     1       0.541  -0.006   0.460  1.00  0.00    -0.002 C 
ATOM     10  C   UNL     1       0.785   0.560  -0.951  1.00  0.00     0.008 C 
ATOM     11  C   UNL     1       1.066   1.033   1.467  1.00  0.00     0.008 C 
ENDBRANCH   7   9
BRANCH   7  12
ATOM     12  C   UNL     1      -0.943  -1.588   1.896  1.00  0.00     0.116 C 
BRANCH  12  13
ATOM     13  C   UNL     1      -0.572  -1.141   3.297  1.00  0.00     0.221 C 
ATOM     14  O   UNL     1      -1.371  -0.523   3.999  1.00  0.00    -0.275 OA
ATOM     15  N   UNL     1       0.637  -1.510   3.825  1.00  0.00    -0.353 N 
ATOM     16  H   UNL     1       0.714  -1.449   4.804  1.00  0.00     0.163 HD
BRANCH  15  17
ATOM     17  C   UNL     1       1.826  -1.981   3.123  1.00  0.00     0.087 C 
ATOM     18  C   UNL     1       2.994  -1.010   3.362  1.00  0.00     0.025 C 
ATOM     19  C   UNL     1       2.357  -3.367   3.546  1.00  0.00    -0.015 C 
ATOM     20  C   UNL     1       3.992  -1.723   4.268  1.00  0.00     0.003 C 
ATOM     21  C   UNL     1       3.329  -3.028   4.685  1.00  0.00     0.008 C 
ATOM     22  C   UNL     1       1.277  -4.349   4.006  1.00  0.00     0.013 C 
ATOM     23  C   UNL     1       3.109  -3.997   2.351  1.00  0.00     0.013 C 
ENDBRANCH  15  17
ENDBRANCH  12  13
ENDBRANCH   7  12
ENDBRANCH   4   7
ENDBRANCH   2   3
ENDBRANCH   1   2
BRANCH   1  24
ATOM     24  C   UNL     1      -5.671   0.673   2.893  1.00  0.00     0.023 C 
BRANCH  24  25
ATOM     25  C   UNL     1      -6.567   1.190   1.773  1.00  0.00     0.116 C 
BRANCH  25  26
ATOM     26  N   UNL     1      -7.550   0.214   1.329  1.00  0.00    -0.352 N 
ATOM     27  C   UNL     1      -8.888   0.386   1.079  1.00  0.00     0.251 C 
ATOM     28  H   UNL     1      -7.207  -0.699   1.190  1.00  0.00     0.163 HD
ATOM     29  O   UNL     1      -9.597  -0.579   0.806  1.00  0.00    -0.269 OA
BRANCH  27  30
ATOM     30  C   UNL     1      -9.483   1.734   1.180  1.00  0.00     0.039 A 
ATOM     31  C   UNL     1     -10.645   1.897   1.937  1.00  0.00     0.014 A 
ATOM     32  C   UNL     1      -8.884   2.834   0.558  1.00  0.00     0.014 A 
ATOM     33  C   UNL     1     -11.168   3.176   2.132  1.00  0.00     0.010 A 
ATOM     34  C   UNL     1      -9.367   4.115   0.810  1.00  0.00     0.010 A 
ATOM     35  C   UNL     1     -10.511   4.299   1.603  1.00  0.00    -0.014 A 
BRANCH  35  36
ATOM     36  C   UNL     1     -10.999   5.672   1.886  1.00  0.00     0.031 A 
ATOM     37  C   UNL     1     -11.507   6.542   0.770  1.00  0.00     0.074 A 
ATOM     38  C   UNL     1     -10.930   6.156   3.142  1.00  0.00     0.049 A 
ATOM     39  N   UNL     1     -11.929   7.780   0.815  1.00  0.00    -0.248 NA
ATOM     40  C   UNL     1     -11.521   5.951  -0.577  1.00  0.00     0.031 C 
ATOM     41  C   UNL     1     -10.406   5.429   4.301  1.00  0.00     0.029 A 
ATOM     42  N   UNL     1     -11.293   7.377   3.652  1.00  0.00    -0.354 N 
ATOM     43  C   UNL     1     -12.246   8.119  -0.494  1.00  0.00     0.074 A 
ATOM     44  C   UNL     1     -11.919   6.975  -1.317  1.00  0.00     0.031 C 
ATOM     45  C   UNL     1     -10.505   6.209   5.389  1.00  0.00     0.029 A 
ATOM     46  C   UNL     1     -11.063   7.500   5.001  1.00  0.00     0.049 A 
ATOM     47  H   UNL     1     -11.681   8.096   3.104  1.00  0.00     0.167 HD
ATOM     48  C   UNL     1     -12.783   9.270  -0.964  1.00  0.00     0.037 A 
ATOM     49  C   UNL     1     -11.275   8.539   5.831  1.00  0.00     0.037 A 
ATOM     50  C   UNL     1     -13.128  10.398  -0.140  1.00  0.00     0.049 A 
ATOM     51  C   UNL     1     -11.870   9.806   5.283  1.00  0.00     0.074 A 
ATOM     52  C   UNL     1     -13.731  11.587  -0.513  1.00  0.00     0.029 A 
ATOM     53  N   UNL     1     -12.896  10.479   1.225  1.00  0.00    -0.354 N 
ATOM     54  N   UNL     1     -12.233  10.086   4.054  1.00  0.00    -0.248 NA
ATOM     55  C   UNL     1     -12.091  10.901   6.238  1.00  0.00     0.031 C 
ATOM     56  C   UNL     1     -13.828  12.403   0.619  1.00  0.00     0.029 A 
ATOM     57  C   UNL     1     -13.327  11.705   1.706  1.00  0.00     0.049 A 
ATOM     58  H   UNL     1     -12.487   9.770   1.772  1.00  0.00     0.167 HD
ATOM     59  C   UNL     1     -12.749  11.374   4.094  1.00  0.00     0.074 A 
ATOM     60  C   UNL     1     -12.668  11.816   5.471  1.00  0.00     0.031 C 
ATOM     61  C   UNL     1     -13.245  12.126   3.081  1.00  0.00     0.037 A 
BRANCH  48  62
ATOM     62  C   UNL     1     -13.039   9.362  -2.440  1.00  0.00     0.057 A 
ATOM     63  C   UNL     1     -14.056   8.624  -3.059  1.00  0.00     0.134 A 
ATOM     64  C   UNL     1     -12.287  10.227  -3.245  1.00  0.00     0.134 A 
ATOM     65  F   UNL     1     -14.806   7.769  -2.347  1.00  0.00    -0.206 F 
ATOM     66  C   UNL     1     -14.301   8.724  -4.430  1.00  0.00     0.040 A 
ATOM     67  C   UNL     1     -12.540  10.355  -4.612  1.00  0.00     0.040 A 
ATOM     68  F   UNL     1     -11.302  10.967  -2.716  1.00  0.00    -0.206 F 
ATOM     69  C   UNL     1     -13.546   9.598  -5.209  1.00  0.00     0.006 A 
ENDBRANCH  48  62
BRANCH  49  70
ATOM     70  C   UNL     1     -10.944   8.422   7.273  1.00  0.00     0.057 A 
ATOM     71  C   UNL     1     -11.951   8.374   8.244  1.00  0.00     0.134 A 
ATOM     72  C   UNL     1      -9.617   8.370   7.718  1.00  0.00     0.134 A 
ATOM     73  F   UNL     1     -13.241   8.439   7.881  1.00  0.00    -0.206 F 
ATOM     74  C   UNL     1     -11.653   8.302   9.605  1.00  0.00     0.040 A 
ATOM     75  C   UNL     1      -9.305   8.272   9.075  1.00  0.00     0.040 A 
ATOM     76  F   UNL     1      -8.606   8.405   6.838  1.00  0.00    -0.206 F 
ATOM     77  C   UNL     1     -10.325   8.246  10.023  1.00  0.00     0.006 A 
ENDBRANCH  49  70
BRANCH  61  78
ATOM     78  C   UNL     1     -13.767  13.488   3.431  1.00  0.00     0.057 A 
ATOM     79  C   UNL     1     -12.911  14.544   3.768  1.00  0.00     0.134 A 
ATOM     80  C   UNL     1     -15.142  13.754   3.399  1.00  0.00     0.134 A 
ATOM     81  F   UNL     1     -11.585  14.351   3.830  1.00  0.00    -0.206 F 
ATOM     82  C   UNL     1     -13.406  15.810   4.084  1.00  0.00     0.040 A 
ATOM     83  C   UNL     1     -15.647  15.022   3.687  1.00  0.00     0.040 A 
ATOM     84  F   UNL     1     -16.016  12.788   3.075  1.00  0.00    -0.206 F 
ATOM     85  C   UNL     1     -14.778  16.053   4.037  1.00  0.00     0.006 A 
ENDBRANCH  61  78
ENDBRANCH  35  36
ENDBRANCH  27  30
ENDBRANCH  25  26
ENDBRANCH  24  25
ENDBRANCH   1  24
TORSDOF 15
