REMARK SMILES C#Cc1ccc2c(c1)C=C(C(=O)NCCCCNC(=O)c1ccc(-c3c4nc(c(-c5c(F)cccc5F)c5ccc([nH]5)c(-c5c(F)cccc5F)c5nc(c(-c6c(F)cccc6F)c6ccc3[nH]6)C=C5)C=C4)cc1)[C@@H](C(F)(F)F)O2
REMARK SMILES IDX 16 1 15 2 14 3 13 4 11 5 12 6 10 8 3 9 4 10 8 11 5 12 7 13
REMARK SMILES IDX 6 14 9 15 80 16 75 17 2 18 1 19 76 20 77 21 78 22 79 23
REMARK SMILES IDX 17 24 18 25 19 26 20 28 21 29 22 30 74 31 23 32 73 33 24 34
REMARK SMILES IDX 25 35 26 36 67 37 27 38 72 39 66 40 68 41 28 42 71 43 65 44
REMARK SMILES IDX 64 45 29 47 55 48 38 49 54 50 39 51 42 52 53 53 69 54 40 55
REMARK SMILES IDX 41 56 52 58 70 59 43 60 30 61 31 62 36 63 32 64 33 65 35 66
REMARK SMILES IDX 37 67 34 68 56 69 57 70 62 71 58 72 59 73 61 74 63 75 60 76
REMARK SMILES IDX 44 77 45 78 50 79 46 80 47 81 49 82 51 83 48 84
REMARK H PARENT 13 7 18 27 68 46 42 57
REMARK Flexibility Score: inf
ROOT
ATOM      1  C   UNL     1     -10.958   3.514   1.558  1.00  0.00     0.023 C 
ENDROOT
BRANCH   1   2
ATOM      2  C   UNL     1      -9.898   2.433   1.405  1.00  0.00     0.023 C 
BRANCH   2   3
ATOM      3  C   UNL     1      -9.149   2.517   0.082  1.00  0.00     0.116 C 
BRANCH   3   4
ATOM      4  N   UNL     1      -8.058   3.477   0.126  1.00  0.00    -0.352 N 
ATOM      5  C   UNL     1      -6.705   3.438   0.044  1.00  0.00     0.251 C 
ATOM      6  O   UNL     1      -6.136   4.532   0.079  1.00  0.00    -0.270 OA
ATOM      7  H   UNL     1      -8.388   4.396   0.248  1.00  0.00     0.163 HD
BRANCH   5   8
ATOM      8  C   UNL     1      -5.900   2.185  -0.076  1.00  0.00     0.067 C 
ATOM      9  C   UNL     1      -1.593  -0.012  -0.086  1.00  0.00     0.025 A 
ATOM     10  C   UNL     1      -2.229  -1.256  -0.088  1.00  0.00     0.021 A 
ATOM     11  C   UNL     1      -2.345   1.169  -0.064  1.00  0.00     0.029 A 
ATOM     12  C   UNL     1      -3.617  -1.322  -0.071  1.00  0.00     0.048 A 
ATOM     13  C   UNL     1      -3.742   1.105  -0.047  1.00  0.00     0.018 A 
ATOM     14  C   UNL     1      -4.361  -0.146  -0.060  1.00  0.00     0.128 A 
ATOM     15  C   UNL     1      -4.565   2.308   0.038  1.00  0.00     0.025 C 
ATOM     16  O   UNL     1      -5.710  -0.313  -0.017  1.00  0.00    -0.475 OA
ATOM     17  C   UNL     1      -6.518   0.842  -0.333  1.00  0.00     0.314 C 
BRANCH   9  18
ATOM     18  C   UNL     1      -0.165   0.036  -0.093  1.00  0.00    -0.070 C 
ATOM     19  C   UNL     1       1.037   0.038  -0.094  1.00  0.00     0.010 C 
ENDBRANCH   9  18
BRANCH  17  20
ATOM     20  C   UNL     1      -7.046   0.707  -1.775  1.00  0.00     0.429 C 
ATOM     21  F   UNL     1      -7.963  -0.291  -1.848  1.00  0.00    -0.167 F 
ATOM     22  F   UNL     1      -7.670   1.825  -2.216  1.00  0.00    -0.167 F 
ATOM     23  F   UNL     1      -6.068   0.429  -2.665  1.00  0.00    -0.167 F 
ENDBRANCH  17  20
ENDBRANCH   5   8
ENDBRANCH   3   4
ENDBRANCH   2   3
ENDBRANCH   1   2
BRANCH   1  24
ATOM     24  C   UNL     1     -11.961   3.576   0.416  1.00  0.00     0.116 C 
BRANCH  24  25
ATOM     25  N   UNL     1     -12.672   2.322   0.178  1.00  0.00    -0.352 N 
ATOM     26  C   UNL     1     -14.020   2.151  -0.058  1.00  0.00     0.251 C 
ATOM     27  H   UNL     1     -12.125   1.504   0.187  1.00  0.00     0.163 HD
ATOM     28  O   UNL     1     -14.519   1.037  -0.136  1.00  0.00    -0.269 OA
BRANCH  26  29
ATOM     29  C   UNL     1     -14.852   3.365  -0.159  1.00  0.00     0.039 A 
ATOM     30  C   UNL     1     -14.425   4.408  -0.981  1.00  0.00     0.014 A 
ATOM     31  C   UNL     1     -15.936   3.527   0.703  1.00  0.00     0.014 A 
ATOM     32  C   UNL     1     -14.927   5.680  -0.762  1.00  0.00     0.010 A 
ATOM     33  C   UNL     1     -16.532   4.785   0.817  1.00  0.00     0.010 A 
ATOM     34  C   UNL     1     -15.989   5.887   0.137  1.00  0.00    -0.014 A 
BRANCH  34  35
ATOM     35  C   UNL     1     -16.501   7.268   0.338  1.00  0.00     0.031 A 
ATOM     36  C   UNL     1     -16.467   7.929   1.691  1.00  0.00     0.074 A 
ATOM     37  C   UNL     1     -16.945   7.953  -0.733  1.00  0.00     0.049 A 
ATOM     38  N   UNL     1     -16.866   9.130   2.033  1.00  0.00    -0.248 NA
ATOM     39  C   UNL     1     -15.921   7.143   2.809  1.00  0.00     0.031 C 
ATOM     40  C   UNL     1     -17.009   7.432  -2.102  1.00  0.00     0.029 A 
ATOM     41  N   UNL     1     -17.401   9.240  -0.849  1.00  0.00    -0.354 N 
ATOM     42  C   UNL     1     -16.636   9.237   3.400  1.00  0.00     0.074 A 
ATOM     43  C   UNL     1     -16.102   7.964   3.834  1.00  0.00     0.031 C 
ATOM     44  C   UNL     1     -17.417   8.405  -2.926  1.00  0.00     0.029 A 
ATOM     45  C   UNL     1     -17.734   9.587  -2.135  1.00  0.00     0.049 A 
ATOM     46  H   UNL     1     -17.482   9.855  -0.085  1.00  0.00     0.167 HD
ATOM     47  C   UNL     1     -16.841  10.301   4.215  1.00  0.00     0.037 A 
ATOM     48  C   UNL     1     -18.270  10.719  -2.624  1.00  0.00     0.037 A 
ATOM     49  C   UNL     1     -17.380  11.565   3.778  1.00  0.00     0.049 A 
ATOM     50  C   UNL     1     -18.576  11.844  -1.680  1.00  0.00     0.074 A 
ATOM     51  C   UNL     1     -17.617  12.707   4.524  1.00  0.00     0.029 A 
ATOM     52  N   UNL     1     -17.779  11.850   2.480  1.00  0.00    -0.354 N 
ATOM     53  N   UNL     1     -18.338  11.936  -0.394  1.00  0.00    -0.248 NA
ATOM     54  C   UNL     1     -19.233  13.022  -2.258  1.00  0.00     0.031 C 
ATOM     55  C   UNL     1     -18.225  13.656   3.694  1.00  0.00     0.029 A 
ATOM     56  C   UNL     1     -18.294  13.136   2.412  1.00  0.00     0.049 A 
ATOM     57  H   UNL     1     -17.707  11.230   1.718  1.00  0.00     0.167 HD
ATOM     58  C   UNL     1     -18.791  13.192  -0.015  1.00  0.00     0.074 A 
ATOM     59  C   UNL     1     -19.292  13.834  -1.213  1.00  0.00     0.031 C 
ATOM     60  C   UNL     1     -18.794  13.764   1.215  1.00  0.00     0.037 A 
BRANCH  47  61
ATOM     61  C   UNL     1     -16.515  10.131   5.675  1.00  0.00     0.057 A 
ATOM     62  C   UNL     1     -17.532  10.146   6.640  1.00  0.00     0.134 A 
ATOM     63  C   UNL     1     -15.200   9.975   6.133  1.00  0.00     0.134 A 
ATOM     64  F   UNL     1     -18.814  10.307   6.278  1.00  0.00    -0.206 F 
ATOM     65  C   UNL     1     -17.253  10.004   8.001  1.00  0.00     0.040 A 
ATOM     66  C   UNL     1     -14.912   9.797   7.488  1.00  0.00     0.040 A 
ATOM     67  F   UNL     1     -14.176   9.947   5.265  1.00  0.00    -0.206 F 
ATOM     68  C   UNL     1     -15.941   9.816   8.427  1.00  0.00     0.006 A 
ENDBRANCH  47  61
BRANCH  48  69
ATOM     69  C   UNL     1     -18.584  10.832  -4.071  1.00  0.00     0.057 A 
ATOM     70  C   UNL     1     -19.568  10.034  -4.669  1.00  0.00     0.134 A 
ATOM     71  C   UNL     1     -17.932  11.768  -4.882  1.00  0.00     0.134 A 
ATOM     72  F   UNL     1     -20.222   9.109  -3.951  1.00  0.00    -0.206 F 
ATOM     73  C   UNL     1     -19.892  10.162  -6.019  1.00  0.00     0.040 A 
ATOM     74  C   UNL     1     -18.273  11.932  -6.225  1.00  0.00     0.040 A 
ATOM     75  F   UNL     1     -16.990  12.569  -4.365  1.00  0.00    -0.206 F 
ATOM     76  C   UNL     1     -19.254  11.125  -6.798  1.00  0.00     0.006 A 
ENDBRANCH  48  69
BRANCH  60  77
ATOM     77  C   UNL     1     -19.316  15.170   1.311  1.00  0.00     0.057 A 
ATOM     78  C   UNL     1     -18.450  16.230   1.610  1.00  0.00     0.134 A 
ATOM     79  C   UNL     1     -20.668  15.480   1.110  1.00  0.00     0.134 A 
ATOM     80  F   UNL     1     -17.145  16.005   1.825  1.00  0.00    -0.206 F 
ATOM     81  C   UNL     1     -18.907  17.545   1.702  1.00  0.00     0.040 A 
ATOM     82  C   UNL     1     -21.130  16.796   1.161  1.00  0.00     0.040 A 
ATOM     83  F   UNL     1     -21.549  14.515   0.806  1.00  0.00    -0.206 F 
ATOM     84  C   UNL     1     -20.249  17.833   1.463  1.00  0.00     0.006 A 
ENDBRANCH  60  77
ENDBRANCH  34  35
ENDBRANCH  26  29
ENDBRANCH  24  25
ENDBRANCH   1  24
TORSDOF 13
