REMARK SMILES Cc1nccn1C1(C(=O)NCCCCNC(=O)c2ccc(-c3c4nc(c(-c5c(F)cccc5F)c5ccc([nH]5)c(-c5c(F)cccc5F)c5nc(c(-c6c(F)cccc6F)c6ccc3[nH]6)C=C5)C=C4)cc2)CCN(C(=O)[C@@H]2C[C@H]2c2ccccc2)CC1
REMARK SMILES IDX 12 1 11 2 10 3 8 4 9 5 7 7 72 8 87 9 73 10 86 11 74 12 75 13
REMARK SMILES IDX 76 14 6 15 1 16 2 17 3 18 4 19 5 20 77 21 78 22 79 23 80 24
REMARK SMILES IDX 81 25 85 26 82 27 84 28 83 29 13 30 14 31 15 32 16 33 17 35
REMARK SMILES IDX 18 36 19 37 71 38 20 39 70 40 21 41 22 42 23 43 64 44 24 45
REMARK SMILES IDX 69 46 63 47 65 48 25 49 68 50 62 51 61 52 26 54 52 55 35 56
REMARK SMILES IDX 51 57 36 58 39 59 50 60 66 61 37 62 38 63 49 65 67 66 40 67
REMARK SMILES IDX 27 68 28 69 33 70 29 71 30 72 32 73 34 74 31 75 53 76 54 77
REMARK SMILES IDX 59 78 55 79 56 80 58 81 60 82 57 83 41 84 42 85 47 86 43 87
REMARK SMILES IDX 44 88 46 89 48 90 45 91
REMARK H PARENT 10 6 15 34 65 53 39 64
REMARK Flexibility Score: inf
ROOT
ATOM      1  C   UNL     1       1.998   6.202  -1.368  1.00  0.00     0.023 C 
ENDROOT
BRANCH   1   2
ATOM      2  C   UNL     1       0.695   5.398  -1.268  1.00  0.00     0.116 C 
BRANCH   2   3
ATOM      3  N   UNL     1       0.379   4.690  -2.506  1.00  0.00    -0.354 N 
ATOM      4  C   UNL     1       0.418   3.369  -2.887  1.00  0.00     0.246 C 
ATOM      5  O   UNL     1       0.251   3.210  -4.099  1.00  0.00    -0.272 OA
ATOM      6  H   UNL     1       0.070   5.289  -3.224  1.00  0.00     0.163 HD
BRANCH   4   7
ATOM      7  C   UNL     1       0.656   2.183  -1.860  1.00  0.00     0.127 C 
ATOM      8  C   UNL     1       2.088   2.400  -1.321  1.00  0.00     0.061 C 
ATOM      9  C   UNL     1      -0.486   2.314  -0.844  1.00  0.00     0.061 C 
ATOM     10  C   UNL     1       2.303   2.389   0.191  1.00  0.00     0.122 C 
ATOM     11  C   UNL     1      -0.122   1.903   0.552  1.00  0.00     0.122 C 
ATOM     12  N   UNL     1       1.118   2.475   1.039  1.00  0.00    -0.342 N 
ATOM     13  C   UNL     1       1.361   2.771   2.391  1.00  0.00     0.226 C 
ATOM     14  O   UNL     1       2.502   2.948   2.812  1.00  0.00    -0.275 OA
BRANCH   7  15
ATOM     15  N   UNL     1       0.520   0.804  -2.468  1.00  0.00    -0.320 N 
ATOM     16  C   UNL     1       1.685  -0.797  -0.753  1.00  0.00     0.087 C 
ATOM     17  C   UNL     1       0.933  -0.445  -1.984  1.00  0.00     0.106 A 
ATOM     18  N   UNL     1       0.546  -1.416  -2.790  1.00  0.00    -0.242 NA
ATOM     19  C   UNL     1      -0.183  -0.841  -3.773  1.00  0.00     0.131 A 
ATOM     20  C   UNL     1      -0.259   0.509  -3.572  1.00  0.00     0.108 A 
ENDBRANCH   7  15
BRANCH  13  21
ATOM     21  C   UNL     1       0.248   3.032   3.346  1.00  0.00     0.087 C 
ATOM     22  C   UNL     1      -0.060   2.066   4.464  1.00  0.00     0.023 C 
ATOM     23  C   UNL     1      -1.097   2.333   3.421  1.00  0.00     0.032 C 
BRANCH  23  24
ATOM     24  C   UNL     1      -2.329   3.202   3.580  1.00  0.00    -0.044 A 
ATOM     25  C   UNL     1      -3.452   2.717   4.264  1.00  0.00     0.004 A 
ATOM     26  C   UNL     1      -2.466   4.443   2.923  1.00  0.00     0.004 A 
ATOM     27  C   UNL     1      -4.671   3.402   4.244  1.00  0.00     0.000 A 
ATOM     28  C   UNL     1      -3.679   5.139   2.909  1.00  0.00     0.000 A 
ATOM     29  C   UNL     1      -4.789   4.605   3.553  1.00  0.00     0.000 A 
ENDBRANCH  23  24
ENDBRANCH  13  21
ENDBRANCH   4   7
ENDBRANCH   2   3
ENDBRANCH   1   2
BRANCH   1  30
ATOM     30  C   UNL     1       2.018   7.341  -2.396  1.00  0.00     0.023 C 
BRANCH  30  31
ATOM     31  C   UNL     1       1.037   8.468  -2.111  1.00  0.00     0.116 C 
BRANCH  31  32
ATOM     32  N   UNL     1       1.315   9.168  -0.858  1.00  0.00    -0.352 N 
ATOM     33  C   UNL     1       0.636  10.248  -0.331  1.00  0.00     0.251 C 
ATOM     34  H   UNL     1       2.073   8.830  -0.329  1.00  0.00     0.163 HD
ATOM     35  O   UNL     1       1.148  10.968   0.522  1.00  0.00    -0.269 OA
BRANCH  33  36
ATOM     36  C   UNL     1      -0.726  10.525  -0.812  1.00  0.00     0.039 A 
ATOM     37  C   UNL     1      -1.134  11.823  -1.133  1.00  0.00     0.014 A 
ATOM     38  C   UNL     1      -1.585   9.441  -0.981  1.00  0.00     0.014 A 
ATOM     39  C   UNL     1      -2.386  12.008  -1.713  1.00  0.00     0.010 A 
ATOM     40  C   UNL     1      -2.757   9.607  -1.674  1.00  0.00     0.010 A 
ATOM     41  C   UNL     1      -3.183  10.890  -2.006  1.00  0.00    -0.014 A 
BRANCH  41  42
ATOM     42  C   UNL     1      -4.407  11.031  -2.789  1.00  0.00     0.031 A 
ATOM     43  C   UNL     1      -4.226  11.691  -4.114  1.00  0.00     0.074 A 
ATOM     44  C   UNL     1      -5.557  10.404  -2.458  1.00  0.00     0.049 A 
ATOM     45  N   UNL     1      -4.751  12.800  -4.518  1.00  0.00    -0.248 NA
ATOM     46  C   UNL     1      -3.253  11.118  -5.060  1.00  0.00     0.031 C 
ATOM     47  C   UNL     1      -5.800   9.479  -1.344  1.00  0.00     0.029 A 
ATOM     48  N   UNL     1      -6.742  10.374  -3.127  1.00  0.00    -0.354 N 
ATOM     49  C   UNL     1      -4.340  12.966  -5.839  1.00  0.00     0.074 A 
ATOM     50  C   UNL     1      -3.294  12.003  -6.059  1.00  0.00     0.031 C 
ATOM     51  C   UNL     1      -6.953   8.806  -1.555  1.00  0.00     0.029 A 
ATOM     52  C   UNL     1      -7.610   9.366  -2.721  1.00  0.00     0.049 A 
ATOM     53  H   UNL     1      -6.966  11.014  -3.841  1.00  0.00     0.167 HD
ATOM     54  C   UNL     1      -5.062  13.727  -6.708  1.00  0.00     0.037 A 
ATOM     55  C   UNL     1      -8.776   9.004  -3.314  1.00  0.00     0.037 A 
ATOM     56  C   UNL     1      -5.984  14.583  -6.002  1.00  0.00     0.049 A 
ATOM     57  C   UNL     1      -9.206  10.134  -4.171  1.00  0.00     0.074 A 
ATOM     58  C   UNL     1      -5.852  15.575  -5.049  1.00  0.00     0.029 A 
ATOM     59  N   UNL     1      -7.304  14.206  -5.963  1.00  0.00    -0.354 N 
ATOM     60  N   UNL     1      -9.617  11.278  -3.702  1.00  0.00    -0.248 NA
ATOM     61  C   UNL     1      -8.731  10.158  -5.546  1.00  0.00     0.031 C 
ATOM     62  C   UNL     1      -6.950  15.376  -4.160  1.00  0.00     0.029 A 
ATOM     63  C   UNL     1      -7.727  14.334  -4.665  1.00  0.00     0.049 A 
ATOM     64  H   UNL     1      -7.846  13.901  -6.726  1.00  0.00     0.167 HD
ATOM     65  C   UNL     1      -9.032  12.224  -4.529  1.00  0.00     0.074 A 
ATOM     66  C   UNL     1      -8.578  11.476  -5.701  1.00  0.00     0.031 C 
ATOM     67  C   UNL     1      -8.705  13.463  -4.056  1.00  0.00     0.037 A 
BRANCH  54  68
ATOM     68  C   UNL     1      -5.223  13.430  -8.181  1.00  0.00     0.057 A 
ATOM     69  C   UNL     1      -5.914  14.350  -8.994  1.00  0.00     0.134 A 
ATOM     70  C   UNL     1      -5.008  12.165  -8.766  1.00  0.00     0.134 A 
ATOM     71  F   UNL     1      -6.188  15.588  -8.554  1.00  0.00    -0.206 F 
ATOM     72  C   UNL     1      -6.432  14.006 -10.249  1.00  0.00     0.040 A 
ATOM     73  C   UNL     1      -5.476  11.828 -10.039  1.00  0.00     0.040 A 
ATOM     74  F   UNL     1      -4.429  11.157  -8.105  1.00  0.00    -0.206 F 
ATOM     75  C   UNL     1      -6.223  12.736 -10.771  1.00  0.00     0.006 A 
ENDBRANCH  54  68
BRANCH  55  76
ATOM     76  C   UNL     1      -9.413   7.670  -3.395  1.00  0.00     0.057 A 
ATOM     77  C   UNL     1     -10.757   7.528  -3.770  1.00  0.00     0.134 A 
ATOM     78  C   UNL     1      -8.648   6.491  -3.386  1.00  0.00     0.134 A 
ATOM     79  F   UNL     1     -11.561   8.599  -3.843  1.00  0.00    -0.206 F 
ATOM     80  C   UNL     1     -11.300   6.292  -4.145  1.00  0.00     0.040 A 
ATOM     81  C   UNL     1      -9.179   5.250  -3.753  1.00  0.00     0.040 A 
ATOM     82  F   UNL     1      -7.336   6.519  -3.107  1.00  0.00    -0.206 F 
ATOM     83  C   UNL     1     -10.506   5.149  -4.151  1.00  0.00     0.006 A 
ENDBRANCH  55  76
BRANCH  67  84
ATOM     84  C   UNL     1      -9.222  13.853  -2.697  1.00  0.00     0.057 A 
ATOM     85  C   UNL     1      -8.910  13.180  -1.504  1.00  0.00     0.134 A 
ATOM     86  C   UNL     1      -9.974  15.025  -2.575  1.00  0.00     0.134 A 
ATOM     87  F   UNL     1      -8.105  12.111  -1.498  1.00  0.00    -0.206 F 
ATOM     88  C   UNL     1      -9.377  13.618  -0.261  1.00  0.00     0.040 A 
ATOM     89  C   UNL     1     -10.416  15.495  -1.336  1.00  0.00     0.040 A 
ATOM     90  F   UNL     1     -10.262  15.759  -3.662  1.00  0.00    -0.206 F 
ATOM     91  C   UNL     1     -10.132  14.782  -0.175  1.00  0.00     0.006 A 
ENDBRANCH  67  84
ENDBRANCH  41  42
ENDBRANCH  33  36
ENDBRANCH  31  32
ENDBRANCH  30  31
ENDBRANCH   1  30
TORSDOF 14
