REMARK SMILES C[C@@H](S[C@H]1CC(=O)N(c2ccc3ccccc3c2)C1=O)C(=O)NCCCCNC(=O)c1ccc(-c2c3nc(c(-c4c(F)cccc4F)c4ccc([nH]4)c(-c4c(F)cccc4F)c4nc(c(-c5c(F)cccc5F)c5ccc2[nH]5)C=C4)C=C3)cc1
REMARK SMILES IDX 25 1 24 2 23 3 21 4 22 5 2 7 1 8 3 9 4 10 5 11 19 12 6 13
REMARK SMILES IDX 8 14 20 15 7 16 9 17 10 18 18 19 11 20 17 21 12 22 16 23
REMARK SMILES IDX 13 24 15 25 14 26 26 27 27 28 28 29 29 30 30 32 31 33 32 34
REMARK SMILES IDX 84 35 33 36 83 37 34 38 35 39 36 40 77 41 37 42 82 43 76 44
REMARK SMILES IDX 78 45 38 46 81 47 75 48 74 49 39 51 65 52 48 53 64 54 49 55
REMARK SMILES IDX 52 56 63 57 79 58 50 59 51 60 62 62 80 63 53 64 40 65 41 66
REMARK SMILES IDX 46 67 42 68 43 69 45 70 47 71 44 72 66 73 67 74 72 75 68 76
REMARK SMILES IDX 69 77 71 78 73 79 70 80 54 81 55 82 60 83 56 84 57 85 59 86
REMARK SMILES IDX 61 87 58 88
REMARK H PARENT 23 6 28 31 78 50 52 61
REMARK Flexibility Score: inf
ROOT
ATOM      1  C   UNL     1       4.263  -1.502  -0.045  1.00  0.00     0.023 C 
ENDROOT
BRANCH   1   2
ATOM      2  C   UNL     1       3.823  -0.298   0.763  1.00  0.00     0.116 C 
BRANCH   2   3
ATOM      3  N   UNL     1       4.153  -0.335   2.161  1.00  0.00    -0.355 N 
ATOM      4  C   UNL     1       4.365   0.753   2.964  1.00  0.00     0.232 C 
ATOM      5  O   UNL     1       4.439   0.556   4.181  1.00  0.00    -0.274 OA
ATOM      6  H   UNL     1       4.235  -1.223   2.579  1.00  0.00     0.163 HD
BRANCH   4   7
ATOM      7  C   UNL     1       4.597   2.169   2.371  1.00  0.00     0.133 C 
ATOM      8  C   UNL     1       5.941   2.279   1.672  1.00  0.00     0.030 C 
BRANCH   7   9
ATOM      9  S   UNL     1       3.044   2.864   1.621  1.00  0.00    -0.135 SA
BRANCH   9  10
ATOM     10  C   UNL     1       3.330   3.421  -0.118  1.00  0.00     0.147 C 
ATOM     11  C   UNL     1       4.427   4.397  -0.435  1.00  0.00     0.125 C 
ATOM     12  C   UNL     1       3.505   2.316  -1.127  1.00  0.00     0.247 C 
ATOM     13  C   UNL     1       5.295   3.667  -1.426  1.00  0.00     0.235 C 
ATOM     14  N   UNL     1       4.733   2.454  -1.747  1.00  0.00    -0.250 N 
ATOM     15  O   UNL     1       2.664   1.451  -1.281  1.00  0.00    -0.273 OA
ATOM     16  O   UNL     1       6.317   4.174  -1.871  1.00  0.00    -0.274 OA
BRANCH  14  17
ATOM     17  C   UNL     1       5.380   1.428  -2.528  1.00  0.00     0.052 A 
ATOM     18  C   UNL     1       6.773   1.381  -2.644  1.00  0.00     0.027 A 
ATOM     19  C   UNL     1       4.682   0.347  -3.086  1.00  0.00     0.035 A 
ATOM     20  C   UNL     1       7.433   0.252  -3.165  1.00  0.00     0.011 A 
ATOM     21  C   UNL     1       5.324  -0.830  -3.557  1.00  0.00    -0.016 A 
ATOM     22  C   UNL     1       6.724  -0.885  -3.573  1.00  0.00    -0.018 A 
ATOM     23  C   UNL     1       4.612  -1.983  -3.938  1.00  0.00     0.009 A 
ATOM     24  C   UNL     1       7.369  -2.079  -3.959  1.00  0.00     0.009 A 
ATOM     25  C   UNL     1       5.252  -3.175  -4.282  1.00  0.00     0.001 A 
ATOM     26  C   UNL     1       6.637  -3.222  -4.293  1.00  0.00     0.001 A 
ENDBRANCH  14  17
ENDBRANCH   9  10
ENDBRANCH   7   9
ENDBRANCH   4   7
ENDBRANCH   2   3
ENDBRANCH   1   2
BRANCH   1  27
ATOM     27  C   UNL     1       3.167  -2.404  -0.612  1.00  0.00     0.023 C 
BRANCH  27  28
ATOM     28  C   UNL     1       1.788  -1.839  -0.975  1.00  0.00     0.116 C 
BRANCH  28  29
ATOM     29  N   UNL     1       1.708  -0.834  -2.035  1.00  0.00    -0.352 N 
ATOM     30  C   UNL     1       1.241  -0.850  -3.334  1.00  0.00     0.251 C 
ATOM     31  H   UNL     1       2.064   0.043  -1.763  1.00  0.00     0.163 HD
ATOM     32  O   UNL     1       1.301   0.141  -4.055  1.00  0.00    -0.269 OA
BRANCH  30  33
ATOM     33  C   UNL     1       0.729  -2.105  -3.894  1.00  0.00     0.039 A 
ATOM     34  C   UNL     1       1.196  -2.588  -5.125  1.00  0.00     0.014 A 
ATOM     35  C   UNL     1      -0.158  -2.840  -3.125  1.00  0.00     0.014 A 
ATOM     36  C   UNL     1       0.871  -3.886  -5.514  1.00  0.00     0.010 A 
ATOM     37  C   UNL     1      -0.366  -4.162  -3.440  1.00  0.00     0.010 A 
ATOM     38  C   UNL     1       0.126  -4.691  -4.644  1.00  0.00    -0.014 A 
BRANCH  38  39
ATOM     39  C   UNL     1      -0.280  -6.074  -4.953  1.00  0.00     0.031 A 
ATOM     40  C   UNL     1      -1.753  -6.363  -5.000  1.00  0.00     0.074 A 
ATOM     41  C   UNL     1       0.634  -7.059  -4.984  1.00  0.00     0.049 A 
ATOM     42  N   UNL     1      -2.377  -7.507  -4.927  1.00  0.00    -0.248 NA
ATOM     43  C   UNL     1      -2.645  -5.188  -5.048  1.00  0.00     0.031 C 
ATOM     44  C   UNL     1       2.085  -6.883  -4.892  1.00  0.00     0.029 A 
ATOM     45  N   UNL     1       0.465  -8.416  -5.054  1.00  0.00    -0.354 N 
ATOM     46  C   UNL     1      -3.726  -7.184  -4.877  1.00  0.00     0.074 A 
ATOM     47  C   UNL     1      -3.827  -5.744  -4.840  1.00  0.00     0.031 C 
ATOM     48  C   UNL     1       2.674  -8.090  -4.910  1.00  0.00     0.029 A 
ATOM     49  C   UNL     1       1.641  -9.120  -4.968  1.00  0.00     0.049 A 
ATOM     50  H   UNL     1      -0.415  -8.846  -5.155  1.00  0.00     0.167 HD
ATOM     51  C   UNL     1      -4.788  -8.019  -4.894  1.00  0.00     0.037 A 
ATOM     52  C   UNL     1       1.847 -10.449  -4.922  1.00  0.00     0.037 A 
ATOM     53  C   UNL     1      -4.661  -9.447  -4.975  1.00  0.00     0.049 A 
ATOM     54  C   UNL     1       0.651 -11.363  -4.966  1.00  0.00     0.074 A 
ATOM     55  C   UNL     1      -5.657 -10.399  -5.076  1.00  0.00     0.029 A 
ATOM     56  N   UNL     1      -3.450 -10.126  -4.972  1.00  0.00    -0.354 N 
ATOM     57  N   UNL     1      -0.625 -11.056  -4.986  1.00  0.00    -0.248 NA
ATOM     58  C   UNL     1       0.922 -12.806  -4.991  1.00  0.00     0.031 C 
ATOM     59  C   UNL     1      -5.049 -11.658  -5.093  1.00  0.00     0.029 A 
ATOM     60  C   UNL     1      -3.673 -11.487  -5.058  1.00  0.00     0.049 A 
ATOM     61  H   UNL     1      -2.563  -9.700  -4.917  1.00  0.00     0.167 HD
ATOM     62  C   UNL     1      -1.308 -12.263  -5.062  1.00  0.00     0.074 A 
ATOM     63  C   UNL     1      -0.301 -13.306  -5.096  1.00  0.00     0.031 C 
ATOM     64  C   UNL     1      -2.643 -12.495  -5.103  1.00  0.00     0.037 A 
BRANCH  51  65
ATOM     65  C   UNL     1      -6.155  -7.401  -4.848  1.00  0.00     0.057 A 
ATOM     66  C   UNL     1      -6.646  -6.614  -5.900  1.00  0.00     0.134 A 
ATOM     67  C   UNL     1      -6.992  -7.592  -3.743  1.00  0.00     0.134 A 
ATOM     68  F   UNL     1      -5.889  -6.372  -6.981  1.00  0.00    -0.206 F 
ATOM     69  C   UNL     1      -7.904  -6.011  -5.838  1.00  0.00     0.040 A 
ATOM     70  C   UNL     1      -8.266  -7.024  -3.685  1.00  0.00     0.040 A 
ATOM     71  F   UNL     1      -6.587  -8.332  -2.699  1.00  0.00    -0.206 F 
ATOM     72  C   UNL     1      -8.721  -6.223  -4.731  1.00  0.00     0.006 A 
ENDBRANCH  51  65
BRANCH  52  73
ATOM     73  C   UNL     1       3.228 -10.991  -4.870  1.00  0.00     0.057 A 
ATOM     74  C   UNL     1       3.777 -11.658  -5.972  1.00  0.00     0.134 A 
ATOM     75  C   UNL     1       4.034 -10.858  -3.733  1.00  0.00     0.134 A 
ATOM     76  F   UNL     1       3.050 -11.829  -7.086  1.00  0.00    -0.206 F 
ATOM     77  C   UNL     1       5.065 -12.195  -5.939  1.00  0.00     0.040 A 
ATOM     78  C   UNL     1       5.334 -11.367  -3.695  1.00  0.00     0.040 A 
ATOM     79  F   UNL     1       3.575 -10.217  -2.648  1.00  0.00    -0.206 F 
ATOM     80  C   UNL     1       5.850 -12.045  -4.798  1.00  0.00     0.006 A 
ENDBRANCH  52  73
BRANCH  64  81
ATOM     81  C   UNL     1      -3.086 -13.922  -5.238  1.00  0.00     0.057 A 
ATOM     82  C   UNL     1      -2.975 -14.835  -4.183  1.00  0.00     0.134 A 
ATOM     83  C   UNL     1      -3.680 -14.369  -6.425  1.00  0.00     0.134 A 
ATOM     84  F   UNL     1      -2.407 -14.471  -3.024  1.00  0.00    -0.206 F 
ATOM     85  C   UNL     1      -3.417 -16.152  -4.313  1.00  0.00     0.040 A 
ATOM     86  C   UNL     1      -4.154 -15.673  -6.556  1.00  0.00     0.040 A 
ATOM     87  F   UNL     1      -3.827 -13.538  -7.469  1.00  0.00    -0.206 F 
ATOM     88  C   UNL     1      -4.017 -16.571  -5.500  1.00  0.00     0.006 A 
ENDBRANCH  64  81
ENDBRANCH  38  39
ENDBRANCH  30  33
ENDBRANCH  28  29
ENDBRANCH  27  28
ENDBRANCH   1  27
TORSDOF 14
