REMARK SMILES CCCc1cc(OC(F)(F)F)cc2c1O[C@H](C(F)(F)F)C(C(=O)NCCCCNC(=O)c1ccc(-c3c4nc(c(-c5c(F)cccc5F)c5ccc([nH]5)c(-c5c(F)cccc5F)c5nc(c(-c6c(F)cccc6F)c6ccc3[nH]6)C=C5)C=C4)cc1)=C2
REMARK SMILES IDX 26 1 25 2 24 3 22 4 23 5 21 7 4 8 5 9 14 10 6 11 13 12 15 13
REMARK SMILES IDX 12 14 86 15 16 16 3 17 2 18 1 19 7 20 8 21 9 22 10 23 11 24
REMARK SMILES IDX 17 25 18 26 19 27 20 28 27 29 28 30 29 31 30 32 31 34 32 35
REMARK SMILES IDX 33 36 85 37 34 38 84 39 35 40 36 41 37 42 78 43 38 44 83 45
REMARK SMILES IDX 77 46 79 47 39 48 82 49 76 50 75 51 40 53 66 54 49 55 65 56
REMARK SMILES IDX 50 57 53 58 64 59 80 60 51 61 52 62 63 64 81 65 54 66 41 67
REMARK SMILES IDX 42 68 47 69 43 70 44 71 46 72 48 73 45 74 67 75 68 76 73 77
REMARK SMILES IDX 69 78 70 79 72 80 74 81 71 82 55 83 56 84 61 85 57 86 58 87
REMARK SMILES IDX 60 88 62 89 59 90
REMARK H PARENT 24 6 29 33 79 52 53 63
REMARK Flexibility Score: inf
ROOT
ATOM      1  C   UNL     1      -2.104  -1.275   9.166  1.00  0.00     0.023 C 
ENDROOT
BRANCH   1   2
ATOM      2  C   UNL     1      -0.969  -2.266   8.893  1.00  0.00     0.116 C 
BRANCH   2   3
ATOM      3  N   UNL     1      -1.489  -3.475   8.287  1.00  0.00    -0.352 N 
ATOM      4  C   UNL     1      -1.688  -3.841   6.994  1.00  0.00     0.251 C 
ATOM      5  O   UNL     1      -2.152  -4.960   6.787  1.00  0.00    -0.270 OA
ATOM      6  H   UNL     1      -1.749  -4.166   8.939  1.00  0.00     0.163 HD
BRANCH   4   7
ATOM      7  C   UNL     1      -1.270  -3.002   5.835  1.00  0.00     0.067 C 
ATOM      8  C   UNL     1       0.696  -1.208   2.575  1.00  0.00    -0.002 A 
ATOM      9  C   UNL     1       1.006   0.162   2.671  1.00  0.00     0.054 A 
ATOM     10  C   UNL     1      -0.024  -1.808   3.621  1.00  0.00     0.131 A 
ATOM     11  C   UNL     1       0.531   0.944   3.722  1.00  0.00     0.130 A 
ATOM     12  C   UNL     1      -0.469  -1.037   4.698  1.00  0.00     0.021 A 
ATOM     13  O   UNL     1      -0.181  -3.166   3.595  1.00  0.00    -0.475 OA
ATOM     14  C   UNL     1      -0.205   0.337   4.735  1.00  0.00     0.058 A 
ATOM     15  C   UNL     1      -1.081  -1.677   5.853  1.00  0.00     0.025 C 
ATOM     16  C   UNL     1      -1.126  -3.763   4.527  1.00  0.00     0.314 C 
BRANCH   8  17
ATOM     17  C   UNL     1       1.176  -1.990   1.370  1.00  0.00     0.039 C 
BRANCH  17  18
ATOM     18  C   UNL     1       0.482  -1.623   0.049  1.00  0.00     0.001 C 
ATOM     19  C   UNL     1       0.869  -0.264  -0.523  1.00  0.00     0.004 C 
ENDBRANCH  17  18
ENDBRANCH   8  17
BRANCH  11  20
ATOM     20  O   UNL     1       0.749   2.280   3.892  1.00  0.00    -0.406 OA
BRANCH  20  21
ATOM     21  C   UNL     1       1.171   3.017   2.755  1.00  0.00     0.573 C 
ATOM     22  F   UNL     1       2.436   2.692   2.412  1.00  0.00    -0.132 F 
ATOM     23  F   UNL     1       0.351   2.809   1.703  1.00  0.00    -0.132 F 
ATOM     24  F   UNL     1       1.143   4.333   3.058  1.00  0.00    -0.132 F 
ENDBRANCH  20  21
ENDBRANCH  11  20
BRANCH  16  25
ATOM     25  C   UNL     1      -2.489  -3.964   3.830  1.00  0.00     0.429 C 
ATOM     26  F   UNL     1      -3.258  -2.848   3.882  1.00  0.00    -0.167 F 
ATOM     27  F   UNL     1      -2.329  -4.267   2.516  1.00  0.00    -0.167 F 
ATOM     28  F   UNL     1      -3.210  -4.972   4.366  1.00  0.00    -0.167 F 
ENDBRANCH  16  25
ENDBRANCH   4   7
ENDBRANCH   2   3
ENDBRANCH   1   2
BRANCH   1  29
ATOM     29  C   UNL     1      -2.861  -1.543  10.468  1.00  0.00     0.023 C 
BRANCH  29  30
ATOM     30  C   UNL     1      -2.014  -1.418  11.727  1.00  0.00     0.116 C 
BRANCH  30  31
ATOM     31  N   UNL     1      -1.382  -0.116  11.865  1.00  0.00    -0.352 N 
ATOM     32  C   UNL     1      -1.057   0.561  13.015  1.00  0.00     0.251 C 
ATOM     33  H   UNL     1      -1.156   0.341  11.022  1.00  0.00     0.163 HD
ATOM     34  O   UNL     1      -0.636   1.707  12.959  1.00  0.00    -0.269 OA
BRANCH  32  35
ATOM     35  C   UNL     1      -1.258  -0.098  14.322  1.00  0.00     0.039 A 
ATOM     36  C   UNL     1      -1.873   0.624  15.347  1.00  0.00     0.014 A 
ATOM     37  C   UNL     1      -0.854  -1.419  14.533  1.00  0.00     0.014 A 
ATOM     38  C   UNL     1      -2.118   0.004  16.571  1.00  0.00     0.010 A 
ATOM     39  C   UNL     1      -1.179  -2.061  15.722  1.00  0.00     0.010 A 
ATOM     40  C   UNL     1      -1.795  -1.350  16.761  1.00  0.00    -0.014 A 
BRANCH  40  41
ATOM     41  C   UNL     1      -2.070  -2.020  18.056  1.00  0.00     0.031 A 
ATOM     42  C   UNL     1      -0.933  -2.537  18.895  1.00  0.00     0.074 A 
ATOM     43  C   UNL     1      -3.342  -2.184  18.463  1.00  0.00     0.049 A 
ATOM     44  N   UNL     1      -0.970  -3.135  20.058  1.00  0.00    -0.248 NA
ATOM     45  C   UNL     1       0.423  -2.389  18.342  1.00  0.00     0.031 C 
ATOM     46  C   UNL     1      -4.532  -1.780  17.710  1.00  0.00     0.029 A 
ATOM     47  N   UNL     1      -3.849  -2.731  19.614  1.00  0.00    -0.354 N 
ATOM     48  C   UNL     1       0.349  -3.437  20.370  1.00  0.00     0.074 A 
ATOM     49  C   UNL     1       1.156  -3.023  19.244  1.00  0.00     0.031 C 
ATOM     50  C   UNL     1      -5.626  -2.056  18.436  1.00  0.00     0.029 A 
ATOM     51  C   UNL     1      -5.220  -2.685  19.689  1.00  0.00     0.049 A 
ATOM     52  H   UNL     1      -3.283  -3.119  20.321  1.00  0.00     0.167 HD
ATOM     53  C   UNL     1       0.849  -3.981  21.505  1.00  0.00     0.037 A 
ATOM     54  C   UNL     1      -6.052  -3.097  20.663  1.00  0.00     0.037 A 
ATOM     55  C   UNL     1       0.044  -4.375  22.631  1.00  0.00     0.049 A 
ATOM     56  C   UNL     1      -5.472  -3.695  21.915  1.00  0.00     0.074 A 
ATOM     57  C   UNL     1       0.455  -4.886  23.849  1.00  0.00     0.029 A 
ATOM     58  N   UNL     1      -1.341  -4.304  22.674  1.00  0.00    -0.354 N 
ATOM     59  N   UNL     1      -4.216  -3.902  22.230  1.00  0.00    -0.248 NA
ATOM     60  C   UNL     1      -6.428  -4.104  22.953  1.00  0.00     0.031 C 
ATOM     61  C   UNL     1      -0.683  -5.171  24.610  1.00  0.00     0.029 A 
ATOM     62  C   UNL     1      -1.801  -4.782  23.890  1.00  0.00     0.049 A 
ATOM     63  H   UNL     1      -1.911  -3.964  21.948  1.00  0.00     0.167 HD
ATOM     64  C   UNL     1      -4.229  -4.436  23.513  1.00  0.00     0.074 A 
ATOM     65  C   UNL     1      -5.616  -4.499  23.923  1.00  0.00     0.031 C 
ATOM     66  C   UNL     1      -3.187  -4.838  24.282  1.00  0.00     0.037 A 
BRANCH  53  67
ATOM     67  C   UNL     1       2.337  -4.176  21.582  1.00  0.00     0.057 A 
ATOM     68  C   UNL     1       3.223  -3.092  21.656  1.00  0.00     0.134 A 
ATOM     69  C   UNL     1       2.892  -5.462  21.605  1.00  0.00     0.134 A 
ATOM     70  F   UNL     1       2.761  -1.832  21.624  1.00  0.00    -0.206 F 
ATOM     71  C   UNL     1       4.605  -3.279  21.719  1.00  0.00     0.040 A 
ATOM     72  C   UNL     1       4.270  -5.662  21.700  1.00  0.00     0.040 A 
ATOM     73  F   UNL     1       2.103  -6.545  21.542  1.00  0.00    -0.206 F 
ATOM     74  C   UNL     1       5.132  -4.568  21.749  1.00  0.00     0.006 A 
ENDBRANCH  53  67
BRANCH  54  75
ATOM     75  C   UNL     1      -7.520  -2.928  20.511  1.00  0.00     0.057 A 
ATOM     76  C   UNL     1      -8.231  -2.022  21.308  1.00  0.00     0.134 A 
ATOM     77  C   UNL     1      -8.250  -3.675  19.579  1.00  0.00     0.134 A 
ATOM     78  F   UNL     1      -7.591  -1.289  22.231  1.00  0.00    -0.206 F 
ATOM     79  C   UNL     1      -9.616  -1.885  21.204  1.00  0.00     0.040 A 
ATOM     80  C   UNL     1      -9.631  -3.527  19.444  1.00  0.00     0.040 A 
ATOM     81  F   UNL     1      -7.628  -4.552  18.777  1.00  0.00    -0.206 F 
ATOM     82  C   UNL     1     -10.320  -2.637  20.265  1.00  0.00     0.006 A 
ENDBRANCH  54  75
BRANCH  66  83
ATOM     83  C   UNL     1      -3.511  -5.346  25.658  1.00  0.00     0.057 A 
ATOM     84  C   UNL     1      -4.170  -6.566  25.864  1.00  0.00     0.134 A 
ATOM     85  C   UNL     1      -3.147  -4.610  26.793  1.00  0.00     0.134 A 
ATOM     86  F   UNL     1      -4.557  -7.315  24.821  1.00  0.00    -0.206 F 
ATOM     87  C   UNL     1      -4.489  -7.015  27.147  1.00  0.00     0.040 A 
ATOM     88  C   UNL     1      -3.430  -5.064  28.081  1.00  0.00     0.040 A 
ATOM     89  F   UNL     1      -2.502  -3.440  26.669  1.00  0.00    -0.206 F 
ATOM     90  C   UNL     1      -4.114  -6.265  28.260  1.00  0.00     0.006 A 
ENDBRANCH  66  83
ENDBRANCH  40  41
ENDBRANCH  32  35
ENDBRANCH  30  31
ENDBRANCH  29  30
ENDBRANCH   1  29
TORSDOF 16
