REMARK SMILES C[C@@H]1C[N@H+]2CCCC[C@@H]2CN1C(=O)NC(=O)CCC(=O)NCCCCNC(=O)c1ccc(-c2c3nc(c(-c4c(F)cccc4F)c4ccc([nH]4)c(-c4c(F)cccc4F)c4nc(c(-c5c(F)cccc5F)c5ccc2[nH]5)C=C4)C=C3)cc1
REMARK SMILES IDX 23 1 22 2 21 3 19 4 20 5 18 7 17 8 15 9 12 10 13 11 14 12
REMARK SMILES IDX 16 14 11 15 1 16 2 17 3 18 4 19 10 20 5 21 9 22 6 24 8 25
REMARK SMILES IDX 7 26 24 27 25 28 26 29 27 30 28 32 29 33 30 34 82 35 31 36
REMARK SMILES IDX 81 37 32 38 33 39 34 40 75 41 35 42 80 43 74 44 76 45 36 46
REMARK SMILES IDX 79 47 73 48 72 49 37 51 63 52 46 53 62 54 47 55 50 56 61 57
REMARK SMILES IDX 77 58 48 59 49 60 60 62 78 63 51 64 38 65 39 66 44 67 40 68
REMARK SMILES IDX 41 69 43 70 45 71 42 72 64 73 65 74 70 75 66 76 67 77 69 78
REMARK SMILES IDX 71 79 68 80 52 81 53 82 58 83 54 84 55 85 57 86 59 87 56 88
REMARK H PARENT 21 6 14 13 4 23 26 31 76 50 50 61
REMARK Flexibility Score: inf
ROOT
ATOM      1  C   UNL     1       0.559   5.337  -0.106  1.00  0.00     0.023 C 
ENDROOT
BRANCH   1   2
ATOM      2  C   UNL     1       0.987   5.348  -1.573  1.00  0.00     0.116 C 
BRANCH   2   3
ATOM      3  N   UNL     1       1.369   4.040  -2.061  1.00  0.00    -0.356 N 
ATOM      4  C   UNL     1       0.960   3.410  -3.192  1.00  0.00     0.220 C 
ATOM      5  O   UNL     1       1.590   2.435  -3.600  1.00  0.00    -0.275 OA
ATOM      6  H   UNL     1       2.008   3.543  -1.501  1.00  0.00     0.163 HD
BRANCH   4   7
ATOM      7  C   UNL     1      -0.214   3.944  -3.966  1.00  0.00     0.110 C 
BRANCH   7   8
ATOM      8  C   UNL     1      -1.585   4.044  -3.311  1.00  0.00     0.110 C 
BRANCH   8   9
ATOM      9  C   UNL     1      -1.840   3.933  -1.819  1.00  0.00     0.228 C 
ATOM     10  C   UNL     1      -0.553   1.965  -0.819  1.00  0.00     0.324 C 
ATOM     11  O   UNL     1       0.024   2.030   0.266  1.00  0.00    -0.248 OA
ATOM     12  N   UNL     1      -1.626   2.813  -1.044  1.00  0.00    -0.278 N 
ATOM     13  H   UNL     1      -2.425   2.554  -0.530  1.00  0.00     0.174 HD
ATOM     14  O   UNL     1      -2.367   4.901  -1.249  1.00  0.00    -0.275 OA
BRANCH  10  15
ATOM     15  N   UNL     1      -0.322   0.963  -1.727  1.00  0.00    -0.310 N 
ATOM     16  C   UNL     1       1.784  -0.318  -1.973  1.00  0.00     0.037 C 
ATOM     17  C   UNL     1       0.401  -0.256  -1.317  1.00  0.00     0.139 C 
ATOM     18  C   UNL     1      -0.428  -1.569  -1.630  1.00  0.00     0.287 C 
ATOM     19  N   UNL     1      -1.778  -1.437  -2.188  1.00  0.00    -0.329 N 
ATOM     20  C   UNL     1      -1.145   0.756  -2.889  1.00  0.00     0.186 C 
ATOM     21  C   UNL     1      -2.703  -2.538  -2.066  1.00  0.00     0.262 C 
ATOM     22  C   UNL     1      -2.314  -0.113  -2.452  1.00  0.00     0.203 C 
ATOM     23  H   UNL     1      -1.480  -1.635  -3.144  1.00  0.00     0.348 HD
ATOM     24  C   UNL     1      -3.697  -2.509  -3.232  1.00  0.00     0.062 C 
ATOM     25  C   UNL     1      -3.379  -0.074  -3.546  1.00  0.00     0.067 C 
ATOM     26  C   UNL     1      -4.411  -1.164  -3.333  1.00  0.00     0.012 C 
ENDBRANCH  10  15
ENDBRANCH   8   9
ENDBRANCH   7   8
ENDBRANCH   4   7
ENDBRANCH   2   3
ENDBRANCH   1   2
BRANCH   1  27
ATOM     27  C   UNL     1       1.631   4.883   0.872  1.00  0.00     0.023 C 
BRANCH  27  28
ATOM     28  C   UNL     1       2.929   5.646   0.727  1.00  0.00     0.116 C 
BRANCH  28  29
ATOM     29  N   UNL     1       2.709   7.089   0.700  1.00  0.00    -0.352 N 
ATOM     30  C   UNL     1       3.123   8.047   1.583  1.00  0.00     0.251 C 
ATOM     31  H   UNL     1       2.186   7.421  -0.065  1.00  0.00     0.163 HD
ATOM     32  O   UNL     1       2.635   9.175   1.557  1.00  0.00    -0.269 OA
BRANCH  30  33
ATOM     33  C   UNL     1       4.158   7.699   2.565  1.00  0.00     0.039 A 
ATOM     34  C   UNL     1       4.030   8.136   3.882  1.00  0.00     0.014 A 
ATOM     35  C   UNL     1       5.236   6.900   2.175  1.00  0.00     0.014 A 
ATOM     36  C   UNL     1       4.968   7.722   4.824  1.00  0.00     0.010 A 
ATOM     37  C   UNL     1       6.081   6.379   3.137  1.00  0.00     0.010 A 
ATOM     38  C   UNL     1       5.978   6.813   4.464  1.00  0.00    -0.014 A 
BRANCH  38  39
ATOM     39  C   UNL     1       6.972   6.335   5.449  1.00  0.00     0.031 A 
ATOM     40  C   UNL     1       8.434   6.602   5.214  1.00  0.00     0.074 A 
ATOM     41  C   UNL     1       6.562   5.614   6.509  1.00  0.00     0.049 A 
ATOM     42  N   UNL     1       9.466   6.222   5.922  1.00  0.00    -0.248 NA
ATOM     43  C   UNL     1       8.790   7.361   4.002  1.00  0.00     0.031 C 
ATOM     44  C   UNL     1       5.176   5.234   6.793  1.00  0.00     0.029 A 
ATOM     45  N   UNL     1       7.274   5.069   7.545  1.00  0.00    -0.354 N 
ATOM     46  C   UNL     1      10.582   6.675   5.230  1.00  0.00     0.074 A 
ATOM     47  C   UNL     1      10.112   7.291   4.012  1.00  0.00     0.031 C 
ATOM     48  C   UNL     1       5.135   4.552   7.949  1.00  0.00     0.029 A 
ATOM     49  C   UNL     1       6.492   4.411   8.463  1.00  0.00     0.049 A 
ATOM     50  H   UNL     1       8.252   5.142   7.624  1.00  0.00     0.167 HD
ATOM     51  C   UNL     1      11.883   6.615   5.596  1.00  0.00     0.037 A 
ATOM     52  C   UNL     1       6.839   3.765   9.591  1.00  0.00     0.037 A 
ATOM     53  C   UNL     1      12.335   6.037   6.832  1.00  0.00     0.049 A 
ATOM     54  C   UNL     1       8.290   3.731   9.985  1.00  0.00     0.074 A 
ATOM     55  C   UNL     1      13.619   5.987   7.341  1.00  0.00     0.029 A 
ATOM     56  N   UNL     1      11.511   5.407   7.753  1.00  0.00    -0.354 N 
ATOM     57  N   UNL     1       9.329   4.239   9.365  1.00  0.00    -0.248 NA
ATOM     58  C   UNL     1       8.617   3.043  11.240  1.00  0.00     0.031 C 
ATOM     59  C   UNL     1      13.581   5.280   8.546  1.00  0.00     0.029 A 
ATOM     60  C   UNL     1      12.264   4.943   8.817  1.00  0.00     0.049 A 
ATOM     61  H   UNL     1      10.536   5.305   7.663  1.00  0.00     0.167 HD
ATOM     62  C   UNL     1      10.427   3.958  10.168  1.00  0.00     0.074 A 
ATOM     63  C   UNL     1       9.922   3.253  11.329  1.00  0.00     0.031 C 
ATOM     64  C   UNL     1      11.735   4.251   9.965  1.00  0.00     0.037 A 
BRANCH  51  65
ATOM     65  C   UNL     1      12.900   7.196   4.657  1.00  0.00     0.057 A 
ATOM     66  C   UNL     1      12.989   8.575   4.420  1.00  0.00     0.134 A 
ATOM     67  C   UNL     1      13.826   6.370   4.008  1.00  0.00     0.134 A 
ATOM     68  F   UNL     1      12.123   9.422   4.996  1.00  0.00    -0.206 F 
ATOM     69  C   UNL     1      13.946   9.108   3.554  1.00  0.00     0.040 A 
ATOM     70  C   UNL     1      14.807   6.895   3.165  1.00  0.00     0.040 A 
ATOM     71  F   UNL     1      13.800   5.042   4.190  1.00  0.00    -0.206 F 
ATOM     72  C   UNL     1      14.865   8.267   2.931  1.00  0.00     0.006 A 
ENDBRANCH  51  65
BRANCH  52  73
ATOM     73  C   UNL     1       5.801   3.123  10.436  1.00  0.00     0.057 A 
ATOM     74  C   UNL     1       5.498   3.613  11.712  1.00  0.00     0.134 A 
ATOM     75  C   UNL     1       5.097   1.994   9.998  1.00  0.00     0.134 A 
ATOM     76  F   UNL     1       6.146   4.684  12.195  1.00  0.00    -0.206 F 
ATOM     77  C   UNL     1       4.558   2.989  12.534  1.00  0.00     0.040 A 
ATOM     78  C   UNL     1       4.132   1.377  10.797  1.00  0.00     0.040 A 
ATOM     79  F   UNL     1       5.329   1.481   8.781  1.00  0.00    -0.206 F 
ATOM     80  C   UNL     1       3.869   1.868  12.074  1.00  0.00     0.006 A 
ENDBRANCH  52  73
BRANCH  64  81
ATOM     81  C   UNL     1      12.701   3.844  11.038  1.00  0.00     0.057 A 
ATOM     82  C   UNL     1      13.026   2.502  11.273  1.00  0.00     0.134 A 
ATOM     83  C   UNL     1      13.339   4.812  11.823  1.00  0.00     0.134 A 
ATOM     84  F   UNL     1      12.441   1.525  10.562  1.00  0.00    -0.206 F 
ATOM     85  C   UNL     1      13.929   2.136  12.272  1.00  0.00     0.040 A 
ATOM     86  C   UNL     1      14.269   4.461  12.802  1.00  0.00     0.040 A 
ATOM     87  F   UNL     1      13.083   6.117  11.640  1.00  0.00    -0.206 F 
ATOM     88  C   UNL     1      14.558   3.118  13.034  1.00  0.00     0.006 A 
ENDBRANCH  64  81
ENDBRANCH  38  39
ENDBRANCH  30  33
ENDBRANCH  28  29
ENDBRANCH  27  28
ENDBRANCH   1  27
TORSDOF 14
