REMARK SMILES N#Cc1ccc(C(=O)NCCCCNC(=O)c2ccc(-c3c4nc(c(-c5c(F)cccc5F)c5ccc([nH]5)c(-c5c(F)cccc5F)c5nc(c(-c6c(F)cccc6F)c6ccc3[nH]6)C=C5)C=C4)cc2)nc1/C=C/c1ccc(O)c(Cl)c1
REMARK SMILES IDX 11 1 10 2 9 3 7 4 8 5 6 7 3 8 4 9 72 10 5 11 71 12 2 13 1 14
REMARK SMILES IDX 73 15 74 16 75 17 76 18 82 19 77 20 80 21 78 22 81 23 79 24
REMARK SMILES IDX 12 26 13 27 14 28 15 29 16 31 17 32 18 33 70 34 19 35 69 36
REMARK SMILES IDX 20 37 21 38 22 39 63 40 23 41 68 42 62 43 64 44 24 45 67 46
REMARK SMILES IDX 61 47 60 48 25 50 51 51 34 52 50 53 35 54 38 55 49 56 65 57
REMARK SMILES IDX 36 58 37 59 48 61 66 62 39 63 26 64 27 65 32 66 28 67 29 68
REMARK SMILES IDX 31 69 33 70 30 71 52 72 53 73 58 74 54 75 55 76 57 77 59 78
REMARK SMILES IDX 56 79 40 80 41 81 46 82 42 83 43 84 45 85 47 86 44 87
REMARK H PARENT 9 6 79 25 14 30 64 49 38 60
REMARK Flexibility Score: inf
ROOT
ATOM      1  C   UNL     1      -4.119   3.405  -1.640  1.00  0.00     0.023 C 
ENDROOT
BRANCH   1   2
ATOM      2  C   UNL     1      -3.638   2.760  -0.348  1.00  0.00     0.116 C 
BRANCH   2   3
ATOM      3  N   UNL     1      -4.065   1.384  -0.176  1.00  0.00    -0.351 N 
ATOM      4  C   UNL     1      -3.375   0.207   0.048  1.00  0.00     0.269 C 
ATOM      5  O   UNL     1      -4.055  -0.818   0.131  1.00  0.00    -0.268 OA
ATOM      6  H   UNL     1      -5.041   1.265  -0.229  1.00  0.00     0.163 HD
BRANCH   4   7
ATOM      7  C   UNL     1      -1.872   0.120   0.156  1.00  0.00     0.128 A 
ATOM      8  C   UNL     1       0.872  -0.169   0.070  1.00  0.00     0.078 A 
ATOM      9  C   UNL     1       0.316   1.064   0.399  1.00  0.00     0.024 A 
ATOM     10  C   UNL     1       0.010  -1.255  -0.088  1.00  0.00     0.082 A 
ATOM     11  C   UNL     1      -1.065   1.183   0.526  1.00  0.00     0.035 A 
ATOM     12  N   UNL     1      -1.341  -1.107  -0.107  1.00  0.00    -0.242 NA
BRANCH   8  13
ATOM     13  C   UNL     1       2.293  -0.280  -0.021  1.00  0.00     0.101 C 
ATOM     14  N   UNL     1       3.451  -0.352  -0.094  1.00  0.00    -0.192 NA
ENDBRANCH   8  13
BRANCH  10  15
ATOM     15  C   UNL     1       0.520  -2.640  -0.090  1.00  0.00     0.030 C 
ATOM     16  C   UNL     1      -0.233  -3.742   0.064  1.00  0.00     0.010 C 
BRANCH  16  17
ATOM     17  C   UNL     1       0.390  -5.058   0.259  1.00  0.00    -0.024 A 
ATOM     18  C   UNL     1      -0.052  -6.162  -0.478  1.00  0.00     0.012 A 
ATOM     19  C   UNL     1       1.411  -5.233   1.209  1.00  0.00     0.032 A 
ATOM     20  C   UNL     1       0.547  -7.414  -0.305  1.00  0.00     0.048 A 
ATOM     21  C   UNL     1       2.008  -6.481   1.378  1.00  0.00     0.083 A 
ATOM     22  C   UNL     1       1.579  -7.566   0.614  1.00  0.00     0.134 A 
ATOM     23  Cl  UNL     1       3.278  -6.666   2.530  1.00  0.00    -0.080 Cl
BRANCH  22  24
ATOM     24  O   UNL     1       2.145  -8.805   0.734  1.00  0.00    -0.506 OA
ATOM     25  H   UNL     1       1.835  -9.515   0.207  1.00  0.00     0.293 HD
ENDBRANCH  22  24
ENDBRANCH  16  17
ENDBRANCH  10  15
ENDBRANCH   4   7
ENDBRANCH   2   3
ENDBRANCH   1   2
BRANCH   1  26
ATOM     26  C   UNL     1      -5.595   3.768  -1.689  1.00  0.00     0.023 C 
BRANCH  26  27
ATOM     27  C   UNL     1      -6.102   4.593  -0.514  1.00  0.00     0.116 C 
BRANCH  27  28
ATOM     28  N   UNL     1      -5.356   5.828  -0.299  1.00  0.00    -0.352 N 
ATOM     29  C   UNL     1      -5.832   7.109  -0.142  1.00  0.00     0.251 C 
ATOM     30  H   UNL     1      -4.377   5.732  -0.262  1.00  0.00     0.163 HD
ATOM     31  O   UNL     1      -5.061   8.060  -0.087  1.00  0.00    -0.269 OA
BRANCH  29  32
ATOM     32  C   UNL     1      -7.291   7.327  -0.079  1.00  0.00     0.039 A 
ATOM     33  C   UNL     1      -7.869   8.297  -0.898  1.00  0.00     0.014 A 
ATOM     34  C   UNL     1      -8.087   6.516   0.734  1.00  0.00     0.014 A 
ATOM     35  C   UNL     1      -9.259   8.396  -0.964  1.00  0.00     0.010 A 
ATOM     36  C   UNL     1      -9.468   6.545   0.586  1.00  0.00     0.010 A 
ATOM     37  C   UNL     1     -10.070   7.488  -0.261  1.00  0.00    -0.014 A 
BRANCH  37  38
ATOM     38  C   UNL     1     -11.547   7.506  -0.401  1.00  0.00     0.031 A 
ATOM     39  C   UNL     1     -12.416   7.761   0.799  1.00  0.00     0.074 A 
ATOM     40  C   UNL     1     -12.109   7.233  -1.596  1.00  0.00     0.049 A 
ATOM     41  N   UNL     1     -13.722   7.775   0.887  1.00  0.00    -0.248 NA
ATOM     42  C   UNL     1     -11.727   8.003   2.076  1.00  0.00     0.031 C 
ATOM     43  C   UNL     1     -11.377   6.922  -2.825  1.00  0.00     0.029 A 
ATOM     44  N   UNL     1     -13.427   7.170  -1.971  1.00  0.00    -0.354 N 
ATOM     45  C   UNL     1     -14.006   8.016   2.224  1.00  0.00     0.074 A 
ATOM     46  C   UNL     1     -12.742   8.072   2.923  1.00  0.00     0.031 C 
ATOM     47  C   UNL     1     -12.253   6.742  -3.825  1.00  0.00     0.029 A 
ATOM     48  C   UNL     1     -13.608   6.871  -3.300  1.00  0.00     0.049 A 
ATOM     49  H   UNL     1     -14.173   7.324  -1.347  1.00  0.00     0.167 HD
ATOM     50  C   UNL     1     -15.211   8.201   2.814  1.00  0.00     0.037 A 
ATOM     51  C   UNL     1     -14.739   6.712  -4.013  1.00  0.00     0.037 A 
ATOM     52  C   UNL     1     -16.467   8.148   2.112  1.00  0.00     0.049 A 
ATOM     53  C   UNL     1     -16.068   6.882  -3.328  1.00  0.00     0.074 A 
ATOM     54  C   UNL     1     -17.739   8.375   2.606  1.00  0.00     0.029 A 
ATOM     55  N   UNL     1     -16.610   7.831   0.769  1.00  0.00    -0.354 N 
ATOM     56  N   UNL     1     -16.321   7.188  -2.079  1.00  0.00    -0.248 NA
ATOM     57  C   UNL     1     -17.267   6.689  -4.154  1.00  0.00     0.031 C 
ATOM     58  C   UNL     1     -18.656   8.120   1.582  1.00  0.00     0.029 A 
ATOM     59  C   UNL     1     -17.952   7.816   0.427  1.00  0.00     0.049 A 
ATOM     60  H   UNL     1     -15.867   7.644   0.150  1.00  0.00     0.167 HD
ATOM     61  C   UNL     1     -17.705   7.258  -1.976  1.00  0.00     0.074 A 
ATOM     62  C   UNL     1     -18.234   6.977  -3.295  1.00  0.00     0.031 C 
ATOM     63  C   UNL     1     -18.468   7.535  -0.890  1.00  0.00     0.037 A 
BRANCH  50  64
ATOM     64  C   UNL     1     -15.224   8.457   4.296  1.00  0.00     0.057 A 
ATOM     65  C   UNL     1     -14.687   9.625   4.856  1.00  0.00     0.134 A 
ATOM     66  C   UNL     1     -15.796   7.528   5.175  1.00  0.00     0.134 A 
ATOM     67  F   UNL     1     -14.114  10.554   4.075  1.00  0.00    -0.206 F 
ATOM     68  C   UNL     1     -14.682   9.840   6.236  1.00  0.00     0.040 A 
ATOM     69  C   UNL     1     -15.830   7.749   6.552  1.00  0.00     0.040 A 
ATOM     70  F   UNL     1     -16.336   6.392   4.710  1.00  0.00    -0.206 F 
ATOM     71  C   UNL     1     -15.261   8.903   7.088  1.00  0.00     0.006 A 
ENDBRANCH  50  64
BRANCH  51  72
ATOM     72  C   UNL     1     -14.666   6.392  -5.463  1.00  0.00     0.057 A 
ATOM     73  C   UNL     1     -15.088   7.314  -6.429  1.00  0.00     0.134 A 
ATOM     74  C   UNL     1     -14.180   5.161  -5.919  1.00  0.00     0.134 A 
ATOM     75  F   UNL     1     -15.579   8.505  -6.056  1.00  0.00    -0.206 F 
ATOM     76  C   UNL     1     -15.049   7.016  -7.792  1.00  0.00     0.040 A 
ATOM     77  C   UNL     1     -14.106   4.861  -7.281  1.00  0.00     0.040 A 
ATOM     78  F   UNL     1     -13.752   4.236  -5.047  1.00  0.00    -0.206 F 
ATOM     79  C   UNL     1     -14.551   5.788  -8.221  1.00  0.00     0.006 A 
ENDBRANCH  51  72
BRANCH  63  80
ATOM     80  C   UNL     1     -19.958   7.591  -1.086  1.00  0.00     0.057 A 
ATOM     81  C   UNL     1     -20.719   6.449  -1.363  1.00  0.00     0.134 A 
ATOM     82  C   UNL     1     -20.645   8.806  -0.956  1.00  0.00     0.134 A 
ATOM     83  F   UNL     1     -20.126   5.254  -1.511  1.00  0.00    -0.206 F 
ATOM     84  C   UNL     1     -22.104   6.517  -1.533  1.00  0.00     0.040 A 
ATOM     85  C   UNL     1     -22.032   8.881  -1.086  1.00  0.00     0.040 A 
ATOM     86  F   UNL     1     -19.981   9.939  -0.679  1.00  0.00    -0.206 F 
ATOM     87  C   UNL     1     -22.764   7.735  -1.385  1.00  0.00     0.006 A 
ENDBRANCH  63  80
ENDBRANCH  37  38
ENDBRANCH  29  32
ENDBRANCH  27  28
ENDBRANCH  26  27
ENDBRANCH   1  26
TORSDOF 15
