REMARK SMILES C[N@H+]1C[C@@H](Oc2cccc3cccnc23)C[C@H]1C(=O)NCCCCNC(=O)c1ccc(-c2c3nc(c(-c4c(F)cccc4F)c4ccc([nH]4)c(-c4c(F)cccc4F)c4nc(c(-c5c(F)cccc5F)c5ccc2[nH]5)C=C4)C=C3)cc1
REMARK SMILES IDX 22 1 21 2 20 3 18 4 19 5 17 7 1 8 2 9 3 10 4 12 16 13 5 14
REMARK SMILES IDX 6 15 7 16 15 17 8 18 10 19 14 20 9 21 11 22 13 23 12 24
REMARK SMILES IDX 23 25 24 26 25 27 26 28 27 30 28 31 29 32 81 33 30 34 80 35
REMARK SMILES IDX 31 36 32 37 33 38 74 39 34 40 79 41 73 42 75 43 35 44 78 45
REMARK SMILES IDX 72 46 71 47 36 49 62 50 45 51 61 52 46 53 49 54 60 55 76 56
REMARK SMILES IDX 47 57 48 58 59 60 77 61 50 62 37 63 38 64 43 65 39 66 40 67
REMARK SMILES IDX 42 68 44 69 41 70 63 71 64 72 69 73 65 74 66 75 68 76 70 77
REMARK SMILES IDX 67 78 51 79 52 80 57 81 53 82 54 83 56 84 58 85 55 86
REMARK H PARENT 20 6 2 11 25 29 75 48 49 59
REMARK Flexibility Score: inf
ROOT
ATOM      1  C   UNL     1      -1.367   1.917   2.897  1.00  0.00     0.023 C 
ENDROOT
BRANCH   1   2
ATOM      2  C   UNL     1      -0.344   0.789   2.796  1.00  0.00     0.116 C 
BRANCH   2   3
ATOM      3  N   UNL     1      -0.865  -0.539   2.559  1.00  0.00    -0.351 N 
ATOM      4  C   UNL     1      -0.514  -1.440   1.594  1.00  0.00     0.278 C 
ATOM      5  O   UNL     1      -0.488  -2.625   1.965  1.00  0.00    -0.268 OA
ATOM      6  H   UNL     1      -1.569  -0.835   3.179  1.00  0.00     0.163 HD
BRANCH   4   7
ATOM      7  C   UNL     1      -0.207  -1.133   0.107  1.00  0.00     0.278 C 
ATOM      8  C   UNL     1      -2.055   0.459  -0.387  1.00  0.00     0.333 C 
ATOM      9  N   UNL     1      -0.663   0.124  -0.462  1.00  0.00    -0.324 N 
ATOM     10  C   UNL     1       0.393   1.123  -0.460  1.00  0.00     0.308 C 
ATOM     11  H   UNL     1      -0.820  -0.001  -1.462  1.00  0.00     0.348 HD
ATOM     12  C   UNL     1       1.708   0.304  -0.329  1.00  0.00     0.234 C 
ATOM     13  C   UNL     1       1.251  -1.153  -0.331  1.00  0.00     0.126 C 
BRANCH  12  14
ATOM     14  O   UNL     1       2.645   0.811   0.631  1.00  0.00    -0.482 OA
BRANCH  14  15
ATOM     15  C   UNL     1       2.788   0.462   1.947  1.00  0.00     0.146 A 
ATOM     16  C   UNL     1       2.792  -0.855   2.414  1.00  0.00     0.049 A 
ATOM     17  C   UNL     1       3.046   1.520   2.849  1.00  0.00     0.112 A 
ATOM     18  C   UNL     1       2.930  -1.144   3.770  1.00  0.00     0.005 A 
ATOM     19  C   UNL     1       3.256   1.200   4.215  1.00  0.00     0.004 A 
ATOM     20  N   UNL     1       3.074   2.813   2.443  1.00  0.00    -0.252 NA
ATOM     21  C   UNL     1       3.161  -0.120   4.671  1.00  0.00     0.010 A 
ATOM     22  C   UNL     1       3.563   2.224   5.117  1.00  0.00     0.012 A 
ATOM     23  C   UNL     1       3.361   3.780   3.346  1.00  0.00     0.112 A 
ATOM     24  C   UNL     1       3.624   3.536   4.678  1.00  0.00     0.021 A 
ENDBRANCH  14  15
ENDBRANCH  12  14
ENDBRANCH   4   7
ENDBRANCH   2   3
ENDBRANCH   1   2
BRANCH   1  25
ATOM     25  C   UNL     1      -1.775   2.300   4.321  1.00  0.00     0.023 C 
BRANCH  25  26
ATOM     26  C   UNL     1      -0.652   2.825   5.211  1.00  0.00     0.116 C 
BRANCH  26  27
ATOM     27  N   UNL     1      -0.053   4.072   4.766  1.00  0.00    -0.352 N 
ATOM     28  C   UNL     1       0.613   5.024   5.508  1.00  0.00     0.251 C 
ATOM     29  H   UNL     1      -0.135   4.264   3.803  1.00  0.00     0.163 HD
ATOM     30  O   UNL     1       1.020   6.050   4.974  1.00  0.00    -0.269 OA
BRANCH  28  31
ATOM     31  C   UNL     1       0.824   4.831   6.966  1.00  0.00     0.039 A 
ATOM     32  C   UNL     1       0.639   5.922   7.822  1.00  0.00     0.014 A 
ATOM     33  C   UNL     1       1.194   3.593   7.497  1.00  0.00     0.014 A 
ATOM     34  C   UNL     1       0.718   5.740   9.205  1.00  0.00     0.010 A 
ATOM     35  C   UNL     1       1.221   3.396   8.873  1.00  0.00     0.010 A 
ATOM     36  C   UNL     1       0.952   4.461   9.738  1.00  0.00    -0.014 A 
BRANCH  36  37
ATOM     37  C   UNL     1       0.759   4.189  11.181  1.00  0.00     0.031 A 
ATOM     38  C   UNL     1       1.900   3.787  12.065  1.00  0.00     0.074 A 
ATOM     39  C   UNL     1      -0.502   4.204  11.656  1.00  0.00     0.049 A 
ATOM     40  N   UNL     1       1.895   3.536  13.349  1.00  0.00    -0.248 NA
ATOM     41  C   UNL     1       3.210   3.610  11.422  1.00  0.00     0.031 C 
ATOM     42  C   UNL     1      -1.700   4.464  10.851  1.00  0.00     0.029 A 
ATOM     43  N   UNL     1      -0.992   3.989  12.917  1.00  0.00    -0.354 N 
ATOM     44  C   UNL     1       3.197   3.179  13.672  1.00  0.00     0.074 A 
ATOM     45  C   UNL     1       3.953   3.187  12.437  1.00  0.00     0.031 C 
ATOM     46  C   UNL     1      -2.780   4.429  11.644  1.00  0.00     0.029 A 
ATOM     47  C   UNL     1      -2.356   4.125  13.005  1.00  0.00     0.049 A 
ATOM     48  H   UNL     1      -0.421   3.758  13.685  1.00  0.00     0.167 HD
ATOM     49  C   UNL     1       3.714   2.894  14.892  1.00  0.00     0.037 A 
ATOM     50  C   UNL     1      -3.172   4.032  14.070  1.00  0.00     0.037 A 
ATOM     51  C   UNL     1       2.941   2.888  16.109  1.00  0.00     0.049 A 
ATOM     52  C   UNL     1      -2.569   3.764  15.418  1.00  0.00     0.074 A 
ATOM     53  C   UNL     1       3.374   2.687  17.408  1.00  0.00     0.029 A 
ATOM     54  N   UNL     1       1.567   3.079  16.172  1.00  0.00    -0.354 N 
ATOM     55  N   UNL     1      -1.313   3.552  15.732  1.00  0.00    -0.248 NA
ATOM     56  C   UNL     1      -3.489   3.743  16.561  1.00  0.00     0.031 C 
ATOM     57  C   UNL     1       2.256   2.713  18.251  1.00  0.00     0.029 A 
ATOM     58  C   UNL     1       1.133   2.981  17.485  1.00  0.00     0.049 A 
ATOM     59  H   UNL     1       0.986   3.259  15.398  1.00  0.00     0.167 HD
ATOM     60  C   UNL     1      -1.287   3.396  17.110  1.00  0.00     0.074 A 
ATOM     61  C   UNL     1      -2.652   3.559  17.572  1.00  0.00     0.031 C 
ATOM     62  C   UNL     1      -0.231   3.140  17.921  1.00  0.00     0.037 A 
BRANCH  49  63
ATOM     63  C   UNL     1       5.182   2.582  14.973  1.00  0.00     0.057 A 
ATOM     64  C   UNL     1       6.157   3.562  14.740  1.00  0.00     0.134 A 
ATOM     65  C   UNL     1       5.630   1.304  15.334  1.00  0.00     0.134 A 
ATOM     66  F   UNL     1       5.800   4.805  14.384  1.00  0.00    -0.206 F 
ATOM     67  C   UNL     1       7.521   3.276  14.836  1.00  0.00     0.040 A 
ATOM     68  C   UNL     1       6.990   1.014  15.460  1.00  0.00     0.040 A 
ATOM     69  F   UNL     1       4.753   0.319  15.581  1.00  0.00    -0.206 F 
ATOM     70  C   UNL     1       7.941   2.000  15.204  1.00  0.00     0.006 A 
ENDBRANCH  49  63
BRANCH  50  71
ATOM     71  C   UNL     1      -4.628   4.265  13.906  1.00  0.00     0.057 A 
ATOM     72  C   UNL     1      -5.230   5.429  14.399  1.00  0.00     0.134 A 
ATOM     73  C   UNL     1      -5.446   3.354  13.228  1.00  0.00     0.134 A 
ATOM     74  F   UNL     1      -4.500   6.336  15.064  1.00  0.00    -0.206 F 
ATOM     75  C   UNL     1      -6.596   5.670  14.241  1.00  0.00     0.040 A 
ATOM     76  C   UNL     1      -6.808   3.593  13.041  1.00  0.00     0.040 A 
ATOM     77  F   UNL     1      -4.926   2.229  12.715  1.00  0.00    -0.206 F 
ATOM     78  C   UNL     1      -7.388   4.752  13.554  1.00  0.00     0.006 A 
ENDBRANCH  50  71
BRANCH  62  79
ATOM     79  C   UNL     1      -0.516   3.043  19.390  1.00  0.00     0.057 A 
ATOM     80  C   UNL     1      -1.202   1.953  19.940  1.00  0.00     0.134 A 
ATOM     81  C   UNL     1      -0.082   4.045  20.268  1.00  0.00     0.134 A 
ATOM     82  F   UNL     1      -1.657   0.968  19.150  1.00  0.00    -0.206 F 
ATOM     83  C   UNL     1      -1.473   1.876  21.306  1.00  0.00     0.040 A 
ATOM     84  C   UNL     1      -0.321   3.966  21.640  1.00  0.00     0.040 A 
ATOM     85  F   UNL     1       0.588   5.112  19.807  1.00  0.00    -0.206 F 
ATOM     86  C   UNL     1      -1.026   2.882  22.161  1.00  0.00     0.006 A 
ENDBRANCH  62  79
ENDBRANCH  36  37
ENDBRANCH  28  31
ENDBRANCH  26  27
ENDBRANCH  25  26
ENDBRANCH   1  25
TORSDOF 13
