REMARK SMILES CC[N@@H+]1CCO[C@H](c2nc(C)c(C(=O)NCCCCNC(=O)c3ccc(-c4c5nc(c(-c6c(F)cccc6F)c6ccc([nH]6)c(-c6c(F)cccc6F)c6nc(c(-c7c(F)cccc7F)c7ccc4[nH]7)C=C6)C=C5)cc3)s2)C1
REMARK SMILES IDX 17 1 16 2 15 3 13 4 14 5 12 7 8 8 9 9 77 10 10 11 11 12 7 13
REMARK SMILES IDX 3 14 4 15 78 16 5 18 6 19 2 20 1 21 18 22 19 23 20 24 21 25
REMARK SMILES IDX 22 27 23 28 24 29 76 30 25 31 75 32 26 33 27 34 28 35 69 36
REMARK SMILES IDX 29 37 74 38 68 39 70 40 30 41 73 42 67 43 66 44 31 46 57 47
REMARK SMILES IDX 40 48 56 49 41 50 44 51 55 52 71 53 42 54 43 55 54 57 72 58
REMARK SMILES IDX 45 59 32 60 33 61 38 62 34 63 35 64 37 65 39 66 36 67 58 68
REMARK SMILES IDX 59 69 64 70 60 71 61 72 63 73 65 74 62 75 46 76 47 77 52 78
REMARK SMILES IDX 48 79 49 80 51 81 53 82 50 83
REMARK H PARENT 15 6 3 17 20 26 70 45 44 56
REMARK Flexibility Score: inf
ROOT
ATOM      1  C   UNL     1      -6.003   0.782   4.098  1.00  0.00     0.023 C 
ENDROOT
BRANCH   1   2
ATOM      2  C   UNL     1      -4.575   0.257   4.232  1.00  0.00     0.116 C 
BRANCH   2   3
ATOM      3  N   UNL     1      -4.141  -0.304   2.982  1.00  0.00    -0.351 N 
ATOM      4  C   UNL     1      -3.643   0.248   1.833  1.00  0.00     0.263 C 
ATOM      5  O   UNL     1      -3.568  -0.579   0.915  1.00  0.00    -0.268 OA
ATOM      6  H   UNL     1      -4.219  -1.284   2.945  1.00  0.00     0.163 HD
BRANCH   4   7
ATOM      7  C   UNL     1      -3.160   1.619   1.691  1.00  0.00     0.115 A 
ATOM      8  C   UNL     1      -1.639   3.320   0.791  1.00  0.00     0.128 A 
ATOM      9  N   UNL     1      -2.209   3.747   1.896  1.00  0.00    -0.243 NA
ATOM     10  S   UNL     1      -2.404   1.940   0.141  1.00  0.00    -0.110 S 
ATOM     11  C   UNL     1      -3.125   2.824   2.392  1.00  0.00     0.062 A 
ATOM     12  C   UNL     1      -3.829   3.318   3.601  1.00  0.00     0.068 C 
BRANCH   8  13
ATOM     13  C   UNL     1      -0.484   4.008   0.098  1.00  0.00     0.232 C 
ATOM     14  N   UNL     1       1.566   2.384   0.077  1.00  0.00    -0.331 N 
ATOM     15  C   UNL     1       2.128   3.299   1.087  1.00  0.00     0.291 C 
ATOM     16  C   UNL     1       0.507   3.094  -0.687  1.00  0.00     0.302 C 
ATOM     17  H   UNL     1       2.296   2.116  -0.583  1.00  0.00     0.348 HD
ATOM     18  C   UNL     1       1.067   4.028   1.915  1.00  0.00     0.222 C 
ATOM     19  O   UNL     1       0.225   4.819   1.067  1.00  0.00    -0.359 OA
BRANCH  14  20
ATOM     20  C   UNL     1       1.134   1.108   0.657  1.00  0.00     0.258 C 
ATOM     21  C   UNL     1       1.252  -0.014  -0.368  1.00  0.00     0.071 C 
ENDBRANCH  14  20
ENDBRANCH   8  13
ENDBRANCH   4   7
ENDBRANCH   2   3
ENDBRANCH   1   2
BRANCH   1  22
ATOM     22  C   UNL     1      -7.077  -0.267   4.379  1.00  0.00     0.023 C 
BRANCH  22  23
ATOM     23  C   UNL     1      -7.134  -0.729   5.831  1.00  0.00     0.116 C 
BRANCH  23  24
ATOM     24  N   UNL     1      -7.303   0.360   6.783  1.00  0.00    -0.352 N 
ATOM     25  C   UNL     1      -7.938   0.338   8.005  1.00  0.00     0.251 C 
ATOM     26  H   UNL     1      -6.914   1.224   6.518  1.00  0.00     0.163 HD
ATOM     27  O   UNL     1      -8.065   1.351   8.666  1.00  0.00    -0.269 OA
BRANCH  25  28
ATOM     28  C   UNL     1      -8.510  -0.942   8.466  1.00  0.00     0.039 A 
ATOM     29  C   UNL     1      -9.869  -0.988   8.780  1.00  0.00     0.014 A 
ATOM     30  C   UNL     1      -7.726  -2.097   8.485  1.00  0.00     0.014 A 
ATOM     31  C   UNL     1     -10.468  -2.222   9.027  1.00  0.00     0.010 A 
ATOM     32  C   UNL     1      -8.338  -3.330   8.665  1.00  0.00     0.010 A 
ATOM     33  C   UNL     1      -9.716  -3.403   8.920  1.00  0.00    -0.014 A 
BRANCH  33  34
ATOM     34  C   UNL     1     -10.357  -4.733   9.031  1.00  0.00     0.031 A 
ATOM     35  C   UNL     1      -9.991  -5.651  10.159  1.00  0.00     0.074 A 
ATOM     36  C   UNL     1     -11.198  -5.144   8.062  1.00  0.00     0.049 A 
ATOM     37  N   UNL     1     -10.367  -6.885  10.374  1.00  0.00    -0.248 NA
ATOM     38  C   UNL     1      -9.053  -5.122  11.162  1.00  0.00     0.031 C 
ATOM     39  C   UNL     1     -11.585  -4.360   6.887  1.00  0.00     0.029 A 
ATOM     40  N   UNL     1     -11.867  -6.331   7.905  1.00  0.00    -0.354 N 
ATOM     41  C   UNL     1      -9.701  -7.284  11.524  1.00  0.00     0.074 A 
ATOM     42  C   UNL     1      -8.861  -6.180  11.935  1.00  0.00     0.031 C 
ATOM     43  C   UNL     1     -12.438  -5.080   6.141  1.00  0.00     0.029 A 
ATOM     44  C   UNL     1     -12.629  -6.385   6.764  1.00  0.00     0.049 A 
ATOM     45  H   UNL     1     -11.806  -7.073   8.549  1.00  0.00     0.167 HD
ATOM     46  C   UNL     1      -9.800  -8.459  12.190  1.00  0.00     0.037 A 
ATOM     47  C   UNL     1     -13.390  -7.381   6.272  1.00  0.00     0.037 A 
ATOM     48  C   UNL     1     -10.659  -9.542  11.793  1.00  0.00     0.049 A 
ATOM     49  C   UNL     1     -13.481  -8.675   7.029  1.00  0.00     0.074 A 
ATOM     50  C   UNL     1     -10.890 -10.742  12.443  1.00  0.00     0.029 A 
ATOM     51  N   UNL     1     -11.429  -9.555  10.640  1.00  0.00    -0.354 N 
ATOM     52  N   UNL     1     -12.902  -9.015   8.155  1.00  0.00    -0.248 NA
ATOM     53  C   UNL     1     -14.330  -9.724   6.448  1.00  0.00     0.031 C 
ATOM     54  C   UNL     1     -11.773 -11.497  11.663  1.00  0.00     0.029 A 
ATOM     55  C   UNL     1     -12.119 -10.752  10.546  1.00  0.00     0.049 A 
ATOM     56  H   UNL     1     -11.479  -8.821   9.985  1.00  0.00     0.167 HD
ATOM     57  C   UNL     1     -13.329 -10.307   8.427  1.00  0.00     0.074 A 
ATOM     58  C   UNL     1     -14.228 -10.685   7.355  1.00  0.00     0.031 C 
ATOM     59  C   UNL     1     -13.007 -11.109   9.470  1.00  0.00     0.037 A 
BRANCH  46  60
ATOM     60  C   UNL     1      -8.959  -8.624  13.419  1.00  0.00     0.057 A 
ATOM     61  C   UNL     1      -9.243  -7.931  14.604  1.00  0.00     0.134 A 
ATOM     62  C   UNL     1      -7.866  -9.499  13.427  1.00  0.00     0.134 A 
ATOM     63  F   UNL     1     -10.267  -7.067  14.656  1.00  0.00    -0.206 F 
ATOM     64  C   UNL     1      -8.454  -8.084  15.745  1.00  0.00     0.040 A 
ATOM     65  C   UNL     1      -7.084  -9.678  14.569  1.00  0.00     0.040 A 
ATOM     66  F   UNL     1      -7.541 -10.194  12.326  1.00  0.00    -0.206 F 
ATOM     67  C   UNL     1      -7.374  -8.964  15.731  1.00  0.00     0.006 A 
ENDBRANCH  46  60
BRANCH  47  68
ATOM     68  C   UNL     1     -14.141  -7.184   5.009  1.00  0.00     0.057 A 
ATOM     69  C   UNL     1     -15.533  -7.034   5.018  1.00  0.00     0.134 A 
ATOM     70  C   UNL     1     -13.493  -7.139   3.769  1.00  0.00     0.134 A 
ATOM     71  F   UNL     1     -16.209  -7.086   6.175  1.00  0.00    -0.206 F 
ATOM     72  C   UNL     1     -16.256  -6.858   3.837  1.00  0.00     0.040 A 
ATOM     73  C   UNL     1     -14.202  -6.943   2.583  1.00  0.00     0.040 A 
ATOM     74  F   UNL     1     -12.161  -7.269   3.696  1.00  0.00    -0.206 F 
ATOM     75  C   UNL     1     -15.589  -6.808   2.615  1.00  0.00     0.006 A 
ENDBRANCH  47  68
BRANCH  59  76
ATOM     76  C   UNL     1     -13.640 -12.466   9.509  1.00  0.00     0.057 A 
ATOM     77  C   UNL     1     -13.214 -13.499   8.666  1.00  0.00     0.134 A 
ATOM     78  C   UNL     1     -14.655 -12.755  10.430  1.00  0.00     0.134 A 
ATOM     79  F   UNL     1     -12.255 -13.280   7.753  1.00  0.00    -0.206 F 
ATOM     80  C   UNL     1     -13.786 -14.771   8.727  1.00  0.00     0.040 A 
ATOM     81  C   UNL     1     -15.219 -14.028  10.515  1.00  0.00     0.040 A 
ATOM     82  F   UNL     1     -15.102 -11.809  11.269  1.00  0.00    -0.206 F 
ATOM     83  C   UNL     1     -14.787 -15.039   9.659  1.00  0.00     0.006 A 
ENDBRANCH  59  76
ENDBRANCH  33  34
ENDBRANCH  25  28
ENDBRANCH  23  24
ENDBRANCH  22  23
ENDBRANCH   1  22
TORSDOF 13
