REMARK SMILES CC[C@H](C(=O)NCCCCNC(=O)c1ccc(-c2c3nc(c(-c4c(F)cccc4F)c4ccc([nH]4)c(-c4c(F)cccc4F)c4nc(c(-c5c(F)cccc5F)c5ccc2[nH]5)C=C4)C=C3)cc1)C1=CCCc2c(C)ccc(C)c21
REMARK SMILES IDX 9 1 8 2 7 3 6 4 4 5 5 6 3 8 2 9 1 10 68 11 69 12 79 13 70 14
REMARK SMILES IDX 72 15 77 16 71 17 73 18 76 19 78 20 74 21 75 22 10 23 11 24
REMARK SMILES IDX 12 25 13 27 14 28 15 29 67 30 16 31 66 32 17 33 18 34 19 35
REMARK SMILES IDX 60 36 20 37 65 38 59 39 61 40 21 41 64 42 58 43 57 44 22 46
REMARK SMILES IDX 48 47 31 48 47 49 32 50 35 51 46 52 62 53 33 54 34 55 45 57
REMARK SMILES IDX 63 58 36 59 23 60 24 61 29 62 25 63 26 64 28 65 30 66 27 67
REMARK SMILES IDX 49 68 50 69 55 70 51 71 52 72 54 73 56 74 53 75 37 76 38 77
REMARK SMILES IDX 43 78 39 79 40 80 42 81 44 82 41 83
REMARK H PARENT 6 7 11 26 61 45 35 56
REMARK Flexibility Score: inf
ROOT
ATOM      1  C   UNL     1       3.179   0.469  -2.043  1.00  0.00     0.023 C 
ENDROOT
BRANCH   1   2
ATOM      2  C   UNL     1       3.355   0.018  -0.592  1.00  0.00     0.023 C 
BRANCH   2   3
ATOM      3  C   UNL     1       2.093  -0.031   0.277  1.00  0.00     0.116 C 
BRANCH   3   4
ATOM      4  N   UNL     1       1.075  -0.977  -0.180  1.00  0.00    -0.356 N 
ATOM      5  C   UNL     1       0.196  -1.850   0.401  1.00  0.00     0.227 C 
ATOM      6  O   UNL     1      -0.555  -2.402  -0.416  1.00  0.00    -0.274 OA
ATOM      7  H   UNL     1       1.005  -0.989  -1.162  1.00  0.00     0.163 HD
BRANCH   5   8
ATOM      8  C   UNL     1       0.152  -2.266   1.909  1.00  0.00     0.108 C 
BRANCH   8   9
ATOM      9  C   UNL     1       0.790  -1.234   2.908  1.00  0.00     0.015 C 
ATOM     10  C   UNL     1       0.265   0.211   2.864  1.00  0.00     0.005 C 
ENDBRANCH   8   9
BRANCH   8  11
ATOM     11  C   UNL     1      -1.237  -2.710   2.449  1.00  0.00    -0.032 C 
ATOM     12  C   UNL     1      -1.884  -1.827   3.261  1.00  0.00    -0.022 C 
ATOM     13  C   UNL     1      -2.244  -3.753   1.881  1.00  0.00    -0.016 A 
ATOM     14  C   UNL     1      -2.865  -0.911   2.495  1.00  0.00     0.032 C 
ATOM     15  C   UNL     1      -3.521  -3.111   1.730  1.00  0.00    -0.037 A 
ATOM     16  C   UNL     1      -2.268  -5.093   2.322  1.00  0.00    -0.043 A 
ATOM     17  C   UNL     1      -3.435  -1.661   1.287  1.00  0.00     0.040 C 
ATOM     18  C   UNL     1      -4.654  -3.594   2.427  1.00  0.00    -0.047 A 
ATOM     19  C   UNL     1      -3.412  -5.587   2.988  1.00  0.00     0.004 A 
ATOM     20  C   UNL     1      -1.371  -6.160   1.747  1.00  0.00     0.045 C 
ATOM     21  C   UNL     1      -5.839  -2.718   2.734  1.00  0.00     0.044 C 
ATOM     22  C   UNL     1      -4.565  -4.818   3.095  1.00  0.00     0.004 A 
ENDBRANCH   8  11
ENDBRANCH   5   8
ENDBRANCH   3   4
ENDBRANCH   2   3
ENDBRANCH   1   2
BRANCH   1  23
ATOM     23  C   UNL     1       2.700   1.905  -2.256  1.00  0.00     0.116 C 
BRANCH  23  24
ATOM     24  N   UNL     1       3.682   2.907  -1.869  1.00  0.00    -0.352 N 
ATOM     25  C   UNL     1       4.236   3.954  -2.572  1.00  0.00     0.251 C 
ATOM     26  H   UNL     1       4.006   2.822  -0.943  1.00  0.00     0.163 HD
ATOM     27  O   UNL     1       5.142   4.599  -2.056  1.00  0.00    -0.269 OA
BRANCH  25  28
ATOM     28  C   UNL     1       3.791   4.305  -3.947  1.00  0.00     0.039 A 
ATOM     29  C   UNL     1       4.755   4.748  -4.861  1.00  0.00     0.014 A 
ATOM     30  C   UNL     1       2.452   4.260  -4.343  1.00  0.00     0.014 A 
ATOM     31  C   UNL     1       4.390   5.075  -6.172  1.00  0.00     0.010 A 
ATOM     32  C   UNL     1       2.099   4.509  -5.674  1.00  0.00     0.010 A 
ATOM     33  C   UNL     1       3.063   4.920  -6.606  1.00  0.00    -0.014 A 
BRANCH  33  34
ATOM     34  C   UNL     1       2.699   5.164  -8.031  1.00  0.00     0.031 A 
ATOM     35  C   UNL     1       1.739   6.259  -8.416  1.00  0.00     0.074 A 
ATOM     36  C   UNL     1       3.221   4.374  -8.991  1.00  0.00     0.049 A 
ATOM     37  N   UNL     1       1.343   6.629  -9.610  1.00  0.00    -0.248 NA
ATOM     38  C   UNL     1       1.125   7.024  -7.321  1.00  0.00     0.031 C 
ATOM     39  C   UNL     1       4.114   3.238  -8.756  1.00  0.00     0.029 A 
ATOM     40  N   UNL     1       3.083   4.408 -10.357  1.00  0.00    -0.354 N 
ATOM     41  C   UNL     1       0.437   7.664  -9.409  1.00  0.00     0.074 A 
ATOM     42  C   UNL     1       0.296   7.823  -7.977  1.00  0.00     0.031 C 
ATOM     43  C   UNL     1       4.475   2.710  -9.936  1.00  0.00     0.029 A 
ATOM     44  C   UNL     1       3.815   3.445 -11.010  1.00  0.00     0.049 A 
ATOM     45  H   UNL     1       2.512   5.060 -10.825  1.00  0.00     0.167 HD
ATOM     46  C   UNL     1      -0.201   8.428 -10.329  1.00  0.00     0.037 A 
ATOM     47  C   UNL     1       3.948   3.184 -12.324  1.00  0.00     0.037 A 
ATOM     48  C   UNL     1      -0.056   8.279 -11.755  1.00  0.00     0.049 A 
ATOM     49  C   UNL     1       3.233   4.049 -13.325  1.00  0.00     0.074 A 
ATOM     50  C   UNL     1      -0.619   9.042 -12.765  1.00  0.00     0.029 A 
ATOM     51  N   UNL     1       0.700   7.296 -12.376  1.00  0.00    -0.354 N 
ATOM     52  N   UNL     1       2.446   5.077 -13.119  1.00  0.00    -0.248 NA
ATOM     53  C   UNL     1       3.438   3.724 -14.743  1.00  0.00     0.031 C 
ATOM     54  C   UNL     1      -0.245   8.489 -13.995  1.00  0.00     0.029 A 
ATOM     55  C   UNL     1       0.599   7.419 -13.754  1.00  0.00     0.049 A 
ATOM     56  H   UNL     1       1.231   6.611 -11.908  1.00  0.00     0.167 HD
ATOM     57  C   UNL     1       2.085   5.538 -14.378  1.00  0.00     0.074 A 
ATOM     58  C   UNL     1       2.758   4.692 -15.341  1.00  0.00     0.031 C 
ATOM     59  C   UNL     1       1.270   6.571 -14.707  1.00  0.00     0.037 A 
BRANCH  46  60
ATOM     60  C   UNL     1      -1.118   9.506  -9.820  1.00  0.00     0.057 A 
ATOM     61  C   UNL     1      -0.629  10.646  -9.166  1.00  0.00     0.134 A 
ATOM     62  C   UNL     1      -2.502   9.428 -10.024  1.00  0.00     0.134 A 
ATOM     63  F   UNL     1       0.685  10.783  -8.931  1.00  0.00    -0.206 F 
ATOM     64  C   UNL     1      -1.483  11.652  -8.710  1.00  0.00     0.040 A 
ATOM     65  C   UNL     1      -3.363  10.441  -9.599  1.00  0.00     0.040 A 
ATOM     66  F   UNL     1      -3.039   8.371 -10.652  1.00  0.00    -0.206 F 
ATOM     67  C   UNL     1      -2.855  11.554  -8.932  1.00  0.00     0.006 A 
ENDBRANCH  46  60
BRANCH  47  68
ATOM     68  C   UNL     1       4.824   2.072 -12.777  1.00  0.00     0.057 A 
ATOM     69  C   UNL     1       6.021   2.324 -13.457  1.00  0.00     0.134 A 
ATOM     70  C   UNL     1       4.479   0.734 -12.554  1.00  0.00     0.134 A 
ATOM     71  F   UNL     1       6.397   3.584 -13.719  1.00  0.00    -0.206 F 
ATOM     72  C   UNL     1       6.833   1.286 -13.920  1.00  0.00     0.040 A 
ATOM     73  C   UNL     1       5.295  -0.313 -12.985  1.00  0.00     0.040 A 
ATOM     74  F   UNL     1       3.349   0.425 -11.901  1.00  0.00    -0.206 F 
ATOM     75  C   UNL     1       6.472  -0.038 -13.678  1.00  0.00     0.006 A 
ENDBRANCH  47  68
BRANCH  59  76
ATOM     76  C   UNL     1       1.092   6.862 -16.170  1.00  0.00     0.057 A 
ATOM     77  C   UNL     1       0.390   5.998 -17.022  1.00  0.00     0.134 A 
ATOM     78  C   UNL     1       1.627   8.027 -16.735  1.00  0.00     0.134 A 
ATOM     79  F   UNL     1      -0.139   4.859 -16.549  1.00  0.00    -0.206 F 
ATOM     80  C   UNL     1       0.261   6.262 -18.387  1.00  0.00     0.040 A 
ATOM     81  C   UNL     1       1.477   8.318 -18.092  1.00  0.00     0.040 A 
ATOM     82  F   UNL     1       2.301   8.905 -15.977  1.00  0.00    -0.206 F 
ATOM     83  C   UNL     1       0.803   7.428 -18.924  1.00  0.00     0.006 A 
ENDBRANCH  59  76
ENDBRANCH  33  34
ENDBRANCH  25  28
ENDBRANCH  23  24
ENDBRANCH   1  23
TORSDOF 13
