REMARK SMILES Cc1ccc(-c2cc(OCC(=O)NCCCCNC(=O)c3ccc(-c4c5nc(c(-c6c(F)cccc6F)c6ccc([nH]6)c(-c6c(F)cccc6F)c6nc(c(-c7c(F)cccc7F)c7ccc4[nH]7)C=C6)C=C5)cc3)nc(NCc3ccc4c(c3)OCO4)n2)cc1
REMARK SMILES IDX 14 1 13 2 11 3 12 4 10 6 9 7 8 8 6 9 7 10 88 11 76 12 75 13
REMARK SMILES IDX 5 14 1 15 2 16 3 17 90 18 4 19 89 20 77 21 78 23 79 24 80 25
REMARK SMILES IDX 84 26 81 27 83 28 82 29 85 30 87 31 86 32 15 33 16 34 17 35
REMARK SMILES IDX 18 36 19 37 20 39 21 40 22 41 74 42 23 43 73 44 24 45 25 46
REMARK SMILES IDX 26 47 67 48 27 49 72 50 66 51 68 52 28 53 71 54 65 55 64 56
REMARK SMILES IDX 29 58 55 59 38 60 54 61 39 62 42 63 53 64 69 65 40 66 41 67
REMARK SMILES IDX 52 69 70 70 43 71 30 72 31 73 36 74 32 75 33 76 35 77 37 78
REMARK SMILES IDX 34 79 56 80 57 81 62 82 58 83 59 84 61 85 63 86 60 87 44 88
REMARK SMILES IDX 45 89 50 90 46 91 47 92 49 93 51 94 48 95
REMARK H PARENT 13 5 77 22 18 38 68 57 42 68
REMARK Flexibility Score: inf
ROOT
ATOM      1  C   UNL     1      -6.810   3.972  -1.613  1.00  0.00     0.116 C 
ENDROOT
BRANCH   1   2
ATOM      2  N   UNL     1      -5.398   3.957  -1.954  1.00  0.00    -0.353 N 
ATOM      3  C   UNL     1      -4.685   2.996  -2.610  1.00  0.00     0.258 C 
ATOM      4  O   UNL     1      -3.486   3.190  -2.824  1.00  0.00    -0.271 OA
ATOM      5  H   UNL     1      -4.885   4.748  -1.674  1.00  0.00     0.163 HD
BRANCH   3   6
ATOM      6  C   UNL     1      -5.377   1.709  -3.075  1.00  0.00     0.331 C 
BRANCH   6   7
ATOM      7  O   UNL     1      -5.970   0.914  -2.066  1.00  0.00    -0.467 OA
BRANCH   7   8
ATOM      8  C   UNL     1      -5.157   0.456  -1.068  1.00  0.00     0.219 A 
ATOM      9  C   UNL     1      -3.156  -0.076   0.001  1.00  0.00     0.080 A 
ATOM     10  C   UNL     1      -3.794   0.357  -1.142  1.00  0.00     0.097 A 
ATOM     11  N   UNL     1      -3.822  -0.442   1.114  1.00  0.00    -0.213 NA
ATOM     12  C   UNL     1      -5.152  -0.317   1.091  1.00  0.00     0.226 A 
ATOM     13  N   UNL     1      -5.842   0.126   0.037  1.00  0.00    -0.177 NA
BRANCH   9  14
ATOM     14  C   UNL     1      -1.693  -0.087   0.075  1.00  0.00     0.000 A 
ATOM     15  C   UNL     1       2.634  -0.077   0.038  1.00  0.00     0.044 C 
ATOM     16  C   UNL     1       1.134  -0.072   0.074  1.00  0.00    -0.051 A 
ATOM     17  C   UNL     1       0.427  -1.279   0.151  1.00  0.00     0.004 A 
ATOM     18  C   UNL     1       0.423   1.128   0.011  1.00  0.00     0.004 A 
ATOM     19  C   UNL     1      -0.973  -1.285   0.160  1.00  0.00     0.010 A 
ATOM     20  C   UNL     1      -0.974   1.119   0.010  1.00  0.00     0.010 A 
ENDBRANCH   9  14
BRANCH  12  21
ATOM     21  N   UNL     1      -5.910  -0.605   2.194  1.00  0.00    -0.350 N 
ATOM     22  H   UNL     1      -6.766  -0.136   2.326  1.00  0.00     0.164 HD
BRANCH  21  23
ATOM     23  C   UNL     1      -5.485  -1.579   3.165  1.00  0.00     0.152 C 
BRANCH  23  24
ATOM     24  C   UNL     1      -5.830  -3.006   2.772  1.00  0.00    -0.025 A 
ATOM     25  C   UNL     1      -5.242  -4.068   3.503  1.00  0.00     0.009 A 
ATOM     26  C   UNL     1      -6.720  -3.315   1.726  1.00  0.00     0.056 A 
ATOM     27  C   UNL     1      -5.492  -5.406   3.175  1.00  0.00     0.051 A 
ATOM     28  C   UNL     1      -6.928  -4.641   1.410  1.00  0.00     0.166 A 
ATOM     29  C   UNL     1      -6.325  -5.657   2.110  1.00  0.00     0.165 A 
ATOM     30  O   UNL     1      -7.704  -5.100   0.392  1.00  0.00    -0.454 OA
ATOM     31  O   UNL     1      -6.640  -6.884   1.612  1.00  0.00    -0.454 OA
ATOM     32  C   UNL     1      -7.393  -6.506   0.440  1.00  0.00     0.468 C 
ENDBRANCH  23  24
ENDBRANCH  21  23
ENDBRANCH  12  21
ENDBRANCH   7   8
ENDBRANCH   6   7
ENDBRANCH   3   6
ENDBRANCH   1   2
BRANCH   1  33
ATOM     33  C   UNL     1      -7.103   3.591  -0.156  1.00  0.00     0.023 C 
BRANCH  33  34
ATOM     34  C   UNL     1      -6.301   4.339   0.911  1.00  0.00     0.023 C 
BRANCH  34  35
ATOM     35  C   UNL     1      -6.546   5.839   0.951  1.00  0.00     0.116 C 
BRANCH  35  36
ATOM     36  N   UNL     1      -7.703   6.259   1.729  1.00  0.00    -0.352 N 
ATOM     37  C   UNL     1      -8.294   7.510   1.845  1.00  0.00     0.251 C 
ATOM     38  H   UNL     1      -8.133   5.545   2.253  1.00  0.00     0.163 HD
ATOM     39  O   UNL     1      -9.215   7.672   2.627  1.00  0.00    -0.269 OA
BRANCH  37  40
ATOM     40  C   UNL     1      -7.912   8.611   0.915  1.00  0.00     0.039 A 
ATOM     41  C   UNL     1      -8.937   9.432   0.421  1.00  0.00     0.014 A 
ATOM     42  C   UNL     1      -6.638   8.703   0.369  1.00  0.00     0.014 A 
ATOM     43  C   UNL     1      -8.754  10.112  -0.781  1.00  0.00     0.010 A 
ATOM     44  C   UNL     1      -6.488   9.272  -0.878  1.00  0.00     0.010 A 
ATOM     45  C   UNL     1      -7.568   9.915  -1.484  1.00  0.00    -0.014 A 
BRANCH  45  46
ATOM     46  C   UNL     1      -7.416  10.203  -2.903  1.00  0.00     0.031 A 
ATOM     47  C   UNL     1      -6.564  11.314  -3.366  1.00  0.00     0.074 A 
ATOM     48  C   UNL     1      -7.949   9.345  -3.801  1.00  0.00     0.049 A 
ATOM     49  N   UNL     1      -6.699  11.892  -4.512  1.00  0.00    -0.248 NA
ATOM     50  C   UNL     1      -5.490  11.877  -2.558  1.00  0.00     0.031 C 
ATOM     51  C   UNL     1      -7.657   9.257  -5.229  1.00  0.00     0.029 A 
ATOM     52  N   UNL     1      -9.036   8.481  -3.615  1.00  0.00    -0.354 N 
ATOM     53  C   UNL     1      -5.583  12.669  -4.715  1.00  0.00     0.074 A 
ATOM     54  C   UNL     1      -4.894  12.681  -3.444  1.00  0.00     0.031 C 
ATOM     55  C   UNL     1      -8.677   8.635  -5.842  1.00  0.00     0.029 A 
ATOM     56  C   UNL     1      -9.718   8.440  -4.849  1.00  0.00     0.049 A 
ATOM     57  H   UNL     1      -9.274   7.999  -2.790  1.00  0.00     0.167 HD
ATOM     58  C   UNL     1      -5.279  13.095  -5.974  1.00  0.00     0.037 A 
ATOM     59  C   UNL     1     -11.001   8.890  -4.965  1.00  0.00     0.037 A 
ATOM     60  C   UNL     1      -6.268  12.635  -6.946  1.00  0.00     0.049 A 
ATOM     61  C   UNL     1     -11.162  10.021  -5.953  1.00  0.00     0.074 A 
ATOM     62  C   UNL     1      -6.283  11.562  -7.822  1.00  0.00     0.029 A 
ATOM     63  N   UNL     1      -7.573  13.109  -6.885  1.00  0.00    -0.354 N 
ATOM     64  N   UNL     1     -10.178  10.775  -6.360  1.00  0.00    -0.248 NA
ATOM     65  C   UNL     1     -12.436  10.398  -6.556  1.00  0.00     0.031 C 
ATOM     66  C   UNL     1      -7.612  11.372  -8.269  1.00  0.00     0.029 A 
ATOM     67  C   UNL     1      -8.404  12.338  -7.674  1.00  0.00     0.049 A 
ATOM     68  H   UNL     1      -7.865  13.885  -6.354  1.00  0.00     0.167 HD
ATOM     69  C   UNL     1     -10.650  11.717  -7.240  1.00  0.00     0.074 A 
ATOM     70  C   UNL     1     -12.068  11.426  -7.342  1.00  0.00     0.031 C 
ATOM     71  C   UNL     1      -9.820  12.647  -7.803  1.00  0.00     0.037 A 
BRANCH  58  72
ATOM     72  C   UNL     1      -3.922  13.644  -6.344  1.00  0.00     0.057 A 
ATOM     73  C   UNL     1      -3.334  13.368  -7.594  1.00  0.00     0.134 A 
ATOM     74  C   UNL     1      -3.124  14.416  -5.483  1.00  0.00     0.134 A 
ATOM     75  F   UNL     1      -4.004  12.744  -8.570  1.00  0.00    -0.206 F 
ATOM     76  C   UNL     1      -2.014  13.715  -7.908  1.00  0.00     0.040 A 
ATOM     77  C   UNL     1      -1.784  14.725  -5.762  1.00  0.00     0.040 A 
ATOM     78  F   UNL     1      -3.622  14.932  -4.351  1.00  0.00    -0.206 F 
ATOM     79  C   UNL     1      -1.218  14.358  -6.974  1.00  0.00     0.006 A 
ENDBRANCH  58  72
BRANCH  59  80
ATOM     80  C   UNL     1     -11.793   8.710  -3.720  1.00  0.00     0.057 A 
ATOM     81  C   UNL     1     -12.039   7.400  -3.269  1.00  0.00     0.134 A 
ATOM     82  C   UNL     1     -11.948   9.742  -2.790  1.00  0.00     0.134 A 
ATOM     83  F   UNL     1     -11.904   6.362  -4.111  1.00  0.00    -0.206 F 
ATOM     84  C   UNL     1     -12.303   7.117  -1.927  1.00  0.00     0.040 A 
ATOM     85  C   UNL     1     -12.228   9.471  -1.445  1.00  0.00     0.040 A 
ATOM     86  F   UNL     1     -11.711  11.015  -3.137  1.00  0.00    -0.206 F 
ATOM     87  C   UNL     1     -12.363   8.155  -1.002  1.00  0.00     0.006 A 
ENDBRANCH  59  80
BRANCH  71  88
ATOM     88  C   UNL     1     -10.214  13.870  -8.605  1.00  0.00     0.057 A 
ATOM     89  C   UNL     1     -11.463  14.502  -8.542  1.00  0.00     0.134 A 
ATOM     90  C   UNL     1      -9.249  14.552  -9.390  1.00  0.00     0.134 A 
ATOM     91  F   UNL     1     -12.447  14.044  -7.759  1.00  0.00    -0.206 F 
ATOM     92  C   UNL     1     -11.748  15.686  -9.242  1.00  0.00     0.040 A 
ATOM     93  C   UNL     1      -9.504  15.761 -10.043  1.00  0.00     0.040 A 
ATOM     94  F   UNL     1      -7.999  14.090  -9.539  1.00  0.00    -0.206 F 
ATOM     95  C   UNL     1     -10.764  16.328  -9.983  1.00  0.00     0.006 A 
ENDBRANCH  71  88
ENDBRANCH  45  46
ENDBRANCH  37  40
ENDBRANCH  35  36
ENDBRANCH  34  35
ENDBRANCH  33  34
ENDBRANCH   1  33
TORSDOF 17
