REMARK SMILES C[C@@]1(Oc2c[nH]c3ccc(Br)c(Cl)c23)O[C@@H](C(=O)NCCCCNC(=O)c2ccc(-c3c4nc(c(-c5c(F)cccc5F)c5ccc([nH]5)c(-c5c(F)cccc5F)c5nc(c(-c6c(F)cccc6F)c6ccc3[nH]6)C=C5)C=C4)cc2)[C@@](C)(O)[C@@](C)(O)[C@@]1(C)O
REMARK SMILES IDX 21 1 20 2 19 3 17 4 18 5 16 7 1 8 2 9 15 10 87 11 84 12
REMARK SMILES IDX 88 13 81 14 85 15 82 16 3 17 4 18 5 19 14 20 6 21 7 22 12 23
REMARK SMILES IDX 8 25 10 26 13 27 9 28 11 29 89 30 86 32 83 34 22 36 23 37
REMARK SMILES IDX 24 38 25 39 26 41 27 42 28 43 80 44 29 45 79 46 30 47 31 48
REMARK SMILES IDX 32 49 73 50 33 51 78 52 72 53 74 54 34 55 77 56 71 57 70 58
REMARK SMILES IDX 35 60 61 61 44 62 60 63 45 64 48 65 59 66 75 67 46 68 47 69
REMARK SMILES IDX 58 71 76 72 49 73 36 74 37 75 42 76 38 77 39 78 41 79 43 80
REMARK SMILES IDX 40 81 62 82 63 83 68 84 64 85 65 86 67 87 69 88 66 89 50 90
REMARK SMILES IDX 51 91 56 92 52 93 53 94 55 95 57 96 54 97
REMARK H PARENT 19 6 6 24 89 31 86 33 83 35 24 40 74 59 48 70
REMARK Flexibility Score: inf
ROOT
ATOM      1  C   UNL     1       4.341   1.953   1.489  1.00  0.00     0.023 C 
ENDROOT
BRANCH   1   2
ATOM      2  C   UNL     1       3.256   0.958   1.031  1.00  0.00     0.116 C 
BRANCH   2   3
ATOM      3  N   UNL     1       2.380   0.346   2.052  1.00  0.00    -0.354 N 
ATOM      4  C   UNL     1       1.027   0.135   2.192  1.00  0.00     0.252 C 
ATOM      5  O   UNL     1       0.759  -0.885   2.854  1.00  0.00    -0.272 OA
ATOM      6  H   UNL     1       2.890   0.006   2.823  1.00  0.00     0.163 HD
BRANCH   4   7
ATOM      7  C   UNL     1      -0.217   1.071   1.734  1.00  0.00     0.246 C 
ATOM      8  C   UNL     1       1.042   0.924  -1.041  1.00  0.00     0.094 C 
ATOM      9  C   UNL     1       0.139   2.056  -0.513  1.00  0.00     0.240 C 
ATOM     10  O   UNL     1      -0.721   1.281   0.392  1.00  0.00    -0.322 OA
ATOM     11  C   UNL     1       0.369   3.413   0.305  1.00  0.00     0.158 C 
ATOM     12  C   UNL     1       0.614   3.396   1.861  1.00  0.00     0.128 C 
ATOM     13  C   UNL     1      -0.901   4.282   0.040  1.00  0.00     0.053 C 
ATOM     14  C   UNL     1      -0.276   2.388   2.585  1.00  0.00     0.129 C 
ATOM     15  C   UNL     1       0.687   4.818   2.478  1.00  0.00     0.049 C 
ATOM     16  C   UNL     1      -1.703   2.888   2.851  1.00  0.00     0.049 C 
BRANCH   9  17
ATOM     17  O   UNL     1      -0.537   2.351  -1.793  1.00  0.00    -0.457 OA
BRANCH  17  18
ATOM     18  C   UNL     1      -0.135   3.253  -2.769  1.00  0.00     0.150 A 
ATOM     19  C   UNL     1      -0.921   3.238  -3.905  1.00  0.00     0.130 A 
ATOM     20  C   UNL     1       0.606   4.514  -2.869  1.00  0.00     0.061 A 
ATOM     21  N   UNL     1      -0.981   4.513  -4.403  1.00  0.00    -0.358 N 
ATOM     22  C   UNL     1      -0.244   5.351  -3.608  1.00  0.00     0.051 A 
ATOM     23  C   UNL     1       1.720   5.198  -2.332  1.00  0.00     0.068 A 
ATOM     24  H   UNL     1      -1.478   4.785  -5.209  1.00  0.00     0.166 HD
ATOM     25  C   UNL     1      -0.243   6.754  -3.498  1.00  0.00     0.028 A 
ATOM     26  C   UNL     1       1.691   6.578  -2.080  1.00  0.00     0.037 A 
ATOM     27  Cl  UNL     1       3.152   4.259  -2.279  1.00  0.00    -0.082 Cl
ATOM     28  C   UNL     1       0.666   7.343  -2.616  1.00  0.00     0.019 A 
ATOM     29  Br  UNL     1       2.965   7.435  -0.962  1.00  0.00    -0.049 Br
ENDBRANCH  17  18
ENDBRANCH   9  17
BRANCH  11  30
ATOM     30  O   UNL     1       1.505   4.110  -0.139  1.00  0.00    -0.380 OA
ATOM     31  H   UNL     1       2.297   3.575   0.023  1.00  0.00     0.211 HD
ENDBRANCH  11  30
BRANCH  12  32
ATOM     32  O   UNL     1       1.957   2.974   2.141  1.00  0.00    -0.384 OA
ATOM     33  H   UNL     1       2.088   2.071   1.809  1.00  0.00     0.211 HD
ENDBRANCH  12  32
BRANCH  14  34
ATOM     34  O   UNL     1       0.294   2.167   3.902  1.00  0.00    -0.384 OA
ATOM     35  H   UNL     1       1.206   1.847   3.810  1.00  0.00     0.211 HD
ENDBRANCH  14  34
ENDBRANCH   4   7
ENDBRANCH   2   3
ENDBRANCH   1   2
BRANCH   1  36
ATOM     36  C   UNL     1       5.755   1.739   0.934  1.00  0.00     0.023 C 
BRANCH  36  37
ATOM     37  C   UNL     1       5.868   1.633  -0.583  1.00  0.00     0.116 C 
BRANCH  37  38
ATOM     38  N   UNL     1       5.860   2.901  -1.310  1.00  0.00    -0.352 N 
ATOM     39  C   UNL     1       6.138   3.072  -2.659  1.00  0.00     0.251 C 
ATOM     40  H   UNL     1       5.636   3.710  -0.794  1.00  0.00     0.163 HD
ATOM     41  O   UNL     1       6.386   4.167  -3.155  1.00  0.00    -0.269 OA
BRANCH  39  42
ATOM     42  C   UNL     1       6.114   1.870  -3.505  1.00  0.00     0.039 A 
ATOM     43  C   UNL     1       7.223   1.516  -4.276  1.00  0.00     0.014 A 
ATOM     44  C   UNL     1       5.016   1.021  -3.370  1.00  0.00     0.014 A 
ATOM     45  C   UNL     1       7.278   0.232  -4.803  1.00  0.00     0.010 A 
ATOM     46  C   UNL     1       5.134  -0.284  -3.770  1.00  0.00     0.010 A 
ATOM     47  C   UNL     1       6.250  -0.677  -4.505  1.00  0.00    -0.014 A 
BRANCH  47  48
ATOM     48  C   UNL     1       6.384  -2.079  -4.872  1.00  0.00     0.031 A 
ATOM     49  C   UNL     1       7.596  -2.772  -4.350  1.00  0.00     0.074 A 
ATOM     50  C   UNL     1       5.387  -2.762  -5.468  1.00  0.00     0.049 A 
ATOM     51  N   UNL     1       8.611  -3.202  -5.024  1.00  0.00    -0.248 NA
ATOM     52  C   UNL     1       7.755  -2.905  -2.894  1.00  0.00     0.031 C 
ATOM     53  C   UNL     1       4.021  -2.317  -5.768  1.00  0.00     0.029 A 
ATOM     54  N   UNL     1       5.377  -4.060  -5.868  1.00  0.00    -0.354 N 
ATOM     55  C   UNL     1       9.450  -3.839  -4.110  1.00  0.00     0.074 A 
ATOM     56  C   UNL     1       8.958  -3.479  -2.805  1.00  0.00     0.031 C 
ATOM     57  C   UNL     1       3.261  -3.381  -6.106  1.00  0.00     0.029 A 
ATOM     58  C   UNL     1       4.126  -4.538  -6.224  1.00  0.00     0.049 A 
ATOM     59  H   UNL     1       6.190  -4.614  -5.902  1.00  0.00     0.167 HD
ATOM     60  C   UNL     1      10.337  -4.793  -4.514  1.00  0.00     0.037 A 
ATOM     61  C   UNL     1       3.816  -5.802  -6.594  1.00  0.00     0.037 A 
ATOM     62  C   UNL     1      10.520  -4.747  -5.945  1.00  0.00     0.049 A 
ATOM     63  C   UNL     1       5.071  -6.454  -7.036  1.00  0.00     0.074 A 
ATOM     64  C   UNL     1      10.995  -3.816  -6.846  1.00  0.00     0.029 A 
ATOM     65  N   UNL     1       9.835  -5.672  -6.695  1.00  0.00    -0.354 N 
ATOM     66  N   UNL     1       5.727  -6.100  -8.107  1.00  0.00    -0.248 NA
ATOM     67  C   UNL     1       5.848  -7.181  -6.045  1.00  0.00     0.031 C 
ATOM     68  C   UNL     1      10.167  -3.964  -8.000  1.00  0.00     0.029 A 
ATOM     69  C   UNL     1       9.277  -5.013  -7.758  1.00  0.00     0.049 A 
ATOM     70  H   UNL     1       9.758  -6.634  -6.502  1.00  0.00     0.167 HD
ATOM     71  C   UNL     1       7.065  -6.168  -7.745  1.00  0.00     0.074 A 
ATOM     72  C   UNL     1       7.080  -6.940  -6.504  1.00  0.00     0.031 C 
ATOM     73  C   UNL     1       7.995  -5.355  -8.331  1.00  0.00     0.037 A 
BRANCH  60  74
ATOM     74  C   UNL     1      10.731  -6.019  -3.714  1.00  0.00     0.057 A 
ATOM     75  C   UNL     1      10.001  -6.532  -2.625  1.00  0.00     0.134 A 
ATOM     76  C   UNL     1      11.685  -6.905  -4.256  1.00  0.00     0.134 A 
ATOM     77  F   UNL     1       9.040  -5.838  -2.007  1.00  0.00    -0.206 F 
ATOM     78  C   UNL     1      10.149  -7.845  -2.163  1.00  0.00     0.040 A 
ATOM     79  C   UNL     1      11.807  -8.235  -3.833  1.00  0.00     0.040 A 
ATOM     80  F   UNL     1      12.466  -6.535  -5.282  1.00  0.00    -0.206 F 
ATOM     81  C   UNL     1      11.022  -8.715  -2.795  1.00  0.00     0.006 A 
ENDBRANCH  60  74
BRANCH  61  82
ATOM     82  C   UNL     1       2.558  -6.530  -6.343  1.00  0.00     0.057 A 
ATOM     83  C   UNL     1       1.814  -6.299  -5.172  1.00  0.00     0.134 A 
ATOM     84  C   UNL     1       2.181  -7.637  -7.110  1.00  0.00     0.134 A 
ATOM     85  F   UNL     1       2.145  -5.309  -4.328  1.00  0.00    -0.206 F 
ATOM     86  C   UNL     1       0.759  -7.126  -4.780  1.00  0.00     0.040 A 
ATOM     87  C   UNL     1       1.127  -8.477  -6.727  1.00  0.00     0.040 A 
ATOM     88  F   UNL     1       2.859  -7.958  -8.221  1.00  0.00    -0.206 F 
ATOM     89  C   UNL     1       0.419  -8.228  -5.554  1.00  0.00     0.006 A 
ENDBRANCH  61  82
BRANCH  73  90
ATOM     90  C   UNL     1       7.561  -4.572  -9.541  1.00  0.00     0.057 A 
ATOM     91  C   UNL     1       8.229  -4.767 -10.753  1.00  0.00     0.134 A 
ATOM     92  C   UNL     1       6.597  -3.553  -9.510  1.00  0.00     0.134 A 
ATOM     93  F   UNL     1       9.209  -5.679 -10.845  1.00  0.00    -0.206 F 
ATOM     94  C   UNL     1       7.938  -4.003 -11.886  1.00  0.00     0.040 A 
ATOM     95  C   UNL     1       6.272  -2.802 -10.644  1.00  0.00     0.040 A 
ATOM     96  F   UNL     1       5.980  -3.218  -8.373  1.00  0.00    -0.206 F 
ATOM     97  C   UNL     1       6.947  -3.025 -11.838  1.00  0.00     0.006 A 
ENDBRANCH  73  90
ENDBRANCH  47  48
ENDBRANCH  39  42
ENDBRANCH  37  38
ENDBRANCH  36  37
ENDBRANCH   1  36
TORSDOF 16
