REMARK SMILES CCOC[C@@H](O)C[C@]1(C(=O)NCCCCNC(=O)c2ccc(-c3c4nc(c(-c5c(F)cccc5F)c5ccc([nH]5)c(-c5c(F)cccc5F)c5nc(c(-c6c(F)cccc6F)c6ccc3[nH]6)C=C5)C=C4)cc2)CCc2ccccc21
REMARK SMILES IDX 12 1 11 2 9 3 10 4 8 6 73 7 80 8 74 9 75 10 79 11 76 12
REMARK SMILES IDX 78 13 77 14 7 15 5 16 4 17 3 18 2 19 1 20 6 21 13 23 14 24
REMARK SMILES IDX 15 25 16 26 17 27 18 29 19 30 20 31 72 32 21 33 71 34 22 35
REMARK SMILES IDX 23 36 24 37 65 38 25 39 70 40 64 41 66 42 26 43 69 44 63 45
REMARK SMILES IDX 62 46 27 48 53 49 36 50 52 51 37 52 40 53 51 54 67 55 38 56
REMARK SMILES IDX 39 57 50 59 68 60 41 61 28 62 29 63 34 64 30 65 31 66 33 67
REMARK SMILES IDX 35 68 32 69 54 70 55 71 60 72 56 73 57 74 59 75 61 76 58 77
REMARK SMILES IDX 42 78 43 79 48 80 44 81 45 82 47 83 49 84 46 85
REMARK H PARENT 11 5 6 22 16 28 66 47 40 58
REMARK Flexibility Score: inf
ROOT
ATOM      1  C   UNL     1       5.516   1.978   6.488  1.00  0.00     0.116 C 
ENDROOT
BRANCH   1   2
ATOM      2  N   UNL     1       4.764   0.776   6.217  1.00  0.00    -0.355 N 
ATOM      3  C   UNL     1       4.535   0.088   5.069  1.00  0.00     0.230 C 
ATOM      4  O   UNL     1       3.983  -1.006   5.237  1.00  0.00    -0.274 OA
ATOM      5  H   UNL     1       4.338   0.382   7.012  1.00  0.00     0.163 HD
BRANCH   3   6
ATOM      6  C   UNL     1       4.958   0.567   3.649  1.00  0.00     0.077 C 
ATOM      7  C   UNL     1       4.591   2.030   3.270  1.00  0.00     0.026 C 
ATOM      8  C   UNL     1       6.476   0.609   3.528  1.00  0.00    -0.029 A 
ATOM      9  C   UNL     1       5.851   2.903   3.206  1.00  0.00     0.037 C 
ATOM     10  C   UNL     1       6.952   1.903   3.289  1.00  0.00    -0.044 A 
ATOM     11  C   UNL     1       7.370  -0.443   3.693  1.00  0.00     0.005 A 
ATOM     12  C   UNL     1       8.311   2.176   3.241  1.00  0.00     0.004 A 
ATOM     13  C   UNL     1       8.741  -0.179   3.634  1.00  0.00     0.000 A 
ATOM     14  C   UNL     1       9.209   1.124   3.417  1.00  0.00     0.000 A 
BRANCH   6  15
ATOM     15  C   UNL     1       4.370  -0.423   2.591  1.00  0.00     0.056 C 
BRANCH  15  16
ATOM     16  C   UNL     1       2.837  -0.655   2.543  1.00  0.00     0.141 C 
BRANCH  16  17
ATOM     17  C   UNL     1       2.002   0.586   2.183  1.00  0.00     0.191 C 
BRANCH  17  18
ATOM     18  O   UNL     1       0.586   0.387   2.164  1.00  0.00    -0.379 OA
BRANCH  18  19
ATOM     19  C   UNL     1       0.047  -0.381   1.093  1.00  0.00     0.157 C 
ATOM     20  C   UNL     1       0.505   0.042  -0.293  1.00  0.00     0.035 C 
ENDBRANCH  18  19
ENDBRANCH  17  18
ENDBRANCH  16  17
BRANCH  16  21
ATOM     21  O   UNL     1       2.644  -1.672   1.545  1.00  0.00    -0.391 OA
ATOM     22  H   UNL     1       2.974  -1.353   0.690  1.00  0.00     0.211 HD
ENDBRANCH  16  21
ENDBRANCH  15  16
ENDBRANCH   6  15
ENDBRANCH   3   6
ENDBRANCH   1   2
BRANCH   1  23
ATOM     23  C   UNL     1       4.604   3.182   6.697  1.00  0.00     0.023 C 
BRANCH  23  24
ATOM     24  C   UNL     1       3.919   3.221   8.062  1.00  0.00     0.023 C 
BRANCH  24  25
ATOM     25  C   UNL     1       4.865   3.163   9.255  1.00  0.00     0.116 C 
BRANCH  25  26
ATOM     26  N   UNL     1       5.923   4.159   9.203  1.00  0.00    -0.352 N 
ATOM     27  C   UNL     1       6.553   4.789  10.250  1.00  0.00     0.251 C 
ATOM     28  H   UNL     1       6.228   4.415   8.303  1.00  0.00     0.163 HD
ATOM     29  O   UNL     1       7.358   5.685  10.047  1.00  0.00    -0.269 OA
BRANCH  27  30
ATOM     30  C   UNL     1       6.207   4.391  11.629  1.00  0.00     0.039 A 
ATOM     31  C   UNL     1       5.877   5.386  12.550  1.00  0.00     0.014 A 
ATOM     32  C   UNL     1       6.173   3.043  11.993  1.00  0.00     0.014 A 
ATOM     33  C   UNL     1       5.459   5.021  13.829  1.00  0.00     0.010 A 
ATOM     34  C   UNL     1       5.679   2.679  13.239  1.00  0.00     0.010 A 
ATOM     35  C   UNL     1       5.330   3.665  14.174  1.00  0.00    -0.014 A 
BRANCH  35  36
ATOM     36  C   UNL     1       4.853   3.264  15.518  1.00  0.00     0.031 A 
ATOM     37  C   UNL     1       5.770   2.522  16.449  1.00  0.00     0.074 A 
ATOM     38  C   UNL     1       3.583   3.528  15.881  1.00  0.00     0.049 A 
ATOM     39  N   UNL     1       5.535   2.070  17.654  1.00  0.00    -0.248 NA
ATOM     40  C   UNL     1       7.121   2.221  15.949  1.00  0.00     0.031 C 
ATOM     41  C   UNL     1       2.581   4.188  15.041  1.00  0.00     0.029 A 
ATOM     42  N   UNL     1       2.918   3.272  17.052  1.00  0.00    -0.354 N 
ATOM     43  C   UNL     1       6.700   1.424  18.048  1.00  0.00     0.074 A 
ATOM     44  C   UNL     1       7.617   1.487  16.932  1.00  0.00     0.031 C 
ATOM     45  C   UNL     1       1.439   4.312  15.736  1.00  0.00     0.029 A 
ATOM     46  C   UNL     1       1.619   3.719  17.057  1.00  0.00     0.049 A 
ATOM     47  H   UNL     1       3.332   2.810  17.817  1.00  0.00     0.167 HD
ATOM     48  C   UNL     1       6.991   0.857  19.242  1.00  0.00     0.037 A 
ATOM     49  C   UNL     1       0.684   3.662  18.024  1.00  0.00     0.037 A 
ATOM     50  C   UNL     1       6.085   0.822  20.359  1.00  0.00     0.049 A 
ATOM     51  C   UNL     1       1.038   3.044  19.348  1.00  0.00     0.074 A 
ATOM     52  C   UNL     1       6.301   0.323  21.631  1.00  0.00     0.029 A 
ATOM     53  N   UNL     1       4.787   1.310  20.335  1.00  0.00    -0.354 N 
ATOM     54  N   UNL     1       2.169   2.504  19.733  1.00  0.00    -0.248 NA
ATOM     55  C   UNL     1      -0.011   3.040  20.376  1.00  0.00     0.031 C 
ATOM     56  C   UNL     1       5.121   0.475  22.366  1.00  0.00     0.029 A 
ATOM     57  C   UNL     1       4.185   1.112  21.567  1.00  0.00     0.049 A 
ATOM     58  H   UNL     1       4.357   1.735  19.558  1.00  0.00     0.167 HD
ATOM     59  C   UNL     1       1.978   2.124  21.055  1.00  0.00     0.074 A 
ATOM     60  C   UNL     1       0.627   2.509  21.409  1.00  0.00     0.031 C 
ATOM     61  C   UNL     1       2.842   1.511  21.902  1.00  0.00     0.037 A 
BRANCH  48  62
ATOM     62  C   UNL     1       8.350   0.239  19.398  1.00  0.00     0.057 A 
ATOM     63  C   UNL     1       9.513   1.019  19.452  1.00  0.00     0.134 A 
ATOM     64  C   UNL     1       8.498  -1.149  19.513  1.00  0.00     0.134 A 
ATOM     65  F   UNL     1       9.443   2.354  19.332  1.00  0.00    -0.206 F 
ATOM     66  C   UNL     1      10.776   0.440  19.584  1.00  0.00     0.040 A 
ATOM     67  C   UNL     1       9.753  -1.738  19.675  1.00  0.00     0.040 A 
ATOM     68  F   UNL     1       7.426  -1.954  19.473  1.00  0.00    -0.206 F 
ATOM     69  C   UNL     1      10.898  -0.943  19.703  1.00  0.00     0.006 A 
ENDBRANCH  48  62
BRANCH  49  70
ATOM     70  C   UNL     1      -0.661   4.244  17.793  1.00  0.00     0.057 A 
ATOM     71  C   UNL     1      -1.064   5.412  18.451  1.00  0.00     0.134 A 
ATOM     72  C   UNL     1      -1.578   3.646  16.921  1.00  0.00     0.134 A 
ATOM     73  F   UNL     1      -0.235   6.021  19.311  1.00  0.00    -0.206 F 
ATOM     74  C   UNL     1      -2.337   5.953  18.269  1.00  0.00     0.040 A 
ATOM     75  C   UNL     1      -2.847   4.190  16.710  1.00  0.00     0.040 A 
ATOM     76  F   UNL     1      -1.250   2.531  16.253  1.00  0.00    -0.206 F 
ATOM     77  C   UNL     1      -3.232   5.342  17.392  1.00  0.00     0.006 A 
ENDBRANCH  49  70
BRANCH  61  78
ATOM     78  C   UNL     1       2.364   1.257  23.301  1.00  0.00     0.057 A 
ATOM     79  C   UNL     1       1.407   0.276  23.590  1.00  0.00     0.134 A 
ATOM     80  C   UNL     1       2.889   1.987  24.375  1.00  0.00     0.134 A 
ATOM     81  F   UNL     1       0.856  -0.448  22.604  1.00  0.00    -0.206 F 
ATOM     82  C   UNL     1       0.969   0.049  24.896  1.00  0.00     0.040 A 
ATOM     83  C   UNL     1       2.480   1.750  25.687  1.00  0.00     0.040 A 
ATOM     84  F   UNL     1       3.816   2.934  24.167  1.00  0.00    -0.206 F 
ATOM     85  C   UNL     1       1.511   0.783  25.949  1.00  0.00     0.006 A 
ENDBRANCH  61  78
ENDBRANCH  35  36
ENDBRANCH  27  30
ENDBRANCH  25  26
ENDBRANCH  24  25
ENDBRANCH  23  24
ENDBRANCH   1  23
TORSDOF 17
