REMARK SMILES O=C(NCCCCNC(=O)[C@@H]1CC2(CCN(C(=O)C3(c4ccccc4F)CC3)CC2)C[NH2+]1)c1ccc(-c2c3nc(c(-c4c(F)cccc4F)c4ccc([nH]4)c(-c4c(F)cccc4F)c4nc(c(-c5c(F)cccc5F)c5ccc2[nH]5)C=C4)C=C3)cc1
REMARK SMILES IDX 5 1 4 2 3 3 1 4 2 5 33 7 34 8 86 9 35 10 85 11 36 12 37 13
REMARK SMILES IDX 38 14 79 15 39 16 84 17 78 18 80 19 40 20 83 21 77 22 76 23
REMARK SMILES IDX 41 25 67 26 50 27 66 28 51 29 54 30 65 31 81 32 52 33 53 34
REMARK SMILES IDX 64 36 82 37 55 38 42 39 43 40 48 41 44 42 45 43 47 44 49 45
REMARK SMILES IDX 46 46 68 47 69 48 74 49 70 50 71 51 73 52 75 53 72 54 56 55
REMARK SMILES IDX 57 56 62 57 58 58 59 59 61 60 63 61 60 62 6 63 7 64 8 65
REMARK SMILES IDX 9 66 10 68 11 69 12 70 32 71 13 72 31 73 14 76 30 77 15 78
REMARK SMILES IDX 29 79 16 80 17 81 18 82 19 83 27 84 28 85 20 86 21 87 25 88
REMARK SMILES IDX 22 89 24 90 26 91 23 92
REMARK H PARENT 3 6 80 24 54 35 8 67 32 74 32 75
REMARK Flexibility Score: inf
ROOT
ATOM      1  C   UNL     1       4.857   2.551   0.626  1.00  0.00     0.023 C 
ENDROOT
BRANCH   1   2
ATOM      2  C   UNL     1       4.499   1.080   0.787  1.00  0.00     0.116 C 
BRANCH   2   3
ATOM      3  N   UNL     1       3.065   0.845   0.780  1.00  0.00    -0.352 N 
ATOM      4  O   UNL     1       1.115  -0.001   0.019  1.00  0.00    -0.269 OA
ATOM      5  C   UNL     1       2.343  -0.030   0.005  1.00  0.00     0.251 C 
ATOM      6  H   UNL     1       2.541   1.385   1.416  1.00  0.00     0.163 HD
BRANCH   5   7
ATOM      7  C   UNL     1       3.052  -0.996  -0.860  1.00  0.00     0.039 A 
ATOM      8  C   UNL     1       4.128  -1.737  -0.362  1.00  0.00     0.014 A 
ATOM      9  C   UNL     1       2.624  -1.175  -2.178  1.00  0.00     0.014 A 
ATOM     10  C   UNL     1       4.843  -2.574  -1.211  1.00  0.00     0.010 A 
ATOM     11  C   UNL     1       3.293  -2.079  -3.008  1.00  0.00     0.010 A 
ATOM     12  C   UNL     1       4.411  -2.780  -2.531  1.00  0.00    -0.014 A 
BRANCH  12  13
ATOM     13  C   UNL     1       5.055  -3.839  -3.346  1.00  0.00     0.031 A 
ATOM     14  C   UNL     1       5.833  -3.516  -4.587  1.00  0.00     0.074 A 
ATOM     15  C   UNL     1       4.914  -5.117  -2.941  1.00  0.00     0.049 A 
ATOM     16  N   UNL     1       6.418  -4.338  -5.420  1.00  0.00    -0.248 NA
ATOM     17  C   UNL     1       5.975  -2.096  -4.946  1.00  0.00     0.031 C 
ATOM     18  C   UNL     1       4.165  -5.543  -1.754  1.00  0.00     0.029 A 
ATOM     19  N   UNL     1       5.388  -6.290  -3.470  1.00  0.00    -0.354 N 
ATOM     20  C   UNL     1       6.985  -3.542  -6.407  1.00  0.00     0.074 A 
ATOM     21  C   UNL     1       6.663  -2.170  -6.080  1.00  0.00     0.031 C 
ATOM     22  C   UNL     1       4.250  -6.875  -1.633  1.00  0.00     0.029 A 
ATOM     23  C   UNL     1       4.996  -7.404  -2.768  1.00  0.00     0.049 A 
ATOM     24  H   UNL     1       5.953  -6.330  -4.275  1.00  0.00     0.167 HD
ATOM     25  C   UNL     1       7.711  -3.933  -7.480  1.00  0.00     0.037 A 
ATOM     26  C   UNL     1       5.179  -8.713  -3.025  1.00  0.00     0.037 A 
ATOM     27  C   UNL     1       8.045  -5.302  -7.779  1.00  0.00     0.049 A 
ATOM     28  C   UNL     1       5.949  -9.111  -4.248  1.00  0.00     0.074 A 
ATOM     29  C   UNL     1       8.836  -5.786  -8.807  1.00  0.00     0.029 A 
ATOM     30  N   UNL     1       7.601  -6.403  -7.063  1.00  0.00    -0.354 N 
ATOM     31  N   UNL     1       6.526  -8.344  -5.140  1.00  0.00    -0.248 NA
ATOM     32  C   UNL     1       6.084 -10.550  -4.512  1.00  0.00     0.031 C 
ATOM     33  C   UNL     1       8.824  -7.180  -8.748  1.00  0.00     0.029 A 
ATOM     34  C   UNL     1       8.068  -7.566  -7.654  1.00  0.00     0.049 A 
ATOM     35  H   UNL     1       7.040  -6.364  -6.255  1.00  0.00     0.167 HD
ATOM     36  C   UNL     1       7.095  -9.204  -6.068  1.00  0.00     0.074 A 
ATOM     37  C   UNL     1       6.816 -10.552  -5.618  1.00  0.00     0.031 C 
ATOM     38  C   UNL     1       7.779  -8.900  -7.196  1.00  0.00     0.037 A 
BRANCH  25  39
ATOM     39  C   UNL     1       8.211  -2.888  -8.433  1.00  0.00     0.057 A 
ATOM     40  C   UNL     1       7.679  -2.798  -9.727  1.00  0.00     0.134 A 
ATOM     41  C   UNL     1       9.318  -2.087  -8.130  1.00  0.00     0.134 A 
ATOM     42  F   UNL     1       6.626  -3.548 -10.084  1.00  0.00    -0.206 F 
ATOM     43  C   UNL     1       8.250  -1.970 -10.695  1.00  0.00     0.040 A 
ATOM     44  C   UNL     1       9.886  -1.241  -9.085  1.00  0.00     0.040 A 
ATOM     45  F   UNL     1       9.872  -2.126  -6.909  1.00  0.00    -0.206 F 
ATOM     46  C   UNL     1       9.362  -1.192 -10.376  1.00  0.00     0.006 A 
ENDBRANCH  25  39
BRANCH  26  47
ATOM     47  C   UNL     1       4.583  -9.728  -2.121  1.00  0.00     0.057 A 
ATOM     48  C   UNL     1       3.193  -9.882  -2.021  1.00  0.00     0.134 A 
ATOM     49  C   UNL     1       5.381 -10.547  -1.318  1.00  0.00     0.134 A 
ATOM     50  F   UNL     1       2.371  -9.120  -2.758  1.00  0.00    -0.206 F 
ATOM     51  C   UNL     1       2.620 -10.798  -1.139  1.00  0.00     0.040 A 
ATOM     52  C   UNL     1       4.822 -11.490  -0.454  1.00  0.00     0.040 A 
ATOM     53  F   UNL     1       6.718 -10.458  -1.381  1.00  0.00    -0.206 F 
ATOM     54  C   UNL     1       3.437 -11.610  -0.356  1.00  0.00     0.006 A 
ENDBRANCH  26  47
BRANCH  38  55
ATOM     55  C   UNL     1       8.274 -10.038  -8.035  1.00  0.00     0.057 A 
ATOM     56  C   UNL     1       9.641 -10.332  -8.109  1.00  0.00     0.134 A 
ATOM     57  C   UNL     1       7.404 -10.778  -8.844  1.00  0.00     0.134 A 
ATOM     58  F   UNL     1      10.526  -9.651  -7.365  1.00  0.00    -0.206 F 
ATOM     59  C   UNL     1      10.129 -11.306  -8.980  1.00  0.00     0.040 A 
ATOM     60  C   UNL     1       7.878 -11.772  -9.701  1.00  0.00     0.040 A 
ATOM     61  F   UNL     1       6.082 -10.551  -8.806  1.00  0.00    -0.206 F 
ATOM     62  C   UNL     1       9.246 -12.029  -9.780  1.00  0.00     0.006 A 
ENDBRANCH  38  55
ENDBRANCH  12  13
ENDBRANCH   5   7
ENDBRANCH   2   3
ENDBRANCH   1   2
BRANCH   1  63
ATOM     63  C   UNL     1       4.393   3.461   1.764  1.00  0.00     0.023 C 
BRANCH  63  64
ATOM     64  C   UNL     1       4.803   3.011   3.164  1.00  0.00     0.116 C 
BRANCH  64  65
ATOM     65  N   UNL     1       6.241   2.868   3.307  1.00  0.00    -0.351 N 
ATOM     66  C   UNL     1       7.062   3.405   4.258  1.00  0.00     0.278 C 
ATOM     67  H   UNL     1       6.683   2.310   2.627  1.00  0.00     0.163 HD
ATOM     68  O   UNL     1       8.233   3.024   4.298  1.00  0.00    -0.268 OA
BRANCH  66  69
ATOM     69  C   UNL     1       6.486   4.447   5.238  1.00  0.00     0.273 C 
ATOM     70  C   UNL     1       6.203   5.781   4.567  1.00  0.00     0.088 C 
ATOM     71  N   UNL     1       7.442   4.806   6.301  1.00  0.00    -0.336 N 
ATOM     72  C   UNL     1       7.526   6.571   4.659  1.00  0.00     0.029 C 
ATOM     73  C   UNL     1       8.331   5.830   5.743  1.00  0.00     0.268 C 
ATOM     74  H   UNL     1       7.982   3.986   6.579  1.00  0.00     0.346 HD
ATOM     75  H   UNL     1       6.957   5.154   7.127  1.00  0.00     0.346 HD
ATOM     76  C   UNL     1       7.264   8.037   5.059  1.00  0.00     0.034 C 
ATOM     77  C   UNL     1       8.304   6.558   3.322  1.00  0.00     0.034 C 
ATOM     78  C   UNL     1       6.609   8.847   3.937  1.00  0.00     0.120 C 
ATOM     79  C   UNL     1       7.613   7.392   2.247  1.00  0.00     0.120 C 
ATOM     80  N   UNL     1       7.392   8.762   2.714  1.00  0.00    -0.342 N 
ATOM     81  C   UNL     1       8.070   9.776   2.032  1.00  0.00     0.233 C 
ATOM     82  O   UNL     1       8.943   9.457   1.220  1.00  0.00    -0.274 OA
BRANCH  81  83
ATOM     83  C   UNL     1       7.799  11.275   2.171  1.00  0.00     0.077 C 
ATOM     84  C   UNL     1       6.925  12.044   3.160  1.00  0.00     0.023 C 
ATOM     85  C   UNL     1       8.381  11.897   3.446  1.00  0.00     0.023 C 
BRANCH  83  86
ATOM     86  C   UNL     1       7.952  12.018   0.824  1.00  0.00     0.003 A 
ATOM     87  C   UNL     1       6.825  12.347   0.045  1.00  0.00     0.008 A 
ATOM     88  C   UNL     1       9.212  12.305   0.273  1.00  0.00     0.127 A 
ATOM     89  C   UNL     1       6.959  12.907  -1.230  1.00  0.00     0.001 A 
ATOM     90  C   UNL     1       9.355  12.843  -1.004  1.00  0.00     0.039 A 
ATOM     91  F   UNL     1      10.322  12.039   0.978  1.00  0.00    -0.207 F 
ATOM     92  C   UNL     1       8.225  13.139  -1.761  1.00  0.00     0.003 A 
ENDBRANCH  83  86
ENDBRANCH  81  83
ENDBRANCH  66  69
ENDBRANCH  64  65
ENDBRANCH  63  64
ENDBRANCH   1  63
TORSDOF 13
