REMARK SMILES Cc1oc2c(C)c3oc(=O)c(CCC(=O)N[C@H](Cc4ccc(Cl)cc4)C(=O)NCCCCNC(=O)c4ccc(-c5c6nc(c(-c7c(F)cccc7F)c7ccc([nH]7)c(-c7c(F)cccc7F)c7nc(c(-c8c(F)cccc8F)c8ccc5[nH]8)C=C7)C=C6)cc4)c(C)c3cc2c1C
REMARK SMILES IDX 29 1 28 2 26 3 27 4 17 6 16 7 14 8 15 9 13 11 12 12 11 13
REMARK SMILES IDX 1 14 2 15 3 16 95 17 4 18 94 19 96 20 5 21 93 22 6 23 7 24
REMARK SMILES IDX 92 25 8 26 90 27 9 28 91 29 10 30 18 31 19 32 20 33 25 34
REMARK SMILES IDX 21 35 24 36 22 37 23 38 30 39 31 40 32 41 33 42 34 43 35 45
REMARK SMILES IDX 36 46 37 47 89 48 38 49 88 50 39 51 40 52 41 53 82 54 42 55
REMARK SMILES IDX 87 56 81 57 83 58 43 59 86 60 80 61 79 62 44 64 70 65 53 66
REMARK SMILES IDX 69 67 54 68 57 69 68 70 84 71 55 72 56 73 67 75 85 76 58 77
REMARK SMILES IDX 45 78 46 79 51 80 47 81 48 82 50 83 52 84 49 85 71 86 72 87
REMARK SMILES IDX 77 88 73 89 74 90 76 91 78 92 75 93 59 94 60 95 65 96 61 97
REMARK SMILES IDX 62 98 64 99 66 100 63 101
REMARK H PARENT 28 5 16 10 33 44 83 63 57 74
REMARK Flexibility Score: inf
ROOT
ATOM      1  C   UNL     1       0.759  -1.995   5.960  1.00  0.00     0.116 C 
ENDROOT
BRANCH   1   2
ATOM      2  N   UNL     1       0.012  -3.383   6.525  1.00  0.00    -0.354 N 
ATOM      3  C   UNL     1      -1.291  -4.782   6.112  1.00  0.00     0.242 C 
ATOM      4  O   UNL     1      -1.405  -5.891   6.692  1.00  0.00    -0.273 OA
ATOM      5  H   UNL     1       0.372  -3.569   7.422  1.00  0.00     0.163 HD
BRANCH   3   6
ATOM      6  C   UNL     1      -2.523  -4.713   4.653  1.00  0.00     0.175 C 
BRANCH   6   7
ATOM      7  N   UNL     1      -2.282  -5.820   3.649  1.00  0.00    -0.344 N 
ATOM      8  C   UNL     1      -1.212  -5.946   2.800  1.00  0.00     0.220 C 
ATOM      9  O   UNL     1      -1.387  -5.800   1.591  1.00  0.00    -0.275 OA
ATOM     10  H   UNL     1      -2.967  -6.526   3.599  1.00  0.00     0.164 HD
BRANCH   8  11
ATOM     11  C   UNL     1       0.129  -6.394   3.360  1.00  0.00     0.105 C 
BRANCH  11  12
ATOM     12  C   UNL     1       1.061  -5.277   3.807  1.00  0.00     0.053 C 
BRANCH  12  13
ATOM     13  C   UNL     1       0.369  -4.504   4.879  1.00  0.00     0.042 A 
ATOM     14  C   UNL     1      -4.946   0.994   9.414  1.00  0.00     0.088 C 
ATOM     15  C   UNL     1      -4.479  -0.304   8.881  1.00  0.00     0.105 A 
ATOM     16  O   UNL     1      -3.601  -1.064   9.619  1.00  0.00    -0.461 OA
ATOM     17  C   UNL     1      -4.706  -0.876   7.653  1.00  0.00    -0.002 A 
ATOM     18  C   UNL     1      -3.068  -2.020   8.772  1.00  0.00     0.141 A 
ATOM     19  C   UNL     1      -3.666  -1.834   7.527  1.00  0.00     0.025 A 
ATOM     20  C   UNL     1      -5.618  -0.406   6.572  1.00  0.00     0.049 C 
ATOM     21  C   UNL     1      -2.114  -3.017   9.076  1.00  0.00     0.036 A 
ATOM     22  C   UNL     1      -3.227  -2.492   6.368  1.00  0.00     0.024 A 
ATOM     23  C   UNL     1      -1.786  -3.500  10.433  1.00  0.00     0.052 C 
ATOM     24  C   UNL     1      -1.554  -3.412   7.855  1.00  0.00     0.145 A 
ATOM     25  C   UNL     1      -1.908  -2.863   6.246  1.00  0.00     0.022 A 
ATOM     26  O   UNL     1      -0.196  -4.620   7.936  1.00  0.00    -0.422 OA
ATOM     27  C   UNL     1      -0.771  -3.375   4.685  1.00  0.00    -0.030 A 
ATOM     28  C   UNL     1       0.821  -5.247   6.601  1.00  0.00     0.339 A 
ATOM     29  C   UNL     1      -0.736  -2.794   3.256  1.00  0.00     0.046 C 
ATOM     30  O   UNL     1       1.807  -5.933   6.831  1.00  0.00    -0.246 OA
ENDBRANCH  12  13
ENDBRANCH  11  12
ENDBRANCH   8  11
ENDBRANCH   6   7
BRANCH   6  31
ATOM     31  C   UNL     1      -3.405  -3.406   3.769  1.00  0.00     0.070 C 
BRANCH  31  32
ATOM     32  C   UNL     1      -3.350  -1.754   3.634  1.00  0.00    -0.045 A 
ATOM     33  C   UNL     1      -2.581  -0.822   4.399  1.00  0.00     0.005 A 
ATOM     34  C   UNL     1      -4.212  -1.109   2.743  1.00  0.00     0.005 A 
ATOM     35  C   UNL     1      -2.725   0.565   4.439  1.00  0.00     0.021 A 
ATOM     36  C   UNL     1      -4.293   0.314   2.678  1.00  0.00     0.021 A 
ATOM     37  C   UNL     1      -3.578   1.141   3.546  1.00  0.00     0.041 A 
ATOM     38  Cl  UNL     1      -3.721   2.849   3.521  1.00  0.00    -0.084 Cl
ENDBRANCH  31  32
ENDBRANCH   6  31
ENDBRANCH   3   6
ENDBRANCH   1   2
BRANCH   1  39
ATOM     39  C   UNL     1       0.512  -0.702   6.753  1.00  0.00     0.023 C 
BRANCH  39  40
ATOM     40  C   UNL     1       1.633   0.351   6.539  1.00  0.00     0.023 C 
BRANCH  40  41
ATOM     41  C   UNL     1       1.904   0.870   5.109  1.00  0.00     0.116 C 
BRANCH  41  42
ATOM     42  N   UNL     1       0.932   1.858   4.668  1.00  0.00    -0.352 N 
ATOM     43  C   UNL     1       1.048   3.198   4.379  1.00  0.00     0.251 C 
ATOM     44  H   UNL     1       0.021   1.501   4.554  1.00  0.00     0.163 HD
ATOM     45  O   UNL     1       0.017   3.861   4.267  1.00  0.00    -0.269 OA
BRANCH  43  46
ATOM     46  C   UNL     1       2.346   3.885   4.174  1.00  0.00     0.039 A 
ATOM     47  C   UNL     1       2.469   5.209   4.626  1.00  0.00     0.014 A 
ATOM     48  C   UNL     1       3.374   3.323   3.412  1.00  0.00     0.014 A 
ATOM     49  C   UNL     1       3.628   5.943   4.367  1.00  0.00     0.010 A 
ATOM     50  C   UNL     1       4.535   4.058   3.153  1.00  0.00     0.010 A 
ATOM     51  C   UNL     1       4.677   5.361   3.649  1.00  0.00    -0.014 A 
BRANCH  51  52
ATOM     52  C   UNL     1       5.963   6.088   3.625  1.00  0.00     0.031 A 
ATOM     53  C   UNL     1       7.105   5.226   4.113  1.00  0.00     0.074 A 
ATOM     54  C   UNL     1       6.222   7.030   2.689  1.00  0.00     0.049 A 
ATOM     55  N   UNL     1       7.706   4.327   3.386  1.00  0.00    -0.248 NA
ATOM     56  C   UNL     1       7.406   5.101   5.543  1.00  0.00     0.031 C 
ATOM     57  C   UNL     1       5.897   6.941   1.266  1.00  0.00     0.029 A 
ATOM     58  N   UNL     1       6.968   8.194   2.809  1.00  0.00    -0.354 N 
ATOM     59  C   UNL     1       8.451   3.518   4.237  1.00  0.00     0.074 A 
ATOM     60  C   UNL     1       8.215   4.028   5.568  1.00  0.00     0.031 C 
ATOM     61  C   UNL     1       6.563   7.909   0.606  1.00  0.00     0.029 A 
ATOM     62  C   UNL     1       7.284   8.755   1.559  1.00  0.00     0.049 A 
ATOM     63  H   UNL     1       7.244   8.583   3.670  1.00  0.00     0.167 HD
ATOM     64  C   UNL     1       9.235   2.500   3.782  1.00  0.00     0.037 A 
ATOM     65  C   UNL     1       8.499   9.338   1.323  1.00  0.00     0.037 A 
ATOM     66  C   UNL     1       9.269   2.374   2.354  1.00  0.00     0.049 A 
ATOM     67  C   UNL     1       9.371   8.114   1.152  1.00  0.00     0.074 A 
ATOM     68  C   UNL     1       8.768   1.557   1.369  1.00  0.00     0.029 A 
ATOM     69  N   UNL     1      10.006   3.318   1.682  1.00  0.00    -0.354 N 
ATOM     70  N   UNL     1       9.387   7.333   0.102  1.00  0.00    -0.248 NA
ATOM     71  C   UNL     1       9.910   7.507   2.370  1.00  0.00     0.031 C 
ATOM     72  C   UNL     1       8.829   2.339   0.170  1.00  0.00     0.029 A 
ATOM     73  C   UNL     1       9.366   3.582   0.504  1.00  0.00     0.049 A 
ATOM     74  H   UNL     1      10.844   3.731   1.992  1.00  0.00     0.167 HD
ATOM     75  C   UNL     1       9.635   6.051   0.600  1.00  0.00     0.074 A 
ATOM     76  C   UNL     1       9.966   6.235   2.000  1.00  0.00     0.031 C 
ATOM     77  C   UNL     1       9.368   4.901  -0.088  1.00  0.00     0.037 A 
BRANCH  64  78
ATOM     78  C   UNL     1      10.229   1.728   4.564  1.00  0.00     0.057 A 
ATOM     79  C   UNL     1      11.582   2.064   4.389  1.00  0.00     0.134 A 
ATOM     80  C   UNL     1       9.946   0.537   5.234  1.00  0.00     0.134 A 
ATOM     81  F   UNL     1      11.916   3.193   3.742  1.00  0.00    -0.206 F 
ATOM     82  C   UNL     1      12.615   1.227   4.805  1.00  0.00     0.040 A 
ATOM     83  C   UNL     1      10.977  -0.304   5.679  1.00  0.00     0.040 A 
ATOM     84  F   UNL     1       8.679   0.137   5.416  1.00  0.00    -0.206 F 
ATOM     85  C   UNL     1      12.313   0.031   5.446  1.00  0.00     0.006 A 
ENDBRANCH  64  78
BRANCH  65  86
ATOM     86  C   UNL     1       8.818  10.490   2.231  1.00  0.00     0.057 A 
ATOM     87  C   UNL     1       7.841  11.495   2.379  1.00  0.00     0.134 A 
ATOM     88  C   UNL     1       9.972  10.655   3.006  1.00  0.00     0.134 A 
ATOM     89  F   UNL     1       6.759  11.510   1.584  1.00  0.00    -0.206 F 
ATOM     90  C   UNL     1       7.919  12.486   3.361  1.00  0.00     0.040 A 
ATOM     91  C   UNL     1      10.059  11.632   4.008  1.00  0.00     0.040 A 
ATOM     92  F   UNL     1      11.046   9.871   2.839  1.00  0.00    -0.206 F 
ATOM     93  C   UNL     1       9.014  12.528   4.212  1.00  0.00     0.006 A 
ENDBRANCH  65  86
BRANCH  77  94
ATOM     94  C   UNL     1       8.874   5.063  -1.485  1.00  0.00     0.057 A 
ATOM     95  C   UNL     1       9.715   5.565  -2.480  1.00  0.00     0.134 A 
ATOM     96  C   UNL     1       7.592   4.641  -1.870  1.00  0.00     0.134 A 
ATOM     97  F   UNL     1      10.959   5.972  -2.183  1.00  0.00    -0.206 F 
ATOM     98  C   UNL     1       9.310   5.618  -3.814  1.00  0.00     0.040 A 
ATOM     99  C   UNL     1       7.189   4.658  -3.205  1.00  0.00     0.040 A 
ATOM    100  F   UNL     1       6.717   4.171  -0.966  1.00  0.00    -0.206 F 
ATOM    101  C   UNL     1       8.052   5.145  -4.183  1.00  0.00     0.006 A 
ENDBRANCH  77  94
ENDBRANCH  51  52
ENDBRANCH  43  46
ENDBRANCH  41  42
ENDBRANCH  40  41
ENDBRANCH  39  40
ENDBRANCH   1  39
TORSDOF 17
