REMARK SMILES COc1cccc(N2CCN(c3ccc(NC(=O)c4ccc(F)cc4)c(C(=O)NCCCCNC(=O)c4ccc(-c5c6nc(c(-c7c(F)cccc7F)c7ccc([nH]7)c(-c7c(F)cccc7F)c7nc(c(-c8c(F)cccc8F)c8ccc5[nH]8)C=C7)C=C6)cc4)c3)CC2)c1
REMARK SMILES IDX 31 1 30 2 29 3 27 4 28 5 26 7 12 8 13 9 91 10 14 11 15 12
REMARK SMILES IDX 11 13 8 14 9 15 93 16 10 17 92 18 7 19 3 20 4 21 94 22 5 23
REMARK SMILES IDX 6 24 2 25 1 26 16 27 17 28 18 30 19 31 20 32 25 33 21 34
REMARK SMILES IDX 24 35 22 36 23 37 32 38 33 39 34 40 35 41 36 43 37 44 38 45
REMARK SMILES IDX 90 46 39 47 89 48 40 49 41 50 42 51 83 52 43 53 88 54 82 55
REMARK SMILES IDX 84 56 44 57 87 58 81 59 80 60 45 62 71 63 54 64 70 65 55 66
REMARK SMILES IDX 58 67 69 68 85 69 56 70 57 71 68 73 86 74 59 75 46 76 47 77
REMARK SMILES IDX 52 78 48 79 49 80 51 81 53 82 50 83 72 84 73 85 78 86 74 87
REMARK SMILES IDX 75 88 77 89 79 90 76 91 60 92 61 93 66 94 62 95 63 96 65 97
REMARK SMILES IDX 67 98 64 99
REMARK H PARENT 29 6 16 29 34 42 84 61 58 72
REMARK Flexibility Score: inf
ROOT
ATOM      1  C   UNL     1       7.931   5.732  -5.141  1.00  0.00     0.023 C 
ENDROOT
BRANCH   1   2
ATOM      2  C   UNL     1       8.376   4.544  -4.301  1.00  0.00     0.116 C 
BRANCH   2   3
ATOM      3  N   UNL     1       9.810   4.435  -4.069  1.00  0.00    -0.352 N 
ATOM      4  C   UNL     1      10.523   4.191  -2.908  1.00  0.00     0.253 C 
ATOM      5  O   UNL     1      11.750   4.133  -2.972  1.00  0.00    -0.269 OA
ATOM      6  H   UNL     1      10.366   4.556  -4.873  1.00  0.00     0.163 HD
BRANCH   4   7
ATOM      7  C   UNL     1       9.847   4.101  -1.581  1.00  0.00     0.065 A 
ATOM      8  C   UNL     1       7.744   3.693  -0.386  1.00  0.00     0.038 A 
ATOM      9  C   UNL     1       8.268   4.451   0.663  1.00  0.00     0.028 A 
ATOM     10  C   UNL     1       8.590   3.479  -1.476  1.00  0.00     0.042 A 
ATOM     11  C   UNL     1       9.584   4.924   0.647  1.00  0.00     0.029 A 
ATOM     12  C   UNL     1      10.424   4.678  -0.437  1.00  0.00     0.054 A 
BRANCH   8  13
ATOM     13  N   UNL     1       6.444   3.227  -0.343  1.00  0.00    -0.368 N 
ATOM     14  N   UNL     1       4.114   3.558  -1.998  1.00  0.00    -0.368 N 
ATOM     15  C   UNL     1       4.576   4.676  -1.155  1.00  0.00     0.138 C 
ATOM     16  C   UNL     1       5.149   2.585  -2.385  1.00  0.00     0.138 C 
ATOM     17  C   UNL     1       5.355   4.147   0.077  1.00  0.00     0.138 C 
ATOM     18  C   UNL     1       5.963   2.096  -1.165  1.00  0.00     0.138 C 
BRANCH  14  19
ATOM     19  C   UNL     1       2.770   3.233  -1.996  1.00  0.00     0.040 A 
ATOM     20  C   UNL     1       0.928   1.684  -1.598  1.00  0.00     0.120 A 
ATOM     21  C   UNL     1       0.018   2.614  -2.092  1.00  0.00     0.046 A 
ATOM     22  C   UNL     1       2.295   1.983  -1.577  1.00  0.00     0.072 A 
ATOM     23  C   UNL     1       0.465   3.864  -2.507  1.00  0.00     0.006 A 
ATOM     24  C   UNL     1       1.827   4.171  -2.443  1.00  0.00     0.026 A 
BRANCH  20  25
ATOM     25  O   UNL     1       0.406   0.478  -1.210  1.00  0.00    -0.497 OA
ATOM     26  C   UNL     1       0.935  -0.006   0.021  1.00  0.00     0.278 C 
ENDBRANCH  20  25
ENDBRANCH  14  19
ENDBRANCH   8  13
BRANCH  12  27
ATOM     27  N   UNL     1      11.808   4.975  -0.398  1.00  0.00    -0.321 N 
ATOM     28  C   UNL     1      12.673   5.146   0.667  1.00  0.00     0.255 C 
ATOM     29  H   UNL     1      12.227   5.077  -1.283  1.00  0.00     0.170 HD
ATOM     30  O   UNL     1      13.812   5.574   0.495  1.00  0.00    -0.269 OA
BRANCH  28  31
ATOM     31  C   UNL     1      12.279   4.762   2.044  1.00  0.00     0.040 A 
ATOM     32  C   UNL     1      12.412   5.709   3.068  1.00  0.00     0.017 A 
ATOM     33  C   UNL     1      11.752   3.491   2.321  1.00  0.00     0.017 A 
ATOM     34  C   UNL     1      11.934   5.415   4.346  1.00  0.00     0.040 A 
ATOM     35  C   UNL     1      11.266   3.207   3.599  1.00  0.00     0.040 A 
ATOM     36  C   UNL     1      11.348   4.176   4.594  1.00  0.00     0.123 A 
ATOM     37  F   UNL     1      10.849   3.916   5.809  1.00  0.00    -0.207 F 
ENDBRANCH  28  31
ENDBRANCH  12  27
ENDBRANCH   4   7
ENDBRANCH   2   3
ENDBRANCH   1   2
BRANCH   1  38
ATOM     38  C   UNL     1       8.428   5.787  -6.578  1.00  0.00     0.023 C 
BRANCH  38  39
ATOM     39  C   UNL     1       8.299   4.504  -7.388  1.00  0.00     0.116 C 
BRANCH  39  40
ATOM     40  N   UNL     1       6.945   3.975  -7.466  1.00  0.00    -0.352 N 
ATOM     41  C   UNL     1       6.209   3.594  -8.567  1.00  0.00     0.251 C 
ATOM     42  H   UNL     1       6.485   3.876  -6.601  1.00  0.00     0.163 HD
ATOM     43  O   UNL     1       5.058   3.200  -8.433  1.00  0.00    -0.269 OA
BRANCH  41  44
ATOM     44  C   UNL     1       6.794   3.714  -9.921  1.00  0.00     0.039 A 
ATOM     45  C   UNL     1       6.052   4.357 -10.915  1.00  0.00     0.014 A 
ATOM     46  C   UNL     1       8.079   3.244 -10.196  1.00  0.00     0.014 A 
ATOM     47  C   UNL     1       6.641   4.626 -12.153  1.00  0.00     0.010 A 
ATOM     48  C   UNL     1       8.691   3.582 -11.399  1.00  0.00     0.010 A 
ATOM     49  C   UNL     1       7.984   4.291 -12.383  1.00  0.00    -0.014 A 
BRANCH  49  50
ATOM     50  C   UNL     1       8.683   4.686 -13.633  1.00  0.00     0.031 A 
ATOM     51  C   UNL     1       9.221   3.632 -14.557  1.00  0.00     0.074 A 
ATOM     52  C   UNL     1       8.917   5.989 -13.886  1.00  0.00     0.049 A 
ATOM     53  N   UNL     1       9.977   3.768 -15.617  1.00  0.00    -0.248 NA
ATOM     54  C   UNL     1       8.892   2.236 -14.228  1.00  0.00     0.031 C 
ATOM     55  C   UNL     1       8.489   7.108 -13.044  1.00  0.00     0.029 A 
ATOM     56  N   UNL     1       9.593   6.591 -14.918  1.00  0.00    -0.354 N 
ATOM     57  C   UNL     1      10.230   2.479 -16.067  1.00  0.00     0.074 A 
ATOM     58  C   UNL     1       9.588   1.573 -15.139  1.00  0.00     0.031 C 
ATOM     59  C   UNL     1       8.903   8.259 -13.599  1.00  0.00     0.029 A 
ATOM     60  C   UNL     1       9.656   7.960 -14.812  1.00  0.00     0.049 A 
ATOM     61  H   UNL     1       9.995   6.089 -15.664  1.00  0.00     0.167 HD
ATOM     62  C   UNL     1      10.918   2.085 -17.165  1.00  0.00     0.037 A 
ATOM     63  C   UNL     1      10.265   8.869 -15.596  1.00  0.00     0.037 A 
ATOM     64  C   UNL     1      11.530   2.986 -18.104  1.00  0.00     0.049 A 
ATOM     65  C   UNL     1      11.017   8.407 -16.813  1.00  0.00     0.074 A 
ATOM     66  C   UNL     1      12.206   2.685 -19.274  1.00  0.00     0.029 A 
ATOM     67  N   UNL     1      11.535   4.367 -17.983  1.00  0.00    -0.354 N 
ATOM     68  N   UNL     1      11.206   7.187 -17.253  1.00  0.00    -0.248 NA
ATOM     69  C   UNL     1      11.637   9.449 -17.645  1.00  0.00     0.031 C 
ATOM     70  C   UNL     1      12.644   3.883 -19.847  1.00  0.00     0.029 A 
ATOM     71  C   UNL     1      12.210   4.932 -19.052  1.00  0.00     0.049 A 
ATOM     72  H   UNL     1      11.121   4.871 -17.245  1.00  0.00     0.167 HD
ATOM     73  C   UNL     1      11.942   7.315 -18.423  1.00  0.00     0.074 A 
ATOM     74  C   UNL     1      12.156   8.732 -18.632  1.00  0.00     0.031 C 
ATOM     75  C   UNL     1      12.400   6.345 -19.251  1.00  0.00     0.037 A 
BRANCH  62  76
ATOM     76  C   UNL     1      11.031   0.610 -17.412  1.00  0.00     0.057 A 
ATOM     77  C   UNL     1       9.931  -0.151 -17.830  1.00  0.00     0.134 A 
ATOM     78  C   UNL     1      12.255  -0.052 -17.256  1.00  0.00     0.134 A 
ATOM     79  F   UNL     1       8.728   0.422 -17.984  1.00  0.00    -0.206 F 
ATOM     80  C   UNL     1      10.038  -1.523 -18.058  1.00  0.00     0.040 A 
ATOM     81  C   UNL     1      12.380  -1.419 -17.506  1.00  0.00     0.040 A 
ATOM     82  F   UNL     1      13.348   0.619 -16.863  1.00  0.00    -0.206 F 
ATOM     83  C   UNL     1      11.268  -2.160 -17.901  1.00  0.00     0.006 A 
ENDBRANCH  62  76
BRANCH  63  84
ATOM     84  C   UNL     1      10.180  10.313 -15.265  1.00  0.00     0.057 A 
ATOM     85  C   UNL     1       9.407  11.185 -16.041  1.00  0.00     0.134 A 
ATOM     86  C   UNL     1      10.876  10.859 -14.181  1.00  0.00     0.134 A 
ATOM     87  F   UNL     1       8.733  10.723 -17.105  1.00  0.00    -0.206 F 
ATOM     88  C   UNL     1       9.343  12.551 -15.762  1.00  0.00     0.040 A 
ATOM     89  C   UNL     1      10.804  12.219 -13.876  1.00  0.00     0.040 A 
ATOM     90  F   UNL     1      11.629  10.075 -13.396  1.00  0.00    -0.206 F 
ATOM     91  C   UNL     1      10.041  13.071 -14.673  1.00  0.00     0.006 A 
ENDBRANCH  63  84
BRANCH  75  92
ATOM     92  C   UNL     1      13.144   6.783 -20.476  1.00  0.00     0.057 A 
ATOM     93  C   UNL     1      14.461   7.253 -20.411  1.00  0.00     0.134 A 
ATOM     94  C   UNL     1      12.549   6.689 -21.741  1.00  0.00     0.134 A 
ATOM     95  F   UNL     1      15.079   7.380 -19.227  1.00  0.00    -0.206 F 
ATOM     96  C   UNL     1      15.156   7.629 -21.561  1.00  0.00     0.040 A 
ATOM     97  C   UNL     1      13.242   7.040 -22.899  1.00  0.00     0.040 A 
ATOM     98  F   UNL     1      11.291   6.239 -21.870  1.00  0.00    -0.206 F 
ATOM     99  C   UNL     1      14.549   7.516 -22.811  1.00  0.00     0.006 A 
ENDBRANCH  75  92
ENDBRANCH  49  50
ENDBRANCH  41  44
ENDBRANCH  39  40
ENDBRANCH  38  39
ENDBRANCH   1  38
TORSDOF 16
