REMARK SMILES Cc1ccc(F)c(C(=O)N[C@@H]2C=C[C@@H](C(=O)NCCCCNC(=O)c3ccc(-c4c5nc(c(-c6c(F)cccc6F)c6ccc([nH]6)c(-c6c(F)cccc6F)c6nc(c(-c7c(F)cccc7F)c7ccc4[nH]7)C=C6)C=C5)cc3)C2)c1
REMARK SMILES IDX 19 1 18 2 17 3 15 4 16 5 14 7 11 8 12 9 79 10 13 11 10 12
REMARK SMILES IDX 8 13 9 14 7 16 1 17 2 18 3 19 80 20 4 21 5 22 6 23 20 24
REMARK SMILES IDX 21 25 22 26 23 27 24 29 25 30 26 31 78 32 27 33 77 34 28 35
REMARK SMILES IDX 29 36 30 37 71 38 31 39 76 40 70 41 72 42 32 43 75 44 69 45
REMARK SMILES IDX 68 46 33 48 59 49 42 50 58 51 43 52 46 53 57 54 73 55 44 56
REMARK SMILES IDX 45 57 56 59 74 60 47 61 34 62 35 63 40 64 36 65 37 66 39 67
REMARK SMILES IDX 41 68 38 69 60 70 61 71 66 72 62 73 63 74 65 75 67 76 64 77
REMARK SMILES IDX 48 78 49 79 54 80 50 81 51 82 53 83 55 84 52 85
REMARK H PARENT 17 6 10 15 22 28 72 47 46 58
REMARK Flexibility Score: inf
ROOT
ATOM      1  C   UNL     1      -0.982  -5.180   3.185  1.00  0.00     0.023 C 
ENDROOT
BRANCH   1   2
ATOM      2  C   UNL     1       0.147  -4.184   3.441  1.00  0.00     0.116 C 
BRANCH   2   3
ATOM      3  N   UNL     1       1.391  -4.822   3.822  1.00  0.00    -0.356 N 
ATOM      4  C   UNL     1       2.646  -4.738   3.304  1.00  0.00     0.227 C 
ATOM      5  O   UNL     1       3.547  -5.267   3.966  1.00  0.00    -0.274 OA
ATOM      6  H   UNL     1       1.313  -5.426   4.595  1.00  0.00     0.163 HD
BRANCH   4   7
ATOM      7  C   UNL     1       2.968  -4.130   1.930  1.00  0.00     0.103 C 
ATOM      8  C   UNL     1       1.334  -3.984   0.090  1.00  0.00     0.106 C 
ATOM      9  C   UNL     1       1.729  -2.634   0.604  1.00  0.00    -0.006 C 
ATOM     10  C   UNL     1       2.322  -4.921   0.795  1.00  0.00     0.047 C 
ATOM     11  C   UNL     1       2.565  -2.719   1.649  1.00  0.00    -0.016 C 
BRANCH   8  12
ATOM     12  N   UNL     1       1.362  -4.011  -1.354  1.00  0.00    -0.346 N 
ATOM     13  C   UNL     1       1.119  -5.041  -2.241  1.00  0.00     0.254 C 
ATOM     14  O   UNL     1       0.993  -4.767  -3.432  1.00  0.00    -0.269 OA
ATOM     15  H   UNL     1       1.592  -3.152  -1.776  1.00  0.00     0.164 HD
BRANCH  13  16
ATOM     16  C   UNL     1       1.087  -6.460  -1.802  1.00  0.00     0.075 A 
ATOM     17  C   UNL     1       0.300  -8.496   1.309  1.00  0.00     0.044 C 
ATOM     18  C   UNL     1       0.723  -8.153  -0.091  1.00  0.00    -0.050 A 
ATOM     19  C   UNL     1       1.447  -9.074  -0.852  1.00  0.00     0.006 A 
ATOM     20  C   UNL     1       0.453  -6.883  -0.627  1.00  0.00     0.020 A 
ATOM     21  C   UNL     1       1.956  -8.706  -2.095  1.00  0.00     0.040 A 
ATOM     22  C   UNL     1       1.802  -7.397  -2.549  1.00  0.00     0.135 A 
ATOM     23  F   UNL     1       2.408  -7.059  -3.696  1.00  0.00    -0.206 F 
ENDBRANCH  13  16
ENDBRANCH   8  12
ENDBRANCH   4   7
ENDBRANCH   2   3
ENDBRANCH   1   2
BRANCH   1  24
ATOM     24  C   UNL     1      -1.387  -6.027   4.393  1.00  0.00     0.023 C 
BRANCH  24  25
ATOM     25  C   UNL     1      -1.778  -5.225   5.629  1.00  0.00     0.116 C 
BRANCH  25  26
ATOM     26  N   UNL     1      -2.875  -4.304   5.374  1.00  0.00    -0.352 N 
ATOM     27  C   UNL     1      -4.003  -4.065   6.122  1.00  0.00     0.251 C 
ATOM     28  H   UNL     1      -2.799  -3.777   4.546  1.00  0.00     0.163 HD
ATOM     29  O   UNL     1      -4.902  -3.367   5.673  1.00  0.00    -0.269 OA
BRANCH  27  30
ATOM     30  C   UNL     1      -4.135  -4.678   7.460  1.00  0.00     0.039 A 
ATOM     31  C   UNL     1      -5.353  -5.263   7.814  1.00  0.00     0.014 A 
ATOM     32  C   UNL     1      -3.062  -4.684   8.354  1.00  0.00     0.014 A 
ATOM     33  C   UNL     1      -5.473  -5.908   9.045  1.00  0.00     0.010 A 
ATOM     34  C   UNL     1      -3.157  -5.401   9.542  1.00  0.00     0.010 A 
ATOM     35  C   UNL     1      -4.366  -6.013   9.903  1.00  0.00    -0.014 A 
BRANCH  35  36
ATOM     36  C   UNL     1      -4.459  -6.763  11.180  1.00  0.00     0.031 A 
ATOM     37  C   UNL     1      -4.260  -6.059  12.492  1.00  0.00     0.074 A 
ATOM     38  C   UNL     1      -4.664  -8.094  11.152  1.00  0.00     0.049 A 
ATOM     39  N   UNL     1      -4.271  -6.550  13.705  1.00  0.00    -0.248 NA
ATOM     40  C   UNL     1      -3.978  -4.616  12.431  1.00  0.00     0.031 C 
ATOM     41  C   UNL     1      -4.804  -8.903   9.940  1.00  0.00     0.029 A 
ATOM     42  N   UNL     1      -4.780  -9.001  12.174  1.00  0.00    -0.354 N 
ATOM     43  C   UNL     1      -3.994  -5.481  14.547  1.00  0.00     0.074 A 
ATOM     44  C   UNL     1      -3.746  -4.333  13.703  1.00  0.00     0.031 C 
ATOM     45  C   UNL     1      -5.008 -10.182  10.288  1.00  0.00     0.029 A 
ATOM     46  C   UNL     1      -4.977 -10.290  11.743  1.00  0.00     0.049 A 
ATOM     47  H   UNL     1      -4.726  -8.753  13.125  1.00  0.00     0.167 HD
ATOM     48  C   UNL     1      -3.977  -5.450  15.901  1.00  0.00     0.037 A 
ATOM     49  C   UNL     1      -5.112 -11.433  12.442  1.00  0.00     0.037 A 
ATOM     50  C   UNL     1      -4.225  -6.597  16.736  1.00  0.00     0.049 A 
ATOM     51  C   UNL     1      -5.088 -11.380  13.943  1.00  0.00     0.074 A 
ATOM     52  C   UNL     1      -4.284  -6.664  18.117  1.00  0.00     0.029 A 
ATOM     53  N   UNL     1      -4.444  -7.884  16.265  1.00  0.00    -0.354 N 
ATOM     54  N   UNL     1      -4.908 -10.347  14.731  1.00  0.00    -0.248 NA
ATOM     55  C   UNL     1      -5.299 -12.648  14.652  1.00  0.00     0.031 C 
ATOM     56  C   UNL     1      -4.483  -8.001  18.482  1.00  0.00     0.029 A 
ATOM     57  C   UNL     1      -4.610  -8.758  17.328  1.00  0.00     0.049 A 
ATOM     58  H   UNL     1      -4.477  -8.139  15.315  1.00  0.00     0.167 HD
ATOM     59  C   UNL     1      -5.001 -10.836  16.028  1.00  0.00     0.074 A 
ATOM     60  C   UNL     1      -5.278 -12.254  15.918  1.00  0.00     0.031 C 
ATOM     61  C   UNL     1      -4.868 -10.172  17.204  1.00  0.00     0.037 A 
BRANCH  48  62
ATOM     62  C   UNL     1      -3.670  -4.130  16.552  1.00  0.00     0.057 A 
ATOM     63  C   UNL     1      -4.543  -3.036  16.457  1.00  0.00     0.134 A 
ATOM     64  C   UNL     1      -2.485  -3.943  17.274  1.00  0.00     0.134 A 
ATOM     65  F   UNL     1      -5.691  -3.139  15.771  1.00  0.00    -0.206 F 
ATOM     66  C   UNL     1      -4.228  -1.796  17.016  1.00  0.00     0.040 A 
ATOM     67  C   UNL     1      -2.174  -2.718  17.867  1.00  0.00     0.040 A 
ATOM     68  F   UNL     1      -1.605  -4.947  17.412  1.00  0.00    -0.206 F 
ATOM     69  C   UNL     1      -3.041  -1.636  17.727  1.00  0.00     0.006 A 
ENDBRANCH  48  62
BRANCH  49  70
ATOM     70  C   UNL     1      -5.299 -12.716  11.719  1.00  0.00     0.057 A 
ATOM     71  C   UNL     1      -6.526 -13.387  11.735  1.00  0.00     0.134 A 
ATOM     72  C   UNL     1      -4.260 -13.287  10.974  1.00  0.00     0.134 A 
ATOM     73  F   UNL     1      -7.554 -12.898  12.443  1.00  0.00    -0.206 F 
ATOM     74  C   UNL     1      -6.711 -14.587  11.046  1.00  0.00     0.040 A 
ATOM     75  C   UNL     1      -4.439 -14.472  10.259  1.00  0.00     0.040 A 
ATOM     76  F   UNL     1      -3.062 -12.686  10.909  1.00  0.00    -0.206 F 
ATOM     77  C   UNL     1      -5.667 -15.129  10.299  1.00  0.00     0.006 A 
ENDBRANCH  49  70
BRANCH  61  78
ATOM     78  C   UNL     1      -5.037 -10.974  18.463  1.00  0.00     0.057 A 
ATOM     79  C   UNL     1      -4.096 -11.932  18.864  1.00  0.00     0.134 A 
ATOM     80  C   UNL     1      -6.148 -10.775  19.293  1.00  0.00     0.134 A 
ATOM     81  F   UNL     1      -3.015 -12.182  18.109  1.00  0.00    -0.206 F 
ATOM     82  C   UNL     1      -4.271 -12.686  20.026  1.00  0.00     0.040 A 
ATOM     83  C   UNL     1      -6.317 -11.499  20.474  1.00  0.00     0.040 A 
ATOM     84  F   UNL     1      -7.082  -9.867  18.975  1.00  0.00    -0.206 F 
ATOM     85  C   UNL     1      -5.382 -12.466  20.838  1.00  0.00     0.006 A 
ENDBRANCH  61  78
ENDBRANCH  35  36
ENDBRANCH  27  30
ENDBRANCH  25  26
ENDBRANCH  24  25
ENDBRANCH   1  24
TORSDOF 13
