REMARK SMILES Cc1ccc(S(=O)(=O)n2cc(C(=O)C(=O)N[C@@H](Cc3cnc[nH]3)C(=O)NCCCCNC(=O)c3ccc(-c4c5nc(c(-c6c(F)cccc6F)c6ccc([nH]6)c(-c6c(F)cccc6F)c6nc(c(-c7c(F)cccc7F)c7ccc4[nH]7)C=C6)C=C5)cc3)c3ccccc32)cc1
REMARK SMILES IDX 27 1 26 2 24 3 25 4 17 6 16 7 14 8 15 9 12 11 13 12 11 13
REMARK SMILES IDX 9 14 10 15 93 16 88 17 92 18 89 19 91 20 90 21 6 22 7 23
REMARK SMILES IDX 8 24 5 25 1 26 2 27 3 28 95 29 4 30 94 31 18 32 19 33 20 34
REMARK SMILES IDX 23 35 21 36 22 37 28 39 29 40 30 41 31 42 32 43 33 45 34 46
REMARK SMILES IDX 35 47 87 48 36 49 86 50 37 51 38 52 39 53 80 54 40 55 85 56
REMARK SMILES IDX 79 57 81 58 41 59 84 60 78 61 77 62 42 64 68 65 51 66 67 67
REMARK SMILES IDX 52 68 55 69 66 70 82 71 53 72 54 73 65 75 83 76 56 77 43 78
REMARK SMILES IDX 44 79 49 80 45 81 46 82 48 83 50 84 47 85 69 86 70 87 75 88
REMARK SMILES IDX 71 89 72 90 74 91 76 92 73 93 57 94 58 95 63 96 59 97 60 98
REMARK SMILES IDX 62 99 64 100 61 101
REMARK H PARENT 26 5 16 10 23 38 31 44 81 63 55 74
REMARK Flexibility Score: inf
ROOT
ATOM      1  C   UNL     1      -8.221   6.032   6.010  1.00  0.00     0.116 C 
ENDROOT
BRANCH   1   2
ATOM      2  N   UNL     1      -7.260   6.874   5.333  1.00  0.00    -0.354 N 
ATOM      3  C   UNL     1      -7.245   7.237   4.011  1.00  0.00     0.242 C 
ATOM      4  O   UNL     1      -6.806   8.364   3.756  1.00  0.00    -0.273 OA
ATOM      5  H   UNL     1      -6.528   7.229   5.888  1.00  0.00     0.163 HD
BRANCH   3   6
ATOM      6  C   UNL     1      -7.838   6.354   2.878  1.00  0.00     0.177 C 
BRANCH   6   7
ATOM      7  N   UNL     1      -7.593   4.918   3.092  1.00  0.00    -0.337 N 
ATOM      8  C   UNL     1      -6.732   4.039   2.481  1.00  0.00     0.293 C 
ATOM      9  O   UNL     1      -6.575   2.941   3.005  1.00  0.00    -0.265 OA
ATOM     10  H   UNL     1      -8.145   4.516   3.800  1.00  0.00     0.164 HD
BRANCH   8  11
ATOM     11  C   UNL     1      -6.019   4.396   1.157  1.00  0.00     0.252 C 
ATOM     12  O   UNL     1      -6.200   5.510   0.678  1.00  0.00    -0.283 OA
BRANCH  11  13
ATOM     13  C   UNL     1      -5.178   3.430   0.441  1.00  0.00     0.054 A 
ATOM     14  N   UNL     1      -4.126   1.575  -0.210  1.00  0.00    -0.240 N 
ATOM     15  C   UNL     1      -4.896   2.121   0.784  1.00  0.00     0.117 A 
ATOM     16  C   UNL     1      -3.867   2.493  -1.205  1.00  0.00     0.065 A 
ATOM     17  C   UNL     1      -4.486   3.681  -0.797  1.00  0.00     0.012 A 
ATOM     18  C   UNL     1      -3.136   2.414  -2.404  1.00  0.00     0.028 A 
ATOM     19  C   UNL     1      -4.349   4.826  -1.613  1.00  0.00     0.011 A 
ATOM     20  C   UNL     1      -3.010   3.570  -3.181  1.00  0.00     0.002 A 
ATOM     21  C   UNL     1      -3.604   4.763  -2.791  1.00  0.00     0.001 A 
BRANCH  14  22
ATOM     22  S   UNL     1      -3.539  -0.022  -0.173  1.00  0.00     0.268 S 
ATOM     23  O   UNL     1      -3.851  -0.571  -1.474  1.00  0.00    -0.201 OA
ATOM     24  O   UNL     1      -4.056  -0.606   1.056  1.00  0.00    -0.201 OA
BRANCH  22  25
ATOM     25  C   UNL     1      -1.776   0.043  -0.016  1.00  0.00     0.088 A 
ATOM     26  C   UNL     1       2.522  -0.045   0.027  1.00  0.00     0.044 C 
ATOM     27  C   UNL     1       1.023  -0.009   0.040  1.00  0.00    -0.051 A 
ATOM     28  C   UNL     1       0.297  -1.203  -0.043  1.00  0.00     0.005 A 
ATOM     29  C   UNL     1       0.333   1.207   0.134  1.00  0.00     0.005 A 
ATOM     30  C   UNL     1      -1.097  -1.179  -0.077  1.00  0.00     0.022 A 
ATOM     31  C   UNL     1      -1.064   1.236   0.120  1.00  0.00     0.022 A 
ENDBRANCH  22  25
ENDBRANCH  14  22
ENDBRANCH  11  13
ENDBRANCH   8  11
ENDBRANCH   6   7
BRANCH   6  32
ATOM     32  C   UNL     1      -9.299   6.678   2.488  1.00  0.00     0.090 C 
BRANCH  32  33
ATOM     33  C   UNL     1     -10.309   6.247   3.491  1.00  0.00     0.037 A 
ATOM     34  C   UNL     1     -10.837   5.008   3.793  1.00  0.00     0.134 A 
ATOM     35  N   UNL     1     -10.871   7.099   4.412  1.00  0.00    -0.348 N 
ATOM     36  N   UNL     1     -11.491   5.049   4.992  1.00  0.00    -0.245 NA
ATOM     37  C   UNL     1     -11.459   6.307   5.357  1.00  0.00     0.196 A 
ATOM     38  H   UNL     1     -10.853   8.083   4.395  1.00  0.00     0.167 HD
ENDBRANCH  32  33
ENDBRANCH   6  32
ENDBRANCH   3   6
ENDBRANCH   1   2
BRANCH   1  39
ATOM     39  C   UNL     1      -7.666   5.035   7.016  1.00  0.00     0.023 C 
BRANCH  39  40
ATOM     40  C   UNL     1      -7.285   5.616   8.369  1.00  0.00     0.023 C 
BRANCH  40  41
ATOM     41  C   UNL     1      -8.404   6.325   9.113  1.00  0.00     0.116 C 
BRANCH  41  42
ATOM     42  N   UNL     1      -9.433   5.490   9.707  1.00  0.00    -0.352 N 
ATOM     43  C   UNL     1     -10.462   5.840  10.570  1.00  0.00     0.251 C 
ATOM     44  H   UNL     1      -9.395   4.538   9.463  1.00  0.00     0.163 HD
ATOM     45  O   UNL     1     -11.130   4.948  11.090  1.00  0.00    -0.269 OA
BRANCH  43  46
ATOM     46  C   UNL     1     -10.907   7.259  10.718  1.00  0.00     0.039 A 
ATOM     47  C   UNL     1     -12.267   7.479  10.997  1.00  0.00     0.014 A 
ATOM     48  C   UNL     1     -10.144   8.308  10.229  1.00  0.00     0.014 A 
ATOM     49  C   UNL     1     -12.901   8.597  10.469  1.00  0.00     0.010 A 
ATOM     50  C   UNL     1     -10.777   9.305   9.543  1.00  0.00     0.010 A 
ATOM     51  C   UNL     1     -12.159   9.412   9.627  1.00  0.00    -0.014 A 
BRANCH  51  52
ATOM     52  C   UNL     1     -12.695  10.460   8.795  1.00  0.00     0.031 A 
ATOM     53  C   UNL     1     -12.674  11.816   9.338  1.00  0.00     0.074 A 
ATOM     54  C   UNL     1     -13.003  10.160   7.518  1.00  0.00     0.049 A 
ATOM     55  N   UNL     1     -13.547  12.705   9.045  1.00  0.00    -0.248 NA
ATOM     56  C   UNL     1     -11.688  12.263  10.322  1.00  0.00     0.031 C 
ATOM     57  C   UNL     1     -13.203  11.033   6.372  1.00  0.00     0.029 A 
ATOM     58  N   UNL     1     -13.313   8.898   7.033  1.00  0.00    -0.354 N 
ATOM     59  C   UNL     1     -13.046  13.901   9.501  1.00  0.00     0.074 A 
ATOM     60  C   UNL     1     -11.982  13.563  10.413  1.00  0.00     0.031 C 
ATOM     61  C   UNL     1     -13.832  10.341   5.400  1.00  0.00     0.029 A 
ATOM     62  C   UNL     1     -14.184   9.037   5.947  1.00  0.00     0.049 A 
ATOM     63  H   UNL     1     -12.976   8.046   7.393  1.00  0.00     0.167 HD
ATOM     64  C   UNL     1     -13.435  15.046   8.880  1.00  0.00     0.037 A 
ATOM     65  C   UNL     1     -15.457   8.542   6.041  1.00  0.00     0.037 A 
ATOM     66  C   UNL     1     -14.295  14.725   7.746  1.00  0.00     0.049 A 
ATOM     67  C   UNL     1     -16.476   9.652   6.090  1.00  0.00     0.074 A 
ATOM     68  C   UNL     1     -13.999  14.533   6.406  1.00  0.00     0.029 A 
ATOM     69  N   UNL     1     -15.537  14.141   7.963  1.00  0.00    -0.354 N 
ATOM     70  N   UNL     1     -16.215  10.852   6.532  1.00  0.00    -0.248 NA
ATOM     71  C   UNL     1     -17.844   9.514   5.602  1.00  0.00     0.031 C 
ATOM     72  C   UNL     1     -15.070  13.820   5.817  1.00  0.00     0.029 A 
ATOM     73  C   UNL     1     -16.016  13.578   6.797  1.00  0.00     0.049 A 
ATOM     74  H   UNL     1     -16.008  14.130   8.827  1.00  0.00     0.167 HD
ATOM     75  C   UNL     1     -17.326  11.640   6.387  1.00  0.00     0.074 A 
ATOM     76  C   UNL     1     -18.317  10.758   5.799  1.00  0.00     0.031 C 
ATOM     77  C   UNL     1     -17.330  12.956   6.752  1.00  0.00     0.037 A 
BRANCH  64  78
ATOM     78  C   UNL     1     -12.763  16.375   9.078  1.00  0.00     0.057 A 
ATOM     79  C   UNL     1     -12.655  17.292   8.016  1.00  0.00     0.134 A 
ATOM     80  C   UNL     1     -12.211  16.812  10.294  1.00  0.00     0.134 A 
ATOM     81  F   UNL     1     -13.180  17.043   6.809  1.00  0.00    -0.206 F 
ATOM     82  C   UNL     1     -11.996  18.519   8.134  1.00  0.00     0.040 A 
ATOM     83  C   UNL     1     -11.514  18.023  10.417  1.00  0.00     0.040 A 
ATOM     84  F   UNL     1     -12.356  16.103  11.423  1.00  0.00    -0.206 F 
ATOM     85  C   UNL     1     -11.404  18.882   9.332  1.00  0.00     0.006 A 
ENDBRANCH  64  78
BRANCH  65  86
ATOM     86  C   UNL     1     -15.516   7.284   6.847  1.00  0.00     0.057 A 
ATOM     87  C   UNL     1     -14.918   6.135   6.300  1.00  0.00     0.134 A 
ATOM     88  C   UNL     1     -15.665   7.319   8.239  1.00  0.00     0.134 A 
ATOM     89  F   UNL     1     -14.774   6.028   4.970  1.00  0.00    -0.206 F 
ATOM     90  C   UNL     1     -14.321   5.160   7.106  1.00  0.00     0.040 A 
ATOM     91  C   UNL     1     -15.085   6.338   9.053  1.00  0.00     0.040 A 
ATOM     92  F   UNL     1     -16.235   8.374   8.838  1.00  0.00    -0.206 F 
ATOM     93  C   UNL     1     -14.356   5.291   8.490  1.00  0.00     0.006 A 
ENDBRANCH  65  86
BRANCH  77  94
ATOM     94  C   UNL     1     -18.547  13.819   6.990  1.00  0.00     0.057 A 
ATOM     95  C   UNL     1     -19.832  13.319   7.236  1.00  0.00     0.134 A 
ATOM     96  C   UNL     1     -18.422  15.223   7.139  1.00  0.00     0.134 A 
ATOM     97  F   UNL     1     -20.088  12.006   7.266  1.00  0.00    -0.206 F 
ATOM     98  C   UNL     1     -20.921  14.150   7.529  1.00  0.00     0.040 A 
ATOM     99  C   UNL     1     -19.483  16.052   7.507  1.00  0.00     0.040 A 
ATOM    100  F   UNL     1     -17.256  15.862   6.967  1.00  0.00    -0.206 F 
ATOM    101  C   UNL     1     -20.747  15.519   7.680  1.00  0.00     0.006 A 
ENDBRANCH  77  94
ENDBRANCH  51  52
ENDBRANCH  43  46
ENDBRANCH  41  42
ENDBRANCH  40  41
ENDBRANCH  39  40
ENDBRANCH   1  39
TORSDOF 18
