REMARK SMILES CSc1nc(O)nc(C)c1C(=O)N1C[C@@H](O)C[C@@H]1C(=O)NCCCCNC(=O)c1ccc(-c2c3nc(c(-c4c(F)cccc4F)c4ccc([nH]4)c(-c4c(F)cccc4F)c4nc(c(-c5c(F)cccc5F)c5ccc2[nH]5)C=C4)C=C3)cc1
REMARK SMILES IDX 23 1 22 2 21 3 19 4 20 5 18 7 13 8 14 9 15 10 17 11 11 12
REMARK SMILES IDX 12 13 10 14 3 15 4 16 5 17 8 18 7 19 9 20 2 21 1 22 6 23
REMARK SMILES IDX 16 25 24 27 25 28 26 29 27 30 28 32 29 33 30 34 82 35 31 36
REMARK SMILES IDX 81 37 32 38 33 39 34 40 75 41 35 42 80 43 74 44 76 45 36 46
REMARK SMILES IDX 79 47 73 48 72 49 37 51 63 52 46 53 62 54 47 55 50 56 61 57
REMARK SMILES IDX 77 58 48 59 49 60 60 62 78 63 51 64 38 65 39 66 44 67 40 68
REMARK SMILES IDX 41 69 43 70 45 71 42 72 64 73 65 74 70 75 66 76 67 77 69 78
REMARK SMILES IDX 71 79 68 80 52 81 53 82 58 83 54 84 55 85 57 86 59 87 56 88
REMARK H PARENT 21 6 6 24 16 26 26 31 76 50 50 61
REMARK Flexibility Score: inf
ROOT
ATOM      1  C   UNL     1      -4.340  -3.891   1.607  1.00  0.00     0.023 C 
ENDROOT
BRANCH   1   2
ATOM      2  C   UNL     1      -4.095  -2.750   0.623  1.00  0.00     0.116 C 
BRANCH   2   3
ATOM      3  N   UNL     1      -3.707  -1.532   1.303  1.00  0.00    -0.354 N 
ATOM      4  C   UNL     1      -2.449  -1.027   1.476  1.00  0.00     0.242 C 
ATOM      5  O   UNL     1      -2.315  -0.054   2.217  1.00  0.00    -0.273 OA
ATOM      6  H   UNL     1      -4.441  -1.001   1.689  1.00  0.00     0.163 HD
BRANCH   4   7
ATOM      7  C   UNL     1      -1.283  -1.706   0.733  1.00  0.00     0.177 C 
ATOM      8  N   UNL     1       0.022  -1.197   1.137  1.00  0.00    -0.324 N 
ATOM      9  C   UNL     1       0.909  -1.279  -0.003  1.00  0.00     0.152 C 
ATOM     10  C   UNL     1       0.012  -0.886  -1.171  1.00  0.00     0.136 C 
ATOM     11  C   UNL     1      -1.351  -1.463  -0.783  1.00  0.00     0.069 C 
BRANCH   8  12
ATOM     12  C   UNL     1       0.449  -1.436   2.426  1.00  0.00     0.259 C 
ATOM     13  O   UNL     1       0.243  -2.539   2.928  1.00  0.00    -0.269 OA
BRANCH  12  14
ATOM     14  C   UNL     1       1.041  -0.310   3.231  1.00  0.00     0.093 A 
ATOM     15  C   UNL     1       1.060   1.045   2.869  1.00  0.00     0.116 A 
ATOM     16  N   UNL     1       1.551   2.022   3.673  1.00  0.00    -0.188 NA
ATOM     17  C   UNL     1       1.982   1.643   4.862  1.00  0.00     0.315 A 
ATOM     18  C   UNL     1       1.567  -0.570   4.509  1.00  0.00     0.058 A 
ATOM     19  N   UNL     1       2.031   0.408   5.333  1.00  0.00    -0.200 NA
ATOM     20  C   UNL     1       1.620  -1.925   5.161  1.00  0.00     0.068 C 
BRANCH  15  21
ATOM     21  S   UNL     1       0.400   1.781   1.378  1.00  0.00    -0.109 SA
ATOM     22  C   UNL     1       1.948   2.317   0.615  1.00  0.00     0.092 C 
ENDBRANCH  15  21
BRANCH  17  23
ATOM     23  O   UNL     1       2.408   2.602   5.721  1.00  0.00    -0.479 OA
ATOM     24  H   UNL     1       2.404   3.502   5.460  1.00  0.00     0.297 HD
ENDBRANCH  17  23
ENDBRANCH  12  14
ENDBRANCH   8  12
BRANCH  10  25
ATOM     25  O   UNL     1       0.435  -1.438  -2.406  1.00  0.00    -0.391 OA
ATOM     26  H   UNL     1       0.456  -2.405  -2.339  1.00  0.00     0.211 HD
ENDBRANCH  10  25
ENDBRANCH   4   7
ENDBRANCH   2   3
ENDBRANCH   1   2
BRANCH   1  27
ATOM     27  C   UNL     1      -5.460  -3.625   2.614  1.00  0.00     0.023 C 
BRANCH  27  28
ATOM     28  C   UNL     1      -6.771  -3.148   2.004  1.00  0.00     0.116 C 
BRANCH  28  29
ATOM     29  N   UNL     1      -7.327  -4.096   1.051  1.00  0.00    -0.352 N 
ATOM     30  C   UNL     1      -8.624  -4.535   0.956  1.00  0.00     0.251 C 
ATOM     31  H   UNL     1      -6.696  -4.469   0.394  1.00  0.00     0.163 HD
ATOM     32  O   UNL     1      -8.937  -5.428   0.176  1.00  0.00    -0.269 OA
BRANCH  30  33
ATOM     33  C   UNL     1      -9.637  -3.927   1.838  1.00  0.00     0.039 A 
ATOM     34  C   UNL     1     -10.376  -4.753   2.687  1.00  0.00     0.014 A 
ATOM     35  C   UNL     1      -9.802  -2.539   1.861  1.00  0.00     0.014 A 
ATOM     36  C   UNL     1     -11.256  -4.178   3.603  1.00  0.00     0.010 A 
ATOM     37  C   UNL     1     -10.638  -1.966   2.811  1.00  0.00     0.010 A 
ATOM     38  C   UNL     1     -11.377  -2.781   3.683  1.00  0.00    -0.014 A 
BRANCH  38  39
ATOM     39  C   UNL     1     -12.317  -2.153   4.638  1.00  0.00     0.031 A 
ATOM     40  C   UNL     1     -13.553  -1.478   4.118  1.00  0.00     0.074 A 
ATOM     41  C   UNL     1     -12.040  -2.150   5.955  1.00  0.00     0.049 A 
ATOM     42  N   UNL     1     -14.482  -0.832   4.773  1.00  0.00    -0.248 NA
ATOM     43  C   UNL     1     -13.759  -1.521   2.661  1.00  0.00     0.031 C 
ATOM     44  C   UNL     1     -10.857  -2.747   6.576  1.00  0.00     0.029 A 
ATOM     45  N   UNL     1     -12.736  -1.614   7.009  1.00  0.00    -0.354 N 
ATOM     46  C   UNL     1     -15.381  -0.394   3.811  1.00  0.00     0.074 A 
ATOM     47  C   UNL     1     -14.857  -0.793   2.523  1.00  0.00     0.031 C 
ATOM     48  C   UNL     1     -10.915  -2.554   7.905  1.00  0.00     0.029 A 
ATOM     49  C   UNL     1     -12.124  -1.800   8.224  1.00  0.00     0.049 A 
ATOM     50  H   UNL     1     -13.593  -1.142   6.903  1.00  0.00     0.167 HD
ATOM     51  C   UNL     1     -16.555   0.259   3.986  1.00  0.00     0.037 A 
ATOM     52  C   UNL     1     -12.499  -1.398   9.453  1.00  0.00     0.037 A 
ATOM     53  C   UNL     1     -17.078   0.650   5.266  1.00  0.00     0.049 A 
ATOM     54  C   UNL     1     -13.782  -0.628   9.614  1.00  0.00     0.074 A 
ATOM     55  C   UNL     1     -18.278   1.274   5.556  1.00  0.00     0.029 A 
ATOM     56  N   UNL     1     -16.422   0.460   6.474  1.00  0.00    -0.354 N 
ATOM     57  N   UNL     1     -14.660  -0.280   8.704  1.00  0.00    -0.248 NA
ATOM     58  C   UNL     1     -14.125  -0.197  10.976  1.00  0.00     0.031 C 
ATOM     59  C   UNL     1     -18.331   1.498   6.937  1.00  0.00     0.029 A 
ATOM     60  C   UNL     1     -17.181   0.978   7.510  1.00  0.00     0.049 A 
ATOM     61  H   UNL     1     -15.547   0.022   6.579  1.00  0.00     0.167 HD
ATOM     62  C   UNL     1     -15.668   0.390   9.386  1.00  0.00     0.074 A 
ATOM     63  C   UNL     1     -15.302   0.382  10.787  1.00  0.00     0.031 C 
ATOM     64  C   UNL     1     -16.796   0.962   8.897  1.00  0.00     0.037 A 
BRANCH  51  65
ATOM     65  C   UNL     1     -17.345   0.579   2.752  1.00  0.00     0.057 A 
ATOM     66  C   UNL     1     -17.459   1.897   2.295  1.00  0.00     0.134 A 
ATOM     67  C   UNL     1     -17.992  -0.422   2.015  1.00  0.00     0.134 A 
ATOM     68  F   UNL     1     -16.864   2.902   2.954  1.00  0.00    -0.206 F 
ATOM     69  C   UNL     1     -18.185   2.207   1.143  1.00  0.00     0.040 A 
ATOM     70  C   UNL     1     -18.700  -0.127   0.849  1.00  0.00     0.040 A 
ATOM     71  F   UNL     1     -17.906  -1.707   2.391  1.00  0.00    -0.206 F 
ATOM     72  C   UNL     1     -18.801   1.192   0.413  1.00  0.00     0.006 A 
ENDBRANCH  51  65
BRANCH  52  73
ATOM     73  C   UNL     1     -11.665  -1.721  10.637  1.00  0.00     0.057 A 
ATOM     74  C   UNL     1     -10.437  -1.089  10.862  1.00  0.00     0.134 A 
ATOM     75  C   UNL     1     -12.104  -2.641  11.597  1.00  0.00     0.134 A 
ATOM     76  F   UNL     1      -9.961  -0.199   9.980  1.00  0.00    -0.206 F 
ATOM     77  C   UNL     1      -9.676  -1.359  12.001  1.00  0.00     0.040 A 
ATOM     78  C   UNL     1     -11.365  -2.903  12.751  1.00  0.00     0.040 A 
ATOM     79  F   UNL     1     -13.284  -3.261  11.446  1.00  0.00    -0.206 F 
ATOM     80  C   UNL     1     -10.145  -2.261  12.954  1.00  0.00     0.006 A 
ENDBRANCH  52  73
BRANCH  64  81
ATOM     81  C   UNL     1     -17.716   1.606   9.891  1.00  0.00     0.057 A 
ATOM     82  C   UNL     1     -18.942   1.014  10.219  1.00  0.00     0.134 A 
ATOM     83  C   UNL     1     -17.397   2.822  10.509  1.00  0.00     0.134 A 
ATOM     84  F   UNL     1     -19.310  -0.147   9.657  1.00  0.00    -0.206 F 
ATOM     85  C   UNL     1     -19.819   1.610  11.125  1.00  0.00     0.040 A 
ATOM     86  C   UNL     1     -18.255   3.415  11.436  1.00  0.00     0.040 A 
ATOM     87  F   UNL     1     -16.229   3.430  10.249  1.00  0.00    -0.206 F 
ATOM     88  C   UNL     1     -19.473   2.811  11.742  1.00  0.00     0.006 A 
ENDBRANCH  64  81
ENDBRANCH  38  39
ENDBRANCH  30  33
ENDBRANCH  28  29
ENDBRANCH  27  28
ENDBRANCH   1  27
TORSDOF 16
