REMARK SMILES CCCC1(CCC)CN(c2cncc(C(=O)NCCCCNC(=O)c3ccc(-c4c5nc(c(-c6c(F)cccc6F)c6ccc([nH]6)c(-c6c(F)cccc6F)c6nc(c(-c7c(F)cccc7F)c7ccc4[nH]7)C=C6)C=C5)cc3)c2)C1
REMARK SMILES IDX 19 1 18 2 17 3 15 4 16 5 14 7 10 8 11 9 79 10 12 11 13 12
REMARK SMILES IDX 9 13 4 14 8 15 80 16 3 17 2 18 1 19 5 20 6 21 7 22 20 23
REMARK SMILES IDX 21 24 22 25 23 26 24 28 25 29 26 30 78 31 27 32 77 33 28 34
REMARK SMILES IDX 29 35 30 36 71 37 31 38 76 39 70 40 72 41 32 42 75 43 69 44
REMARK SMILES IDX 68 45 33 47 59 48 42 49 58 50 43 51 46 52 57 53 73 54 44 55
REMARK SMILES IDX 45 56 56 58 74 59 47 60 34 61 35 62 40 63 36 64 37 65 39 66
REMARK SMILES IDX 41 67 38 68 60 69 61 70 66 71 62 72 63 73 65 74 67 75 64 76
REMARK SMILES IDX 48 77 49 78 54 79 50 80 51 81 53 82 55 83 52 84
REMARK H PARENT 17 6 22 27 72 46 46 57
REMARK Flexibility Score: inf
ROOT
ATOM      1  C   UNL     1      -3.292  -0.029   5.460  1.00  0.00     0.023 C 
ENDROOT
BRANCH   1   2
ATOM      2  C   UNL     1      -2.497   1.264   5.665  1.00  0.00     0.116 C 
BRANCH   2   3
ATOM      3  N   UNL     1      -2.023   1.367   7.032  1.00  0.00    -0.352 N 
ATOM      4  C   UNL     1      -0.860   0.985   7.654  1.00  0.00     0.252 C 
ATOM      5  O   UNL     1      -0.766   1.236   8.857  1.00  0.00    -0.269 OA
ATOM      6  H   UNL     1      -2.667   1.801   7.638  1.00  0.00     0.163 HD
BRANCH   4   7
ATOM      7  C   UNL     1       0.286   0.332   6.971  1.00  0.00     0.060 A 
ATOM      8  C   UNL     1       1.420  -0.744   5.109  1.00  0.00     0.056 A 
ATOM      9  C   UNL     1       2.577  -0.739   5.878  1.00  0.00     0.136 A 
ATOM     10  C   UNL     1       0.258  -0.256   5.711  1.00  0.00     0.043 A 
ATOM     11  N   UNL     1       2.650  -0.235   7.133  1.00  0.00    -0.262 NA
ATOM     12  C   UNL     1       1.509   0.306   7.637  1.00  0.00     0.125 A 
BRANCH   8  13
ATOM     13  N   UNL     1       1.421  -1.109   3.760  1.00  0.00    -0.369 N 
ATOM     14  C   UNL     1       0.735  -1.847   1.929  1.00  0.00     0.005 C 
ATOM     15  C   UNL     1       1.537  -2.392   3.160  1.00  0.00     0.125 C 
ATOM     16  C   UNL     1       0.749  -0.491   2.668  1.00  0.00     0.125 C 
BRANCH  14  17
ATOM     17  C   UNL     1       1.575  -1.975   0.643  1.00  0.00     0.010 C 
BRANCH  17  18
ATOM     18  C   UNL     1       1.233  -1.035  -0.521  1.00  0.00    -0.003 C 
ATOM     19  C   UNL     1       1.677   0.410  -0.355  1.00  0.00     0.004 C 
ENDBRANCH  17  18
ENDBRANCH  14  17
BRANCH  14  20
ATOM     20  C   UNL     1      -0.652  -2.542   1.911  1.00  0.00     0.010 C 
BRANCH  20  21
ATOM     21  C   UNL     1      -1.665  -1.941   0.938  1.00  0.00    -0.003 C 
ATOM     22  C   UNL     1      -1.808  -2.772  -0.332  1.00  0.00     0.004 C 
ENDBRANCH  20  21
ENDBRANCH  14  20
ENDBRANCH   8  13
ENDBRANCH   4   7
ENDBRANCH   2   3
ENDBRANCH   1   2
BRANCH   1  23
ATOM     23  C   UNL     1      -4.753   0.063   5.915  1.00  0.00     0.023 C 
BRANCH  23  24
ATOM     24  C   UNL     1      -5.600   1.081   5.157  1.00  0.00     0.116 C 
BRANCH  24  25
ATOM     25  N   UNL     1      -5.623   0.858   3.720  1.00  0.00    -0.352 N 
ATOM     26  C   UNL     1      -6.628   1.137   2.824  1.00  0.00     0.251 C 
ATOM     27  H   UNL     1      -4.811   0.454   3.338  1.00  0.00     0.163 HD
ATOM     28  O   UNL     1      -6.527   0.794   1.655  1.00  0.00    -0.269 OA
BRANCH  26  29
ATOM     29  C   UNL     1      -7.852   1.816   3.298  1.00  0.00     0.039 A 
ATOM     30  C   UNL     1      -9.092   1.270   2.961  1.00  0.00     0.014 A 
ATOM     31  C   UNL     1      -7.777   2.963   4.093  1.00  0.00     0.014 A 
ATOM     32  C   UNL     1     -10.258   1.836   3.480  1.00  0.00     0.010 A 
ATOM     33  C   UNL     1      -8.934   3.484   4.664  1.00  0.00     0.010 A 
ATOM     34  C   UNL     1     -10.185   2.923   4.366  1.00  0.00    -0.014 A 
BRANCH  34  35
ATOM     35  C   UNL     1     -11.409   3.471   5.004  1.00  0.00     0.031 A 
ATOM     36  C   UNL     1     -11.855   4.876   4.708  1.00  0.00     0.074 A 
ATOM     37  C   UNL     1     -12.081   2.721   5.900  1.00  0.00     0.049 A 
ATOM     38  N   UNL     1     -12.872   5.539   5.199  1.00  0.00    -0.248 NA
ATOM     39  C   UNL     1     -11.040   5.647   3.757  1.00  0.00     0.031 C 
ATOM     40  C   UNL     1     -11.715   1.365   6.315  1.00  0.00     0.029 A 
ATOM     41  N   UNL     1     -13.210   2.997   6.630  1.00  0.00    -0.354 N 
ATOM     42  C   UNL     1     -12.806   6.806   4.634  1.00  0.00     0.074 A 
ATOM     43  C   UNL     1     -11.627   6.835   3.796  1.00  0.00     0.031 C 
ATOM     44  C   UNL     1     -12.616   0.918   7.204  1.00  0.00     0.029 A 
ATOM     45  C   UNL     1     -13.602   1.965   7.449  1.00  0.00     0.049 A 
ATOM     46  H   UNL     1     -13.692   3.853   6.573  1.00  0.00     0.167 HD
ATOM     47  C   UNL     1     -13.663   7.843   4.784  1.00  0.00     0.037 A 
ATOM     48  C   UNL     1     -14.640   1.876   8.302  1.00  0.00     0.037 A 
ATOM     49  C   UNL     1     -14.857   7.798   5.586  1.00  0.00     0.049 A 
ATOM     50  C   UNL     1     -15.579   3.042   8.439  1.00  0.00     0.074 A 
ATOM     51  C   UNL     1     -15.836   8.766   5.727  1.00  0.00     0.029 A 
ATOM     52  N   UNL     1     -15.232   6.729   6.385  1.00  0.00    -0.354 N 
ATOM     53  N   UNL     1     -15.558   4.199   7.823  1.00  0.00    -0.248 NA
ATOM     54  C   UNL     1     -16.692   2.888   9.387  1.00  0.00     0.031 C 
ATOM     55  C   UNL     1     -16.780   8.301   6.649  1.00  0.00     0.029 A 
ATOM     56  C   UNL     1     -16.413   7.025   7.044  1.00  0.00     0.049 A 
ATOM     57  H   UNL     1     -14.732   5.885   6.471  1.00  0.00     0.167 HD
ATOM     58  C   UNL     1     -16.669   4.895   8.283  1.00  0.00     0.074 A 
ATOM     59  C   UNL     1     -17.350   4.025   9.218  1.00  0.00     0.031 C 
ATOM     60  C   UNL     1     -17.087   6.143   7.961  1.00  0.00     0.037 A 
BRANCH  47  61
ATOM     61  C   UNL     1     -13.348   9.120   4.061  1.00  0.00     0.057 A 
ATOM     62  C   UNL     1     -13.479   9.235   2.671  1.00  0.00     0.134 A 
ATOM     63  C   UNL     1     -12.969  10.266   4.772  1.00  0.00     0.134 A 
ATOM     64  F   UNL     1     -13.828   8.172   1.931  1.00  0.00    -0.206 F 
ATOM     65  C   UNL     1     -13.228  10.440   2.012  1.00  0.00     0.040 A 
ATOM     66  C   UNL     1     -12.739  11.482   4.127  1.00  0.00     0.040 A 
ATOM     67  F   UNL     1     -12.831  10.226   6.106  1.00  0.00    -0.206 F 
ATOM     68  C   UNL     1     -12.866  11.570   2.742  1.00  0.00     0.006 A 
ENDBRANCH  47  61
BRANCH  48  69
ATOM     69  C   UNL     1     -14.869   0.633   9.082  1.00  0.00     0.057 A 
ATOM     70  C   UNL     1     -15.975  -0.186   8.824  1.00  0.00     0.134 A 
ATOM     71  C   UNL     1     -14.015   0.253  10.125  1.00  0.00     0.134 A 
ATOM     72  F   UNL     1     -16.839   0.135   7.850  1.00  0.00    -0.206 F 
ATOM     73  C   UNL     1     -16.242  -1.320   9.593  1.00  0.00     0.040 A 
ATOM     74  C   UNL     1     -14.256  -0.893  10.885  1.00  0.00     0.040 A 
ATOM     75  F   UNL     1     -12.934   0.990  10.418  1.00  0.00    -0.206 F 
ATOM     76  C   UNL     1     -15.379  -1.677  10.627  1.00  0.00     0.006 A 
ENDBRANCH  48  69
BRANCH  60  77
ATOM     77  C   UNL     1     -18.359   6.624   8.593  1.00  0.00     0.057 A 
ATOM     78  C   UNL     1     -18.428   6.969   9.949  1.00  0.00     0.134 A 
ATOM     79  C   UNL     1     -19.523   6.772   7.828  1.00  0.00     0.134 A 
ATOM     80  F   UNL     1     -17.352   6.836  10.739  1.00  0.00    -0.206 F 
ATOM     81  C   UNL     1     -19.616   7.419  10.527  1.00  0.00     0.040 A 
ATOM     82  C   UNL     1     -20.709   7.248   8.387  1.00  0.00     0.040 A 
ATOM     83  F   UNL     1     -19.522   6.468   6.521  1.00  0.00    -0.206 F 
ATOM     84  C   UNL     1     -20.759   7.567   9.743  1.00  0.00     0.006 A 
ENDBRANCH  60  77
ENDBRANCH  34  35
ENDBRANCH  26  29
ENDBRANCH  24  25
ENDBRANCH  23  24
ENDBRANCH   1  23
TORSDOF 16
