REMARK SMILES CC(C)[C@@H]1C(=O)Nc2ccccc2N1C(=O)N[C@H](Cc1ccccc1)C(=O)NCCCCNC(=O)c1ccc(-c2c3nc(c(-c4c(F)cccc4F)c4ccc([nH]4)c(-c4c(F)cccc4F)c4nc(c(-c5c(F)cccc5F)c5ccc2[nH]5)C=C4)C=C3)cc1
REMARK SMILES IDX 30 1 29 2 28 3 26 4 27 5 18 7 17 8 15 9 16 10 14 12 4 13
REMARK SMILES IDX 5 14 6 15 7 16 13 17 8 18 12 20 9 21 11 22 10 23 2 24 1 25
REMARK SMILES IDX 3 26 19 27 20 28 21 29 25 30 22 31 24 32 23 33 31 34 32 35
REMARK SMILES IDX 33 36 34 37 35 39 36 40 37 41 89 42 38 43 88 44 39 45 40 46
REMARK SMILES IDX 41 47 82 48 42 49 87 50 81 51 83 52 43 53 86 54 80 55 79 56
REMARK SMILES IDX 44 58 70 59 53 60 69 61 54 62 57 63 68 64 84 65 55 66 56 67
REMARK SMILES IDX 67 69 85 70 58 71 45 72 46 73 51 74 47 75 48 76 50 77 52 78
REMARK SMILES IDX 49 79 71 80 72 81 77 82 73 83 74 84 76 85 78 86 75 87 59 88
REMARK SMILES IDX 60 89 65 90 61 91 62 92 64 93 66 94 63 95
REMARK H PARENT 28 6 17 11 7 19 33 38 83 57 57 68
REMARK Flexibility Score: inf
ROOT
ATOM      1  C   UNL     1       5.224   2.740   2.348  1.00  0.00     0.023 C 
ENDROOT
BRANCH   1   2
ATOM      2  C   UNL     1       4.475   1.434   2.764  1.00  0.00     0.116 C 
BRANCH   2   3
ATOM      3  N   UNL     1       3.013   1.378   2.589  1.00  0.00    -0.354 N 
ATOM      4  C   UNL     1       2.306   0.183   2.636  1.00  0.00     0.242 C 
ATOM      5  O   UNL     1       2.093  -0.294   3.758  1.00  0.00    -0.273 OA
ATOM      6  H   UNL     1       2.520   2.216   2.433  1.00  0.00     0.163 HD
BRANCH   4   7
ATOM      7  C   UNL     1       1.518  -0.410   1.379  1.00  0.00     0.177 C 
BRANCH   7   8
ATOM      8  N   UNL     1       1.968  -0.188  -0.001  1.00  0.00    -0.326 N 
ATOM      9  C   UNL     1       3.183   0.089  -0.512  1.00  0.00     0.323 C 
ATOM     10  O   UNL     1       3.733  -0.860  -1.081  1.00  0.00    -0.248 OA
ATOM     11  H   UNL     1       1.253  -0.255  -0.674  1.00  0.00     0.166 HD
BRANCH   9  12
ATOM     12  N   UNL     1       3.650   1.389  -0.584  1.00  0.00    -0.280 N 
ATOM     13  C   UNL     1       2.922   2.687  -0.306  1.00  0.00     0.184 C 
ATOM     14  C   UNL     1       3.474   3.930  -1.043  1.00  0.00     0.247 C 
ATOM     15  O   UNL     1       2.958   5.049  -0.968  1.00  0.00    -0.272 OA
ATOM     16  N   UNL     1       4.690   3.849  -1.625  1.00  0.00    -0.322 N 
ATOM     17  C   UNL     1       5.069   1.567  -0.884  1.00  0.00     0.070 A 
ATOM     18  C   UNL     1       5.537   2.771  -1.427  1.00  0.00     0.065 A 
ATOM     19  H   UNL     1       4.985   4.582  -2.211  1.00  0.00     0.170 HD
ATOM     20  C   UNL     1       6.045   0.614  -0.534  1.00  0.00     0.028 A 
ATOM     21  C   UNL     1       6.894   2.999  -1.672  1.00  0.00     0.028 A 
ATOM     22  C   UNL     1       7.415   0.879  -0.691  1.00  0.00     0.002 A 
ATOM     23  C   UNL     1       7.838   2.069  -1.268  1.00  0.00     0.002 A 
BRANCH  13  24
ATOM     24  C   UNL     1       1.379   2.846  -0.402  1.00  0.00     0.015 C 
ATOM     25  C   UNL     1       0.738   1.986  -1.472  1.00  0.00     0.010 C 
ATOM     26  C   UNL     1       0.742   2.989   0.985  1.00  0.00     0.010 C 
ENDBRANCH  13  24
ENDBRANCH   9  12
ENDBRANCH   7   8
BRANCH   7  27
ATOM     27  C   UNL     1      -0.078  -0.237   1.528  1.00  0.00     0.070 C 
BRANCH  27  28
ATOM     28  C   UNL     1      -1.114  -0.383   0.389  1.00  0.00    -0.045 A 
ATOM     29  C   UNL     1      -1.865   0.730  -0.059  1.00  0.00     0.004 A 
ATOM     30  C   UNL     1      -1.482  -1.626  -0.143  1.00  0.00     0.004 A 
ATOM     31  C   UNL     1      -2.891   0.625  -1.014  1.00  0.00     0.000 A 
ATOM     32  C   UNL     1      -2.543  -1.742  -1.067  1.00  0.00     0.000 A 
ATOM     33  C   UNL     1      -3.244  -0.620  -1.508  1.00  0.00     0.000 A 
ENDBRANCH  27  28
ENDBRANCH   7  27
ENDBRANCH   4   7
ENDBRANCH   2   3
ENDBRANCH   1   2
BRANCH   1  34
ATOM     34  C   UNL     1       4.646   4.121   2.705  1.00  0.00     0.023 C 
BRANCH  34  35
ATOM     35  C   UNL     1       5.561   5.303   2.287  1.00  0.00     0.116 C 
BRANCH  35  36
ATOM     36  N   UNL     1       5.789   5.446   0.846  1.00  0.00    -0.352 N 
ATOM     37  C   UNL     1       6.888   5.935   0.144  1.00  0.00     0.251 C 
ATOM     38  H   UNL     1       5.041   5.147   0.280  1.00  0.00     0.163 HD
ATOM     39  O   UNL     1       6.804   6.215  -1.031  1.00  0.00    -0.269 OA
BRANCH  37  40
ATOM     40  C   UNL     1       8.157   6.170   0.874  1.00  0.00     0.039 A 
ATOM     41  C   UNL     1       8.798   7.406   0.754  1.00  0.00     0.014 A 
ATOM     42  C   UNL     1       8.614   5.223   1.784  1.00  0.00     0.014 A 
ATOM     43  C   UNL     1       9.759   7.766   1.701  1.00  0.00     0.010 A 
ATOM     44  C   UNL     1       9.465   5.630   2.801  1.00  0.00     0.010 A 
ATOM     45  C   UNL     1      10.008   6.923   2.798  1.00  0.00    -0.014 A 
BRANCH  45  46
ATOM     46  C   UNL     1      10.741   7.426   3.988  1.00  0.00     0.031 A 
ATOM     47  C   UNL     1      11.993   6.746   4.460  1.00  0.00     0.074 A 
ATOM     48  C   UNL     1      10.221   8.459   4.686  1.00  0.00     0.049 A 
ATOM     49  N   UNL     1      12.779   7.066   5.455  1.00  0.00    -0.248 NA
ATOM     50  C   UNL     1      12.399   5.525   3.746  1.00  0.00     0.031 C 
ATOM     51  C   UNL     1       8.948   9.127   4.389  1.00  0.00     0.029 A 
ATOM     52  N   UNL     1      10.694   9.138   5.781  1.00  0.00    -0.354 N 
ATOM     53  C   UNL     1      13.769   6.092   5.480  1.00  0.00     0.074 A 
ATOM     54  C   UNL     1      13.435   5.121   4.463  1.00  0.00     0.031 C 
ATOM     55  C   UNL     1       8.778  10.156   5.233  1.00  0.00     0.029 A 
ATOM     56  C   UNL     1       9.906  10.203   6.155  1.00  0.00     0.049 A 
ATOM     57  H   UNL     1      11.519   8.887   6.255  1.00  0.00     0.167 HD
ATOM     58  C   UNL     1      14.878   6.035   6.253  1.00  0.00     0.037 A 
ATOM     59  C   UNL     1      10.086  11.126   7.119  1.00  0.00     0.037 A 
ATOM     60  C   UNL     1      15.200   7.014   7.257  1.00  0.00     0.049 A 
ATOM     61  C   UNL     1      11.338  11.055   7.950  1.00  0.00     0.074 A 
ATOM     62  C   UNL     1      16.318   7.085   8.068  1.00  0.00     0.029 A 
ATOM     63  N   UNL     1      14.393   8.093   7.588  1.00  0.00    -0.354 N 
ATOM     64  N   UNL     1      12.319  10.186   7.893  1.00  0.00    -0.248 NA
ATOM     65  C   UNL     1      11.518  12.100   8.966  1.00  0.00     0.031 C 
ATOM     66  C   UNL     1      16.163   8.181   8.924  1.00  0.00     0.029 A 
ATOM     67  C   UNL     1      14.978   8.827   8.605  1.00  0.00     0.049 A 
ATOM     68  H   UNL     1      13.531   8.306   7.162  1.00  0.00     0.167 HD
ATOM     69  C   UNL     1      13.247  10.597   8.840  1.00  0.00     0.074 A 
ATOM     70  C   UNL     1      12.718  11.803   9.444  1.00  0.00     0.031 C 
ATOM     71  C   UNL     1      14.431  10.029   9.182  1.00  0.00     0.037 A 
BRANCH  58  72
ATOM     72  C   UNL     1      15.816   4.885   6.024  1.00  0.00     0.057 A 
ATOM     73  C   UNL     1      16.548   4.754   4.834  1.00  0.00     0.134 A 
ATOM     74  C   UNL     1      15.992   3.894   6.997  1.00  0.00     0.134 A 
ATOM     75  F   UNL     1      16.415   5.659   3.851  1.00  0.00    -0.206 F 
ATOM     76  C   UNL     1      17.389   3.663   4.605  1.00  0.00     0.040 A 
ATOM     77  C   UNL     1      16.855   2.814   6.793  1.00  0.00     0.040 A 
ATOM     78  F   UNL     1      15.327   3.955   8.160  1.00  0.00    -0.206 F 
ATOM     79  C   UNL     1      17.548   2.692   5.590  1.00  0.00     0.006 A 
ENDBRANCH  58  72
BRANCH  59  80
ATOM     80  C   UNL     1       9.097  12.220   7.314  1.00  0.00     0.057 A 
ATOM     81  C   UNL     1       9.419  13.552   7.021  1.00  0.00     0.134 A 
ATOM     82  C   UNL     1       7.810  11.969   7.805  1.00  0.00     0.134 A 
ATOM     83  F   UNL     1      10.639  13.865   6.560  1.00  0.00    -0.206 F 
ATOM     84  C   UNL     1       8.513  14.593   7.235  1.00  0.00     0.040 A 
ATOM     85  C   UNL     1       6.883  12.996   7.997  1.00  0.00     0.040 A 
ATOM     86  F   UNL     1       7.428  10.716   8.095  1.00  0.00    -0.206 F 
ATOM     87  C   UNL     1       7.237  14.315   7.721  1.00  0.00     0.006 A 
ENDBRANCH  59  80
BRANCH  71  88
ATOM     88  C   UNL     1      15.246  10.733  10.226  1.00  0.00     0.057 A 
ATOM     89  C   UNL     1      14.861  10.768  11.572  1.00  0.00     0.134 A 
ATOM     90  C   UNL     1      16.452  11.358   9.881  1.00  0.00     0.134 A 
ATOM     91  F   UNL     1      13.712  10.199  11.966  1.00  0.00    -0.206 F 
ATOM     92  C   UNL     1      15.630  11.426  12.533  1.00  0.00     0.040 A 
ATOM     93  C   UNL     1      17.246  11.990  10.837  1.00  0.00     0.040 A 
ATOM     94  F   UNL     1      16.884  11.351   8.611  1.00  0.00    -0.206 F 
ATOM     95  C   UNL     1      16.830  12.034  12.166  1.00  0.00     0.006 A 
ENDBRANCH  71  88
ENDBRANCH  45  46
ENDBRANCH  37  40
ENDBRANCH  35  36
ENDBRANCH  34  35
ENDBRANCH   1  34
TORSDOF 16
