REMARK SMILES CCCc1cc2c(cc1Cl)C=C(C(=O)NCCCCNC(=O)c1ccc(-c3c4nc(c(-c5c(F)cccc5F)c5ccc([nH]5)c(-c5c(F)cccc5F)c5nc(c(-c6c(F)cccc6F)c6ccc3[nH]6)C=C5)C=C4)cc1)[C@@H](C(F)(F)F)O2
REMARK SMILES IDX 17 1 16 2 15 3 13 4 14 5 12 7 4 8 5 9 9 10 6 11 8 12 10 13
REMARK SMILES IDX 7 14 82 15 11 16 77 17 3 18 2 19 1 20 78 21 79 22 80 23
REMARK SMILES IDX 81 24 18 25 19 26 20 27 21 28 22 30 23 31 24 32 76 33 25 34
REMARK SMILES IDX 75 35 26 36 27 37 28 38 69 39 29 40 74 41 68 42 70 43 30 44
REMARK SMILES IDX 73 45 67 46 66 47 31 49 57 50 40 51 56 52 41 53 44 54 55 55
REMARK SMILES IDX 71 56 42 57 43 58 54 60 72 61 45 62 32 63 33 64 38 65 34 66
REMARK SMILES IDX 35 67 37 68 39 69 36 70 58 71 59 72 64 73 60 74 61 75 63 76
REMARK SMILES IDX 65 77 62 78 46 79 47 80 52 81 48 82 49 83 51 84 53 85 50 86
REMARK H PARENT 15 6 20 29 70 48 44 59
REMARK Flexibility Score: inf
ROOT
ATOM      1  C   UNL     1      -3.023   4.415   9.234  1.00  0.00     0.023 C 
ENDROOT
BRANCH   1   2
ATOM      2  C   UNL     1      -3.576   4.609   7.826  1.00  0.00     0.116 C 
BRANCH   2   3
ATOM      3  N   UNL     1      -2.740   5.482   7.022  1.00  0.00    -0.352 N 
ATOM      4  C   UNL     1      -1.863   5.338   6.001  1.00  0.00     0.251 C 
ATOM      5  O   UNL     1      -1.353   6.387   5.594  1.00  0.00    -0.270 OA
ATOM      6  H   UNL     1      -2.837   6.425   7.289  1.00  0.00     0.163 HD
BRANCH   4   7
ATOM      7  C   UNL     1      -1.486   4.040   5.364  1.00  0.00     0.067 C 
ATOM      8  C   UNL     1       0.925   0.488   2.675  1.00  0.00    -0.026 A 
ATOM      9  C   UNL     1      -0.174   0.493   3.550  1.00  0.00     0.052 A 
ATOM     10  C   UNL     1       1.588   1.702   2.438  1.00  0.00     0.045 A 
ATOM     11  C   UNL     1      -0.597   1.671   4.166  1.00  0.00     0.128 A 
ATOM     12  C   UNL     1       1.156   2.884   3.054  1.00  0.00     0.032 A 
ATOM     13  Cl  UNL     1       2.965   1.812   1.401  1.00  0.00    -0.084 Cl
ATOM     14  C   UNL     1       0.061   2.870   3.923  1.00  0.00     0.019 A 
ATOM     15  O   UNL     1      -1.642   1.552   5.030  1.00  0.00    -0.475 OA
ATOM     16  C   UNL     1      -0.376   4.080   4.605  1.00  0.00     0.025 C 
ATOM     17  C   UNL     1      -2.286   2.772   5.489  1.00  0.00     0.314 C 
BRANCH   8  18
ATOM     18  C   UNL     1       1.319  -0.824   2.034  1.00  0.00     0.037 C 
BRANCH  18  19
ATOM     19  C   UNL     1       0.451  -1.203   0.829  1.00  0.00     0.001 C 
ATOM     20  C   UNL     1       0.695  -0.330  -0.393  1.00  0.00     0.004 C 
ENDBRANCH  18  19
ENDBRANCH   8  18
BRANCH  17  21
ATOM     21  C   UNL     1      -3.670   2.860   4.820  1.00  0.00     0.429 C 
ATOM     22  F   UNL     1      -4.469   1.855   5.259  1.00  0.00    -0.167 F 
ATOM     23  F   UNL     1      -4.321   4.012   5.105  1.00  0.00    -0.167 F 
ATOM     24  F   UNL     1      -3.600   2.766   3.474  1.00  0.00    -0.167 F 
ENDBRANCH  17  21
ENDBRANCH   4   7
ENDBRANCH   2   3
ENDBRANCH   1   2
BRANCH   1  25
ATOM     25  C   UNL     1      -3.350   5.554  10.202  1.00  0.00     0.023 C 
BRANCH  25  26
ATOM     26  C   UNL     1      -4.829   5.920  10.314  1.00  0.00     0.116 C 
BRANCH  26  27
ATOM     27  N   UNL     1      -5.711   4.788  10.569  1.00  0.00    -0.352 N 
ATOM     28  C   UNL     1      -6.897   4.772  11.269  1.00  0.00     0.251 C 
ATOM     29  H   UNL     1      -5.421   3.925  10.194  1.00  0.00     0.163 HD
ATOM     30  O   UNL     1      -7.502   3.722  11.452  1.00  0.00    -0.269 OA
BRANCH  28  31
ATOM     31  C   UNL     1      -7.397   6.034  11.848  1.00  0.00     0.039 A 
ATOM     32  C   UNL     1      -7.479   7.184  11.062  1.00  0.00     0.014 A 
ATOM     33  C   UNL     1      -7.688   6.083  13.213  1.00  0.00     0.014 A 
ATOM     34  C   UNL     1      -7.668   8.415  11.676  1.00  0.00     0.010 A 
ATOM     35  C   UNL     1      -7.958   7.314  13.815  1.00  0.00     0.010 A 
ATOM     36  C   UNL     1      -7.885   8.496  13.062  1.00  0.00    -0.014 A 
BRANCH  36  37
ATOM     37  C   UNL     1      -7.988   9.833  13.700  1.00  0.00     0.031 A 
ATOM     38  C   UNL     1      -6.930  10.309  14.660  1.00  0.00     0.074 A 
ATOM     39  C   UNL     1      -8.996  10.652  13.349  1.00  0.00     0.049 A 
ATOM     40  N   UNL     1      -6.828  11.463  15.270  1.00  0.00    -0.248 NA
ATOM     41  C   UNL     1      -5.846   9.367  14.982  1.00  0.00     0.031 C 
ATOM     42  C   UNL     1     -10.075  10.309  12.420  1.00  0.00     0.029 A 
ATOM     43  N   UNL     1      -9.260  11.949  13.704  1.00  0.00    -0.354 N 
ATOM     44  C   UNL     1      -5.688  11.379  16.061  1.00  0.00     0.074 A 
ATOM     45  C   UNL     1      -5.144  10.051  15.874  1.00  0.00     0.031 C 
ATOM     46  C   UNL     1     -10.850  11.388  12.232  1.00  0.00     0.029 A 
ATOM     47  C   UNL     1     -10.355  12.478  13.066  1.00  0.00     0.049 A 
ATOM     48  H   UNL     1      -8.717  12.452  14.353  1.00  0.00     0.167 HD
ATOM     49  C   UNL     1      -5.138  12.324  16.861  1.00  0.00     0.037 A 
ATOM     50  C   UNL     1     -10.902  13.704  13.147  1.00  0.00     0.037 A 
ATOM     51  C   UNL     1      -5.663  13.655  17.027  1.00  0.00     0.049 A 
ATOM     52  C   UNL     1     -10.285  14.724  14.057  1.00  0.00     0.074 A 
ATOM     53  C   UNL     1      -5.165  14.690  17.799  1.00  0.00     0.029 A 
ATOM     54  N   UNL     1      -6.805  14.135  16.404  1.00  0.00    -0.354 N 
ATOM     55  N   UNL     1      -9.206  14.628  14.795  1.00  0.00    -0.248 NA
ATOM     56  C   UNL     1     -10.970  16.020  14.153  1.00  0.00     0.031 C 
ATOM     57  C   UNL     1      -6.024  15.788  17.666  1.00  0.00     0.029 A 
ATOM     58  C   UNL     1      -7.036  15.446  16.786  1.00  0.00     0.049 A 
ATOM     59  H   UNL     1      -7.368  13.619  15.782  1.00  0.00     0.167 HD
ATOM     60  C   UNL     1      -9.076  15.852  15.436  1.00  0.00     0.074 A 
ATOM     61  C   UNL     1     -10.174  16.682  14.981  1.00  0.00     0.031 C 
ATOM     62  C   UNL     1      -8.137  16.253  16.326  1.00  0.00     0.037 A 
BRANCH  49  63
ATOM     63  C   UNL     1      -3.908  11.945  17.631  1.00  0.00     0.057 A 
ATOM     64  C   UNL     1      -3.969  11.735  19.015  1.00  0.00     0.134 A 
ATOM     65  C   UNL     1      -2.658  11.816  17.012  1.00  0.00     0.134 A 
ATOM     66  F   UNL     1      -5.134  11.848  19.670  1.00  0.00    -0.206 F 
ATOM     67  C   UNL     1      -2.831  11.410  19.755  1.00  0.00     0.040 A 
ATOM     68  C   UNL     1      -1.516  11.471  17.738  1.00  0.00     0.040 A 
ATOM     69  F   UNL     1      -2.535  11.989  15.688  1.00  0.00    -0.206 F 
ATOM     70  C   UNL     1      -1.601  11.272  19.116  1.00  0.00     0.006 A 
ENDBRANCH  49  63
BRANCH  50  71
ATOM     71  C   UNL     1     -12.100  14.032  12.338  1.00  0.00     0.057 A 
ATOM     72  C   UNL     1     -13.349  13.470  12.627  1.00  0.00     0.134 A 
ATOM     73  C   UNL     1     -12.019  14.913  11.255  1.00  0.00     0.134 A 
ATOM     74  F   UNL     1     -13.487  12.614  13.650  1.00  0.00    -0.206 F 
ATOM     75  C   UNL     1     -14.475  13.765  11.858  1.00  0.00     0.040 A 
ATOM     76  C   UNL     1     -13.142  15.235  10.492  1.00  0.00     0.040 A 
ATOM     77  F   UNL     1     -10.852  15.495  10.944  1.00  0.00    -0.206 F 
ATOM     78  C   UNL     1     -14.374  14.655  10.790  1.00  0.00     0.006 A 
ENDBRANCH  50  71
BRANCH  62  79
ATOM     79  C   UNL     1      -8.256  17.652  16.848  1.00  0.00     0.057 A 
ATOM     80  C   UNL     1      -7.388  18.657  16.406  1.00  0.00     0.134 A 
ATOM     81  C   UNL     1      -9.228  18.001  17.794  1.00  0.00     0.134 A 
ATOM     82  F   UNL     1      -6.433  18.384  15.504  1.00  0.00    -0.206 F 
ATOM     83  C   UNL     1      -7.485  19.964  16.884  1.00  0.00     0.040 A 
ATOM     84  C   UNL     1      -9.349  19.310  18.263  1.00  0.00     0.040 A 
ATOM     85  F   UNL     1     -10.100  17.085  18.243  1.00  0.00    -0.206 F 
ATOM     86  C   UNL     1      -8.473  20.295  17.810  1.00  0.00     0.006 A 
ENDBRANCH  62  79
ENDBRANCH  36  37
ENDBRANCH  28  31
ENDBRANCH  26  27
ENDBRANCH  25  26
ENDBRANCH   1  25
TORSDOF 14
