REMARK SMILES Cc1ccc([C@@H]2[C@H](C(=O)NCCCCNC(=O)c3ccc(-c4c5nc(c(-c6c(F)cccc6F)c6ccc([nH]6)c(-c6c(F)cccc6F)c6nc(c(-c7c(F)cccc7F)c7ccc4[nH]7)C=C6)C=C5)cc3)c3ccccc3C(=O)N2c2ccccc2)cc1
REMARK SMILES IDX 13 1 12 2 11 3 10 4 8 5 9 6 7 8 6 9 80 10 72 11 78 12 73 13
REMARK SMILES IDX 77 14 79 15 74 16 76 17 75 18 5 19 1 20 2 21 3 22 88 23 4 24
REMARK SMILES IDX 87 25 81 26 82 27 86 28 83 29 85 30 84 31 14 32 15 33 16 34
REMARK SMILES IDX 17 36 18 37 19 38 71 39 20 40 70 41 21 42 22 43 23 44 64 45
REMARK SMILES IDX 24 46 69 47 63 48 65 49 25 50 68 51 62 52 61 53 26 55 52 56
REMARK SMILES IDX 35 57 51 58 36 59 39 60 50 61 66 62 37 63 38 64 49 66 67 67
REMARK SMILES IDX 40 68 27 69 28 70 33 71 29 72 30 73 32 74 34 75 31 76 53 77
REMARK SMILES IDX 54 78 59 79 55 80 56 81 58 82 60 83 57 84 41 85 42 86 47 87
REMARK SMILES IDX 43 88 44 89 46 90 48 91 45 92
REMARK H PARENT 10 7 15 35 65 54 39 65
REMARK Flexibility Score: inf
ROOT
ATOM      1  C   UNL     1      -4.856  -5.175   5.787  1.00  0.00     0.023 C 
ENDROOT
BRANCH   1   2
ATOM      2  C   UNL     1      -4.475  -3.744   6.174  1.00  0.00     0.023 C 
BRANCH   2   3
ATOM      3  C   UNL     1      -3.064  -3.320   5.750  1.00  0.00     0.116 C 
BRANCH   3   4
ATOM      4  N   UNL     1      -2.984  -3.034   4.326  1.00  0.00    -0.355 N 
ATOM      5  C   UNL     1      -2.204  -1.994   3.866  1.00  0.00     0.230 C 
ATOM      6  O   UNL     1      -0.985  -2.140   3.785  1.00  0.00    -0.274 OA
ATOM      7  H   UNL     1      -3.489  -3.587   3.687  1.00  0.00     0.163 HD
BRANCH   5   8
ATOM      8  C   UNL     1      -2.909  -0.720   3.381  1.00  0.00     0.137 C 
ATOM      9  C   UNL     1      -2.874  -0.587   1.823  1.00  0.00     0.138 C 
ATOM     10  N   UNL     1      -3.901  -1.467   1.238  1.00  0.00    -0.300 N 
ATOM     11  C   UNL     1      -4.359  -0.561   3.850  1.00  0.00    -0.020 A 
ATOM     12  C   UNL     1      -5.190  -0.962   1.484  1.00  0.00     0.259 C 
ATOM     13  C   UNL     1      -4.645  -0.334   5.204  1.00  0.00     0.005 A 
ATOM     14  C   UNL     1      -5.433  -0.645   2.933  1.00  0.00     0.044 A 
ATOM     15  O   UNL     1      -6.090  -0.892   0.656  1.00  0.00    -0.269 OA
ATOM     16  C   UNL     1      -5.968  -0.262   5.644  1.00  0.00     0.000 A 
ATOM     17  C   UNL     1      -6.755  -0.535   3.377  1.00  0.00     0.014 A 
ATOM     18  C   UNL     1      -7.020  -0.364   4.735  1.00  0.00     0.001 A 
BRANCH   9  19
ATOM     19  C   UNL     1      -1.538  -0.323   1.130  1.00  0.00    -0.024 A 
ATOM     20  C   UNL     1       2.461   0.383  -0.391  1.00  0.00     0.044 C 
ATOM     21  C   UNL     1       1.038   0.216   0.050  1.00  0.00    -0.051 A 
ATOM     22  C   UNL     1       0.207  -0.752  -0.520  1.00  0.00     0.004 A 
ATOM     23  C   UNL     1       0.539   0.988   1.097  1.00  0.00     0.004 A 
ATOM     24  C   UNL     1      -1.084  -0.977  -0.020  1.00  0.00     0.006 A 
ATOM     25  C   UNL     1      -0.726   0.720   1.628  1.00  0.00     0.006 A 
ENDBRANCH   9  19
BRANCH  10  26
ATOM     26  C   UNL     1      -3.786  -2.911   1.155  1.00  0.00     0.045 A 
ATOM     27  C   UNL     1      -4.953  -3.705   1.164  1.00  0.00     0.026 A 
ATOM     28  C   UNL     1      -2.566  -3.596   1.193  1.00  0.00     0.026 A 
ATOM     29  C   UNL     1      -4.904  -5.097   1.283  1.00  0.00     0.002 A 
ATOM     30  C   UNL     1      -2.511  -4.995   1.271  1.00  0.00     0.002 A 
ATOM     31  C   UNL     1      -3.679  -5.744   1.340  1.00  0.00     0.000 A 
ENDBRANCH  10  26
ENDBRANCH   5   8
ENDBRANCH   3   4
ENDBRANCH   2   3
ENDBRANCH   1   2
BRANCH   1  32
ATOM     32  C   UNL     1      -4.277  -6.236   6.718  1.00  0.00     0.116 C 
BRANCH  32  33
ATOM     33  N   UNL     1      -5.113  -6.555   7.873  1.00  0.00    -0.352 N 
ATOM     34  C   UNL     1      -4.835  -7.373   8.963  1.00  0.00     0.251 C 
ATOM     35  H   UNL     1      -6.000  -6.130   7.881  1.00  0.00     0.163 HD
ATOM     36  O   UNL     1      -5.653  -7.527   9.847  1.00  0.00    -0.269 OA
BRANCH  34  37
ATOM     37  C   UNL     1      -3.468  -7.944   9.101  1.00  0.00     0.039 A 
ATOM     38  C   UNL     1      -2.805  -7.753  10.318  1.00  0.00     0.014 A 
ATOM     39  C   UNL     1      -2.776  -8.412   7.989  1.00  0.00     0.014 A 
ATOM     40  C   UNL     1      -1.413  -7.743  10.336  1.00  0.00     0.010 A 
ATOM     41  C   UNL     1      -1.400  -8.300   7.977  1.00  0.00     0.010 A 
ATOM     42  C   UNL     1      -0.728  -7.880   9.129  1.00  0.00    -0.014 A 
BRANCH  42  43
ATOM     43  C   UNL     1       0.639  -7.402   8.946  1.00  0.00     0.031 A 
ATOM     44  C   UNL     1       1.762  -8.339   8.758  1.00  0.00     0.074 A 
ATOM     45  C   UNL     1       0.852  -6.070   8.853  1.00  0.00     0.049 A 
ATOM     46  N   UNL     1       2.992  -8.064   9.037  1.00  0.00    -0.248 NA
ATOM     47  C   UNL     1       1.573  -9.693   8.257  1.00  0.00     0.031 C 
ATOM     48  C   UNL     1       2.063  -5.390   8.404  1.00  0.00     0.029 A 
ATOM     49  N   UNL     1       0.038  -5.040   9.351  1.00  0.00    -0.354 N 
ATOM     50  C   UNL     1       3.775  -9.062   8.503  1.00  0.00     0.074 A 
ATOM     51  C   UNL     1       2.840 -10.083   8.086  1.00  0.00     0.031 C 
ATOM     52  C   UNL     1       2.057  -4.136   8.883  1.00  0.00     0.029 A 
ATOM     53  C   UNL     1       0.916  -4.020   9.774  1.00  0.00     0.049 A 
ATOM     54  H   UNL     1      -0.945  -5.032   9.395  1.00  0.00     0.167 HD
ATOM     55  C   UNL     1       5.115  -8.856   8.339  1.00  0.00     0.037 A 
ATOM     56  C   UNL     1       0.983  -3.642  11.083  1.00  0.00     0.037 A 
ATOM     57  C   UNL     1       5.519  -7.548   8.855  1.00  0.00     0.049 A 
ATOM     58  C   UNL     1       2.346  -3.829  11.706  1.00  0.00     0.074 A 
ATOM     59  C   UNL     1       5.732  -6.328   8.234  1.00  0.00     0.029 A 
ATOM     60  N   UNL     1       5.451  -7.286  10.220  1.00  0.00    -0.354 N 
ATOM     61  N   UNL     1       3.278  -4.591  11.204  1.00  0.00    -0.248 NA
ATOM     62  C   UNL     1       2.752  -3.205  12.963  1.00  0.00     0.031 C 
ATOM     63  C   UNL     1       5.732  -5.320   9.227  1.00  0.00     0.029 A 
ATOM     64  C   UNL     1       5.536  -5.927  10.455  1.00  0.00     0.049 A 
ATOM     65  H   UNL     1       5.355  -7.973  10.919  1.00  0.00     0.167 HD
ATOM     66  C   UNL     1       4.356  -4.611  12.050  1.00  0.00     0.074 A 
ATOM     67  C   UNL     1       3.991  -3.704  13.121  1.00  0.00     0.031 C 
ATOM     68  C   UNL     1       5.451  -5.389  11.805  1.00  0.00     0.037 A 
BRANCH  55  69
ATOM     69  C   UNL     1       5.971  -9.697   7.415  1.00  0.00     0.057 A 
ATOM     70  C   UNL     1       7.038  -9.130   6.689  1.00  0.00     0.134 A 
ATOM     71  C   UNL     1       5.752 -11.058   7.142  1.00  0.00     0.134 A 
ATOM     72  F   UNL     1       7.473  -7.886   6.926  1.00  0.00    -0.206 F 
ATOM     73  C   UNL     1       7.721  -9.813   5.674  1.00  0.00     0.040 A 
ATOM     74  C   UNL     1       6.387 -11.739   6.093  1.00  0.00     0.040 A 
ATOM     75  F   UNL     1       4.949 -11.802   7.915  1.00  0.00    -0.206 F 
ATOM     76  C   UNL     1       7.364 -11.108   5.338  1.00  0.00     0.006 A 
ENDBRANCH  55  69
BRANCH  56  77
ATOM     77  C   UNL     1      -0.305  -3.782  11.811  1.00  0.00     0.057 A 
ATOM     78  C   UNL     1      -1.397  -2.991  11.413  1.00  0.00     0.134 A 
ATOM     79  C   UNL     1      -0.583  -4.890  12.616  1.00  0.00     0.134 A 
ATOM     80  F   UNL     1      -1.202  -1.913  10.636  1.00  0.00    -0.206 F 
ATOM     81  C   UNL     1      -2.715  -3.345  11.712  1.00  0.00     0.040 A 
ATOM     82  C   UNL     1      -1.899  -5.249  12.931  1.00  0.00     0.040 A 
ATOM     83  F   UNL     1       0.402  -5.707  13.016  1.00  0.00    -0.206 F 
ATOM     84  C   UNL     1      -2.970  -4.497  12.448  1.00  0.00     0.006 A 
ENDBRANCH  56  77
BRANCH  68  85
ATOM     85  C   UNL     1       6.581  -5.641  12.769  1.00  0.00     0.057 A 
ATOM     86  C   UNL     1       6.433  -5.668  14.164  1.00  0.00     0.134 A 
ATOM     87  C   UNL     1       7.858  -6.013  12.294  1.00  0.00     0.134 A 
ATOM     88  F   UNL     1       5.247  -5.448  14.747  1.00  0.00    -0.206 F 
ATOM     89  C   UNL     1       7.493  -5.980  15.026  1.00  0.00     0.040 A 
ATOM     90  C   UNL     1       8.908  -6.377  13.142  1.00  0.00     0.040 A 
ATOM     91  F   UNL     1       8.133  -6.061  10.982  1.00  0.00    -0.206 F 
ATOM     92  C   UNL     1       8.733  -6.345  14.516  1.00  0.00     0.006 A 
ENDBRANCH  68  85
ENDBRANCH  42  43
ENDBRANCH  34  37
ENDBRANCH  32  33
ENDBRANCH   1  32
TORSDOF 13
