REMARK SMILES Cc1ccccc1O[C@@H](C)C(=O)Oc1ccccc1C(=O)NCCCCNC(=O)c1ccc(-c2c3nc(c(-c4c(F)cccc4F)c4ccc([nH]4)c(-c4c(F)cccc4F)c4nc(c(-c5c(F)cccc5F)c5ccc2[nH]5)C=C4)C=C3)cc1
REMARK SMILES IDX 23 1 22 2 20 3 21 4 19 6 14 7 15 8 16 9 18 10 17 11 13 12
REMARK SMILES IDX 11 13 12 14 9 15 10 16 8 17 7 18 1 19 2 20 3 21 4 22 6 23
REMARK SMILES IDX 5 24 24 25 25 26 26 27 27 28 28 29 29 31 30 32 31 33 83 34
REMARK SMILES IDX 32 35 82 36 33 37 34 38 35 39 76 40 36 41 81 42 75 43 77 44
REMARK SMILES IDX 37 45 80 46 74 47 73 48 38 50 64 51 47 52 63 53 48 54 51 55
REMARK SMILES IDX 62 56 78 57 49 58 50 59 61 61 79 62 52 63 39 64 40 65 45 66
REMARK SMILES IDX 41 67 42 68 44 69 46 70 43 71 65 72 66 73 71 74 67 75 68 76
REMARK SMILES IDX 70 77 72 78 69 79 53 80 54 81 59 82 55 83 56 84 58 85 60 86
REMARK SMILES IDX 57 87
REMARK H PARENT 22 5 27 30 77 49 51 60
REMARK Flexibility Score: inf
ROOT
ATOM      1  C   UNL     1       7.223   0.264  -4.196  1.00  0.00     0.116 C 
ENDROOT
BRANCH   1   2
ATOM      2  N   UNL     1       6.660   0.558  -2.882  1.00  0.00    -0.352 N 
ATOM      3  C   UNL     1       5.460   0.221  -2.284  1.00  0.00     0.255 C 
ATOM      4  O   UNL     1       5.298   0.478  -1.092  1.00  0.00    -0.269 OA
ATOM      5  H   UNL     1       7.249   1.101  -2.310  1.00  0.00     0.163 HD
BRANCH   3   6
ATOM      6  C   UNL     1       4.372  -0.455  -3.031  1.00  0.00     0.082 A 
ATOM      7  C   UNL     1       3.023  -0.083  -2.925  1.00  0.00     0.143 A 
ATOM      8  C   UNL     1       2.025  -0.769  -3.633  1.00  0.00     0.048 A 
ATOM      9  C   UNL     1       2.357  -1.857  -4.433  1.00  0.00     0.004 A 
ATOM     10  C   UNL     1       4.667  -1.616  -3.762  1.00  0.00     0.018 A 
ATOM     11  C   UNL     1       3.676  -2.296  -4.479  1.00  0.00     0.001 A 
BRANCH   7  12
ATOM     12  O   UNL     1       2.480   0.779  -1.938  1.00  0.00    -0.423 OA
BRANCH  12  13
ATOM     13  C   UNL     1       2.941   2.025  -1.547  1.00  0.00     0.352 C 
ATOM     14  O   UNL     1       3.737   2.707  -2.184  1.00  0.00    -0.247 OA
BRANCH  13  15
ATOM     15  C   UNL     1       2.275   2.454  -0.208  1.00  0.00     0.280 C 
ATOM     16  C   UNL     1       3.251   2.458   0.971  1.00  0.00     0.066 C 
BRANCH  15  17
ATOM     17  O   UNL     1       0.989   2.092   0.265  1.00  0.00    -0.479 OA
BRANCH  17  18
ATOM     18  C   UNL     1       0.382   0.882   0.137  1.00  0.00     0.123 A 
ATOM     19  C   UNL     1       2.324  -0.784   0.582  1.00  0.00     0.048 C 
ATOM     20  C   UNL     1       0.907  -0.413   0.249  1.00  0.00    -0.009 A 
ATOM     21  C   UNL     1       0.017  -1.510   0.150  1.00  0.00     0.007 A 
ATOM     22  C   UNL     1      -1.354  -1.339  -0.033  1.00  0.00     0.001 A 
ATOM     23  C   UNL     1      -1.010   1.035  -0.028  1.00  0.00     0.047 A 
ATOM     24  C   UNL     1      -1.872  -0.058  -0.114  1.00  0.00     0.004 A 
ENDBRANCH  17  18
ENDBRANCH  15  17
ENDBRANCH  13  15
ENDBRANCH  12  13
ENDBRANCH   7  12
ENDBRANCH   3   6
ENDBRANCH   1   2
BRANCH   1  25
ATOM     25  C   UNL     1       7.335   1.455  -5.148  1.00  0.00     0.023 C 
BRANCH  25  26
ATOM     26  C   UNL     1       8.256   2.593  -4.719  1.00  0.00     0.023 C 
BRANCH  26  27
ATOM     27  C   UNL     1       9.705   2.218  -4.431  1.00  0.00     0.116 C 
BRANCH  27  28
ATOM     28  N   UNL     1      10.540   1.943  -5.594  1.00  0.00    -0.352 N 
ATOM     29  C   UNL     1      11.861   1.514  -5.655  1.00  0.00     0.251 C 
ATOM     30  H   UNL     1      10.103   2.081  -6.465  1.00  0.00     0.163 HD
ATOM     31  O   UNL     1      12.404   1.389  -6.742  1.00  0.00    -0.269 OA
BRANCH  29  32
ATOM     32  C   UNL     1      12.570   1.064  -4.422  1.00  0.00     0.039 A 
ATOM     33  C   UNL     1      13.386  -0.073  -4.514  1.00  0.00     0.014 A 
ATOM     34  C   UNL     1      12.283   1.597  -3.171  1.00  0.00     0.014 A 
ATOM     35  C   UNL     1      13.650  -0.825  -3.370  1.00  0.00     0.010 A 
ATOM     36  C   UNL     1      12.445   0.804  -2.053  1.00  0.00     0.010 A 
ATOM     37  C   UNL     1      13.052  -0.449  -2.171  1.00  0.00    -0.014 A 
BRANCH  37  38
ATOM     38  C   UNL     1      12.832  -1.364  -1.058  1.00  0.00     0.031 A 
ATOM     39  C   UNL     1      13.509  -1.179   0.240  1.00  0.00     0.074 A 
ATOM     40  C   UNL     1      11.873  -2.312  -1.177  1.00  0.00     0.049 A 
ATOM     41  N   UNL     1      13.546  -2.094   1.149  1.00  0.00    -0.248 NA
ATOM     42  C   UNL     1      14.267   0.015   0.605  1.00  0.00     0.031 C 
ATOM     43  C   UNL     1      11.228  -3.067  -0.105  1.00  0.00     0.029 A 
ATOM     44  N   UNL     1      11.427  -2.936  -2.352  1.00  0.00    -0.354 N 
ATOM     45  C   UNL     1      14.020  -1.518   2.299  1.00  0.00     0.074 A 
ATOM     46  C   UNL     1      14.601  -0.270   1.870  1.00  0.00     0.031 C 
ATOM     47  C   UNL     1      10.717  -4.197  -0.616  1.00  0.00     0.029 A 
ATOM     48  C   UNL     1      11.151  -4.279  -1.997  1.00  0.00     0.049 A 
ATOM     49  H   UNL     1      11.326  -2.525  -3.240  1.00  0.00     0.167 HD
ATOM     50  C   UNL     1      13.738  -2.113   3.491  1.00  0.00     0.037 A 
ATOM     51  C   UNL     1      11.863  -5.312  -2.537  1.00  0.00     0.037 A 
ATOM     52  C   UNL     1      13.199  -3.463   3.308  1.00  0.00     0.049 A 
ATOM     53  C   UNL     1      12.632  -6.153  -1.537  1.00  0.00     0.074 A 
ATOM     54  C   UNL     1      11.981  -4.082   3.523  1.00  0.00     0.029 A 
ATOM     55  N   UNL     1      13.977  -4.383   2.628  1.00  0.00    -0.354 N 
ATOM     56  N   UNL     1      12.662  -5.928  -0.253  1.00  0.00    -0.248 NA
ATOM     57  C   UNL     1      13.515  -7.256  -1.924  1.00  0.00     0.031 C 
ATOM     58  C   UNL     1      12.038  -5.382   2.933  1.00  0.00     0.029 A 
ATOM     59  C   UNL     1      13.299  -5.558   2.391  1.00  0.00     0.049 A 
ATOM     60  H   UNL     1      14.906  -4.218   2.347  1.00  0.00     0.167 HD
ATOM     61  C   UNL     1      13.609  -6.730   0.327  1.00  0.00     0.074 A 
ATOM     62  C   UNL     1      14.098  -7.565  -0.753  1.00  0.00     0.031 C 
ATOM     63  C   UNL     1      13.972  -6.602   1.635  1.00  0.00     0.037 A 
BRANCH  50  64
ATOM     64  C   UNL     1      13.825  -1.453   4.847  1.00  0.00     0.057 A 
ATOM     65  C   UNL     1      13.658  -2.223   6.017  1.00  0.00     0.134 A 
ATOM     66  C   UNL     1      13.945  -0.069   5.078  1.00  0.00     0.134 A 
ATOM     67  F   UNL     1      13.529  -3.557   5.964  1.00  0.00    -0.206 F 
ATOM     68  C   UNL     1      13.595  -1.661   7.299  1.00  0.00     0.040 A 
ATOM     69  C   UNL     1      13.943   0.499   6.360  1.00  0.00     0.040 A 
ATOM     70  F   UNL     1      14.008   0.823   4.084  1.00  0.00    -0.206 F 
ATOM     71  C   UNL     1      13.749  -0.295   7.477  1.00  0.00     0.006 A 
ENDBRANCH  50  64
BRANCH  51  72
ATOM     72  C   UNL     1      12.301  -5.035  -3.930  1.00  0.00     0.057 A 
ATOM     73  C   UNL     1      11.322  -4.888  -4.928  1.00  0.00     0.134 A 
ATOM     74  C   UNL     1      13.578  -4.540  -4.208  1.00  0.00     0.134 A 
ATOM     75  F   UNL     1      10.073  -5.337  -4.720  1.00  0.00    -0.206 F 
ATOM     76  C   UNL     1      11.571  -4.178  -6.104  1.00  0.00     0.040 A 
ATOM     77  C   UNL     1      13.842  -3.838  -5.389  1.00  0.00     0.040 A 
ATOM     78  F   UNL     1      14.555  -4.619  -3.293  1.00  0.00    -0.206 F 
ATOM     79  C   UNL     1      12.828  -3.621  -6.321  1.00  0.00     0.006 A 
ENDBRANCH  51  72
BRANCH  63  80
ATOM     80  C   UNL     1      15.037  -7.431   2.296  1.00  0.00     0.057 A 
ATOM     81  C   UNL     1      15.088  -8.826   2.180  1.00  0.00     0.134 A 
ATOM     82  C   UNL     1      15.974  -6.858   3.180  1.00  0.00     0.134 A 
ATOM     83  F   UNL     1      14.220  -9.485   1.399  1.00  0.00    -0.206 F 
ATOM     84  C   UNL     1      16.022  -9.599   2.885  1.00  0.00     0.040 A 
ATOM     85  C   UNL     1      16.876  -7.621   3.926  1.00  0.00     0.040 A 
ATOM     86  F   UNL     1      16.069  -5.530   3.340  1.00  0.00    -0.206 F 
ATOM     87  C   UNL     1      16.907  -8.999   3.774  1.00  0.00     0.006 A 
ENDBRANCH  63  80
ENDBRANCH  37  38
ENDBRANCH  29  32
ENDBRANCH  27  28
ENDBRANCH  26  27
ENDBRANCH  25  26
ENDBRANCH   1  25
TORSDOF 16
