REMARK SMILES O=C(NCCCCNC(=O)[C@@H](O)c1cscc1Br)c1ccc(-c2c3nc(c(-c4c(F)cccc4F)c4ccc([nH]4)c(-c4c(F)cccc4F)c4nc(c(-c5c(F)cccc5F)c5ccc2[nH]5)C=C4)C=C3)cc1
REMARK SMILES IDX 5 1 4 2 3 3 1 4 2 5 19 7 20 8 72 9 21 10 71 11 22 12 23 13
REMARK SMILES IDX 24 14 65 15 25 16 70 17 64 18 66 19 26 20 69 21 63 22 62 23
REMARK SMILES IDX 27 25 53 26 36 27 52 28 37 29 40 30 51 31 67 32 38 33 39 34
REMARK SMILES IDX 50 36 68 37 41 38 28 39 29 40 34 41 30 42 31 43 33 44 35 45
REMARK SMILES IDX 32 46 54 47 55 48 60 49 56 50 57 51 59 52 61 53 58 54 42 55
REMARK SMILES IDX 43 56 48 57 44 58 45 59 47 60 49 61 46 62 6 63 7 64 8 65
REMARK SMILES IDX 9 66 10 68 11 69 12 70 13 72 14 73 17 74 15 75 16 76 18 77
REMARK H PARENT 3 6 66 24 40 35 8 67 12 71
REMARK Flexibility Score: inf
ROOT
ATOM      1  C   UNL     1       4.737  -2.561  -0.975  1.00  0.00     0.023 C 
ENDROOT
BRANCH   1   2
ATOM      2  C   UNL     1       4.478  -1.070  -0.800  1.00  0.00     0.116 C 
BRANCH   2   3
ATOM      3  N   UNL     1       3.066  -0.722  -0.832  1.00  0.00    -0.352 N 
ATOM      4  O   UNL     1       1.116   0.119  -0.058  1.00  0.00    -0.269 OA
ATOM      5  C   UNL     1       2.334   0.023   0.064  1.00  0.00     0.251 C 
ATOM      6  H   UNL     1       2.562  -1.069  -1.603  1.00  0.00     0.163 HD
BRANCH   5   7
ATOM      7  C   UNL     1       3.015   0.677   1.202  1.00  0.00     0.039 A 
ATOM      8  C   UNL     1       4.201   1.388   1.007  1.00  0.00     0.014 A 
ATOM      9  C   UNL     1       2.474   0.553   2.484  1.00  0.00     0.014 A 
ATOM     10  C   UNL     1       4.930   1.822   2.108  1.00  0.00     0.010 A 
ATOM     11  C   UNL     1       3.166   1.069   3.584  1.00  0.00     0.010 A 
ATOM     12  C   UNL     1       4.424   1.666   3.409  1.00  0.00    -0.014 A 
BRANCH  12  13
ATOM     13  C   UNL     1       5.225   2.157   4.560  1.00  0.00     0.031 A 
ATOM     14  C   UNL     1       5.782   1.207   5.585  1.00  0.00     0.074 A 
ATOM     15  C   UNL     1       5.495   3.474   4.646  1.00  0.00     0.049 A 
ATOM     16  N   UNL     1       6.554   1.464   6.612  1.00  0.00    -0.248 NA
ATOM     17  C   UNL     1       5.422  -0.212   5.450  1.00  0.00     0.031 C 
ATOM     18  C   UNL     1       5.002   4.496   3.721  1.00  0.00     0.029 A 
ATOM     19  N   UNL     1       6.274   4.174   5.531  1.00  0.00    -0.354 N 
ATOM     20  C   UNL     1       6.750   0.250   7.258  1.00  0.00     0.074 A 
ATOM     21  C   UNL     1       6.000  -0.744   6.519  1.00  0.00     0.031 C 
ATOM     22  C   UNL     1       5.540   5.680   4.047  1.00  0.00     0.029 A 
ATOM     23  C   UNL     1       6.370   5.512   5.234  1.00  0.00     0.049 A 
ATOM     24  H   UNL     1       6.721   3.759   6.303  1.00  0.00     0.167 HD
ATOM     25  C   UNL     1       7.492  -0.014   8.361  1.00  0.00     0.037 A 
ATOM     26  C   UNL     1       7.050   6.496   5.849  1.00  0.00     0.037 A 
ATOM     27  C   UNL     1       8.264   0.970   9.076  1.00  0.00     0.049 A 
ATOM     28  C   UNL     1       7.867   6.175   7.065  1.00  0.00     0.074 A 
ATOM     29  C   UNL     1       9.089   0.787  10.174  1.00  0.00     0.029 A 
ATOM     30  N   UNL     1       8.308   2.320   8.765  1.00  0.00    -0.354 N 
ATOM     31  N   UNL     1       8.070   5.015   7.640  1.00  0.00    -0.248 NA
ATOM     32  C   UNL     1       8.544   7.301   7.720  1.00  0.00     0.031 C 
ATOM     33  C   UNL     1       9.601   2.034  10.550  1.00  0.00     0.029 A 
ATOM     34  C   UNL     1       9.128   2.986   9.662  1.00  0.00     0.049 A 
ATOM     35  H   UNL     1       7.827   2.743   8.018  1.00  0.00     0.167 HD
ATOM     36  C   UNL     1       8.910   5.268   8.715  1.00  0.00     0.074 A 
ATOM     37  C   UNL     1       9.193   6.689   8.700  1.00  0.00     0.031 C 
ATOM     38  C   UNL     1       9.399   4.401   9.634  1.00  0.00     0.037 A 
BRANCH  25  39
ATOM     39  C   UNL     1       7.493  -1.423   8.877  1.00  0.00     0.057 A 
ATOM     40  C   UNL     1       8.185  -2.452   8.228  1.00  0.00     0.134 A 
ATOM     41  C   UNL     1       6.826  -1.744  10.067  1.00  0.00     0.134 A 
ATOM     42  F   UNL     1       8.835  -2.214   7.078  1.00  0.00    -0.206 F 
ATOM     43  C   UNL     1       8.199  -3.754   8.732  1.00  0.00     0.040 A 
ATOM     44  C   UNL     1       6.851  -3.037  10.593  1.00  0.00     0.040 A 
ATOM     45  F   UNL     1       6.149  -0.803  10.743  1.00  0.00    -0.206 F 
ATOM     46  C   UNL     1       7.535  -4.048   9.922  1.00  0.00     0.006 A 
ENDBRANCH  25  39
BRANCH  26  47
ATOM     47  C   UNL     1       6.997   7.875   5.308  1.00  0.00     0.057 A 
ATOM     48  C   UNL     1       8.111   8.447   4.684  1.00  0.00     0.134 A 
ATOM     49  C   UNL     1       5.831   8.645   5.385  1.00  0.00     0.134 A 
ATOM     50  F   UNL     1       9.261   7.763   4.596  1.00  0.00    -0.206 F 
ATOM     51  C   UNL     1       8.071   9.741   4.163  1.00  0.00     0.040 A 
ATOM     52  C   UNL     1       5.769   9.931   4.847  1.00  0.00     0.040 A 
ATOM     53  F   UNL     1       4.729   8.148   5.964  1.00  0.00    -0.206 F 
ATOM     54  C   UNL     1       6.894  10.484   4.238  1.00  0.00     0.006 A 
ENDBRANCH  26  47
BRANCH  38  55
ATOM     55  C   UNL     1      10.310   4.967  10.681  1.00  0.00     0.057 A 
ATOM     56  C   UNL     1       9.823   5.748  11.736  1.00  0.00     0.134 A 
ATOM     57  C   UNL     1      11.688   4.719  10.639  1.00  0.00     0.134 A 
ATOM     58  F   UNL     1       8.515   6.034  11.823  1.00  0.00    -0.206 F 
ATOM     59  C   UNL     1      10.678   6.284  12.700  1.00  0.00     0.040 A 
ATOM     60  C   UNL     1      12.550   5.230  11.609  1.00  0.00     0.040 A 
ATOM     61  F   UNL     1      12.216   3.974   9.656  1.00  0.00    -0.206 F 
ATOM     62  C   UNL     1      12.046   6.021  12.640  1.00  0.00     0.006 A 
ENDBRANCH  38  55
ENDBRANCH  12  13
ENDBRANCH   5   7
ENDBRANCH   2   3
ENDBRANCH   1   2
BRANCH   1  63
ATOM     63  C   UNL     1       4.282  -3.154  -2.307  1.00  0.00     0.023 C 
BRANCH  63  64
ATOM     64  C   UNL     1       4.808  -2.439  -3.547  1.00  0.00     0.116 C 
BRANCH  64  65
ATOM     65  N   UNL     1       6.260  -2.453  -3.623  1.00  0.00    -0.354 N 
ATOM     66  C   UNL     1       7.053  -2.877  -4.657  1.00  0.00     0.253 C 
ATOM     67  H   UNL     1       6.734  -2.115  -2.829  1.00  0.00     0.163 HD
ATOM     68  O   UNL     1       8.274  -2.739  -4.548  1.00  0.00    -0.272 OA
BRANCH  66  69
ATOM     69  C   UNL     1       6.422  -3.528  -5.912  1.00  0.00     0.235 C 
BRANCH  69  70
ATOM     70  O   UNL     1       5.683  -4.675  -5.484  1.00  0.00    -0.378 OA
ATOM     71  H   UNL     1       4.986  -4.399  -4.869  1.00  0.00     0.212 HD
ENDBRANCH  69  70
BRANCH  69  72
ATOM     72  C   UNL     1       5.599  -2.543  -6.722  1.00  0.00     0.015 A 
ATOM     73  C   UNL     1       5.841  -1.173  -6.745  1.00  0.00     0.073 A 
ATOM     74  C   UNL     1       4.499  -2.834  -7.598  1.00  0.00     0.035 A 
ATOM     75  S   UNL     1       4.722  -0.290  -7.687  1.00  0.00    -0.151 S 
ATOM     76  C   UNL     1       3.920  -1.718  -8.156  1.00  0.00     0.080 A 
ATOM     77  Br  UNL     1       3.861  -4.574  -7.991  1.00  0.00    -0.050 Br
ENDBRANCH  69  72
ENDBRANCH  66  69
ENDBRANCH  64  65
ENDBRANCH  63  64
ENDBRANCH   1  63
TORSDOF 13
