REMARK SMILES C/C(=C/C[NH+]1C[C@@H](C)[C@H](C)C1)C(=O)NCCCCNC(=O)c1ccc(-c2c3nc(c(-c4c(F)cccc4F)c4ccc([nH]4)c(-c4c(F)cccc4F)c4nc(c(-c5c(F)cccc5F)c5ccc2[nH]5)C=C4)C=C3)cc1
REMARK SMILES IDX 16 1 15 2 14 3 12 4 13 5 2 7 1 8 3 9 4 10 5 11 6 12 11 13
REMARK SMILES IDX 7 15 9 16 8 17 10 18 17 19 18 20 19 21 20 22 21 24 22 25
REMARK SMILES IDX 23 26 75 27 24 28 74 29 25 30 26 31 27 32 68 33 28 34 73 35
REMARK SMILES IDX 67 36 69 37 29 38 72 39 66 40 65 41 30 43 56 44 39 45 55 46
REMARK SMILES IDX 40 47 43 48 54 49 70 50 41 51 42 52 53 54 71 55 44 56 31 57
REMARK SMILES IDX 32 58 37 59 33 60 34 61 36 62 38 63 35 64 57 65 58 66 63 67
REMARK SMILES IDX 59 68 60 69 62 70 64 71 61 72 45 73 46 74 51 75 47 76 48 77
REMARK SMILES IDX 50 78 52 79 49 80
REMARK H PARENT 14 6 5 14 19 23 69 42 43 53
REMARK Flexibility Score: inf
ROOT
ATOM      1  C   UNL     1      -1.567   2.415  -4.149  1.00  0.00     0.023 C 
ENDROOT
BRANCH   1   2
ATOM      2  C   UNL     1      -0.068   2.159  -3.956  1.00  0.00     0.116 C 
BRANCH   2   3
ATOM      3  N   UNL     1       0.352   2.561  -2.635  1.00  0.00    -0.352 N 
ATOM      4  C   UNL     1       0.529   1.938  -1.452  1.00  0.00     0.246 C 
ATOM      5  O   UNL     1       0.879   2.688  -0.531  1.00  0.00    -0.270 OA
ATOM      6  H   UNL     1       0.558   3.522  -2.585  1.00  0.00     0.163 HD
BRANCH   4   7
ATOM      7  C   UNL     1       0.434   0.456  -1.164  1.00  0.00     0.015 C 
ATOM      8  C   UNL     1       1.228   0.134   0.098  1.00  0.00     0.050 C 
ATOM      9  C   UNL     1      -0.198  -0.593  -1.731  1.00  0.00     0.042 C 
BRANCH   9  10
ATOM     10  C   UNL     1      -1.097  -0.775  -2.906  1.00  0.00     0.291 C 
BRANCH  10  11
ATOM     11  N   UNL     1      -0.495  -1.442  -4.061  1.00  0.00    -0.331 N 
ATOM     12  C   UNL     1       0.962  -1.577  -4.102  1.00  0.00     0.266 C 
ATOM     13  C   UNL     1      -1.079  -2.744  -4.398  1.00  0.00     0.266 C 
ATOM     14  H   UNL     1      -0.740  -0.747  -4.766  1.00  0.00     0.348 HD
ATOM     15  C   UNL     1       1.169  -2.541  -5.262  1.00  0.00     0.049 C 
ATOM     16  C   UNL     1       0.062  -3.567  -5.013  1.00  0.00     0.049 C 
ATOM     17  C   UNL     1       2.570  -3.135  -5.274  1.00  0.00     0.014 C 
ATOM     18  C   UNL     1      -0.348  -4.330  -6.263  1.00  0.00     0.014 C 
ENDBRANCH  10  11
ENDBRANCH   9  10
ENDBRANCH   4   7
ENDBRANCH   2   3
ENDBRANCH   1   2
BRANCH   1  19
ATOM     19  C   UNL     1      -1.911   3.773  -4.757  1.00  0.00     0.023 C 
BRANCH  19  20
ATOM     20  C   UNL     1      -1.487   3.926  -6.212  1.00  0.00     0.116 C 
BRANCH  20  21
ATOM     21  N   UNL     1      -2.103   2.961  -7.114  1.00  0.00    -0.352 N 
ATOM     22  C   UNL     1      -2.303   3.094  -8.469  1.00  0.00     0.251 C 
ATOM     23  H   UNL     1      -2.411   2.119  -6.708  1.00  0.00     0.163 HD
ATOM     24  O   UNL     1      -2.897   2.239  -9.115  1.00  0.00    -0.269 OA
BRANCH  22  25
ATOM     25  C   UNL     1      -1.831   4.329  -9.120  1.00  0.00     0.039 A 
ATOM     26  C   UNL     1      -2.754   5.137  -9.787  1.00  0.00     0.014 A 
ATOM     27  C   UNL     1      -0.502   4.733  -8.969  1.00  0.00     0.014 A 
ATOM     28  C   UNL     1      -2.362   6.400 -10.230  1.00  0.00     0.010 A 
ATOM     29  C   UNL     1      -0.133   6.016  -9.349  1.00  0.00     0.010 A 
ATOM     30  C   UNL     1      -1.062   6.865  -9.973  1.00  0.00    -0.014 A 
BRANCH  30  31
ATOM     31  C   UNL     1      -0.638   8.237 -10.342  1.00  0.00     0.031 A 
ATOM     32  C   UNL     1       0.449   8.426 -11.360  1.00  0.00     0.074 A 
ATOM     33  C   UNL     1      -1.160   9.298  -9.698  1.00  0.00     0.049 A 
ATOM     34  N   UNL     1       1.072   9.521 -11.710  1.00  0.00    -0.248 NA
ATOM     35  C   UNL     1       0.922   7.215 -12.049  1.00  0.00     0.031 C 
ATOM     36  C   UNL     1      -2.192   9.242  -8.660  1.00  0.00     0.029 A 
ATOM     37  N   UNL     1      -0.877  10.636  -9.811  1.00  0.00    -0.354 N 
ATOM     38  C   UNL     1       2.029   9.127 -12.636  1.00  0.00     0.074 A 
ATOM     39  C   UNL     1       1.930   7.689 -12.765  1.00  0.00     0.031 C 
ATOM     40  C   UNL     1      -2.466  10.490  -8.245  1.00  0.00     0.029 A 
ATOM     41  C   UNL     1      -1.607  11.429  -8.959  1.00  0.00     0.049 A 
ATOM     42  H   UNL     1      -0.213  10.994 -10.444  1.00  0.00     0.167 HD
ATOM     43  C   UNL     1       2.899   9.897 -13.331  1.00  0.00     0.037 A 
ATOM     44  C   UNL     1      -1.577  12.761  -8.771  1.00  0.00     0.037 A 
ATOM     45  C   UNL     1       2.966  11.329 -13.234  1.00  0.00     0.049 A 
ATOM     46  C   UNL     1      -0.623  13.597  -9.579  1.00  0.00     0.074 A 
ATOM     47  C   UNL     1       3.787  12.204 -13.925  1.00  0.00     0.029 A 
ATOM     48  N   UNL     1       2.168  12.099 -12.402  1.00  0.00    -0.354 N 
ATOM     49  N   UNL     1       0.255  13.215 -10.474  1.00  0.00    -0.248 NA
ATOM     50  C   UNL     1      -0.658  15.049  -9.353  1.00  0.00     0.031 C 
ATOM     51  C   UNL     1       3.494  13.504 -13.500  1.00  0.00     0.029 A 
ATOM     52  C   UNL     1       2.474  13.439 -12.565  1.00  0.00     0.049 A 
ATOM     53  H   UNL     1       1.486  11.745 -11.786  1.00  0.00     0.167 HD
ATOM     54  C   UNL     1       0.852  14.378 -10.941  1.00  0.00     0.074 A 
ATOM     55  C   UNL     1       0.235  15.480 -10.233  1.00  0.00     0.031 C 
ATOM     56  C   UNL     1       1.825  14.521 -11.873  1.00  0.00     0.037 A 
BRANCH  43  57
ATOM     57  C   UNL     1       3.837   9.197 -14.265  1.00  0.00     0.057 A 
ATOM     58  C   UNL     1       3.394   8.644 -15.473  1.00  0.00     0.134 A 
ATOM     59  C   UNL     1       5.200   9.089 -13.964  1.00  0.00     0.134 A 
ATOM     60  F   UNL     1       2.096   8.700 -15.809  1.00  0.00    -0.206 F 
ATOM     61  C   UNL     1       4.269   7.988 -16.340  1.00  0.00     0.040 A 
ATOM     62  C   UNL     1       6.090   8.456 -14.834  1.00  0.00     0.040 A 
ATOM     63  F   UNL     1       5.689   9.599 -12.824  1.00  0.00    -0.206 F 
ATOM     64  C   UNL     1       5.623   7.898 -16.023  1.00  0.00     0.006 A 
ENDBRANCH  43  57
BRANCH  44  65
ATOM     65  C   UNL     1      -2.498  13.400  -7.800  1.00  0.00     0.057 A 
ATOM     66  C   UNL     1      -3.585  14.164  -8.240  1.00  0.00     0.134 A 
ATOM     67  C   UNL     1      -2.306  13.283  -6.419  1.00  0.00     0.134 A 
ATOM     68  F   UNL     1      -3.807  14.327  -9.552  1.00  0.00    -0.206 F 
ATOM     69  C   UNL     1      -4.437  14.808  -7.342  1.00  0.00     0.040 A 
ATOM     70  C   UNL     1      -3.162  13.905  -5.509  1.00  0.00     0.040 A 
ATOM     71  F   UNL     1      -1.285  12.559  -5.936  1.00  0.00    -0.206 F 
ATOM     72  C   UNL     1      -4.228  14.676  -5.970  1.00  0.00     0.006 A 
ENDBRANCH  44  65
BRANCH  56  73
ATOM     73  C   UNL     1       2.240  15.916 -12.222  1.00  0.00     0.057 A 
ATOM     74  C   UNL     1       3.070  16.670 -11.384  1.00  0.00     0.134 A 
ATOM     75  C   UNL     1       1.845  16.490 -13.437  1.00  0.00     0.134 A 
ATOM     76  F   UNL     1       3.471  16.178 -10.203  1.00  0.00    -0.206 F 
ATOM     77  C   UNL     1       3.483  17.955 -11.738  1.00  0.00     0.040 A 
ATOM     78  C   UNL     1       2.266  17.766 -13.809  1.00  0.00     0.040 A 
ATOM     79  F   UNL     1       1.054  15.814 -14.284  1.00  0.00    -0.206 F 
ATOM     80  C   UNL     1       3.087  18.503 -12.957  1.00  0.00     0.006 A 
ENDBRANCH  56  73
ENDBRANCH  30  31
ENDBRANCH  22  25
ENDBRANCH  20  21
ENDBRANCH  19  20
ENDBRANCH   1  19
TORSDOF 13
