REMARK SMILES COC(=O)C[C@@H](NC(=O)c1ccccc1C(=O)NCCCCNC(=O)c1ccc(-c2c3nc(c(-c4c(F)cccc4F)c4ccc([nH]4)c(-c4c(F)cccc4F)c4nc(c(-c5c(F)cccc5F)c5ccc2[nH]5)C=C4)C=C3)cc1)c1cccc(C)c1C
REMARK SMILES IDX 19 1 18 2 16 3 17 4 15 6 10 7 11 8 12 9 14 10 13 11 8 12
REMARK SMILES IDX 7 13 9 15 6 16 5 17 3 18 4 19 2 20 1 21 80 22 81 23 86 24
REMARK SMILES IDX 82 25 84 26 87 27 83 28 85 29 20 30 21 31 22 32 23 33 24 34
REMARK SMILES IDX 25 36 26 37 27 38 79 39 28 40 78 41 29 42 30 43 31 44 72 45
REMARK SMILES IDX 32 46 77 47 71 48 73 49 33 50 76 51 70 52 69 53 34 55 60 56
REMARK SMILES IDX 43 57 59 58 44 59 47 60 58 61 74 62 45 63 46 64 57 66 75 67
REMARK SMILES IDX 48 68 35 69 36 70 41 71 37 72 38 73 40 74 42 75 39 76 61 77
REMARK SMILES IDX 62 78 67 79 63 80 64 81 66 82 68 83 65 84 49 85 50 86 55 87
REMARK SMILES IDX 51 88 52 89 54 90 56 91 53 92
REMARK H PARENT 18 5 7 14 23 35 73 54 47 65
REMARK Flexibility Score: inf
ROOT
ATOM      1  C   UNL     1       2.064   1.422   4.019  1.00  0.00     0.116 C 
ENDROOT
BRANCH   1   2
ATOM      2  N   UNL     1       2.404   1.261   5.409  1.00  0.00    -0.352 N 
ATOM      3  C   UNL     1       1.766   1.170   6.606  1.00  0.00     0.252 C 
ATOM      4  O   UNL     1       2.509   0.830   7.537  1.00  0.00    -0.269 OA
ATOM      5  H   UNL     1       3.380   1.198   5.527  1.00  0.00     0.163 HD
BRANCH   3   6
ATOM      6  C   UNL     1       0.354   1.506   6.939  1.00  0.00     0.052 A 
ATOM      7  C   UNL     1      -0.792   1.532   6.148  1.00  0.00     0.052 A 
ATOM      8  C   UNL     1      -2.035   1.944   6.708  1.00  0.00     0.014 A 
ATOM      9  C   UNL     1      -2.173   2.248   8.058  1.00  0.00     0.001 A 
ATOM     10  C   UNL     1       0.177   1.829   8.315  1.00  0.00     0.014 A 
ATOM     11  C   UNL     1      -1.059   2.178   8.870  1.00  0.00     0.001 A 
BRANCH   7  12
ATOM     12  C   UNL     1      -0.955   1.175   4.740  1.00  0.00     0.252 C 
ATOM     13  N   UNL     1      -1.063  -0.116   4.289  1.00  0.00    -0.345 N 
ATOM     14  H   UNL     1      -1.815  -0.234   3.664  1.00  0.00     0.164 HD
ATOM     15  O   UNL     1      -1.240   2.082   3.956  1.00  0.00    -0.269 OA
BRANCH  13  16
ATOM     16  C   UNL     1      -0.308  -1.387   4.522  1.00  0.00     0.124 C 
BRANCH  16  17
ATOM     17  C   UNL     1      -0.665  -2.307   3.336  1.00  0.00     0.152 C 
BRANCH  17  18
ATOM     18  C   UNL     1       0.051  -1.833   2.094  1.00  0.00     0.307 C 
ATOM     19  O   UNL     1       1.267  -1.839   1.953  1.00  0.00    -0.252 OA
BRANCH  18  20
ATOM     20  O   UNL     1      -0.851  -1.390   1.176  1.00  0.00    -0.469 OA
ATOM     21  C   UNL     1      -0.302  -0.933  -0.065  1.00  0.00     0.282 C 
ENDBRANCH  18  20
ENDBRANCH  17  18
ENDBRANCH  16  17
BRANCH  16  22
ATOM     22  C   UNL     1      -0.490  -2.079   5.881  1.00  0.00    -0.022 A 
ATOM     23  C   UNL     1      -1.332  -1.505   6.844  1.00  0.00     0.006 A 
ATOM     24  C   UNL     1       0.231  -3.254   6.264  1.00  0.00    -0.043 A 
ATOM     25  C   UNL     1      -1.332  -1.916   8.173  1.00  0.00     0.001 A 
ATOM     26  C   UNL     1       0.070  -3.783   7.575  1.00  0.00    -0.048 A 
ATOM     27  C   UNL     1       1.129  -4.005   5.307  1.00  0.00     0.045 C 
ATOM     28  C   UNL     1      -0.626  -3.046   8.539  1.00  0.00     0.004 A 
ATOM     29  C   UNL     1       0.633  -5.111   8.012  1.00  0.00     0.044 C 
ENDBRANCH  16  22
ENDBRANCH  13  16
ENDBRANCH   7  12
ENDBRANCH   3   6
ENDBRANCH   1   2
BRANCH   1  30
ATOM     30  C   UNL     1       2.237   2.836   3.480  1.00  0.00     0.023 C 
BRANCH  30  31
ATOM     31  C   UNL     1       3.236   2.893   2.321  1.00  0.00     0.023 C 
BRANCH  31  32
ATOM     32  C   UNL     1       2.956   1.940   1.161  1.00  0.00     0.116 C 
BRANCH  32  33
ATOM     33  N   UNL     1       1.750   2.243   0.412  1.00  0.00    -0.352 N 
ATOM     34  C   UNL     1       1.534   2.043  -0.937  1.00  0.00     0.251 C 
ATOM     35  H   UNL     1       1.004   2.634   0.922  1.00  0.00     0.163 HD
ATOM     36  O   UNL     1       0.480   2.350  -1.466  1.00  0.00    -0.269 OA
BRANCH  34  37
ATOM     37  C   UNL     1       2.632   1.469  -1.752  1.00  0.00     0.039 A 
ATOM     38  C   UNL     1       3.089   2.194  -2.854  1.00  0.00     0.014 A 
ATOM     39  C   UNL     1       3.259   0.277  -1.374  1.00  0.00     0.014 A 
ATOM     40  C   UNL     1       4.240   1.773  -3.521  1.00  0.00     0.010 A 
ATOM     41  C   UNL     1       4.436  -0.110  -2.005  1.00  0.00     0.010 A 
ATOM     42  C   UNL     1       4.949   0.649  -3.066  1.00  0.00    -0.014 A 
BRANCH  42  43
ATOM     43  C   UNL     1       6.275   0.302  -3.627  1.00  0.00     0.031 A 
ATOM     44  C   UNL     1       6.465  -0.968  -4.401  1.00  0.00     0.074 A 
ATOM     45  C   UNL     1       7.326   1.093  -3.336  1.00  0.00     0.049 A 
ATOM     46  N   UNL     1       7.558  -1.455  -4.928  1.00  0.00    -0.248 NA
ATOM     47  C   UNL     1       5.278  -1.819  -4.583  1.00  0.00     0.031 C 
ATOM     48  C   UNL     1       7.269   2.304  -2.511  1.00  0.00     0.029 A 
ATOM     49  N   UNL     1       8.651   0.989  -3.675  1.00  0.00    -0.354 N 
ATOM     50  C   UNL     1       7.196  -2.670  -5.495  1.00  0.00     0.074 A 
ATOM     51  C   UNL     1       5.791  -2.868  -5.210  1.00  0.00     0.031 C 
ATOM     52  C   UNL     1       8.500   2.831  -2.415  1.00  0.00     0.029 A 
ATOM     53  C   UNL     1       9.435   1.986  -3.148  1.00  0.00     0.049 A 
ATOM     54  H   UNL     1       9.006   0.267  -4.243  1.00  0.00     0.167 HD
ATOM     55  C   UNL     1       7.966  -3.530  -6.201  1.00  0.00     0.037 A 
ATOM     56  C   UNL     1      10.763   2.191  -3.241  1.00  0.00     0.037 A 
ATOM     57  C   UNL     1       9.359  -3.308  -6.490  1.00  0.00     0.049 A 
ATOM     58  C   UNL     1      11.586   1.237  -4.062  1.00  0.00     0.074 A 
ATOM     59  C   UNL     1      10.206  -4.065  -7.280  1.00  0.00     0.029 A 
ATOM     60  N   UNL     1      10.112  -2.256  -5.988  1.00  0.00    -0.354 N 
ATOM     61  N   UNL     1      11.204   0.158  -4.701  1.00  0.00    -0.248 NA
ATOM     62  C   UNL     1      13.018   1.536  -4.189  1.00  0.00     0.031 C 
ATOM     63  C   UNL     1      11.484  -3.500  -7.215  1.00  0.00     0.029 A 
ATOM     64  C   UNL     1      11.421  -2.362  -6.427  1.00  0.00     0.049 A 
ATOM     65  H   UNL     1       9.766  -1.542  -5.406  1.00  0.00     0.167 HD
ATOM     66  C   UNL     1      12.341  -0.336  -5.327  1.00  0.00     0.074 A 
ATOM     67  C   UNL     1      13.422   0.573  -5.005  1.00  0.00     0.031 C 
ATOM     68  C   UNL     1      12.479  -1.441  -6.099  1.00  0.00     0.037 A 
BRANCH  55  69
ATOM     69  C   UNL     1       7.327  -4.785  -6.718  1.00  0.00     0.057 A 
ATOM     70  C   UNL     1       6.394  -4.763  -7.763  1.00  0.00     0.134 A 
ATOM     71  C   UNL     1       7.696  -6.037  -6.208  1.00  0.00     0.134 A 
ATOM     72  F   UNL     1       5.990  -3.598  -8.291  1.00  0.00    -0.206 F 
ATOM     73  C   UNL     1       5.840  -5.940  -8.273  1.00  0.00     0.040 A 
ATOM     74  C   UNL     1       7.167  -7.221  -6.726  1.00  0.00     0.040 A 
ATOM     75  F   UNL     1       8.587  -6.130  -5.211  1.00  0.00    -0.206 F 
ATOM     76  C   UNL     1       6.234  -7.174  -7.760  1.00  0.00     0.006 A 
ENDBRANCH  55  69
BRANCH  56  77
ATOM     77  C   UNL     1      11.391   3.352  -2.561  1.00  0.00     0.057 A 
ATOM     78  C   UNL     1      11.913   4.426  -3.293  1.00  0.00     0.134 A 
ATOM     79  C   UNL     1      11.498   3.412  -1.166  1.00  0.00     0.134 A 
ATOM     80  F   UNL     1      11.854   4.420  -4.633  1.00  0.00    -0.206 F 
ATOM     81  C   UNL     1      12.542   5.503  -2.666  1.00  0.00     0.040 A 
ATOM     82  C   UNL     1      12.100   4.495  -0.524  1.00  0.00     0.040 A 
ATOM     83  F   UNL     1      11.007   2.422  -0.406  1.00  0.00    -0.206 F 
ATOM     84  C   UNL     1      12.633   5.540  -1.276  1.00  0.00     0.006 A 
ENDBRANCH  56  77
BRANCH  68  85
ATOM     85  C   UNL     1      13.839  -1.709  -6.670  1.00  0.00     0.057 A 
ATOM     86  C   UNL     1      14.902  -2.153  -5.873  1.00  0.00     0.134 A 
ATOM     87  C   UNL     1      14.077  -1.556  -8.042  1.00  0.00     0.134 A 
ATOM     88  F   UNL     1      14.742  -2.306  -4.550  1.00  0.00    -0.206 F 
ATOM     89  C   UNL     1      16.160  -2.415  -6.418  1.00  0.00     0.040 A 
ATOM     90  C   UNL     1      15.322  -1.842  -8.602  1.00  0.00     0.040 A 
ATOM     91  F   UNL     1      13.099  -1.143  -8.862  1.00  0.00    -0.206 F 
ATOM     92  C   UNL     1      16.370  -2.266  -7.787  1.00  0.00     0.006 A 
ENDBRANCH  68  85
ENDBRANCH  42  43
ENDBRANCH  34  37
ENDBRANCH  32  33
ENDBRANCH  31  32
ENDBRANCH  30  31
ENDBRANCH   1  30
TORSDOF 17
