REMARK SMILES CCOc1ccccc1-c1cc(C(=O)NCCCCNC(=O)c2ccc(-c3c4nc(c(-c5c(F)cccc5F)c5ccc([nH]5)c(-c5c(F)cccc5F)c5nc(c(-c6c(F)cccc6F)c6ccc3[nH]6)C=C5)C=C4)cc2)c2cc(C)cc(C)c2n1
REMARK SMILES IDX 17 1 16 2 15 3 13 4 14 5 12 7 10 8 11 9 85 10 84 11 77 12
REMARK SMILES IDX 82 13 78 14 81 15 83 16 79 17 80 18 9 19 4 20 5 21 6 22 8 23
REMARK SMILES IDX 7 24 3 25 2 26 1 27 18 28 19 29 20 30 21 31 22 33 23 34
REMARK SMILES IDX 24 35 76 36 25 37 75 38 26 39 27 40 28 41 69 42 29 43 74 44
REMARK SMILES IDX 68 45 70 46 30 47 73 48 67 49 66 50 31 52 57 53 40 54 56 55
REMARK SMILES IDX 41 56 44 57 55 58 71 59 42 60 43 61 54 63 72 64 45 65 32 66
REMARK SMILES IDX 33 67 38 68 34 69 35 70 37 71 39 72 36 73 58 74 59 75 64 76
REMARK SMILES IDX 60 77 61 78 63 79 65 80 62 81 46 82 47 83 52 84 48 85 49 86
REMARK SMILES IDX 51 87 53 88 50 89
REMARK H PARENT 15 6 20 32 70 51 44 62
REMARK Flexibility Score: inf
ROOT
ATOM      1  C   UNL     1      -0.876   1.718   2.226  1.00  0.00     0.023 C 
ENDROOT
BRANCH   1   2
ATOM      2  C   UNL     1      -0.932   0.252   1.793  1.00  0.00     0.116 C 
BRANCH   2   3
ATOM      3  N   UNL     1      -1.582   0.091   0.504  1.00  0.00    -0.352 N 
ATOM      4  C   UNL     1      -1.320  -0.503  -0.705  1.00  0.00     0.252 C 
ATOM      5  O   UNL     1      -2.286  -0.488  -1.475  1.00  0.00    -0.269 OA
ATOM      6  H   UNL     1      -2.462   0.533   0.496  1.00  0.00     0.163 HD
BRANCH   4   7
ATOM      7  C   UNL     1      -0.052  -1.175  -1.143  1.00  0.00     0.051 A 
ATOM      8  C   UNL     1       2.202  -1.852  -0.907  1.00  0.00     0.075 A 
ATOM      9  C   UNL     1       1.068  -1.329  -0.326  1.00  0.00     0.043 A 
ATOM     10  N   UNL     1       2.029  -2.771  -1.865  1.00  0.00    -0.247 NA
ATOM     11  C   UNL     1       1.196  -2.392  -2.826  1.00  0.00     0.075 A 
ATOM     12  C   UNL     1       0.142  -1.503  -2.529  1.00  0.00     0.014 A 
ATOM     13  C   UNL     1       1.555  -2.694  -4.139  1.00  0.00    -0.024 A 
ATOM     14  C   UNL     1      -0.448  -0.825  -3.627  1.00  0.00     0.014 A 
ATOM     15  C   UNL     1       1.010  -1.947  -5.187  1.00  0.00     0.009 A 
ATOM     16  C   UNL     1       2.706  -3.620  -4.438  1.00  0.00     0.047 C 
ATOM     17  C   UNL     1       0.052  -0.968  -4.930  1.00  0.00    -0.050 A 
ATOM     18  C   UNL     1      -0.282   0.056  -5.976  1.00  0.00     0.044 C 
BRANCH   8  19
ATOM     19  C   UNL     1       3.358  -0.967  -1.294  1.00  0.00     0.042 A 
ATOM     20  C   UNL     1       3.147   0.240  -2.017  1.00  0.00     0.128 A 
ATOM     21  C   UNL     1       4.096   0.703  -2.931  1.00  0.00     0.047 A 
ATOM     22  C   UNL     1       5.316   0.048  -3.054  1.00  0.00     0.004 A 
ATOM     23  C   UNL     1       4.640  -1.539  -1.353  1.00  0.00     0.014 A 
ATOM     24  C   UNL     1       5.608  -1.036  -2.228  1.00  0.00     0.001 A 
BRANCH  20  25
ATOM     25  O   UNL     1       1.907   0.830  -2.027  1.00  0.00    -0.493 OA
BRANCH  25  26
ATOM     26  C   UNL     1       1.870   2.165  -1.522  1.00  0.00     0.226 C 
ATOM     27  C   UNL     1       2.068   2.195  -0.017  1.00  0.00     0.049 C 
ENDBRANCH  25  26
ENDBRANCH  20  25
ENDBRANCH   8  19
ENDBRANCH   4   7
ENDBRANCH   2   3
ENDBRANCH   1   2
BRANCH   1  28
ATOM     28  C   UNL     1      -2.207   2.320   2.673  1.00  0.00     0.023 C 
BRANCH  28  29
ATOM     29  C   UNL     1      -2.939   1.552   3.765  1.00  0.00     0.116 C 
BRANCH  29  30
ATOM     30  N   UNL     1      -2.138   1.318   4.956  1.00  0.00    -0.352 N 
ATOM     31  C   UNL     1      -2.529   1.347   6.278  1.00  0.00     0.251 C 
ATOM     32  H   UNL     1      -1.189   1.112   4.798  1.00  0.00     0.163 HD
ATOM     33  O   UNL     1      -1.710   1.211   7.172  1.00  0.00    -0.269 OA
BRANCH  31  34
ATOM     34  C   UNL     1      -3.951   1.595   6.598  1.00  0.00     0.039 A 
ATOM     35  C   UNL     1      -4.267   2.572   7.545  1.00  0.00     0.014 A 
ATOM     36  C   UNL     1      -4.964   0.907   5.926  1.00  0.00     0.014 A 
ATOM     37  C   UNL     1      -5.603   2.918   7.757  1.00  0.00     0.010 A 
ATOM     38  C   UNL     1      -6.285   1.312   6.075  1.00  0.00     0.010 A 
ATOM     39  C   UNL     1      -6.618   2.321   6.992  1.00  0.00    -0.014 A 
BRANCH  39  40
ATOM     40  C   UNL     1      -8.035   2.741   7.128  1.00  0.00     0.031 A 
ATOM     41  C   UNL     1      -9.071   1.756   7.589  1.00  0.00     0.074 A 
ATOM     42  C   UNL     1      -8.402   3.983   6.755  1.00  0.00     0.049 A 
ATOM     43  N   UNL     1     -10.366   1.907   7.699  1.00  0.00    -0.248 NA
ATOM     44  C   UNL     1      -8.591   0.409   7.939  1.00  0.00     0.031 C 
ATOM     45  C   UNL     1      -7.502   5.008   6.224  1.00  0.00     0.029 A 
ATOM     46  N   UNL     1      -9.634   4.586   6.749  1.00  0.00    -0.354 N 
ATOM     47  C   UNL     1     -10.855   0.673   8.110  1.00  0.00     0.074 A 
ATOM     48  C   UNL     1      -9.727  -0.230   8.170  1.00  0.00     0.031 C 
ATOM     49  C   UNL     1      -8.209   6.118   5.958  1.00  0.00     0.029 A 
ATOM     50  C   UNL     1      -9.615   5.872   6.267  1.00  0.00     0.049 A 
ATOM     51  H   UNL     1     -10.455   4.140   7.060  1.00  0.00     0.167 HD
ATOM     52  C   UNL     1     -12.125   0.331   8.433  1.00  0.00     0.037 A 
ATOM     53  C   UNL     1     -10.618   6.752   6.085  1.00  0.00     0.037 A 
ATOM     54  C   UNL     1     -13.239   1.240   8.394  1.00  0.00     0.049 A 
ATOM     55  C   UNL     1     -12.017   6.358   6.468  1.00  0.00     0.074 A 
ATOM     56  C   UNL     1     -14.550   1.015   8.775  1.00  0.00     0.029 A 
ATOM     57  N   UNL     1     -13.173   2.549   7.939  1.00  0.00    -0.354 N 
ATOM     58  N   UNL     1     -12.453   5.216   6.942  1.00  0.00    -0.248 NA
ATOM     59  C   UNL     1     -13.062   7.378   6.301  1.00  0.00     0.031 C 
ATOM     60  C   UNL     1     -15.288   2.173   8.506  1.00  0.00     0.029 A 
ATOM     61  C   UNL     1     -14.426   3.137   8.006  1.00  0.00     0.049 A 
ATOM     62  H   UNL     1     -12.357   2.995   7.617  1.00  0.00     0.167 HD
ATOM     63  C   UNL     1     -13.815   5.385   7.150  1.00  0.00     0.074 A 
ATOM     64  C   UNL     1     -14.130   6.745   6.766  1.00  0.00     0.031 C 
ATOM     65  C   UNL     1     -14.723   4.493   7.617  1.00  0.00     0.037 A 
BRANCH  52  66
ATOM     66  C   UNL     1     -12.367  -1.091   8.854  1.00  0.00     0.057 A 
ATOM     67  C   UNL     1     -11.866  -1.602  10.059  1.00  0.00     0.134 A 
ATOM     68  C   UNL     1     -13.112  -1.959   8.046  1.00  0.00     0.134 A 
ATOM     69  F   UNL     1     -11.133  -0.828  10.874  1.00  0.00    -0.206 F 
ATOM     70  C   UNL     1     -12.063  -2.935  10.426  1.00  0.00     0.040 A 
ATOM     71  C   UNL     1     -13.342  -3.285   8.418  1.00  0.00     0.040 A 
ATOM     72  F   UNL     1     -13.627  -1.535   6.882  1.00  0.00    -0.206 F 
ATOM     73  C   UNL     1     -12.807  -3.779   9.606  1.00  0.00     0.006 A 
ENDBRANCH  52  66
BRANCH  53  74
ATOM     74  C   UNL     1     -10.326   8.098   5.532  1.00  0.00     0.057 A 
ATOM     75  C   UNL     1     -10.393   9.242   6.336  1.00  0.00     0.134 A 
ATOM     76  C   UNL     1      -9.956   8.273   4.193  1.00  0.00     0.134 A 
ATOM     77  F   UNL     1     -10.757   9.141   7.623  1.00  0.00    -0.206 F 
ATOM     78  C   UNL     1     -10.117  10.512   5.826  1.00  0.00     0.040 A 
ATOM     79  C   UNL     1      -9.654   9.533   3.675  1.00  0.00     0.040 A 
ATOM     80  F   UNL     1      -9.864   7.215   3.373  1.00  0.00    -0.206 F 
ATOM     81  C   UNL     1      -9.740  10.659   4.492  1.00  0.00     0.006 A 
ENDBRANCH  53  74
BRANCH  65  82
ATOM     82  C   UNL     1     -16.140   4.968   7.763  1.00  0.00     0.057 A 
ATOM     83  C   UNL     1     -16.962   5.193   6.651  1.00  0.00     0.134 A 
ATOM     84  C   UNL     1     -16.700   5.160   9.032  1.00  0.00     0.134 A 
ATOM     85  F   UNL     1     -16.482   5.040   5.408  1.00  0.00    -0.206 F 
ATOM     86  C   UNL     1     -18.285   5.614   6.797  1.00  0.00     0.040 A 
ATOM     87  C   UNL     1     -18.029   5.554   9.191  1.00  0.00     0.040 A 
ATOM     88  F   UNL     1     -15.970   4.953  10.138  1.00  0.00    -0.206 F 
ATOM     89  C   UNL     1     -18.824   5.788   8.071  1.00  0.00     0.006 A 
ENDBRANCH  65  82
ENDBRANCH  39  40
ENDBRANCH  31  34
ENDBRANCH  29  30
ENDBRANCH  28  29
ENDBRANCH   1  28
TORSDOF 14
