REMARK SMILES O=C(NCCCCNC(=O)c1cccn1CC(=O)N1CCc2ccccc2C1)c1ccc(-c2c3nc(c(-c4c(F)cccc4F)c4ccc([nH]4)c(-c4c(F)cccc4F)c4nc(c(-c5c(F)cccc5F)c5ccc2[nH]5)C=C4)C=C3)cc1
REMARK SMILES IDX 6 1 5 2 4 3 3 4 1 5 2 6 29 8 30 9 82 10 31 11 81 12 32 13
REMARK SMILES IDX 33 14 34 15 75 16 35 17 80 18 74 19 76 20 36 21 79 22 73 23
REMARK SMILES IDX 72 24 37 26 63 27 46 28 62 29 47 30 50 31 61 32 77 33 48 34
REMARK SMILES IDX 49 35 60 37 78 38 51 39 38 40 39 41 44 42 40 43 41 44 43 45
REMARK SMILES IDX 45 46 42 47 64 48 65 49 70 50 66 51 67 52 69 53 71 54 68 55
REMARK SMILES IDX 52 56 53 57 58 58 54 59 55 60 57 61 59 62 56 63 7 64 8 65
REMARK SMILES IDX 9 66 10 68 11 69 12 70 15 71 13 72 14 73 16 74 17 75 18 76
REMARK SMILES IDX 19 77 20 78 28 79 21 80 27 81 22 82 26 83 23 84 25 85 24 86
REMARK H PARENT 3 7 76 25 50 36 8 67
REMARK Flexibility Score: inf
ROOT
ATOM      1  C   UNL     1       4.534  -1.996   2.709  1.00  0.00     0.023 C 
ENDROOT
BRANCH   1   2
ATOM      2  C   UNL     1       5.083  -0.892   1.810  1.00  0.00     0.023 C 
BRANCH   2   3
ATOM      3  C   UNL     1       4.737  -1.033   0.330  1.00  0.00     0.116 C 
BRANCH   3   4
ATOM      4  N   UNL     1       3.325  -0.946   0.008  1.00  0.00    -0.352 N 
ATOM      5  O   UNL     1       1.273  -0.137  -0.344  1.00  0.00    -0.269 OA
ATOM      6  C   UNL     1       2.406   0.069   0.091  1.00  0.00     0.251 C 
ATOM      7  H   UNL     1       2.950  -1.787  -0.342  1.00  0.00     0.163 HD
BRANCH   6   8
ATOM      8  C   UNL     1       2.696   1.371   0.737  1.00  0.00     0.039 A 
ATOM      9  C   UNL     1       3.942   1.997   0.677  1.00  0.00     0.014 A 
ATOM     10  C   UNL     1       1.636   2.011   1.404  1.00  0.00     0.014 A 
ATOM     11  C   UNL     1       4.158   3.195   1.347  1.00  0.00     0.010 A 
ATOM     12  C   UNL     1       1.833   3.237   2.041  1.00  0.00     0.010 A 
ATOM     13  C   UNL     1       3.100   3.828   2.009  1.00  0.00    -0.014 A 
BRANCH  13  14
ATOM     14  C   UNL     1       3.332   5.223   2.447  1.00  0.00     0.031 A 
ATOM     15  C   UNL     1       3.290   6.203   1.267  1.00  0.00     0.074 A 
ATOM     16  C   UNL     1       3.635   5.432   3.760  1.00  0.00     0.049 A 
ATOM     17  N   UNL     1       3.916   7.327   1.095  1.00  0.00    -0.248 NA
ATOM     18  C   UNL     1       2.499   5.834   0.060  1.00  0.00     0.031 C 
ATOM     19  C   UNL     1       3.620   4.376   4.788  1.00  0.00     0.029 A 
ATOM     20  N   UNL     1       4.023   6.536   4.498  1.00  0.00    -0.354 N 
ATOM     21  C   UNL     1       3.450   7.884  -0.115  1.00  0.00     0.074 A 
ATOM     22  C   UNL     1       2.683   6.865  -0.765  1.00  0.00     0.031 C 
ATOM     23  C   UNL     1       4.043   4.858   5.973  1.00  0.00     0.029 A 
ATOM     24  C   UNL     1       4.365   6.268   5.851  1.00  0.00     0.049 A 
ATOM     25  H   UNL     1       4.061   7.441   4.114  1.00  0.00     0.167 HD
ATOM     26  C   UNL     1       3.603   9.197  -0.448  1.00  0.00     0.037 A 
ATOM     27  C   UNL     1       4.903   7.102   6.797  1.00  0.00     0.037 A 
ATOM     28  C   UNL     1       4.341   9.884   0.555  1.00  0.00     0.049 A 
ATOM     29  C   UNL     1       4.941   8.438   6.183  1.00  0.00     0.074 A 
ATOM     30  C   UNL     1       5.667   9.907   0.895  1.00  0.00     0.029 A 
ATOM     31  N   UNL     1       3.613  10.480   1.554  1.00  0.00    -0.354 N 
ATOM     32  N   UNL     1       3.903   9.198   5.998  1.00  0.00    -0.248 NA
ATOM     33  C   UNL     1       6.223   8.958   5.688  1.00  0.00     0.031 C 
ATOM     34  C   UNL     1       5.665  10.172   2.281  1.00  0.00     0.029 A 
ATOM     35  C   UNL     1       4.351  10.399   2.708  1.00  0.00     0.049 A 
ATOM     36  H   UNL     1       2.723  10.890   1.460  1.00  0.00     0.167 HD
ATOM     37  C   UNL     1       4.365  10.110   5.079  1.00  0.00     0.074 A 
ATOM     38  C   UNL     1       5.804  10.118   5.191  1.00  0.00     0.031 C 
ATOM     39  C   UNL     1       3.633  10.356   3.963  1.00  0.00     0.037 A 
BRANCH  26  40
ATOM     40  C   UNL     1       2.943  10.041  -1.502  1.00  0.00     0.057 A 
ATOM     41  C   UNL     1       3.558  11.261  -1.870  1.00  0.00     0.134 A 
ATOM     42  C   UNL     1       1.608   9.892  -1.893  1.00  0.00     0.134 A 
ATOM     43  F   UNL     1       4.849  11.498  -1.582  1.00  0.00    -0.206 F 
ATOM     44  C   UNL     1       2.857  12.308  -2.471  1.00  0.00     0.040 A 
ATOM     45  C   UNL     1       0.908  10.919  -2.541  1.00  0.00     0.040 A 
ATOM     46  F   UNL     1       0.908   8.793  -1.582  1.00  0.00    -0.206 F 
ATOM     47  C   UNL     1       1.518  12.145  -2.792  1.00  0.00     0.006 A 
ENDBRANCH  26  40
BRANCH  27  48
ATOM     48  C   UNL     1       5.484   6.998   8.195  1.00  0.00     0.057 A 
ATOM     49  C   UNL     1       5.460   5.871   9.022  1.00  0.00     0.134 A 
ATOM     50  C   UNL     1       6.181   8.101   8.771  1.00  0.00     0.134 A 
ATOM     51  F   UNL     1       4.748   4.786   8.711  1.00  0.00    -0.206 F 
ATOM     52  C   UNL     1       6.156   5.807  10.248  1.00  0.00     0.040 A 
ATOM     53  C   UNL     1       6.903   8.042   9.968  1.00  0.00     0.040 A 
ATOM     54  F   UNL     1       6.199   9.311   8.197  1.00  0.00    -0.206 F 
ATOM     55  C   UNL     1       6.909   6.880  10.708  1.00  0.00     0.006 A 
ENDBRANCH  27  48
BRANCH  39  56
ATOM     56  C   UNL     1       2.152  10.082   4.139  1.00  0.00     0.057 A 
ATOM     57  C   UNL     1       1.395  10.839   5.040  1.00  0.00     0.134 A 
ATOM     58  C   UNL     1       1.486   8.997   3.550  1.00  0.00     0.134 A 
ATOM     59  F   UNL     1       1.941  11.900   5.654  1.00  0.00    -0.206 F 
ATOM     60  C   UNL     1       0.064  10.521   5.348  1.00  0.00     0.040 A 
ATOM     61  C   UNL     1       0.155   8.671   3.835  1.00  0.00     0.040 A 
ATOM     62  F   UNL     1       2.112   8.204   2.686  1.00  0.00    -0.206 F 
ATOM     63  C   UNL     1      -0.560   9.431   4.748  1.00  0.00     0.006 A 
ENDBRANCH  39  56
ENDBRANCH  13  14
ENDBRANCH   6   8
ENDBRANCH   3   4
ENDBRANCH   2   3
ENDBRANCH   1   2
BRANCH   1  64
ATOM     64  C   UNL     1       4.944  -3.420   2.344  1.00  0.00     0.116 C 
BRANCH  64  65
ATOM     65  N   UNL     1       6.384  -3.601   2.369  1.00  0.00    -0.351 N 
ATOM     66  C   UNL     1       7.142  -4.564   2.994  1.00  0.00     0.267 C 
ATOM     67  H   UNL     1       6.896  -2.933   1.860  1.00  0.00     0.163 HD
ATOM     68  O   UNL     1       8.355  -4.438   2.971  1.00  0.00    -0.268 OA
BRANCH  66  69
ATOM     69  C   UNL     1       6.463  -5.639   3.691  1.00  0.00     0.107 A 
ATOM     70  C   UNL     1       5.484  -6.499   3.216  1.00  0.00     0.033 A 
ATOM     71  N   UNL     1       6.725  -6.022   5.000  1.00  0.00    -0.334 N 
ATOM     72  C   UNL     1       5.142  -7.398   4.250  1.00  0.00     0.020 A 
ATOM     73  C   UNL     1       5.932  -7.092   5.335  1.00  0.00     0.087 A 
BRANCH  71  74
ATOM     74  C   UNL     1       7.729  -5.426   5.874  1.00  0.00     0.222 C 
BRANCH  74  75
ATOM     75  C   UNL     1       7.279  -4.871   7.220  1.00  0.00     0.242 C 
ATOM     76  O   UNL     1       7.937  -5.179   8.223  1.00  0.00    -0.273 OA
BRANCH  75  77
ATOM     77  N   UNL     1       6.281  -3.901   7.301  1.00  0.00    -0.336 N 
ATOM     78  C   UNL     1       5.256  -3.695   6.282  1.00  0.00     0.124 C 
ATOM     79  C   UNL     1       6.187  -3.144   8.556  1.00  0.00     0.155 C 
ATOM     80  C   UNL     1       4.496  -2.377   6.360  1.00  0.00     0.057 C 
ATOM     81  C   UNL     1       4.870  -2.454   8.815  1.00  0.00    -0.025 A 
ATOM     82  C   UNL     1       4.033  -2.092   7.752  1.00  0.00    -0.041 A 
ATOM     83  C   UNL     1       4.508  -2.086  10.117  1.00  0.00     0.006 A 
ATOM     84  C   UNL     1       2.837  -1.406   7.990  1.00  0.00     0.004 A 
ATOM     85  C   UNL     1       3.315  -1.401  10.354  1.00  0.00     0.000 A 
ATOM     86  C   UNL     1       2.475  -1.070   9.292  1.00  0.00     0.000 A 
ENDBRANCH  75  77
ENDBRANCH  74  75
ENDBRANCH  71  74
ENDBRANCH  66  69
ENDBRANCH  64  65
ENDBRANCH   1  64
TORSDOF 14
