REMARK SMILES O=C(NCCCCNC(=O)c1ccccc1-c1ccc(/C=C2\C(=O)N(c3cccc(Br)c3)C(=O)N=C2O)o1)c1ccc(-c2c3nc(c(-c4c(F)cccc4F)c4ccc([nH]4)c(-c4c(F)cccc4F)c4nc(c(-c5c(F)cccc5F)c5ccc2[nH]5)C=C4)C=C3)cc1
REMARK SMILES IDX 6 1 5 2 4 3 3 4 1 5 2 6 39 8 40 9 92 10 41 11 91 12 42 13
REMARK SMILES IDX 43 14 44 15 85 16 45 17 90 18 84 19 86 20 46 21 89 22 83 23
REMARK SMILES IDX 82 24 47 26 73 27 56 28 72 29 57 30 60 31 71 32 87 33 58 34
REMARK SMILES IDX 59 35 70 37 88 38 61 39 48 40 49 41 54 42 50 43 51 44 53 45
REMARK SMILES IDX 55 46 52 47 74 48 75 49 80 50 76 51 77 52 79 53 81 54 78 55
REMARK SMILES IDX 62 56 63 57 68 58 64 59 65 60 67 61 69 62 66 63 7 64 8 65
REMARK SMILES IDX 9 66 10 68 11 69 12 70 16 71 13 72 15 73 14 74 17 75 18 76
REMARK SMILES IDX 38 77 19 78 20 79 21 80 22 81 23 82 36 83 24 84 25 85 35 86
REMARK SMILES IDX 33 87 34 88 37 89 26 91 27 92 32 93 28 94 30 95 29 96 31 97
REMARK H PARENT 3 7 86 25 60 36 8 67 37 90
REMARK Flexibility Score: inf
ROOT
ATOM      1  C   UNL     1       4.687   3.904  -0.103  1.00  0.00     0.023 C 
ENDROOT
BRANCH   1   2
ATOM      2  C   UNL     1       5.102   2.539  -0.646  1.00  0.00     0.023 C 
BRANCH   2   3
ATOM      3  C   UNL     1       4.722   1.341   0.215  1.00  0.00     0.116 C 
BRANCH   3   4
ATOM      4  N   UNL     1       3.284   1.138   0.315  1.00  0.00    -0.352 N 
ATOM      5  O   UNL     1       1.302   0.105  -0.022  1.00  0.00    -0.269 OA
ATOM      6  C   UNL     1       2.527   0.062  -0.089  1.00  0.00     0.251 C 
ATOM      7  H   UNL     1       2.782   1.876   0.730  1.00  0.00     0.163 HD
BRANCH   6   8
ATOM      8  C   UNL     1       3.202  -1.144  -0.623  1.00  0.00     0.039 A 
ATOM      9  C   UNL     1       4.279  -1.707   0.064  1.00  0.00     0.014 A 
ATOM     10  C   UNL     1       2.763  -1.715  -1.822  1.00  0.00     0.014 A 
ATOM     11  C   UNL     1       5.006  -2.742  -0.516  1.00  0.00     0.010 A 
ATOM     12  C   UNL     1       3.440  -2.818  -2.358  1.00  0.00     0.010 A 
ATOM     13  C   UNL     1       4.581  -3.328  -1.720  1.00  0.00    -0.014 A 
BRANCH  13  14
ATOM     14  C   UNL     1       5.282  -4.543  -2.215  1.00  0.00     0.031 A 
ATOM     15  C   UNL     1       6.035  -4.554  -3.516  1.00  0.00     0.074 A 
ATOM     16  C   UNL     1       5.245  -5.651  -1.447  1.00  0.00     0.049 A 
ATOM     17  N   UNL     1       6.703  -5.536  -4.068  1.00  0.00    -0.248 NA
ATOM     18  C   UNL     1       6.040  -3.312  -4.303  1.00  0.00     0.031 C 
ATOM     19  C   UNL     1       4.530  -5.766  -0.172  1.00  0.00     0.029 A 
ATOM     20  N   UNL     1       5.825  -6.883  -1.611  1.00  0.00    -0.354 N 
ATOM     21  C   UNL     1       7.193  -5.041  -5.271  1.00  0.00     0.074 A 
ATOM     22  C   UNL     1       6.732  -3.673  -5.378  1.00  0.00     0.031 C 
ATOM     23  C   UNL     1       4.745  -6.983   0.346  1.00  0.00     0.029 A 
ATOM     24  C   UNL     1       5.549  -7.758  -0.589  1.00  0.00     0.049 A 
ATOM     25  H   UNL     1       6.384  -7.117  -2.387  1.00  0.00     0.167 HD
ATOM     26  C   UNL     1       7.958  -5.673  -6.194  1.00  0.00     0.037 A 
ATOM     27  C   UNL     1       5.878  -9.053  -0.430  1.00  0.00     0.037 A 
ATOM     28  C   UNL     1       8.429  -7.031  -6.070  1.00  0.00     0.049 A 
ATOM     29  C   UNL     1       6.699  -9.730  -1.488  1.00  0.00     0.074 A 
ATOM     30  C   UNL     1       9.261  -7.734  -6.926  1.00  0.00     0.029 A 
ATOM     31  N   UNL     1       8.104  -7.894  -5.035  1.00  0.00    -0.354 N 
ATOM     32  N   UNL     1       7.203  -9.227  -2.589  1.00  0.00    -0.248 NA
ATOM     33  C   UNL     1       6.991 -11.155  -1.287  1.00  0.00     0.031 C 
ATOM     34  C   UNL     1       9.392  -9.039  -6.440  1.00  0.00     0.029 A 
ATOM     35  C   UNL     1       8.686  -9.134  -5.252  1.00  0.00     0.049 A 
ATOM     36  H   UNL     1       7.542  -7.662  -4.261  1.00  0.00     0.167 HD
ATOM     37  C   UNL     1       7.881 -10.270  -3.204  1.00  0.00     0.074 A 
ATOM     38  C   UNL     1       7.751 -11.423  -2.338  1.00  0.00     0.031 C 
ATOM     39  C   UNL     1       8.546 -10.274  -4.384  1.00  0.00     0.037 A 
BRANCH  26  40
ATOM     40  C   UNL     1       8.336  -4.924  -7.439  1.00  0.00     0.057 A 
ATOM     41  C   UNL     1       9.307  -3.916  -7.433  1.00  0.00     0.134 A 
ATOM     42  C   UNL     1       7.799  -5.295  -8.680  1.00  0.00     0.134 A 
ATOM     43  F   UNL     1       9.859  -3.511  -6.279  1.00  0.00    -0.206 F 
ATOM     44  C   UNL     1       9.728  -3.300  -8.615  1.00  0.00     0.040 A 
ATOM     45  C   UNL     1       8.226  -4.702  -9.870  1.00  0.00     0.040 A 
ATOM     46  F   UNL     1       6.872  -6.262  -8.759  1.00  0.00    -0.206 F 
ATOM     47  C   UNL     1       9.195  -3.701  -9.839  1.00  0.00     0.006 A 
ENDBRANCH  26  40
BRANCH  27  48
ATOM     48  C   UNL     1       5.396  -9.805   0.756  1.00  0.00     0.057 A 
ATOM     49  C   UNL     1       6.283 -10.287   1.724  1.00  0.00     0.134 A 
ATOM     50  C   UNL     1       4.034 -10.078   0.937  1.00  0.00     0.134 A 
ATOM     51  F   UNL     1       7.601 -10.073   1.599  1.00  0.00    -0.206 F 
ATOM     52  C   UNL     1       5.838 -11.038   2.813  1.00  0.00     0.040 A 
ATOM     53  C   UNL     1       3.571 -10.797   2.038  1.00  0.00     0.040 A 
ATOM     54  F   UNL     1       3.130  -9.636   0.050  1.00  0.00    -0.206 F 
ATOM     55  C   UNL     1       4.476 -11.290   2.974  1.00  0.00     0.006 A 
ENDBRANCH  27  48
BRANCH  39  56
ATOM     56  C   UNL     1       9.195 -11.563  -4.793  1.00  0.00     0.057 A 
ATOM     57  C   UNL     1       8.442 -12.667  -5.211  1.00  0.00     0.134 A 
ATOM     58  C   UNL     1      10.589 -11.695  -4.785  1.00  0.00     0.134 A 
ATOM     59  F   UNL     1       7.101 -12.610  -5.224  1.00  0.00    -0.206 F 
ATOM     60  C   UNL     1       9.051 -13.867  -5.580  1.00  0.00     0.040 A 
ATOM     61  C   UNL     1      11.211 -12.881  -5.180  1.00  0.00     0.040 A 
ATOM     62  F   UNL     1      11.370 -10.674  -4.403  1.00  0.00    -0.206 F 
ATOM     63  C   UNL     1      10.440 -13.974  -5.571  1.00  0.00     0.006 A 
ENDBRANCH  39  56
ENDBRANCH  13  14
ENDBRANCH   6   8
ENDBRANCH   3   4
ENDBRANCH   2   3
ENDBRANCH   1   2
BRANCH   1  64
ATOM     64  C   UNL     1       5.069   4.168   1.347  1.00  0.00     0.116 C 
BRANCH  64  65
ATOM     65  N   UNL     1       6.489   4.062   1.625  1.00  0.00    -0.352 N 
ATOM     66  C   UNL     1       7.196   4.715   2.607  1.00  0.00     0.252 C 
ATOM     67  H   UNL     1       7.004   3.454   1.047  1.00  0.00     0.163 HD
ATOM     68  O   UNL     1       8.385   4.467   2.788  1.00  0.00    -0.269 OA
BRANCH  66  69
ATOM     69  C   UNL     1       6.544   5.775   3.405  1.00  0.00     0.050 A 
ATOM     70  C   UNL     1       7.001   7.082   3.173  1.00  0.00     0.014 A 
ATOM     71  C   UNL     1       5.506   5.527   4.323  1.00  0.00     0.030 A 
ATOM     72  C   UNL     1       6.401   8.157   3.822  1.00  0.00     0.001 A 
ATOM     73  C   UNL     1       4.907   6.626   4.958  1.00  0.00     0.013 A 
ATOM     74  C   UNL     1       5.349   7.930   4.708  1.00  0.00     0.001 A 
BRANCH  71  75
ATOM     75  C   UNL     1       5.012   4.185   4.595  1.00  0.00     0.135 A 
ATOM     76  C   UNL     1       5.599   2.981   4.903  1.00  0.00     0.051 A 
ATOM     77  O   UNL     1       3.673   4.007   4.407  1.00  0.00    -0.457 OA
ATOM     78  C   UNL     1       4.566   2.013   4.828  1.00  0.00     0.051 A 
ATOM     79  C   UNL     1       3.394   2.660   4.448  1.00  0.00     0.128 A 
BRANCH  79  80
ATOM     80  C   UNL     1       2.127   2.080   4.157  1.00  0.00     0.066 C 
ATOM     81  C   UNL     1       1.157   2.635   3.405  1.00  0.00     0.106 C 
ATOM     82  C   UNL     1       1.200   3.921   2.666  1.00  0.00     0.272 C 
ATOM     83  C   UNL     1      -0.117   1.948   3.253  1.00  0.00     0.228 C 
ATOM     84  O   UNL     1       2.252   4.304   2.163  1.00  0.00    -0.268 OA
ATOM     85  N   UNL     1      -0.041   4.548   2.544  1.00  0.00    -0.226 N 
ATOM     86  N   UNL     1      -1.218   2.474   2.897  1.00  0.00    -0.156 NA
ATOM     87  C   UNL     1      -1.257   3.834   2.665  1.00  0.00     0.358 C 
ATOM     88  O   UNL     1      -2.351   4.359   2.518  1.00  0.00    -0.245 OA
BRANCH  83  89
ATOM     89  O   UNL     1      -0.094   0.628   3.476  1.00  0.00    -0.493 OA
ATOM     90  H   UNL     1       0.702   0.210   3.739  1.00  0.00     0.295 HD
ENDBRANCH  83  89
BRANCH  85  91
ATOM     91  C   UNL     1      -0.089   5.954   2.201  1.00  0.00     0.055 A 
ATOM     92  C   UNL     1      -1.021   6.807   2.819  1.00  0.00     0.027 A 
ATOM     93  C   UNL     1       0.809   6.527   1.286  1.00  0.00     0.042 A 
ATOM     94  C   UNL     1      -1.045   8.180   2.546  1.00  0.00     0.003 A 
ATOM     95  C   UNL     1       0.777   7.897   1.010  1.00  0.00     0.020 A 
ATOM     96  C   UNL     1      -0.142   8.728   1.641  1.00  0.00     0.016 A 
ATOM     97  Br  UNL     1       1.996   8.627  -0.239  1.00  0.00    -0.051 Br
ENDBRANCH  85  91
ENDBRANCH  79  80
ENDBRANCH  71  75
ENDBRANCH  66  69
ENDBRANCH  64  65
ENDBRANCH   1  64
TORSDOF 15
