REMARK SMILES CC[NH+](CC)C[C@H](C)NC(=O)N[C@H]1C=C[C@@H](C(=O)NCCCCNC(=O)c2ccc(-c3c4nc(c(-c5c(F)cccc5F)c5ccc([nH]5)c(-c5c(F)cccc5F)c5nc(c(-c6c(F)cccc6F)c6ccc3[nH]6)C=C5)C=C4)cc2)C1
REMARK SMILES IDX 20 1 19 2 17 3 18 4 16 6 13 7 14 8 81 9 15 10 12 11 9 12
REMARK SMILES IDX 10 13 11 15 7 17 8 18 6 19 3 20 2 22 1 23 4 24 5 25 21 26
REMARK SMILES IDX 22 27 23 28 24 29 25 30 26 32 27 33 28 34 80 35 29 36 79 37
REMARK SMILES IDX 30 38 31 39 32 40 73 41 33 42 78 43 72 44 74 45 34 46 77 47
REMARK SMILES IDX 71 48 70 49 35 51 61 52 44 53 60 54 45 55 48 56 59 57 75 58
REMARK SMILES IDX 46 59 47 60 58 62 76 63 49 64 36 65 37 66 42 67 38 68 39 69
REMARK SMILES IDX 41 70 43 71 40 72 62 73 63 74 68 75 64 76 65 77 67 78 69 79
REMARK SMILES IDX 66 80 50 81 51 82 56 83 52 84 53 85 55 86 57 87 54 88
REMARK H PARENT 19 5 9 14 12 16 3 21 24 31 74 50 48 61
REMARK Flexibility Score: inf
ROOT
ATOM      1  C   UNL     1       2.453   6.256  -0.173  1.00  0.00     0.116 C 
ENDROOT
BRANCH   1   2
ATOM      2  N   UNL     1       1.597   6.660  -1.324  1.00  0.00    -0.356 N 
ATOM      3  C   UNL     1       0.570   5.945  -1.881  1.00  0.00     0.227 C 
ATOM      4  O   UNL     1      -0.551   6.150  -1.393  1.00  0.00    -0.274 OA
ATOM      5  H   UNL     1       1.792   7.536  -1.728  1.00  0.00     0.163 HD
BRANCH   3   6
ATOM      6  C   UNL     1       0.664   5.087  -3.187  1.00  0.00     0.103 C 
ATOM      7  C   UNL     1       1.719   3.553  -4.814  1.00  0.00     0.107 C 
ATOM      8  C   UNL     1       0.777   2.840  -3.925  1.00  0.00    -0.006 C 
ATOM      9  C   UNL     1       1.836   4.981  -4.185  1.00  0.00     0.047 C 
ATOM     10  C   UNL     1       0.246   3.650  -2.998  1.00  0.00    -0.016 C 
BRANCH   7  11
ATOM     11  N   UNL     1       2.973   2.856  -5.127  1.00  0.00    -0.332 N 
ATOM     12  N   UNL     1       3.800   1.092  -3.708  1.00  0.00    -0.330 N 
ATOM     13  C   UNL     1       3.853   1.938  -4.734  1.00  0.00     0.315 C 
ATOM     14  H   UNL     1       4.631   0.568  -3.651  1.00  0.00     0.165 HD
ATOM     15  O   UNL     1       4.878   1.863  -5.427  1.00  0.00    -0.249 OA
ATOM     16  H   UNL     1       3.297   3.218  -5.983  1.00  0.00     0.165 HD
BRANCH  12  17
ATOM     17  C   UNL     1       2.877   0.707  -2.638  1.00  0.00     0.135 C 
ATOM     18  C   UNL     1       2.252  -0.650  -2.979  1.00  0.00     0.037 C 
BRANCH  17  19
ATOM     19  C   UNL     1       3.562   0.581  -1.232  1.00  0.00     0.287 C 
BRANCH  19  20
ATOM     20  N   UNL     1       4.265   1.719  -0.623  1.00  0.00    -0.334 N 
ATOM     21  H   UNL     1       4.327   1.450   0.359  1.00  0.00     0.348 HD
BRANCH  20  22
ATOM     22  C   UNL     1       5.660   1.885  -1.031  1.00  0.00     0.258 C 
ATOM     23  C   UNL     1       6.578   1.062  -0.150  1.00  0.00     0.071 C 
ENDBRANCH  20  22
BRANCH  20  24
ATOM     24  C   UNL     1       3.511   2.957  -0.640  1.00  0.00     0.258 C 
ATOM     25  C   UNL     1       3.685   3.760  -1.902  1.00  0.00     0.071 C 
ENDBRANCH  20  24
ENDBRANCH  19  20
ENDBRANCH  17  19
ENDBRANCH  12  17
ENDBRANCH   7  11
ENDBRANCH   3   6
ENDBRANCH   1   2
BRANCH   1  26
ATOM     26  C   UNL     1       3.921   6.694  -0.386  1.00  0.00     0.023 C 
BRANCH  26  27
ATOM     27  C   UNL     1       4.813   6.861   0.857  1.00  0.00     0.023 C 
BRANCH  27  28
ATOM     28  C   UNL     1       5.256   5.622   1.642  1.00  0.00     0.116 C 
BRANCH  28  29
ATOM     29  N   UNL     1       6.395   4.910   1.071  1.00  0.00    -0.352 N 
ATOM     30  C   UNL     1       7.515   4.357   1.675  1.00  0.00     0.251 C 
ATOM     31  H   UNL     1       6.363   4.804   0.092  1.00  0.00     0.163 HD
ATOM     32  O   UNL     1       8.363   3.806   0.994  1.00  0.00    -0.269 OA
BRANCH  30  33
ATOM     33  C   UNL     1       7.744   4.510   3.138  1.00  0.00     0.039 A 
ATOM     34  C   UNL     1       9.019   4.897   3.572  1.00  0.00     0.014 A 
ATOM     35  C   UNL     1       6.721   4.348   4.071  1.00  0.00     0.014 A 
ATOM     36  C   UNL     1       9.218   5.283   4.902  1.00  0.00     0.010 A 
ATOM     37  C   UNL     1       6.898   4.803   5.379  1.00  0.00     0.010 A 
ATOM     38  C   UNL     1       8.133   5.326   5.791  1.00  0.00    -0.014 A 
BRANCH  38  39
ATOM     39  C   UNL     1       8.243   6.034   7.096  1.00  0.00     0.031 A 
ATOM     40  C   UNL     1       8.052   5.310   8.396  1.00  0.00     0.074 A 
ATOM     41  C   UNL     1       8.414   7.372   7.096  1.00  0.00     0.049 A 
ATOM     42  N   UNL     1       8.048   5.789   9.616  1.00  0.00    -0.248 NA
ATOM     43  C   UNL     1       7.799   3.865   8.315  1.00  0.00     0.031 C 
ATOM     44  C   UNL     1       8.526   8.209   5.899  1.00  0.00     0.029 A 
ATOM     45  N   UNL     1       8.507   8.268   8.133  1.00  0.00    -0.354 N 
ATOM     46  C   UNL     1       7.782   4.708  10.446  1.00  0.00     0.074 A 
ATOM     47  C   UNL     1       7.580   3.560   9.586  1.00  0.00     0.031 C 
ATOM     48  C   UNL     1       8.693   9.489   6.267  1.00  0.00     0.029 A 
ATOM     49  C   UNL     1       8.670   9.570   7.723  1.00  0.00     0.049 A 
ATOM     50  H   UNL     1       8.461   8.003   9.080  1.00  0.00     0.167 HD
ATOM     51  C   UNL     1       7.731   4.671  11.800  1.00  0.00     0.037 A 
ATOM     52  C   UNL     1       8.787  10.706   8.436  1.00  0.00     0.037 A 
ATOM     53  C   UNL     1       7.942   5.812  12.654  1.00  0.00     0.049 A 
ATOM     54  C   UNL     1       8.768  10.636   9.935  1.00  0.00     0.074 A 
ATOM     55  C   UNL     1       7.967   5.865  14.037  1.00  0.00     0.029 A 
ATOM     56  N   UNL     1       8.159   7.106  12.203  1.00  0.00    -0.354 N 
ATOM     57  N   UNL     1       8.597   9.592  10.709  1.00  0.00    -0.248 NA
ATOM     58  C   UNL     1       8.971  11.897  10.661  1.00  0.00     0.031 C 
ATOM     59  C   UNL     1       8.168   7.196  14.422  1.00  0.00     0.029 A 
ATOM     60  C   UNL     1       8.305   7.967  13.279  1.00  0.00     0.049 A 
ATOM     61  H   UNL     1       8.203   7.373  11.256  1.00  0.00     0.167 HD
ATOM     62  C   UNL     1       8.684  10.065  12.011  1.00  0.00     0.074 A 
ATOM     63  C   UNL     1       8.945  11.488  11.922  1.00  0.00     0.031 C 
ATOM     64  C   UNL     1       8.555   9.383  13.175  1.00  0.00     0.037 A 
BRANCH  51  65
ATOM     65  C   UNL     1       7.436   3.341  12.432  1.00  0.00     0.057 A 
ATOM     66  C   UNL     1       8.363   2.289  12.400  1.00  0.00     0.134 A 
ATOM     67  C   UNL     1       6.213   3.102  13.070  1.00  0.00     0.134 A 
ATOM     68  F   UNL     1       9.550   2.448  11.795  1.00  0.00    -0.206 F 
ATOM     69  C   UNL     1       8.067   1.036  12.940  1.00  0.00     0.040 A 
ATOM     70  C   UNL     1       5.916   1.861  13.638  1.00  0.00     0.040 A 
ATOM     71  F   UNL     1       5.283   4.066  13.146  1.00  0.00    -0.206 F 
ATOM     72  C   UNL     1       6.840   0.821  13.563  1.00  0.00     0.006 A 
ENDBRANCH  51  65
BRANCH  52  73
ATOM     73  C   UNL     1       8.966  12.001   7.733  1.00  0.00     0.057 A 
ATOM     74  C   UNL     1      10.205  12.652   7.725  1.00  0.00     0.134 A 
ATOM     75  C   UNL     1       7.914  12.606   7.035  1.00  0.00     0.134 A 
ATOM     76  F   UNL     1      11.246  12.129   8.389  1.00  0.00    -0.206 F 
ATOM     77  C   UNL     1      10.389  13.864   7.058  1.00  0.00     0.040 A 
ATOM     78  C   UNL     1       8.089  13.807   6.346  1.00  0.00     0.040 A 
ATOM     79  F   UNL     1       6.705  12.026   6.997  1.00  0.00    -0.206 F 
ATOM     80  C   UNL     1       9.330  14.442   6.360  1.00  0.00     0.006 A 
ENDBRANCH  52  73
BRANCH  64  81
ATOM     81  C   UNL     1       8.704  10.170  14.443  1.00  0.00     0.057 A 
ATOM     82  C   UNL     1       7.708  11.050  14.884  1.00  0.00     0.134 A 
ATOM     83  C   UNL     1       9.845  10.029  15.242  1.00  0.00     0.134 A 
ATOM     84  F   UNL     1       6.598  11.242  14.155  1.00  0.00    -0.206 F 
ATOM     85  C   UNL     1       7.851  11.780  16.065  1.00  0.00     0.040 A 
ATOM     86  C   UNL     1       9.989  10.735  16.437  1.00  0.00     0.040 A 
ATOM     87  F   UNL     1      10.834   9.198  14.878  1.00  0.00    -0.206 F 
ATOM     88  C   UNL     1       8.992  11.618  16.849  1.00  0.00     0.006 A 
ENDBRANCH  64  81
ENDBRANCH  38  39
ENDBRANCH  30  33
ENDBRANCH  28  29
ENDBRANCH  27  28
ENDBRANCH  26  27
ENDBRANCH   1  26
TORSDOF 17
