REMARK SMILES C[C@@H]1C(C(=O)NCCCCNC(=O)c2ccc(-c3c4nc(c(-c5c(F)cccc5F)c5ccc([nH]5)c(-c5c(F)cccc5F)c5nc(c(-c6c(F)cccc6F)c6ccc3[nH]6)C=C5)C=C4)cc2)=NC2=C1C(=O)C[C@H](c1ccccc1)C2
REMARK SMILES IDX 9 1 8 2 7 3 6 4 4 5 5 6 3 8 1 9 2 10 70 11 68 12 69 13 71 14
REMARK SMILES IDX 81 15 72 16 73 17 74 18 75 19 76 20 80 21 77 22 79 23 78 24
REMARK SMILES IDX 10 25 11 26 12 27 13 29 14 30 15 31 67 32 16 33 66 34 17 35
REMARK SMILES IDX 18 36 19 37 60 38 20 39 65 40 59 41 61 42 21 43 64 44 58 45
REMARK SMILES IDX 57 46 22 48 48 49 31 50 47 51 32 52 35 53 46 54 62 55 33 56
REMARK SMILES IDX 34 57 45 59 63 60 36 61 23 62 24 63 29 64 25 65 26 66 28 67
REMARK SMILES IDX 30 68 27 69 49 70 50 71 55 72 51 73 52 74 54 75 56 76 53 77
REMARK SMILES IDX 37 78 38 79 43 80 39 81 40 82 42 83 44 84 41 85
REMARK H PARENT 6 7 11 28 61 47 35 58
REMARK Flexibility Score: inf
ROOT
ATOM      1  C   UNL     1      -2.858  -1.621  -1.672  1.00  0.00     0.023 C 
ENDROOT
BRANCH   1   2
ATOM      2  C   UNL     1      -2.052  -1.487  -0.383  1.00  0.00     0.023 C 
BRANCH   2   3
ATOM      3  C   UNL     1      -0.740  -0.697  -0.358  1.00  0.00     0.116 C 
BRANCH   3   4
ATOM      4  N   UNL     1      -0.747   0.719  -0.682  1.00  0.00    -0.351 N 
ATOM      5  C   UNL     1       0.143   1.716  -0.277  1.00  0.00     0.266 C 
ATOM      6  O   UNL     1       0.300   2.700  -0.995  1.00  0.00    -0.268 OA
ATOM      7  H   UNL     1      -1.480   1.016  -1.267  1.00  0.00     0.163 HD
BRANCH   5   8
ATOM      8  C   UNL     1       0.791   1.715   1.114  1.00  0.00     0.113 C 
ATOM      9  C   UNL     1       2.956   0.628   1.751  1.00  0.00     0.020 C 
ATOM     10  C   UNL     1       1.433   0.515   1.757  1.00  0.00     0.076 C 
ATOM     11  C   UNL     1       0.865   0.886   3.089  1.00  0.00     0.026 C 
ATOM     12  N   UNL     1       0.715   2.761   1.903  1.00  0.00    -0.251 NA
ATOM     13  C   UNL     1       0.741   2.215   3.172  1.00  0.00     0.049 C 
ATOM     14  C   UNL     1      -0.228   0.120   3.732  1.00  0.00     0.161 C 
ATOM     15  C   UNL     1      -0.031   2.840   4.298  1.00  0.00     0.065 C 
ATOM     16  O   UNL     1      -0.139  -1.106   3.789  1.00  0.00    -0.294 OA
ATOM     17  C   UNL     1      -1.514   0.852   4.183  1.00  0.00     0.089 C 
ATOM     18  C   UNL     1      -1.503   2.417   4.138  1.00  0.00     0.033 C 
BRANCH  18  19
ATOM     19  C   UNL     1      -2.186   3.088   2.928  1.00  0.00    -0.044 A 
ATOM     20  C   UNL     1      -1.712   4.321   2.424  1.00  0.00     0.004 A 
ATOM     21  C   UNL     1      -3.283   2.522   2.267  1.00  0.00     0.004 A 
ATOM     22  C   UNL     1      -2.168   4.853   1.218  1.00  0.00     0.000 A 
ATOM     23  C   UNL     1      -3.768   3.075   1.073  1.00  0.00     0.000 A 
ATOM     24  C   UNL     1      -3.184   4.215   0.527  1.00  0.00     0.000 A 
ENDBRANCH  18  19
ENDBRANCH   5   8
ENDBRANCH   3   4
ENDBRANCH   2   3
ENDBRANCH   1   2
BRANCH   1  25
ATOM     25  C   UNL     1      -2.073  -2.027  -2.904  1.00  0.00     0.116 C 
BRANCH  25  26
ATOM     26  N   UNL     1      -1.463  -3.357  -2.852  1.00  0.00    -0.352 N 
ATOM     27  C   UNL     1      -0.827  -4.026  -3.895  1.00  0.00     0.251 C 
ATOM     28  H   UNL     1      -1.507  -3.827  -1.988  1.00  0.00     0.163 HD
ATOM     29  O   UNL     1      -0.639  -5.228  -3.865  1.00  0.00    -0.269 OA
BRANCH  27  30
ATOM     30  C   UNL     1      -0.372  -3.224  -5.051  1.00  0.00     0.039 A 
ATOM     31  C   UNL     1      -0.534  -3.644  -6.374  1.00  0.00     0.014 A 
ATOM     32  C   UNL     1       0.171  -1.976  -4.765  1.00  0.00     0.014 A 
ATOM     33  C   UNL     1      -0.227  -2.748  -7.399  1.00  0.00     0.010 A 
ATOM     34  C   UNL     1       0.260  -1.035  -5.751  1.00  0.00     0.010 A 
ATOM     35  C   UNL     1       0.143  -1.432  -7.074  1.00  0.00    -0.014 A 
BRANCH  35  36
ATOM     36  C   UNL     1       0.293  -0.395  -8.089  1.00  0.00     0.031 A 
ATOM     37  C   UNL     1      -0.916  -0.227  -8.935  1.00  0.00     0.074 A 
ATOM     38  C   UNL     1       1.328   0.477  -8.100  1.00  0.00     0.049 A 
ATOM     39  N   UNL     1      -1.063  -0.596 -10.163  1.00  0.00    -0.248 NA
ATOM     40  C   UNL     1      -2.168   0.229  -8.305  1.00  0.00     0.031 C 
ATOM     41  C   UNL     1       2.412   0.602  -7.112  1.00  0.00     0.029 A 
ATOM     42  N   UNL     1       1.590   1.511  -8.950  1.00  0.00    -0.354 N 
ATOM     43  C   UNL     1      -2.336  -0.172 -10.536  1.00  0.00     0.074 A 
ATOM     44  C   UNL     1      -3.037   0.113  -9.313  1.00  0.00     0.031 C 
ATOM     45  C   UNL     1       3.065   1.773  -7.286  1.00  0.00     0.029 A 
ATOM     46  C   UNL     1       2.580   2.389  -8.505  1.00  0.00     0.049 A 
ATOM     47  H   UNL     1       1.121   1.628  -9.808  1.00  0.00     0.167 HD
ATOM     48  C   UNL     1      -2.578   0.211 -11.821  1.00  0.00     0.037 A 
ATOM     49  C   UNL     1       2.987   3.533  -9.108  1.00  0.00     0.037 A 
ATOM     50  C   UNL     1      -1.461  -0.144 -12.661  1.00  0.00     0.049 A 
ATOM     51  C   UNL     1       2.587   3.439 -10.527  1.00  0.00     0.074 A 
ATOM     52  C   UNL     1      -0.941  -1.296 -13.207  1.00  0.00     0.029 A 
ATOM     53  N   UNL     1      -0.467   0.799 -12.662  1.00  0.00    -0.354 N 
ATOM     54  N   UNL     1       3.115   2.588 -11.361  1.00  0.00    -0.248 NA
ATOM     55  C   UNL     1       1.321   4.025 -10.946  1.00  0.00     0.031 C 
ATOM     56  C   UNL     1       0.459  -1.061 -13.357  1.00  0.00     0.029 A 
ATOM     57  C   UNL     1       0.746   0.244 -12.957  1.00  0.00     0.049 A 
ATOM     58  H   UNL     1      -0.609   1.756 -12.475  1.00  0.00     0.167 HD
ATOM     59  C   UNL     1       2.060   2.203 -12.165  1.00  0.00     0.074 A 
ATOM     60  C   UNL     1       1.046   3.237 -11.990  1.00  0.00     0.031 C 
ATOM     61  C   UNL     1       1.980   0.922 -12.630  1.00  0.00     0.037 A 
BRANCH  48  62
ATOM     62  C   UNL     1      -3.513   1.324 -12.246  1.00  0.00     0.057 A 
ATOM     63  C   UNL     1      -3.724   1.542 -13.622  1.00  0.00     0.134 A 
ATOM     64  C   UNL     1      -3.945   2.371 -11.407  1.00  0.00     0.134 A 
ATOM     65  F   UNL     1      -3.344   0.629 -14.530  1.00  0.00    -0.206 F 
ATOM     66  C   UNL     1      -4.255   2.738 -14.124  1.00  0.00     0.040 A 
ATOM     67  C   UNL     1      -4.520   3.549 -11.896  1.00  0.00     0.040 A 
ATOM     68  F   UNL     1      -3.741   2.365 -10.085  1.00  0.00    -0.206 F 
ATOM     69  C   UNL     1      -4.648   3.750 -13.260  1.00  0.00     0.006 A 
ENDBRANCH  48  62
BRANCH  49  70
ATOM     70  C   UNL     1       3.523   4.787  -8.536  1.00  0.00     0.057 A 
ATOM     71  C   UNL     1       4.272   5.688  -9.308  1.00  0.00     0.134 A 
ATOM     72  C   UNL     1       3.044   5.274  -7.309  1.00  0.00     0.134 A 
ATOM     73  F   UNL     1       4.743   5.326 -10.510  1.00  0.00    -0.206 F 
ATOM     74  C   UNL     1       4.499   7.011  -8.901  1.00  0.00     0.040 A 
ATOM     75  C   UNL     1       3.262   6.592  -6.891  1.00  0.00     0.040 A 
ATOM     76  F   UNL     1       2.265   4.511  -6.527  1.00  0.00    -0.206 F 
ATOM     77  C   UNL     1       3.978   7.471  -7.696  1.00  0.00     0.006 A 
ENDBRANCH  49  70
BRANCH  61  78
ATOM     78  C   UNL     1       3.247   0.122 -12.656  1.00  0.00     0.057 A 
ATOM     79  C   UNL     1       3.934  -0.330 -11.521  1.00  0.00     0.134 A 
ATOM     80  C   UNL     1       3.743  -0.276 -13.901  1.00  0.00     0.134 A 
ATOM     81  F   UNL     1       3.492  -0.059 -10.287  1.00  0.00    -0.206 F 
ATOM     82  C   UNL     1       5.086  -1.115 -11.626  1.00  0.00     0.040 A 
ATOM     83  C   UNL     1       4.872  -1.086 -14.020  1.00  0.00     0.040 A 
ATOM     84  F   UNL     1       3.109   0.088 -15.027  1.00  0.00    -0.206 F 
ATOM     85  C   UNL     1       5.554  -1.500 -12.880  1.00  0.00     0.006 A 
ENDBRANCH  61  78
ENDBRANCH  35  36
ENDBRANCH  27  30
ENDBRANCH  25  26
ENDBRANCH   1  25
TORSDOF 12
