REMARK SMILES O=C(COCC(=O)N1CCC([NH+]2CCN(c3ccc(F)cc3)CC2)CC1)NCCCCNC(=O)c1ccc(-c2c3nc(c(-c4c(F)cccc4F)c4ccc([nH]4)c(-c4c(F)cccc4F)c4nc(c(-c5c(F)cccc5F)c5ccc2[nH]5)C=C4)C=C3)cc1
REMARK SMILES IDX 28 1 27 2 1 3 2 4 3 6 4 7 5 8 6 9 7 10 8 11 9 12 26 13 10 14
REMARK SMILES IDX 25 15 11 16 12 17 13 18 24 19 14 21 23 22 15 23 16 24 17 25
REMARK SMILES IDX 22 26 18 27 21 28 19 29 20 30 29 31 30 32 31 33 32 34 33 35
REMARK SMILES IDX 34 37 35 38 36 39 88 40 37 41 87 42 38 43 39 44 40 45 81 46
REMARK SMILES IDX 41 47 86 48 80 49 82 50 42 51 85 52 79 53 78 54 43 56 69 57
REMARK SMILES IDX 52 58 68 59 53 60 56 61 67 62 83 63 54 64 55 65 66 67 84 68
REMARK SMILES IDX 57 69 44 70 45 71 50 72 46 73 47 74 49 75 51 76 48 77 70 78
REMARK SMILES IDX 71 79 76 80 72 81 73 82 75 83 77 84 74 85 58 86 59 87 64 88
REMARK SMILES IDX 60 89 61 90 63 91 65 92 62 93
REMARK H PARENT 27 5 12 20 32 36 82 55 56 66
REMARK Flexibility Score: inf
ROOT
ATOM      1  C   UNL     1       2.099   2.279   1.086  1.00  0.00     0.116 C 
ENDROOT
BRANCH   1   2
ATOM      2  N   UNL     1       2.733   1.111   0.508  1.00  0.00    -0.354 N 
ATOM      3  O   UNL     1       0.897  -0.266   0.679  1.00  0.00    -0.272 OA
ATOM      4  C   UNL     1       2.058  -0.079   0.328  1.00  0.00     0.246 C 
ATOM      5  H   UNL     1       3.677   1.168   0.236  1.00  0.00     0.163 HD
BRANCH   4   6
ATOM      6  C   UNL     1       2.911  -1.191  -0.296  1.00  0.00     0.260 C 
BRANCH   6   7
ATOM      7  O   UNL     1       3.847  -0.790  -1.286  1.00  0.00    -0.362 OA
BRANCH   7   8
ATOM      8  C   UNL     1       3.252  -0.425  -2.517  1.00  0.00     0.260 C 
BRANCH   8   9
ATOM      9  C   UNL     1       2.476  -1.428  -3.401  1.00  0.00     0.248 C 
ATOM     10  O   UNL     1       1.324  -1.157  -3.753  1.00  0.00    -0.272 OA
ATOM     11  N   UNL     1       3.138  -2.551  -3.881  1.00  0.00    -0.340 N 
ATOM     12  C   UNL     1       2.521  -3.317  -4.954  1.00  0.00     0.125 C 
ATOM     13  C   UNL     1       4.147  -3.299  -3.143  1.00  0.00     0.125 C 
ATOM     14  C   UNL     1       1.745  -4.483  -4.359  1.00  0.00     0.086 C 
ATOM     15  C   UNL     1       3.481  -4.508  -2.473  1.00  0.00     0.086 C 
ATOM     16  C   UNL     1       2.643  -5.362  -3.471  1.00  0.00     0.187 C 
BRANCH  16  17
ATOM     17  N   UNL     1       1.960  -6.455  -2.754  1.00  0.00    -0.329 N 
ATOM     18  C   UNL     1       0.864  -6.070  -1.839  1.00  0.00     0.284 C 
ATOM     19  C   UNL     1       1.544  -7.608  -3.586  1.00  0.00     0.284 C 
ATOM     20  H   UNL     1       2.731  -6.762  -2.162  1.00  0.00     0.348 HD
ATOM     21  C   UNL     1      -0.552  -5.954  -2.444  1.00  0.00     0.178 C 
ATOM     22  C   UNL     1       0.118  -7.587  -4.202  1.00  0.00     0.178 C 
ATOM     23  N   UNL     1      -0.866  -7.154  -3.211  1.00  0.00    -0.360 N 
BRANCH  23  24
ATOM     24  C   UNL     1      -2.189  -7.533  -3.305  1.00  0.00     0.037 A 
ATOM     25  C   UNL     1      -2.557  -8.827  -2.913  1.00  0.00     0.029 A 
ATOM     26  C   UNL     1      -3.203  -6.629  -3.659  1.00  0.00     0.029 A 
ATOM     27  C   UNL     1      -3.900  -9.189  -2.804  1.00  0.00     0.041 A 
ATOM     28  C   UNL     1      -4.549  -6.992  -3.569  1.00  0.00     0.041 A 
ATOM     29  C   UNL     1      -4.884  -8.263  -3.124  1.00  0.00     0.123 A 
ATOM     30  F   UNL     1      -6.174  -8.595  -2.983  1.00  0.00    -0.207 F 
ENDBRANCH  23  24
ENDBRANCH  16  17
ENDBRANCH   8   9
ENDBRANCH   7   8
ENDBRANCH   6   7
ENDBRANCH   4   6
ENDBRANCH   1   2
BRANCH   1  31
ATOM     31  C   UNL     1       2.494   2.502   2.545  1.00  0.00     0.023 C 
BRANCH  31  32
ATOM     32  C   UNL     1       3.983   2.766   2.780  1.00  0.00     0.023 C 
BRANCH  32  33
ATOM     33  C   UNL     1       4.573   3.941   2.006  1.00  0.00     0.116 C 
BRANCH  33  34
ATOM     34  N   UNL     1       3.968   5.217   2.355  1.00  0.00    -0.352 N 
ATOM     35  C   UNL     1       4.565   6.403   2.715  1.00  0.00     0.251 C 
ATOM     36  H   UNL     1       2.984   5.234   2.330  1.00  0.00     0.163 HD
ATOM     37  O   UNL     1       3.879   7.339   3.108  1.00  0.00    -0.269 OA
BRANCH  35  38
ATOM     38  C   UNL     1       6.038   6.545   2.661  1.00  0.00     0.039 A 
ATOM     39  C   UNL     1       6.693   7.162   3.731  1.00  0.00     0.014 A 
ATOM     40  C   UNL     1       6.775   6.080   1.569  1.00  0.00     0.014 A 
ATOM     41  C   UNL     1       8.088   7.246   3.738  1.00  0.00     0.010 A 
ATOM     42  C   UNL     1       8.168   6.096   1.612  1.00  0.00     0.010 A 
ATOM     43  C   UNL     1       8.840   6.675   2.699  1.00  0.00    -0.014 A 
BRANCH  43  44
ATOM     44  C   UNL     1      10.326   6.659   2.742  1.00  0.00     0.031 A 
ATOM     45  C   UNL     1      11.129   7.380   1.695  1.00  0.00     0.074 A 
ATOM     46  C   UNL     1      10.957   5.945   3.696  1.00  0.00     0.049 A 
ATOM     47  N   UNL     1      12.427   7.419   1.531  1.00  0.00    -0.248 NA
ATOM     48  C   UNL     1      10.375   8.141   0.685  1.00  0.00     0.031 C 
ATOM     49  C   UNL     1      10.296   5.172   4.749  1.00  0.00     0.029 A 
ATOM     50  N   UNL     1      12.296   5.748   3.933  1.00  0.00    -0.354 N 
ATOM     51  C   UNL     1      12.643   8.201   0.404  1.00  0.00     0.074 A 
ATOM     52  C   UNL     1      11.343   8.569  -0.112  1.00  0.00     0.031 C 
ATOM     53  C   UNL     1      11.229   4.610   5.534  1.00  0.00     0.029 A 
ATOM     54  C   UNL     1      12.553   4.941   5.016  1.00  0.00     0.049 A 
ATOM     55  H   UNL     1      13.005   6.147   3.379  1.00  0.00     0.167 HD
ATOM     56  C   UNL     1      13.820   8.597  -0.137  1.00  0.00     0.037 A 
ATOM     57  C   UNL     1      13.720   4.507   5.531  1.00  0.00     0.037 A 
ATOM     58  C   UNL     1      15.113   8.248   0.390  1.00  0.00     0.049 A 
ATOM     59  C   UNL     1      15.012   4.937   4.894  1.00  0.00     0.074 A 
ATOM     60  C   UNL     1      16.360   8.642  -0.065  1.00  0.00     0.029 A 
ATOM     61  N   UNL     1      15.328   7.425   1.485  1.00  0.00    -0.354 N 
ATOM     62  N   UNL     1      15.201   5.716   3.857  1.00  0.00    -0.248 NA
ATOM     63  C   UNL     1      16.254   4.431   5.497  1.00  0.00     0.031 C 
ATOM     64  C   UNL     1      17.330   8.015   0.721  1.00  0.00     0.029 A 
ATOM     65  C   UNL     1      16.689   7.280   1.704  1.00  0.00     0.049 A 
ATOM     66  H   UNL     1      14.620   7.007   2.027  1.00  0.00     0.167 HD
ATOM     67  C   UNL     1      16.577   5.816   3.700  1.00  0.00     0.074 A 
ATOM     68  C   UNL     1      17.177   5.027   4.755  1.00  0.00     0.031 C 
ATOM     69  C   UNL     1      17.278   6.500   2.763  1.00  0.00     0.037 A 
BRANCH  56  70
ATOM     70  C   UNL     1      13.775   9.472  -1.357  1.00  0.00     0.057 A 
ATOM     71  C   UNL     1      14.236   9.003  -2.593  1.00  0.00     0.134 A 
ATOM     72  C   UNL     1      13.358  10.808  -1.288  1.00  0.00     0.134 A 
ATOM     73  F   UNL     1      14.658   7.736  -2.728  1.00  0.00    -0.206 F 
ATOM     74  C   UNL     1      14.302   9.835  -3.712  1.00  0.00     0.040 A 
ATOM     75  C   UNL     1      13.392  11.642  -2.406  1.00  0.00     0.040 A 
ATOM     76  F   UNL     1      12.895  11.317  -0.136  1.00  0.00    -0.206 F 
ATOM     77  C   UNL     1      13.877  11.159  -3.620  1.00  0.00     0.006 A 
ENDBRANCH  56  70
BRANCH  57  78
ATOM     78  C   UNL     1      13.715   3.633   6.732  1.00  0.00     0.057 A 
ATOM     79  C   UNL     1      13.235   2.318   6.681  1.00  0.00     0.134 A 
ATOM     80  C   UNL     1      14.174   4.102   7.969  1.00  0.00     0.134 A 
ATOM     81  F   UNL     1      12.774   1.809   5.528  1.00  0.00    -0.206 F 
ATOM     82  C   UNL     1      13.193   1.509   7.818  1.00  0.00     0.040 A 
ATOM     83  C   UNL     1      14.164   3.295   9.108  1.00  0.00     0.040 A 
ATOM     84  F   UNL     1      14.664   5.345   8.079  1.00  0.00    -0.206 F 
ATOM     85  C   UNL     1      13.663   1.996   9.035  1.00  0.00     0.006 A 
ENDBRANCH  57  78
BRANCH  69  86
ATOM     86  C   UNL     1      18.777   6.459   2.839  1.00  0.00     0.057 A 
ATOM     87  C   UNL     1      19.505   7.610   3.173  1.00  0.00     0.134 A 
ATOM     88  C   UNL     1      19.503   5.313   2.494  1.00  0.00     0.134 A 
ATOM     89  F   UNL     1      18.871   8.746   3.501  1.00  0.00    -0.206 F 
ATOM     90  C   UNL     1      20.899   7.627   3.141  1.00  0.00     0.040 A 
ATOM     91  C   UNL     1      20.899   5.309   2.487  1.00  0.00     0.040 A 
ATOM     92  F   UNL     1      18.867   4.176   2.174  1.00  0.00    -0.206 F 
ATOM     93  C   UNL     1      21.600   6.473   2.799  1.00  0.00     0.006 A 
ENDBRANCH  69  86
ENDBRANCH  43  44
ENDBRANCH  35  38
ENDBRANCH  33  34
ENDBRANCH  32  33
ENDBRANCH  31  32
ENDBRANCH   1  31
TORSDOF 16
