REMARK SMILES C[C@@H](Oc1ccccc1Cl)C(=O)Nc1ccc(C(=O)NCCCCNC(=O)c2ccc(-c3c4nc(c(-c5c(F)cccc5F)c5ccc([nH]5)c(-c5c(F)cccc5F)c5nc(c(-c6c(F)cccc6F)c6ccc3[nH]6)C=C5)C=C4)cc2)cc1
REMARK SMILES IDX 21 1 20 2 18 3 19 4 17 6 14 7 15 8 83 9 16 10 82 11 13 12
REMARK SMILES IDX 11 13 12 14 2 16 1 17 3 18 4 19 5 20 9 21 6 22 8 23 10 24
REMARK SMILES IDX 7 25 22 26 23 27 24 28 25 29 26 30 27 32 28 33 29 34 81 35
REMARK SMILES IDX 30 36 80 37 31 38 32 39 33 40 74 41 34 42 79 43 73 44 75 45
REMARK SMILES IDX 35 46 78 47 72 48 71 49 36 51 62 52 45 53 61 54 46 55 49 56
REMARK SMILES IDX 60 57 76 58 47 59 48 60 59 62 77 63 50 64 37 65 38 66 43 67
REMARK SMILES IDX 39 68 40 69 42 70 44 71 41 72 63 73 64 74 69 75 65 76 66 77
REMARK SMILES IDX 68 78 70 79 67 80 51 81 52 82 57 83 53 84 54 85 56 86 58 87
REMARK SMILES IDX 55 88
REMARK H PARENT 20 5 13 15 25 31 75 50 49 61
REMARK Flexibility Score: inf
ROOT
ATOM      1  C   UNL     1       2.653   1.369   4.739  1.00  0.00     0.116 C 
ENDROOT
BRANCH   1   2
ATOM      2  N   UNL     1       1.786   0.967   5.831  1.00  0.00    -0.352 N 
ATOM      3  C   UNL     1       0.565   0.335   5.820  1.00  0.00     0.251 C 
ATOM      4  O   UNL     1       0.061   0.009   6.894  1.00  0.00    -0.269 OA
ATOM      5  H   UNL     1       2.129   1.182   6.729  1.00  0.00     0.163 HD
BRANCH   3   6
ATOM      6  C   UNL     1      -0.121  -0.031   4.553  1.00  0.00     0.039 A 
ATOM      7  C   UNL     1      -1.187  -0.979   2.149  1.00  0.00     0.041 A 
ATOM      8  C   UNL     1      -1.377  -1.706   3.322  1.00  0.00     0.027 A 
ATOM      9  C   UNL     1      -0.617   0.290   2.207  1.00  0.00     0.027 A 
ATOM     10  C   UNL     1      -0.817  -1.247   4.517  1.00  0.00     0.016 A 
ATOM     11  C   UNL     1      -0.111   0.775   3.414  1.00  0.00     0.016 A 
BRANCH   7  12
ATOM     12  N   UNL     1      -1.599  -1.540   0.940  1.00  0.00    -0.323 N 
ATOM     13  C   UNL     1      -0.894  -1.683  -0.226  1.00  0.00     0.265 C 
ATOM     14  O   UNL     1      -1.510  -2.086  -1.221  1.00  0.00    -0.270 OA
ATOM     15  H   UNL     1      -2.523  -1.880   0.922  1.00  0.00     0.170 HD
BRANCH  13  16
ATOM     16  C   UNL     1       0.638  -1.442  -0.315  1.00  0.00     0.259 C 
ATOM     17  C   UNL     1       0.925  -0.082  -0.944  1.00  0.00     0.064 C 
BRANCH  16  18
ATOM     18  O   UNL     1       1.336  -1.579   0.924  1.00  0.00    -0.479 OA
BRANCH  18  19
ATOM     19  C   UNL     1       2.589  -2.120   0.810  1.00  0.00     0.139 A 
ATOM     20  C   UNL     1       2.729  -3.499   0.628  1.00  0.00     0.048 A 
ATOM     21  C   UNL     1       3.726  -1.327   1.009  1.00  0.00     0.083 A 
ATOM     22  C   UNL     1       4.003  -4.074   0.603  1.00  0.00     0.004 A 
ATOM     23  C   UNL     1       4.997  -1.906   0.983  1.00  0.00     0.024 A 
ATOM     24  Cl  UNL     1       3.615   0.372   1.286  1.00  0.00    -0.080 Cl
ATOM     25  C   UNL     1       5.135  -3.279   0.778  1.00  0.00     0.002 A 
ENDBRANCH  18  19
ENDBRANCH  16  18
ENDBRANCH  13  16
ENDBRANCH   7  12
ENDBRANCH   3   6
ENDBRANCH   1   2
BRANCH   1  26
ATOM     26  C   UNL     1       2.596   2.882   4.519  1.00  0.00     0.023 C 
BRANCH  26  27
ATOM     27  C   UNL     1       3.370   3.693   5.560  1.00  0.00     0.023 C 
BRANCH  27  28
ATOM     28  C   UNL     1       4.877   3.467   5.557  1.00  0.00     0.116 C 
BRANCH  28  29
ATOM     29  N   UNL     1       5.510   3.825   4.297  1.00  0.00    -0.352 N 
ATOM     30  C   UNL     1       6.729   4.421   4.088  1.00  0.00     0.251 C 
ATOM     31  H   UNL     1       4.996   3.610   3.485  1.00  0.00     0.163 HD
ATOM     32  O   UNL     1       7.072   4.760   2.959  1.00  0.00    -0.269 OA
BRANCH  30  33
ATOM     33  C   UNL     1       7.616   4.690   5.240  1.00  0.00     0.039 A 
ATOM     34  C   UNL     1       8.198   5.954   5.362  1.00  0.00     0.014 A 
ATOM     35  C   UNL     1       7.855   3.708   6.205  1.00  0.00     0.014 A 
ATOM     36  C   UNL     1       8.966   6.255   6.489  1.00  0.00     0.010 A 
ATOM     37  C   UNL     1       8.559   4.032   7.361  1.00  0.00     0.010 A 
ATOM     38  C   UNL     1       9.122   5.308   7.514  1.00  0.00    -0.014 A 
BRANCH  38  39
ATOM     39  C   UNL     1       9.873   5.634   8.752  1.00  0.00     0.031 A 
ATOM     40  C   UNL     1      11.141   4.898   9.083  1.00  0.00     0.074 A 
ATOM     41  C   UNL     1       9.382   6.551   9.609  1.00  0.00     0.049 A 
ATOM     42  N   UNL     1      11.905   4.998  10.142  1.00  0.00    -0.248 NA
ATOM     43  C   UNL     1      11.598   3.896   8.107  1.00  0.00     0.031 C 
ATOM     44  C   UNL     1       8.136   7.299   9.427  1.00  0.00     0.029 A 
ATOM     45  N   UNL     1       9.868   7.003  10.810  1.00  0.00    -0.354 N 
ATOM     46  C   UNL     1      12.921   4.069   9.964  1.00  0.00     0.074 A 
ATOM     47  C   UNL     1      12.647   3.374   8.725  1.00  0.00     0.031 C 
ATOM     48  C   UNL     1       7.971   8.135  10.464  1.00  0.00     0.029 A 
ATOM     49  C   UNL     1       9.076   7.958  11.400  1.00  0.00     0.049 A 
ATOM     50  H   UNL     1      10.705   6.674  11.210  1.00  0.00     0.167 HD
ATOM     51  C   UNL     1      14.001   3.834  10.748  1.00  0.00     0.037 A 
ATOM     52  C   UNL     1       9.225   8.614  12.566  1.00  0.00     0.037 A 
ATOM     53  C   UNL     1      14.284   4.541  11.969  1.00  0.00     0.049 A 
ATOM     54  C   UNL     1      10.428   8.330  13.421  1.00  0.00     0.074 A 
ATOM     55  C   UNL     1      15.376   4.410  12.809  1.00  0.00     0.029 A 
ATOM     56  N   UNL     1      13.467   5.514  12.524  1.00  0.00    -0.354 N 
ATOM     57  N   UNL     1      11.416   7.494  13.209  1.00  0.00    -0.248 NA
ATOM     58  C   UNL     1      10.542   9.088  14.676  1.00  0.00     0.031 C 
ATOM     59  C   UNL     1      15.201   5.276  13.893  1.00  0.00     0.029 A 
ATOM     60  C   UNL     1      14.023   5.981  13.704  1.00  0.00     0.049 A 
ATOM     61  H   UNL     1      12.617   5.827  12.138  1.00  0.00     0.167 HD
ATOM     62  C   UNL     1      12.282   7.647  14.284  1.00  0.00     0.074 A 
ATOM     63  C   UNL     1      11.710   8.666  15.140  1.00  0.00     0.031 C 
ATOM     64  C   UNL     1      13.447   7.004  14.539  1.00  0.00     0.037 A 
BRANCH  51  65
ATOM     65  C   UNL     1      14.961   2.771  10.298  1.00  0.00     0.057 A 
ATOM     66  C   UNL     1      15.785   2.948   9.179  1.00  0.00     0.134 A 
ATOM     67  C   UNL     1      15.084   1.569  11.007  1.00  0.00     0.134 A 
ATOM     68  F   UNL     1      15.708   4.071   8.449  1.00  0.00    -0.206 F 
ATOM     69  C   UNL     1      16.678   1.958   8.765  1.00  0.00     0.040 A 
ATOM     70  C   UNL     1      15.993   0.583  10.618  1.00  0.00     0.040 A 
ATOM     71  F   UNL     1      14.329   1.336  12.091  1.00  0.00    -0.206 F 
ATOM     72  C   UNL     1      16.788   0.773   9.490  1.00  0.00     0.006 A 
ENDBRANCH  51  65
BRANCH  52  73
ATOM     73  C   UNL     1       8.224   9.629  12.984  1.00  0.00     0.057 A 
ATOM     74  C   UNL     1       8.546  10.991  13.003  1.00  0.00     0.134 A 
ATOM     75  C   UNL     1       6.935   9.265  13.389  1.00  0.00     0.134 A 
ATOM     76  F   UNL     1       9.772  11.400  12.644  1.00  0.00    -0.206 F 
ATOM     77  C   UNL     1       7.630  11.954  13.430  1.00  0.00     0.040 A 
ATOM     78  C   UNL     1       6.000  10.219  13.795  1.00  0.00     0.040 A 
ATOM     79  F   UNL     1       6.563   7.977  13.386  1.00  0.00    -0.206 F 
ATOM     80  C   UNL     1       6.350  11.568  13.824  1.00  0.00     0.006 A 
ENDBRANCH  52  73
BRANCH  64  81
ATOM     81  C   UNL     1      14.201   7.412  15.770  1.00  0.00     0.057 A 
ATOM     82  C   UNL     1      13.758   7.077  17.056  1.00  0.00     0.134 A 
ATOM     83  C   UNL     1      15.403   8.124  15.664  1.00  0.00     0.134 A 
ATOM     84  F   UNL     1      12.608   6.408  17.226  1.00  0.00    -0.206 F 
ATOM     85  C   UNL     1      14.472   7.457  18.194  1.00  0.00     0.040 A 
ATOM     86  C   UNL     1      16.139   8.486  16.793  1.00  0.00     0.040 A 
ATOM     87  F   UNL     1      15.887   8.468  14.461  1.00  0.00    -0.206 F 
ATOM     88  C   UNL     1      15.669   8.159  18.063  1.00  0.00     0.006 A 
ENDBRANCH  64  81
ENDBRANCH  38  39
ENDBRANCH  30  33
ENDBRANCH  28  29
ENDBRANCH  27  28
ENDBRANCH  26  27
ENDBRANCH   1  26
TORSDOF 15
