REMARK SMILES O=C(NCCCCNC(=O)[C@@H]1[C@@H](C(=O)NCCn2cc(Cl)cn2)[C@H]2CC[C@@H]1O2)c1ccc(-c2c3nc(c(-c4c(F)cccc4F)c4ccc([nH]4)c(-c4c(F)cccc4F)c4nc(c(-c5c(F)cccc5F)c5ccc2[nH]5)C=C4)C=C3)cc1
REMARK SMILES IDX 6 1 5 2 4 3 3 4 1 5 2 6 29 8 30 9 82 10 31 11 81 12 32 13
REMARK SMILES IDX 33 14 34 15 75 16 35 17 80 18 74 19 76 20 36 21 79 22 73 23
REMARK SMILES IDX 72 24 37 26 63 27 46 28 62 29 47 30 50 31 61 32 77 33 48 34
REMARK SMILES IDX 49 35 60 37 78 38 51 39 38 40 39 41 44 42 40 43 41 44 43 45
REMARK SMILES IDX 45 46 42 47 64 48 65 49 70 50 66 51 67 52 69 53 71 54 68 55
REMARK SMILES IDX 52 56 53 57 58 58 54 59 55 60 57 61 59 62 56 63 7 64 8 65
REMARK SMILES IDX 9 66 10 68 11 69 12 70 27 71 24 72 26 73 28 74 25 75 13 76
REMARK SMILES IDX 14 77 15 78 16 80 17 81 18 82 19 83 23 84 20 85 22 86 21 87
REMARK H PARENT 3 7 76 25 50 36 8 67 15 79
REMARK Flexibility Score: inf
ROOT
ATOM      1  C   UNL     1       5.081   2.100  -2.075  1.00  0.00     0.023 C 
ENDROOT
BRANCH   1   2
ATOM      2  C   UNL     1       5.533   0.941  -1.190  1.00  0.00     0.023 C 
BRANCH   2   3
ATOM      3  C   UNL     1       4.868   0.897   0.188  1.00  0.00     0.116 C 
BRANCH   3   4
ATOM      4  N   UNL     1       3.429   1.084   0.158  1.00  0.00    -0.352 N 
ATOM      5  O   UNL     1       1.253   0.814   0.339  1.00  0.00    -0.269 OA
ATOM      6  C   UNL     1       2.336   0.262   0.152  1.00  0.00     0.251 C 
ATOM      7  H   UNL     1       3.179   2.036   0.137  1.00  0.00     0.163 HD
BRANCH   6   8
ATOM      8  C   UNL     1       2.347  -1.200  -0.122  1.00  0.00     0.039 A 
ATOM      9  C   UNL     1       3.442  -1.934  -0.574  1.00  0.00     0.014 A 
ATOM     10  C   UNL     1       1.100  -1.847  -0.011  1.00  0.00     0.014 A 
ATOM     11  C   UNL     1       3.276  -3.252  -0.995  1.00  0.00     0.010 A 
ATOM     12  C   UNL     1       0.930  -3.163  -0.421  1.00  0.00     0.010 A 
ATOM     13  C   UNL     1       2.013  -3.850  -0.956  1.00  0.00    -0.014 A 
BRANCH  13  14
ATOM     14  C   UNL     1       1.895  -5.257  -1.333  1.00  0.00     0.031 A 
ATOM     15  C   UNL     1       2.629  -6.189  -0.424  1.00  0.00     0.074 A 
ATOM     16  C   UNL     1       1.073  -5.702  -2.306  1.00  0.00     0.049 A 
ATOM     17  N   UNL     1       3.577  -7.019  -0.715  1.00  0.00    -0.248 NA
ATOM     18  C   UNL     1       2.349  -6.089   1.020  1.00  0.00     0.031 C 
ATOM     19  C   UNL     1       0.081  -4.940  -3.070  1.00  0.00     0.029 A 
ATOM     20  N   UNL     1       0.884  -6.975  -2.758  1.00  0.00    -0.354 N 
ATOM     21  C   UNL     1       3.888  -7.681   0.475  1.00  0.00     0.074 A 
ATOM     22  C   UNL     1       3.218  -6.963   1.525  1.00  0.00     0.031 C 
ATOM     23  C   UNL     1      -0.748  -5.797  -3.710  1.00  0.00     0.029 A 
ATOM     24  C   UNL     1      -0.271  -7.154  -3.511  1.00  0.00     0.049 A 
ATOM     25  H   UNL     1       1.514  -7.707  -2.566  1.00  0.00     0.167 HD
ATOM     26  C   UNL     1       4.489  -8.903   0.475  1.00  0.00     0.037 A 
ATOM     27  C   UNL     1      -0.824  -8.339  -3.882  1.00  0.00     0.037 A 
ATOM     28  C   UNL     1       5.162  -9.150  -0.774  1.00  0.00     0.049 A 
ATOM     29  C   UNL     1       0.221  -9.384  -3.749  1.00  0.00     0.074 A 
ATOM     30  C   UNL     1       6.192  -8.542  -1.465  1.00  0.00     0.029 A 
ATOM     31  N   UNL     1       4.551  -9.979  -1.681  1.00  0.00    -0.354 N 
ATOM     32  N   UNL     1       1.277  -9.457  -4.508  1.00  0.00    -0.248 NA
ATOM     33  C   UNL     1       0.319 -10.072  -2.470  1.00  0.00     0.031 C 
ATOM     34  C   UNL     1       5.824  -8.648  -2.838  1.00  0.00     0.029 A 
ATOM     35  C   UNL     1       4.630  -9.366  -2.902  1.00  0.00     0.049 A 
ATOM     36  H   UNL     1       4.135 -10.851  -1.489  1.00  0.00     0.167 HD
ATOM     37  C   UNL     1       2.304  -9.812  -3.647  1.00  0.00     0.074 A 
ATOM     38  C   UNL     1       1.641 -10.248  -2.420  1.00  0.00     0.031 C 
ATOM     39  C   UNL     1       3.595  -9.450  -3.903  1.00  0.00     0.037 A 
BRANCH  26  40
ATOM     40  C   UNL     1       4.130 -10.027   1.427  1.00  0.00     0.057 A 
ATOM     41  C   UNL     1       4.821 -11.251   1.325  1.00  0.00     0.134 A 
ATOM     42  C   UNL     1       2.949 -10.077   2.195  1.00  0.00     0.134 A 
ATOM     43  F   UNL     1       5.970 -11.341   0.637  1.00  0.00    -0.206 F 
ATOM     44  C   UNL     1       4.311 -12.449   1.840  1.00  0.00     0.040 A 
ATOM     45  C   UNL     1       2.456 -11.260   2.752  1.00  0.00     0.040 A 
ATOM     46  F   UNL     1       2.154  -9.017   2.372  1.00  0.00    -0.206 F 
ATOM     47  C   UNL     1       3.113 -12.460   2.541  1.00  0.00     0.006 A 
ENDBRANCH  26  40
BRANCH  27  48
ATOM     48  C   UNL     1      -2.260  -8.687  -4.014  1.00  0.00     0.057 A 
ATOM     49  C   UNL     1      -2.678  -9.839  -4.697  1.00  0.00     0.134 A 
ATOM     50  C   UNL     1      -3.238  -8.051  -3.229  1.00  0.00     0.134 A 
ATOM     51  F   UNL     1      -1.808 -10.547  -5.432  1.00  0.00    -0.206 F 
ATOM     52  C   UNL     1      -3.986 -10.336  -4.595  1.00  0.00     0.040 A 
ATOM     53  C   UNL     1      -4.548  -8.533  -3.122  1.00  0.00     0.040 A 
ATOM     54  F   UNL     1      -2.931  -6.992  -2.466  1.00  0.00    -0.206 F 
ATOM     55  C   UNL     1      -4.923  -9.688  -3.796  1.00  0.00     0.006 A 
ENDBRANCH  27  48
BRANCH  39  56
ATOM     56  C   UNL     1       3.912  -8.863  -5.248  1.00  0.00     0.057 A 
ATOM     57  C   UNL     1       3.403  -7.639  -5.709  1.00  0.00     0.134 A 
ATOM     58  C   UNL     1       4.895  -9.475  -6.032  1.00  0.00     0.134 A 
ATOM     59  F   UNL     1       2.533  -6.929  -4.980  1.00  0.00    -0.206 F 
ATOM     60  C   UNL     1       3.829  -7.071  -6.914  1.00  0.00     0.040 A 
ATOM     61  C   UNL     1       5.353  -8.902  -7.220  1.00  0.00     0.040 A 
ATOM     62  F   UNL     1       5.468 -10.619  -5.625  1.00  0.00    -0.206 F 
ATOM     63  C   UNL     1       4.814  -7.699  -7.669  1.00  0.00     0.006 A 
ENDBRANCH  39  56
ENDBRANCH  13  14
ENDBRANCH   6   8
ENDBRANCH   3   4
ENDBRANCH   2   3
ENDBRANCH   1   2
BRANCH   1  64
ATOM     64  C   UNL     1       5.545   3.507  -1.707  1.00  0.00     0.116 C 
BRANCH  64  65
ATOM     65  N   UNL     1       6.872   3.736  -2.237  1.00  0.00    -0.356 N 
ATOM     66  C   UNL     1       7.301   4.437  -3.322  1.00  0.00     0.226 C 
ATOM     67  H   UNL     1       7.594   3.308  -1.721  1.00  0.00     0.163 HD
ATOM     68  O   UNL     1       8.437   4.156  -3.712  1.00  0.00    -0.275 OA
BRANCH  66  69
ATOM     69  C   UNL     1       6.455   5.541  -3.971  1.00  0.00     0.122 C 
ATOM     70  C   UNL     1       6.260   5.343  -5.497  1.00  0.00     0.122 C 
ATOM     71  C   UNL     1       7.333   6.811  -3.945  1.00  0.00     0.132 C 
ATOM     72  C   UNL     1       7.106   6.508  -6.083  1.00  0.00     0.132 C 
ATOM     73  C   UNL     1       6.548   8.054  -4.373  1.00  0.00     0.035 C 
ATOM     74  O   UNL     1       8.176   6.598  -5.107  1.00  0.00    -0.373 OA
ATOM     75  C   UNL     1       6.569   7.928  -5.894  1.00  0.00     0.035 C 
BRANCH  70  76
ATOM     76  C   UNL     1       4.810   5.389  -5.969  1.00  0.00     0.226 C 
ATOM     77  O   UNL     1       4.257   6.435  -6.323  1.00  0.00    -0.275 OA
ATOM     78  N   UNL     1       4.020   4.292  -6.027  1.00  0.00    -0.354 N 
ATOM     79  H   UNL     1       3.117   4.478  -6.372  1.00  0.00     0.163 HD
BRANCH  78  80
ATOM     80  C   UNL     1       4.232   2.902  -5.685  1.00  0.00     0.139 C 
BRANCH  80  81
ATOM     81  C   UNL     1       3.275   2.444  -4.590  1.00  0.00     0.165 C 
BRANCH  81  82
ATOM     82  N   UNL     1       1.875   2.300  -4.930  1.00  0.00    -0.269 N 
ATOM     83  C   UNL     1       1.222   1.114  -5.119  1.00  0.00     0.129 A 
ATOM     84  N   UNL     1       1.040   3.343  -4.736  1.00  0.00    -0.180 NA
ATOM     85  C   UNL     1      -0.114   1.393  -4.975  1.00  0.00     0.079 A 
ATOM     86  C   UNL     1      -0.172   2.777  -4.735  1.00  0.00     0.155 A 
ATOM     87  Cl  UNL     1      -1.416   0.316  -5.018  1.00  0.00    -0.081 Cl
ENDBRANCH  81  82
ENDBRANCH  80  81
ENDBRANCH  78  80
ENDBRANCH  70  76
ENDBRANCH  66  69
ENDBRANCH  64  65
ENDBRANCH   1  64
TORSDOF 15
