REMARK SMILES COc1cc([C@H]2CC(c3ccc(S(C)(=O)=O)cc3)=NN2c2ccc(C(=O)NCCCCNC(=O)c3ccc(-c4c5nc(c(-c6c(F)cccc6F)c6ccc([nH]6)c(-c6c(F)cccc6F)c6nc(c(-c7c(F)cccc7F)c7ccc4[nH]7)C=C6)C=C5)cc3)cc2)cc(OC)c1OC
REMARK SMILES IDX 29 1 28 2 27 3 25 4 26 5 24 7 21 8 22 9 90 10 23 11 89 12
REMARK SMILES IDX 20 13 6 14 7 15 8 16 19 17 5 18 3 19 4 20 95 21 92 22 91 23
REMARK SMILES IDX 2 24 1 25 96 26 97 27 93 28 94 29 9 30 10 31 18 32 11 33
REMARK SMILES IDX 17 34 12 35 13 36 14 37 15 38 16 39 30 40 31 41 32 42 33 43
REMARK SMILES IDX 34 45 35 46 36 47 88 48 37 49 87 50 38 51 39 52 40 53 81 54
REMARK SMILES IDX 41 55 86 56 80 57 82 58 42 59 85 60 79 61 78 62 43 64 69 65
REMARK SMILES IDX 52 66 68 67 53 68 56 69 67 70 83 71 54 72 55 73 66 75 84 76
REMARK SMILES IDX 57 77 44 78 45 79 50 80 46 81 47 82 49 83 51 84 48 85 70 86
REMARK SMILES IDX 71 87 76 88 72 89 73 90 75 91 77 92 74 93 58 94 59 95 64 96
REMARK SMILES IDX 60 97 61 98 63 99 65 100 62 101
REMARK H PARENT 27 6 32 44 82 63 56 74
REMARK Flexibility Score: inf
ROOT
ATOM      1  C   UNL     1      -1.545  -8.986   0.773  1.00  0.00     0.023 C 
ENDROOT
BRANCH   1   2
ATOM      2  C   UNL     1      -0.353  -8.075   1.075  1.00  0.00     0.116 C 
BRANCH   2   3
ATOM      3  N   UNL     1       0.867  -8.651   0.552  1.00  0.00    -0.352 N 
ATOM      4  C   UNL     1       1.518  -8.485  -0.644  1.00  0.00     0.251 C 
ATOM      5  O   UNL     1       2.561  -9.121  -0.804  1.00  0.00    -0.269 OA
ATOM      6  H   UNL     1       1.311  -9.277   1.167  1.00  0.00     0.163 HD
BRANCH   4   7
ATOM      7  C   UNL     1       1.057  -7.557  -1.719  1.00  0.00     0.039 A 
ATOM      8  C   UNL     1       0.383  -5.770  -3.809  1.00  0.00     0.060 A 
ATOM      9  C   UNL     1       1.689  -6.247  -3.666  1.00  0.00     0.029 A 
ATOM     10  C   UNL     1      -0.588  -6.223  -2.920  1.00  0.00     0.029 A 
ATOM     11  C   UNL     1       2.029  -7.113  -2.624  1.00  0.00     0.016 A 
ATOM     12  C   UNL     1      -0.262  -7.136  -1.913  1.00  0.00     0.016 A 
BRANCH   8  13
ATOM     13  N   UNL     1       0.068  -4.897  -4.830  1.00  0.00    -0.257 N 
ATOM     14  C   UNL     1      -0.433  -3.533  -4.659  1.00  0.00     0.144 C 
ATOM     15  C   UNL     1      -0.607  -3.067  -6.117  1.00  0.00     0.091 C 
ATOM     16  C   UNL     1      -0.245  -4.335  -6.846  1.00  0.00     0.071 C 
ATOM     17  N   UNL     1       0.135  -5.327  -6.108  1.00  0.00    -0.176 NA
BRANCH  14  18
ATOM     18  C   UNL     1       0.543  -2.713  -3.828  1.00  0.00    -0.015 A 
ATOM     19  C   UNL     1       1.185  -1.691  -1.702  1.00  0.00     0.164 A 
ATOM     20  C   UNL     1       0.221  -2.298  -2.530  1.00  0.00     0.056 A 
ATOM     21  C   UNL     1       2.513  -1.511  -2.137  1.00  0.00     0.203 A 
ATOM     22  C   UNL     1       2.830  -1.900  -3.455  1.00  0.00     0.164 A 
ATOM     23  C   UNL     1       1.849  -2.480  -4.277  1.00  0.00     0.056 A 
BRANCH  19  24
ATOM     24  O   UNL     1       0.799  -1.408  -0.415  1.00  0.00    -0.493 OA
ATOM     25  C   UNL     1       0.064  -0.185  -0.343  1.00  0.00     0.278 C 
ENDBRANCH  19  24
BRANCH  21  26
ATOM     26  O   UNL     1       3.545  -1.009  -1.395  1.00  0.00    -0.490 OA
ATOM     27  C   UNL     1       3.336  -0.479  -0.099  1.00  0.00     0.278 C 
ENDBRANCH  21  26
BRANCH  22  28
ATOM     28  O   UNL     1       4.031  -1.802  -4.114  1.00  0.00    -0.493 OA
ATOM     29  C   UNL     1       5.206  -1.518  -3.372  1.00  0.00     0.278 C 
ENDBRANCH  22  28
ENDBRANCH  14  18
BRANCH  16  30
ATOM     30  C   UNL     1      -0.363  -4.471  -8.302  1.00  0.00    -0.002 A 
ATOM     31  C   UNL     1      -1.083  -5.564  -8.802  1.00  0.00     0.011 A 
ATOM     32  C   UNL     1       0.285  -3.585  -9.164  1.00  0.00     0.011 A 
ATOM     33  C   UNL     1      -1.173  -5.767 -10.178  1.00  0.00     0.021 A 
ATOM     34  C   UNL     1       0.218  -3.802 -10.544  1.00  0.00     0.021 A 
ATOM     35  C   UNL     1      -0.508  -4.893 -11.041  1.00  0.00     0.067 A 
BRANCH  35  36
ATOM     36  S   UNL     1      -0.611  -5.170 -12.795  1.00  0.00     0.175 S 
ATOM     37  C   UNL     1       0.130  -6.764 -13.035  1.00  0.00     0.163 C 
ATOM     38  O   UNL     1      -2.024  -5.269 -13.116  1.00  0.00    -0.224 OA
ATOM     39  O   UNL     1       0.235  -4.191 -13.445  1.00  0.00    -0.224 OA
ENDBRANCH  35  36
ENDBRANCH  16  30
ENDBRANCH   8  13
ENDBRANCH   4   7
ENDBRANCH   2   3
ENDBRANCH   1   2
BRANCH   1  40
ATOM     40  C   UNL     1      -1.679 -10.182   1.720  1.00  0.00     0.023 C 
BRANCH  40  41
ATOM     41  C   UNL     1      -1.909  -9.815   3.181  1.00  0.00     0.116 C 
BRANCH  41  42
ATOM     42  N   UNL     1      -3.062  -8.953   3.379  1.00  0.00    -0.352 N 
ATOM     43  C   UNL     1      -3.862  -8.822   4.485  1.00  0.00     0.251 C 
ATOM     44  H   UNL     1      -3.303  -8.384   2.613  1.00  0.00     0.163 HD
ATOM     45  O   UNL     1      -4.864  -8.115   4.436  1.00  0.00    -0.269 OA
BRANCH  43  46
ATOM     46  C   UNL     1      -3.542  -9.566   5.720  1.00  0.00     0.039 A 
ATOM     47  C   UNL     1      -4.583 -10.215   6.389  1.00  0.00     0.014 A 
ATOM     48  C   UNL     1      -2.239  -9.625   6.221  1.00  0.00     0.014 A 
ATOM     49  C   UNL     1      -4.308 -10.960   7.535  1.00  0.00     0.010 A 
ATOM     50  C   UNL     1      -1.955 -10.427   7.323  1.00  0.00     0.010 A 
ATOM     51  C   UNL     1      -2.988 -11.092   7.996  1.00  0.00    -0.014 A 
BRANCH  51  52
ATOM     52  C   UNL     1      -2.689 -11.927   9.183  1.00  0.00     0.031 A 
ATOM     53  C   UNL     1      -2.176 -11.302  10.448  1.00  0.00     0.074 A 
ATOM     54  C   UNL     1      -2.843 -13.262   9.102  1.00  0.00     0.049 A 
ATOM     55  N   UNL     1      -1.905 -11.869  11.596  1.00  0.00    -0.248 NA
ATOM     56  C   UNL     1      -1.903  -9.858  10.411  1.00  0.00     0.031 C 
ATOM     57  C   UNL     1      -3.248 -13.994   7.901  1.00  0.00     0.029 A 
ATOM     58  N   UNL     1      -2.672 -14.239  10.048  1.00  0.00    -0.354 N 
ATOM     59  C   UNL     1      -1.421 -10.855  12.412  1.00  0.00     0.074 A 
ATOM     60  C   UNL     1      -1.380  -9.652  11.610  1.00  0.00     0.031 C 
ATOM     61  C   UNL     1      -3.320 -15.303   8.190  1.00  0.00     0.029 A 
ATOM     62  C   UNL     1      -2.954 -15.502   9.589  1.00  0.00     0.049 A 
ATOM     63  H   UNL     1      -2.377 -14.053  10.969  1.00  0.00     0.167 HD
ATOM     64  C   UNL     1      -1.068 -10.915  13.718  1.00  0.00     0.037 A 
ATOM     65  C   UNL     1      -2.933 -16.686  10.228  1.00  0.00     0.037 A 
ATOM     66  C   UNL     1      -1.131 -12.111  14.517  1.00  0.00     0.049 A 
ATOM     67  C   UNL     1      -2.601 -16.722  11.692  1.00  0.00     0.074 A 
ATOM     68  C   UNL     1      -0.873 -12.264  15.867  1.00  0.00     0.029 A 
ATOM     69  N   UNL     1      -1.473 -13.365  14.031  1.00  0.00    -0.354 N 
ATOM     70  N   UNL     1      -2.250 -15.737  12.483  1.00  0.00    -0.248 NA
ATOM     71  C   UNL     1      -2.685 -18.029  12.357  1.00  0.00     0.031 C 
ATOM     72  C   UNL     1      -1.022 -13.618  16.191  1.00  0.00     0.029 A 
ATOM     73  C   UNL     1      -1.415 -14.301  15.050  1.00  0.00     0.049 A 
ATOM     74  H   UNL     1      -1.720 -13.561  13.098  1.00  0.00     0.167 HD
ATOM     75  C   UNL     1      -2.090 -16.299  13.742  1.00  0.00     0.074 A 
ATOM     76  C   UNL     1      -2.400 -17.709  13.612  1.00  0.00     0.031 C 
ATOM     77  C   UNL     1      -1.721 -15.702  14.902  1.00  0.00     0.037 A 
BRANCH  64  78
ATOM     78  C   UNL     1      -0.585  -9.645  14.356  1.00  0.00     0.057 A 
ATOM     79  C   UNL     1      -1.447  -8.567  14.601  1.00  0.00     0.134 A 
ATOM     80  C   UNL     1       0.755  -9.496  14.732  1.00  0.00     0.134 A 
ATOM     81  F   UNL     1      -2.741  -8.638  14.254  1.00  0.00    -0.206 F 
ATOM     82  C   UNL     1      -0.986  -7.374  15.160  1.00  0.00     0.040 A 
ATOM     83  C   UNL     1       1.223  -8.318  15.318  1.00  0.00     0.040 A 
ATOM     84  F   UNL     1       1.634 -10.490  14.532  1.00  0.00    -0.206 F 
ATOM     85  C   UNL     1       0.353  -7.249  15.524  1.00  0.00     0.006 A 
ENDBRANCH  64  78
BRANCH  65  86
ATOM     86  C   UNL     1      -3.294 -17.919   9.489  1.00  0.00     0.057 A 
ATOM     87  C   UNL     1      -4.527 -18.549   9.691  1.00  0.00     0.134 A 
ATOM     88  C   UNL     1      -2.433 -18.472   8.535  1.00  0.00     0.134 A 
ATOM     89  F   UNL     1      -5.388 -18.070  10.601  1.00  0.00    -0.206 F 
ATOM     90  C   UNL     1      -4.888 -19.693   8.978  1.00  0.00     0.040 A 
ATOM     91  C   UNL     1      -2.789 -19.604   7.800  1.00  0.00     0.040 A 
ATOM     92  F   UNL     1      -1.243 -17.905   8.287  1.00  0.00    -0.206 F 
ATOM     93  C   UNL     1      -4.019 -20.219   8.023  1.00  0.00     0.006 A 
ENDBRANCH  65  86
BRANCH  77  94
ATOM     94  C   UNL     1      -1.650 -16.570  16.123  1.00  0.00     0.057 A 
ATOM     95  C   UNL     1      -0.624 -17.506  16.305  1.00  0.00     0.134 A 
ATOM     96  C   UNL     1      -2.604 -16.448  17.141  1.00  0.00     0.134 A 
ATOM     97  F   UNL     1       0.313 -17.679  15.362  1.00  0.00    -0.206 F 
ATOM     98  C   UNL     1      -0.565 -18.309  17.446  1.00  0.00     0.040 A 
ATOM     99  C   UNL     1      -2.542 -17.227  18.297  1.00  0.00     0.040 A 
ATOM    100  F   UNL     1      -3.608 -15.564  17.032  1.00  0.00    -0.206 F 
ATOM    101  C   UNL     1      -1.523 -18.166  18.448  1.00  0.00     0.006 A 
ENDBRANCH  77  94
ENDBRANCH  51  52
ENDBRANCH  43  46
ENDBRANCH  41  42
ENDBRANCH  40  41
ENDBRANCH   1  40
TORSDOF 18
