REMARK SMILES COc1ccc(-c2cc(F)cc(C(=O)NCCCCNC(=O)c3ccc(-c4c5nc(c(-c6c(F)cccc6F)c6ccc([nH]6)c(-c6c(F)cccc6F)c6nc(c(-c7c(F)cccc7F)c7ccc4[nH]7)C=C6)C=C5)cc3)c2)cc1C
REMARK SMILES IDX 17 1 16 2 15 3 13 4 14 5 12 7 7 8 8 9 77 10 9 11 10 12 11 13
REMARK SMILES IDX 6 14 3 15 4 16 79 17 5 18 78 19 80 20 2 21 1 22 18 23 19 24
REMARK SMILES IDX 20 25 21 26 22 28 23 29 24 30 76 31 25 32 75 33 26 34 27 35
REMARK SMILES IDX 28 36 69 37 29 38 74 39 68 40 70 41 30 42 73 43 67 44 66 45
REMARK SMILES IDX 31 47 57 48 40 49 56 50 41 51 44 52 55 53 71 54 42 55 43 56
REMARK SMILES IDX 54 58 72 59 45 60 32 61 33 62 38 63 34 64 35 65 37 66 39 67
REMARK SMILES IDX 36 68 58 69 59 70 64 71 60 72 61 73 63 74 65 75 62 76 46 77
REMARK SMILES IDX 47 78 52 79 48 80 49 81 51 82 53 83 50 84
REMARK H PARENT 15 6 20 27 70 46 44 57
REMARK Flexibility Score: inf
ROOT
ATOM      1  C   UNL     1       2.010  10.874  -6.194  1.00  0.00     0.023 C 
ENDROOT
BRANCH   1   2
ATOM      2  C   UNL     1       2.631  10.715  -4.799  1.00  0.00     0.116 C 
BRANCH   2   3
ATOM      3  N   UNL     1       1.673  10.214  -3.827  1.00  0.00    -0.352 N 
ATOM      4  C   UNL     1       1.298   8.970  -3.388  1.00  0.00     0.251 C 
ATOM      5  O   UNL     1       0.439   8.950  -2.502  1.00  0.00    -0.269 OA
ATOM      6  H   UNL     1       1.177  10.937  -3.380  1.00  0.00     0.163 HD
BRANCH   4   7
ATOM      7  C   UNL     1       1.847   7.665  -3.874  1.00  0.00     0.043 A 
ATOM      8  C   UNL     1       1.929   5.223  -3.515  1.00  0.00    -0.015 A 
ATOM      9  C   UNL     1       2.809   5.119  -4.598  1.00  0.00     0.048 A 
ATOM     10  C   UNL     1       1.456   6.502  -3.167  1.00  0.00     0.022 A 
ATOM     11  C   UNL     1       3.180   6.251  -5.305  1.00  0.00     0.124 A 
ATOM     12  F   UNL     1       4.021   6.131  -6.340  1.00  0.00    -0.207 F 
ATOM     13  C   UNL     1       2.699   7.511  -4.966  1.00  0.00     0.053 A 
BRANCH   8  14
ATOM     14  C   UNL     1       1.552   4.009  -2.779  1.00  0.00    -0.018 A 
ATOM     15  C   UNL     1       0.970   1.512  -1.600  1.00  0.00     0.121 A 
ATOM     16  C   UNL     1      -0.024   2.235  -2.268  1.00  0.00     0.047 A 
ATOM     17  C   UNL     1       2.269   2.026  -1.508  1.00  0.00    -0.008 A 
ATOM     18  C   UNL     1       0.260   3.477  -2.846  1.00  0.00     0.012 A 
ATOM     19  C   UNL     1       2.533   3.284  -2.079  1.00  0.00     0.016 A 
ATOM     20  C   UNL     1       3.405   1.285  -0.866  1.00  0.00     0.048 C 
BRANCH  15  21
ATOM     21  O   UNL     1       0.605   0.256  -1.191  1.00  0.00    -0.496 OA
ATOM     22  C   UNL     1       0.794   0.017   0.200  1.00  0.00     0.278 C 
ENDBRANCH  15  21
ENDBRANCH   8  14
ENDBRANCH   4   7
ENDBRANCH   2   3
ENDBRANCH   1   2
BRANCH   1  23
ATOM     23  C   UNL     1       1.050  12.064  -6.328  1.00  0.00     0.023 C 
BRANCH  23  24
ATOM     24  C   UNL     1       1.731  13.428  -6.273  1.00  0.00     0.116 C 
BRANCH  24  25
ATOM     25  N   UNL     1       2.398  13.835  -7.503  1.00  0.00    -0.352 N 
ATOM     26  C   UNL     1       3.316  14.855  -7.717  1.00  0.00     0.251 C 
ATOM     27  H   UNL     1       2.164  13.308  -8.301  1.00  0.00     0.163 HD
ATOM     28  O   UNL     1       3.734  15.078  -8.838  1.00  0.00    -0.269 OA
BRANCH  26  29
ATOM     29  C   UNL     1       3.897  15.575  -6.551  1.00  0.00     0.039 A 
ATOM     30  C   UNL     1       5.287  15.752  -6.528  1.00  0.00     0.014 A 
ATOM     31  C   UNL     1       3.140  15.853  -5.417  1.00  0.00     0.014 A 
ATOM     32  C   UNL     1       5.932  15.916  -5.306  1.00  0.00     0.010 A 
ATOM     33  C   UNL     1       3.779  15.915  -4.194  1.00  0.00     0.010 A 
ATOM     34  C   UNL     1       5.175  15.858  -4.138  1.00  0.00    -0.014 A 
BRANCH  34  35
ATOM     35  C   UNL     1       5.757  15.578  -2.832  1.00  0.00     0.031 A 
ATOM     36  C   UNL     1       5.871  16.642  -1.815  1.00  0.00     0.074 A 
ATOM     37  C   UNL     1       6.133  14.312  -2.535  1.00  0.00     0.049 A 
ATOM     38  N   UNL     1       6.670  16.578  -0.804  1.00  0.00    -0.248 NA
ATOM     39  C   UNL     1       5.153  17.912  -1.896  1.00  0.00     0.031 C 
ATOM     40  C   UNL     1       6.456  13.768  -1.218  1.00  0.00     0.029 A 
ATOM     41  N   UNL     1       6.512  13.299  -3.431  1.00  0.00    -0.354 N 
ATOM     42  C   UNL     1       6.350  17.611   0.041  1.00  0.00     0.074 A 
ATOM     43  C   UNL     1       5.526  18.490  -0.748  1.00  0.00     0.031 C 
ATOM     44  C   UNL     1       7.227  12.681  -1.375  1.00  0.00     0.029 A 
ATOM     45  C   UNL     1       7.541  12.576  -2.788  1.00  0.00     0.049 A 
ATOM     46  H   UNL     1       6.137  13.128  -4.325  1.00  0.00     0.167 HD
ATOM     47  C   UNL     1       6.699  17.512   1.353  1.00  0.00     0.037 A 
ATOM     48  C   UNL     1       8.804  12.517  -3.299  1.00  0.00     0.037 A 
ATOM     49  C   UNL     1       7.667  16.432   1.557  1.00  0.00     0.049 A 
ATOM     50  C   UNL     1       9.870  13.068  -2.382  1.00  0.00     0.074 A 
ATOM     51  C   UNL     1       7.589  15.179   2.137  1.00  0.00     0.029 A 
ATOM     52  N   UNL     1       8.893  16.488   0.897  1.00  0.00    -0.354 N 
ATOM     53  N   UNL     1       9.620  13.829  -1.353  1.00  0.00    -0.248 NA
ATOM     54  C   UNL     1      11.300  12.832  -2.563  1.00  0.00     0.031 C 
ATOM     55  C   UNL     1       8.738  14.444   1.734  1.00  0.00     0.029 A 
ATOM     56  C   UNL     1       9.534  15.268   0.956  1.00  0.00     0.049 A 
ATOM     57  H   UNL     1       9.252  17.288   0.451  1.00  0.00     0.167 HD
ATOM     58  C   UNL     1      10.797  14.214  -0.766  1.00  0.00     0.074 A 
ATOM     59  C   UNL     1      11.820  13.539  -1.544  1.00  0.00     0.031 C 
ATOM     60  C   UNL     1      10.822  15.070   0.298  1.00  0.00     0.037 A 
BRANCH  47  61
ATOM     61  C   UNL     1       6.024  18.244   2.499  1.00  0.00     0.057 A 
ATOM     62  C   UNL     1       6.493  18.076   3.819  1.00  0.00     0.134 A 
ATOM     63  C   UNL     1       4.839  19.004   2.407  1.00  0.00     0.134 A 
ATOM     64  F   UNL     1       7.604  17.371   4.081  1.00  0.00    -0.206 F 
ATOM     65  C   UNL     1       5.833  18.601   4.941  1.00  0.00     0.040 A 
ATOM     66  C   UNL     1       4.200  19.578   3.516  1.00  0.00     0.040 A 
ATOM     67  F   UNL     1       4.187  19.189   1.256  1.00  0.00    -0.206 F 
ATOM     68  C   UNL     1       4.686  19.363   4.793  1.00  0.00     0.006 A 
ENDBRANCH  47  61
BRANCH  48  69
ATOM     69  C   UNL     1       8.843  12.544  -4.782  1.00  0.00     0.057 A 
ATOM     70  C   UNL     1       8.362  11.425  -5.481  1.00  0.00     0.134 A 
ATOM     71  C   UNL     1       8.952  13.742  -5.492  1.00  0.00     0.134 A 
ATOM     72  F   UNL     1       8.235  10.244  -4.855  1.00  0.00    -0.206 F 
ATOM     73  C   UNL     1       7.901  11.518  -6.797  1.00  0.00     0.040 A 
ATOM     74  C   UNL     1       8.497  13.847  -6.812  1.00  0.00     0.040 A 
ATOM     75  F   UNL     1       9.382  14.858  -4.886  1.00  0.00    -0.206 F 
ATOM     76  C   UNL     1       7.934  12.744  -7.454  1.00  0.00     0.006 A 
ENDBRANCH  48  69
BRANCH  60  77
ATOM     77  C   UNL     1      12.048  15.746   0.870  1.00  0.00     0.057 A 
ATOM     78  C   UNL     1      13.213  16.034   0.141  1.00  0.00     0.134 A 
ATOM     79  C   UNL     1      12.028  16.269   2.184  1.00  0.00     0.134 A 
ATOM     80  F   UNL     1      13.332  15.709  -1.153  1.00  0.00    -0.206 F 
ATOM     81  C   UNL     1      14.298  16.731   0.695  1.00  0.00     0.040 A 
ATOM     82  C   UNL     1      13.081  17.013   2.728  1.00  0.00     0.040 A 
ATOM     83  F   UNL     1      10.971  16.102   2.993  1.00  0.00    -0.206 F 
ATOM     84  C   UNL     1      14.230  17.233   1.988  1.00  0.00     0.006 A 
ENDBRANCH  60  77
ENDBRANCH  34  35
ENDBRANCH  26  29
ENDBRANCH  24  25
ENDBRANCH  23  24
ENDBRANCH   1  23
TORSDOF 13
