REMARK SMILES C/C=C/C[C@H](Cc1cccc(F)c1)C(=O)NCCCCNC(=O)c1ccc(-c2c3nc(c(-c4c(F)cccc4F)c4ccc([nH]4)c(-c4c(F)cccc4F)c4nc(c(-c5c(F)cccc5F)c5ccc2[nH]5)C=C4)C=C3)cc1
REMARK SMILES IDX 18 1 17 2 16 3 14 4 15 5 5 7 4 8 3 9 1 10 2 11 6 12 7 13
REMARK SMILES IDX 8 14 13 15 9 16 11 17 10 18 12 19 19 20 20 21 21 22 22 23
REMARK SMILES IDX 23 25 24 26 25 27 77 28 26 29 76 30 27 31 28 32 29 33 70 34
REMARK SMILES IDX 30 35 75 36 69 37 71 38 31 39 74 40 68 41 67 42 32 44 58 45
REMARK SMILES IDX 41 46 57 47 42 48 45 49 56 50 72 51 43 52 44 53 55 55 73 56
REMARK SMILES IDX 46 57 33 58 34 59 39 60 35 61 36 62 38 63 40 64 37 65 59 66
REMARK SMILES IDX 60 67 65 68 61 69 62 70 64 71 66 72 63 73 47 74 48 75 53 76
REMARK SMILES IDX 49 77 50 78 52 79 54 80 51 81
REMARK H PARENT 16 6 21 24 71 43 45 54
REMARK Flexibility Score: inf
ROOT
ATOM      1  C   UNL     1      -4.110   4.693   0.513  1.00  0.00     0.023 C 
ENDROOT
BRANCH   1   2
ATOM      2  C   UNL     1      -3.340   4.983  -0.771  1.00  0.00     0.116 C 
BRANCH   2   3
ATOM      3  N   UNL     1      -2.236   5.900  -0.548  1.00  0.00    -0.356 N 
ATOM      4  C   UNL     1      -0.889   5.694  -0.574  1.00  0.00     0.223 C 
ATOM      5  O   UNL     1      -0.161   6.660  -0.335  1.00  0.00    -0.275 OA
ATOM      6  H   UNL     1      -2.506   6.824  -0.344  1.00  0.00     0.163 HD
BRANCH   4   7
ATOM      7  C   UNL     1      -0.290   4.331  -0.908  1.00  0.00     0.086 C 
BRANCH   7   8
ATOM      8  C   UNL     1      -0.532   4.039  -2.404  1.00  0.00     0.040 C 
BRANCH   8   9
ATOM      9  C   UNL     1      -0.154   2.658  -2.851  1.00  0.00    -0.031 C 
ATOM     10  C   UNL     1      -0.680   0.359  -3.691  1.00  0.00     0.035 C 
ATOM     11  C   UNL     1      -1.045   1.745  -3.268  1.00  0.00    -0.035 C 
ENDBRANCH   8   9
ENDBRANCH   7   8
BRANCH   7  12
ATOM     12  C   UNL     1      -0.770   3.273   0.107  1.00  0.00     0.049 C 
BRANCH  12  13
ATOM     13  C   UNL     1       0.273   2.257   0.511  1.00  0.00    -0.044 A 
ATOM     14  C   UNL     1       0.188   0.930   0.065  1.00  0.00     0.004 A 
ATOM     15  C   UNL     1       1.321   2.614   1.370  1.00  0.00     0.043 A 
ATOM     16  C   UNL     1       1.141  -0.017   0.444  1.00  0.00     0.003 A 
ATOM     17  C   UNL     1       2.257   1.659   1.755  1.00  0.00     0.123 A 
ATOM     18  C   UNL     1       2.180   0.349   1.296  1.00  0.00     0.039 A 
ATOM     19  F   UNL     1       3.247   2.005   2.589  1.00  0.00    -0.207 F 
ENDBRANCH  12  13
ENDBRANCH   7  12
ENDBRANCH   4   7
ENDBRANCH   2   3
ENDBRANCH   1   2
BRANCH   1  20
ATOM     20  C   UNL     1      -4.910   5.879   1.053  1.00  0.00     0.023 C 
BRANCH  20  21
ATOM     21  C   UNL     1      -5.877   6.515   0.060  1.00  0.00     0.116 C 
BRANCH  21  22
ATOM     22  N   UNL     1      -6.827   5.566  -0.500  1.00  0.00    -0.352 N 
ATOM     23  C   UNL     1      -8.179   5.702  -0.692  1.00  0.00     0.251 C 
ATOM     24  H   UNL     1      -6.445   4.702  -0.780  1.00  0.00     0.163 HD
ATOM     25  O   UNL     1      -8.847   4.739  -1.061  1.00  0.00    -0.269 OA
BRANCH  23  26
ATOM     26  C   UNL     1      -8.835   6.997  -0.418  1.00  0.00     0.039 A 
ATOM     27  C   UNL     1     -10.021   7.003   0.319  1.00  0.00     0.014 A 
ATOM     28  C   UNL     1      -8.277   8.198  -0.864  1.00  0.00     0.014 A 
ATOM     29  C   UNL     1     -10.607   8.220   0.672  1.00  0.00     0.010 A 
ATOM     30  C   UNL     1      -8.819   9.411  -0.446  1.00  0.00     0.010 A 
ATOM     31  C   UNL     1      -9.986   9.434   0.332  1.00  0.00    -0.014 A 
BRANCH  31  32
ATOM     32  C   UNL     1     -10.534  10.727   0.813  1.00  0.00     0.031 A 
ATOM     33  C   UNL     1     -11.045  11.753  -0.160  1.00  0.00     0.074 A 
ATOM     34  C   UNL     1     -10.537  10.991   2.135  1.00  0.00     0.049 A 
ATOM     35  N   UNL     1     -11.541  12.940   0.081  1.00  0.00    -0.248 NA
ATOM     36  C   UNL     1     -10.973  11.414  -1.591  1.00  0.00     0.031 C 
ATOM     37  C   UNL     1     -10.025  10.096   3.176  1.00  0.00     0.029 A 
ATOM     38  N   UNL     1     -10.989  12.083   2.833  1.00  0.00    -0.354 N 
ATOM     39  C   UNL     1     -11.841  13.485  -1.160  1.00  0.00     0.074 A 
ATOM     40  C   UNL     1     -11.419  12.526  -2.158  1.00  0.00     0.031 C 
ATOM     41  C   UNL     1     -10.228  10.657   4.378  1.00  0.00     0.029 A 
ATOM     42  C   UNL     1     -10.845  11.967   4.195  1.00  0.00     0.049 A 
ATOM     43  H   UNL     1     -11.379  12.876   2.398  1.00  0.00     0.167 HD
ATOM     44  C   UNL     1     -12.440  14.666  -1.441  1.00  0.00     0.037 A 
ATOM     45  C   UNL     1     -11.172  12.818   5.186  1.00  0.00     0.037 A 
ATOM     46  C   UNL     1     -12.881  15.608  -0.446  1.00  0.00     0.049 A 
ATOM     47  C   UNL     1     -11.817  14.132   4.841  1.00  0.00     0.074 A 
ATOM     48  C   UNL     1     -13.546  16.808  -0.636  1.00  0.00     0.029 A 
ATOM     49  N   UNL     1     -12.705  15.460   0.920  1.00  0.00    -0.354 N 
ATOM     50  N   UNL     1     -12.150  14.605   3.665  1.00  0.00    -0.248 NA
ATOM     51  C   UNL     1     -12.133  15.031   5.961  1.00  0.00     0.031 C 
ATOM     52  C   UNL     1     -13.728  17.409   0.612  1.00  0.00     0.029 A 
ATOM     53  C   UNL     1     -13.226  16.559   1.584  1.00  0.00     0.049 A 
ATOM     54  H   UNL     1     -12.274  14.689   1.355  1.00  0.00     0.167 HD
ATOM     55  C   UNL     1     -12.731  15.843   3.903  1.00  0.00     0.074 A 
ATOM     56  C   UNL     1     -12.728  16.038   5.338  1.00  0.00     0.031 C 
ATOM     57  C   UNL     1     -13.218  16.741   3.012  1.00  0.00     0.037 A 
BRANCH  44  58
ATOM     58  C   UNL     1     -12.688  15.007  -2.881  1.00  0.00     0.057 A 
ATOM     59  C   UNL     1     -12.005  16.064  -3.496  1.00  0.00     0.134 A 
ATOM     60  C   UNL     1     -13.680  14.357  -3.626  1.00  0.00     0.134 A 
ATOM     61  F   UNL     1     -11.047  16.732  -2.835  1.00  0.00    -0.206 F 
ATOM     62  C   UNL     1     -12.317  16.479  -4.791  1.00  0.00     0.040 A 
ATOM     63  C   UNL     1     -13.984  14.747  -4.932  1.00  0.00     0.040 A 
ATOM     64  F   UNL     1     -14.364  13.330  -3.099  1.00  0.00    -0.206 F 
ATOM     65  C   UNL     1     -13.311  15.820  -5.513  1.00  0.00     0.006 A 
ENDBRANCH  44  58
BRANCH  45  66
ATOM     66  C   UNL     1     -10.919  12.446   6.602  1.00  0.00     0.057 A 
ATOM     67  C   UNL     1      -9.619  12.338   7.111  1.00  0.00     0.134 A 
ATOM     68  C   UNL     1     -11.977  12.191   7.481  1.00  0.00     0.134 A 
ATOM     69  F   UNL     1      -8.560  12.563   6.320  1.00  0.00    -0.206 F 
ATOM     70  C   UNL     1      -9.381  11.980   8.439  1.00  0.00     0.040 A 
ATOM     71  C   UNL     1     -11.755  11.860   8.819  1.00  0.00     0.040 A 
ATOM     72  F   UNL     1     -13.246  12.296   7.059  1.00  0.00    -0.206 F 
ATOM     73  C   UNL     1     -10.452  11.747   9.300  1.00  0.00     0.006 A 
ENDBRANCH  45  66
BRANCH  57  74
ATOM     74  C   UNL     1     -13.800  18.013   3.557  1.00  0.00     0.057 A 
ATOM     75  C   UNL     1     -15.175  18.266   3.471  1.00  0.00     0.134 A 
ATOM     76  C   UNL     1     -12.991  19.013   4.111  1.00  0.00     0.134 A 
ATOM     77  F   UNL     1     -16.004  17.355   2.940  1.00  0.00    -0.206 F 
ATOM     78  C   UNL     1     -15.723  19.473   3.906  1.00  0.00     0.040 A 
ATOM     79  C   UNL     1     -13.532  20.213   4.577  1.00  0.00     0.040 A 
ATOM     80  F   UNL     1     -11.668  18.829   4.232  1.00  0.00    -0.206 F 
ATOM     81  C   UNL     1     -14.901  20.449   4.466  1.00  0.00     0.006 A 
ENDBRANCH  57  74
ENDBRANCH  31  32
ENDBRANCH  23  26
ENDBRANCH  21  22
ENDBRANCH  20  21
ENDBRANCH   1  20
TORSDOF 15
