REMARK SMILES O=C(NCCCCNC(=O)[C@@H]1CCC(=O)N(CCCOC2CCCCC2)[C@H]1c1ccco1)c1ccc(-c2c3nc(c(-c4c(F)cccc4F)c4ccc([nH]4)c(-c4c(F)cccc4F)c4nc(c(-c5c(F)cccc5F)c5ccc2[nH]5)C=C4)C=C3)cc1
REMARK SMILES IDX 7 1 6 2 5 3 4 4 3 5 1 6 2 7 33 9 34 10 86 11 35 12 85 13
REMARK SMILES IDX 36 14 37 15 38 16 79 17 39 18 84 19 78 20 80 21 40 22 83 23
REMARK SMILES IDX 77 24 76 25 41 27 67 28 50 29 66 30 51 31 54 32 65 33 81 34
REMARK SMILES IDX 52 35 53 36 64 38 82 39 55 40 42 41 43 42 48 43 44 44 45 45
REMARK SMILES IDX 47 46 49 47 46 48 68 49 69 50 74 51 70 52 71 53 73 54 75 55
REMARK SMILES IDX 72 56 56 57 57 58 62 59 58 60 59 61 61 62 63 63 60 64 8 65
REMARK SMILES IDX 9 66 10 68 11 69 12 70 27 71 13 72 16 73 14 74 15 75 28 76
REMARK SMILES IDX 29 77 32 78 30 79 31 80 17 81 18 82 19 83 20 84 21 85 22 86
REMARK SMILES IDX 26 87 23 88 25 89 24 90
REMARK H PARENT 3 8 80 26 54 37 8 67
REMARK Flexibility Score: inf
ROOT
ATOM      1  C   UNL     1       5.814  -1.552  -3.566  1.00  0.00     0.116 C 
ENDROOT
BRANCH   1   2
ATOM      2  C   UNL     1       4.607  -1.815  -2.679  1.00  0.00     0.023 C 
BRANCH   2   3
ATOM      3  C   UNL     1       4.759  -1.392  -1.230  1.00  0.00     0.023 C 
BRANCH   3   4
ATOM      4  C   UNL     1       4.191  -0.017  -0.974  1.00  0.00     0.116 C 
BRANCH   4   5
ATOM      5  N   UNL     1       2.732   0.003  -0.857  1.00  0.00    -0.352 N 
ATOM      6  O   UNL     1       0.740   0.474   0.125  1.00  0.00    -0.269 OA
ATOM      7  C   UNL     1       1.956   0.631   0.095  1.00  0.00     0.251 C 
ATOM      8  H   UNL     1       2.241  -0.498  -1.548  1.00  0.00     0.163 HD
BRANCH   7   9
ATOM      9  C   UNL     1       2.623   1.465   1.122  1.00  0.00     0.039 A 
ATOM     10  C   UNL     1       3.694   2.272   0.753  1.00  0.00     0.014 A 
ATOM     11  C   UNL     1       2.258   1.362   2.467  1.00  0.00     0.014 A 
ATOM     12  C   UNL     1       4.563   2.727   1.726  1.00  0.00     0.010 A 
ATOM     13  C   UNL     1       3.037   1.995   3.445  1.00  0.00     0.010 A 
ATOM     14  C   UNL     1       4.230   2.640   3.088  1.00  0.00    -0.014 A 
BRANCH  14  15
ATOM     15  C   UNL     1       5.141   3.284   4.076  1.00  0.00     0.031 A 
ATOM     16  C   UNL     1       5.746   2.517   5.221  1.00  0.00     0.074 A 
ATOM     17  C   UNL     1       5.483   4.575   3.876  1.00  0.00     0.049 A 
ATOM     18  N   UNL     1       6.545   2.950   6.165  1.00  0.00    -0.248 NA
ATOM     19  C   UNL     1       5.402   1.092   5.342  1.00  0.00     0.031 C 
ATOM     20  C   UNL     1       4.959   5.429   2.804  1.00  0.00     0.029 A 
ATOM     21  N   UNL     1       6.388   5.380   4.517  1.00  0.00    -0.354 N 
ATOM     22  C   UNL     1       6.745   1.876   7.024  1.00  0.00     0.074 A 
ATOM     23  C   UNL     1       5.991   0.764   6.486  1.00  0.00     0.031 C 
ATOM     24  C   UNL     1       5.637   6.581   2.782  1.00  0.00     0.029 A 
ATOM     25  C   UNL     1       6.546   6.607   3.917  1.00  0.00     0.049 A 
ATOM     26  H   UNL     1       6.876   5.107   5.327  1.00  0.00     0.167 HD
ATOM     27  C   UNL     1       7.482   1.830   8.161  1.00  0.00     0.037 A 
ATOM     28  C   UNL     1       7.314   7.658   4.254  1.00  0.00     0.037 A 
ATOM     29  C   UNL     1       8.275   2.929   8.655  1.00  0.00     0.049 A 
ATOM     30  C   UNL     1       8.142   7.567   5.497  1.00  0.00     0.074 A 
ATOM     31  C   UNL     1       9.076   2.976   9.784  1.00  0.00     0.029 A 
ATOM     32  N   UNL     1       8.380   4.168   8.041  1.00  0.00    -0.354 N 
ATOM     33  N   UNL     1       8.287   6.556   6.317  1.00  0.00    -0.248 NA
ATOM     34  C   UNL     1       8.889   8.771   5.878  1.00  0.00     0.031 C 
ATOM     35  C   UNL     1       9.639   4.255   9.870  1.00  0.00     0.029 A 
ATOM     36  C   UNL     1       9.224   4.990   8.772  1.00  0.00     0.049 A 
ATOM     37  H   UNL     1       7.922   4.427   7.209  1.00  0.00     0.167 HD
ATOM     38  C   UNL     1       9.142   6.998   7.314  1.00  0.00     0.074 A 
ATOM     39  C   UNL     1       9.507   8.360   6.976  1.00  0.00     0.031 C 
ATOM     40  C   UNL     1       9.576   6.341   8.416  1.00  0.00     0.037 A 
BRANCH  27  41
ATOM     41  C   UNL     1       7.438   0.567   8.974  1.00  0.00     0.057 A 
ATOM     42  C   UNL     1       8.081  -0.609   8.571  1.00  0.00     0.134 A 
ATOM     43  C   UNL     1       6.772   0.546  10.208  1.00  0.00     0.134 A 
ATOM     44  F   UNL     1       8.727  -0.663   7.396  1.00  0.00    -0.206 F 
ATOM     45  C   UNL     1       8.047  -1.766   9.354  1.00  0.00     0.040 A 
ATOM     46  C   UNL     1       6.752  -0.596  11.011  1.00  0.00     0.040 A 
ATOM     47  F   UNL     1       6.142   1.640  10.660  1.00  0.00    -0.206 F 
ATOM     48  C   UNL     1       7.386  -1.759  10.582  1.00  0.00     0.006 A 
ENDBRANCH  27  41
BRANCH  28  49
ATOM     49  C   UNL     1       7.301   8.883   3.417  1.00  0.00     0.057 A 
ATOM     50  C   UNL     1       8.423   9.263   2.673  1.00  0.00     0.134 A 
ATOM     51  C   UNL     1       6.154   9.681   3.309  1.00  0.00     0.134 A 
ATOM     52  F   UNL     1       9.555   8.548   2.745  1.00  0.00    -0.206 F 
ATOM     53  C   UNL     1       8.407  10.394   1.855  1.00  0.00     0.040 A 
ATOM     54  C   UNL     1       6.114  10.796   2.471  1.00  0.00     0.040 A 
ATOM     55  F   UNL     1       5.042   9.365   3.989  1.00  0.00    -0.206 F 
ATOM     56  C   UNL     1       7.246  11.158   1.745  1.00  0.00     0.006 A 
ENDBRANCH  28  49
BRANCH  40  57
ATOM     57  C   UNL     1      10.521   7.086   9.307  1.00  0.00     0.057 A 
ATOM     58  C   UNL     1      10.088   8.129  10.135  1.00  0.00     0.134 A 
ATOM     59  C   UNL     1      11.882   6.757   9.332  1.00  0.00     0.134 A 
ATOM     60  F   UNL     1       8.799   8.503  10.139  1.00  0.00    -0.206 F 
ATOM     61  C   UNL     1      10.982   8.841  10.935  1.00  0.00     0.040 A 
ATOM     62  C   UNL     1      12.781   7.446  10.147  1.00  0.00     0.040 A 
ATOM     63  F   UNL     1      12.358   5.765   8.565  1.00  0.00    -0.206 F 
ATOM     64  C   UNL     1      12.332   8.496  10.945  1.00  0.00     0.006 A 
ENDBRANCH  40  57
ENDBRANCH  14  15
ENDBRANCH   7   9
ENDBRANCH   4   5
ENDBRANCH   3   4
ENDBRANCH   2   3
ENDBRANCH   1   2
BRANCH   1  65
ATOM     65  N   UNL     1       6.824  -2.586  -3.404  1.00  0.00    -0.356 N 
ATOM     66  C   UNL     1       6.971  -3.835  -3.907  1.00  0.00     0.225 C 
ATOM     67  H   UNL     1       7.556  -2.321  -2.801  1.00  0.00     0.163 HD
ATOM     68  O   UNL     1       7.929  -4.477  -3.453  1.00  0.00    -0.275 OA
BRANCH  66  69
ATOM     69  C   UNL     1       6.071  -4.517  -4.944  1.00  0.00     0.109 C 
ATOM     70  C   UNL     1       5.758  -3.748  -6.209  1.00  0.00     0.026 C 
ATOM     71  C   UNL     1       4.858  -5.249  -4.358  1.00  0.00     0.164 C 
ATOM     72  C   UNL     1       4.351  -3.188  -6.301  1.00  0.00     0.101 C 
ATOM     73  N   UNL     1       3.639  -4.447  -4.248  1.00  0.00    -0.332 N 
ATOM     74  C   UNL     1       3.376  -3.432  -5.159  1.00  0.00     0.223 C 
ATOM     75  O   UNL     1       2.390  -2.696  -5.066  1.00  0.00    -0.275 OA
BRANCH  71  76
ATOM     76  C   UNL     1       4.529  -6.492  -5.150  1.00  0.00     0.127 A 
ATOM     77  C   UNL     1       5.108  -7.745  -5.220  1.00  0.00     0.048 A 
ATOM     78  O   UNL     1       3.395  -6.472  -5.913  1.00  0.00    -0.467 OA
ATOM     79  C   UNL     1       4.245  -8.541  -6.013  1.00  0.00     0.042 A 
ATOM     80  C   UNL     1       3.215  -7.721  -6.405  1.00  0.00     0.195 A 
ENDBRANCH  71  76
BRANCH  73  81
ATOM     81  C   UNL     1       2.660  -4.697  -3.152  1.00  0.00     0.122 C 
BRANCH  81  82
ATOM     82  C   UNL     1       2.254  -6.130  -2.773  1.00  0.00     0.050 C 
BRANCH  82  83
ATOM     83  C   UNL     1       3.241  -7.041  -2.028  1.00  0.00     0.162 C 
BRANCH  83  84
ATOM     84  O   UNL     1       3.555  -6.604  -0.704  1.00  0.00    -0.378 OA
BRANCH  84  85
ATOM     85  C   UNL     1       4.946  -6.341  -0.464  1.00  0.00     0.118 C 
ATOM     86  C   UNL     1       5.130  -4.831  -0.469  1.00  0.00     0.032 C 
ATOM     87  C   UNL     1       5.377  -6.905   0.896  1.00  0.00     0.032 C 
ATOM     88  C   UNL     1       6.548  -4.409  -0.136  1.00  0.00     0.003 C 
ATOM     89  C   UNL     1       6.794  -6.458   1.281  1.00  0.00     0.003 C 
ATOM     90  C   UNL     1       6.957  -4.941   1.224  1.00  0.00     0.000 C 
ENDBRANCH  84  85
ENDBRANCH  83  84
ENDBRANCH  82  83
ENDBRANCH  81  82
ENDBRANCH  73  81
ENDBRANCH  66  69
ENDBRANCH   1  65
TORSDOF 17
