REMARK SMILES Cc1ccc(C(=O)C2=C(NCCCCNC(=O)c3ccc(-c4c5nc(c(-c6c(F)cccc6F)c6ccc([nH]6)c(-c6c(F)cccc6F)c6nc(c(-c7c(F)cccc7F)c7ccc4[nH]7)C=C6)C=C5)cc3)C(=O)N(CCCC(=O)[O-])[C@H]2c2ccc3c(c2)OCO3)cc1
REMARK SMILES IDX 11 1 10 2 9 4 8 5 81 6 72 7 74 8 73 9 6 10 7 11 5 12 1 13
REMARK SMILES IDX 2 14 3 15 92 16 4 17 91 18 82 19 83 20 87 21 84 22 86 23
REMARK SMILES IDX 85 24 88 25 90 26 89 27 75 28 76 29 77 30 78 31 79 32 80 33
REMARK SMILES IDX 12 34 13 35 14 36 15 37 16 38 17 40 18 41 19 42 71 43 20 44
REMARK SMILES IDX 70 45 21 46 22 47 23 48 64 49 24 50 69 51 63 52 65 53 25 54
REMARK SMILES IDX 68 55 62 56 61 57 26 59 52 60 35 61 51 62 36 63 39 64 50 65
REMARK SMILES IDX 66 66 37 67 38 68 49 70 67 71 40 72 27 73 28 74 33 75 29 76
REMARK SMILES IDX 30 77 32 78 34 79 31 80 53 81 54 82 59 83 55 84 56 85 58 86
REMARK SMILES IDX 60 87 57 88 41 89 42 90 47 91 43 92 44 93 46 94 48 95 45 96
REMARK H PARENT 10 3 15 39 65 58 39 69
REMARK Flexibility Score: inf
ROOT
ATOM      1  C   UNL     1      -7.682  -0.314  -0.141  1.00  0.00     0.113 C 
ENDROOT
BRANCH   1   2
ATOM      2  N   UNL     1      -6.227  -0.413  -0.103  1.00  0.00    -0.380 N 
ATOM      3  H   UNL     1      -5.807  -1.298  -0.194  1.00  0.00     0.160 HD
BRANCH   2   4
ATOM      4  C   UNL     1      -5.428   0.687   0.056  1.00  0.00     0.110 C 
ATOM      5  C   UNL     1      -4.278   1.062  -0.530  1.00  0.00     0.056 C 
ATOM      6  C   UNL     1      -3.908   2.463  -0.125  1.00  0.00     0.153 C 
ATOM      7  C   UNL     1      -5.826   1.826   0.957  1.00  0.00     0.271 C 
ATOM      8  N   UNL     1      -5.153   2.942   0.457  1.00  0.00    -0.326 N 
ATOM      9  O   UNL     1      -6.709   1.811   1.787  1.00  0.00    -0.267 OA
BRANCH   5  10
ATOM     10  C   UNL     1      -3.549   0.163  -1.467  1.00  0.00     0.193 C 
ATOM     11  O   UNL     1      -4.156  -0.697  -2.106  1.00  0.00    -0.289 OA
BRANCH  10  12
ATOM     12  C   UNL     1      -2.060   0.149  -1.534  1.00  0.00     0.022 A 
ATOM     13  C   UNL     1       2.243  -0.072  -1.181  1.00  0.00     0.044 C 
ATOM     14  C   UNL     1       0.757  -0.008  -1.397  1.00  0.00    -0.051 A 
ATOM     15  C   UNL     1      -0.022  -1.161  -1.268  1.00  0.00     0.004 A 
ATOM     16  C   UNL     1       0.121   1.197  -1.718  1.00  0.00     0.004 A 
ATOM     17  C   UNL     1      -1.418  -1.082  -1.329  1.00  0.00     0.012 A 
ATOM     18  C   UNL     1      -1.279   1.272  -1.806  1.00  0.00     0.012 A 
ENDBRANCH  10  12
ENDBRANCH   5  10
BRANCH   6  19
ATOM     19  C   UNL     1      -2.742   2.446   0.870  1.00  0.00    -0.017 A 
ATOM     20  C   UNL     1      -1.639   3.315   0.682  1.00  0.00     0.010 A 
ATOM     21  C   UNL     1      -2.621   1.371   1.774  1.00  0.00     0.056 A 
ATOM     22  C   UNL     1      -0.377   2.976   1.191  1.00  0.00     0.051 A 
ATOM     23  C   UNL     1      -1.359   1.016   2.170  1.00  0.00     0.166 A 
ATOM     24  C   UNL     1      -0.259   1.773   1.855  1.00  0.00     0.165 A 
ATOM     25  O   UNL     1      -1.034  -0.173   2.745  1.00  0.00    -0.454 OA
ATOM     26  O   UNL     1       0.900   1.134   2.179  1.00  0.00    -0.454 OA
ATOM     27  C   UNL     1       0.384  -0.177   2.503  1.00  0.00     0.468 C 
ENDBRANCH   6  19
BRANCH   8  28
ATOM     28  C   UNL     1      -6.050   3.795  -0.323  1.00  0.00     0.121 C 
BRANCH  28  29
ATOM     29  C   UNL     1      -6.971   4.683   0.521  1.00  0.00     0.028 C 
BRANCH  29  30
ATOM     30  C   UNL     1      -6.239   5.880   1.114  1.00  0.00     0.054 C 
BRANCH  30  31
ATOM     31  C   UNL     1      -5.670   6.823   0.085  1.00  0.00     0.041 C 
ATOM     32  O   UNL     1      -4.807   7.659   0.292  1.00  0.00    -0.550 OA
ATOM     33  O   UNL     1      -6.213   6.711  -1.142  1.00  0.00    -0.550 OA
ENDBRANCH  30  31
ENDBRANCH  29  30
ENDBRANCH  28  29
ENDBRANCH   8  28
ENDBRANCH   2   4
ENDBRANCH   1   2
BRANCH   1  34
ATOM     34  C   UNL     1      -8.193  -0.474  -1.578  1.00  0.00     0.023 C 
BRANCH  34  35
ATOM     35  C   UNL     1      -7.784  -1.772  -2.274  1.00  0.00     0.023 C 
BRANCH  35  36
ATOM     36  C   UNL     1      -8.129  -3.023  -1.490  1.00  0.00     0.116 C 
BRANCH  36  37
ATOM     37  N   UNL     1      -9.500  -3.470  -1.669  1.00  0.00    -0.352 N 
ATOM     38  C   UNL     1     -10.143  -4.589  -1.178  1.00  0.00     0.251 C 
ATOM     39  H   UNL     1     -10.058  -2.882  -2.227  1.00  0.00     0.163 HD
ATOM     40  O   UNL     1     -11.254  -4.873  -1.622  1.00  0.00    -0.269 OA
BRANCH  38  41
ATOM     41  C   UNL     1      -9.621  -5.315   0.015  1.00  0.00     0.039 A 
ATOM     42  C   UNL     1     -10.595  -5.760   0.924  1.00  0.00     0.014 A 
ATOM     43  C   UNL     1      -8.308  -5.165   0.436  1.00  0.00     0.014 A 
ATOM     44  C   UNL     1     -10.342  -5.666   2.284  1.00  0.00     0.010 A 
ATOM     45  C   UNL     1      -8.092  -4.923   1.768  1.00  0.00     0.010 A 
ATOM     46  C   UNL     1      -9.141  -5.092   2.672  1.00  0.00    -0.014 A 
BRANCH  46  47
ATOM     47  C   UNL     1      -8.848  -4.626   4.008  1.00  0.00     0.031 A 
ATOM     48  C   UNL     1      -8.050  -5.508   4.868  1.00  0.00     0.074 A 
ATOM     49  C   UNL     1      -9.150  -3.346   4.318  1.00  0.00     0.049 A 
ATOM     50  N   UNL     1      -7.898  -5.338   6.129  1.00  0.00    -0.248 NA
ATOM     51  C   UNL     1      -7.399  -6.719   4.370  1.00  0.00     0.031 C 
ATOM     52  C   UNL     1      -8.666  -2.547   5.438  1.00  0.00     0.029 A 
ATOM     53  N   UNL     1     -10.152  -2.551   3.738  1.00  0.00    -0.354 N 
ATOM     54  C   UNL     1      -6.925  -6.213   6.552  1.00  0.00     0.074 A 
ATOM     55  C   UNL     1      -6.746  -7.131   5.460  1.00  0.00     0.031 C 
ATOM     56  C   UNL     1      -9.533  -1.544   5.662  1.00  0.00     0.029 A 
ATOM     57  C   UNL     1     -10.677  -1.770   4.793  1.00  0.00     0.049 A 
ATOM     58  H   UNL     1     -10.430  -2.540   2.794  1.00  0.00     0.167 HD
ATOM     59  C   UNL     1      -6.312  -5.948   7.737  1.00  0.00     0.037 A 
ATOM     60  C   UNL     1     -11.951  -1.986   5.237  1.00  0.00     0.037 A 
ATOM     61  C   UNL     1      -7.060  -4.908   8.447  1.00  0.00     0.049 A 
ATOM     62  C   UNL     1     -11.989  -2.490   6.663  1.00  0.00     0.074 A 
ATOM     63  C   UNL     1      -6.881  -3.543   8.580  1.00  0.00     0.029 A 
ATOM     64  N   UNL     1      -8.376  -5.174   8.821  1.00  0.00    -0.354 N 
ATOM     65  N   UNL     1     -11.000  -3.117   7.245  1.00  0.00    -0.248 NA
ATOM     66  C   UNL     1     -13.123  -2.283   7.558  1.00  0.00     0.031 C 
ATOM     67  C   UNL     1      -8.143  -2.976   8.916  1.00  0.00     0.029 A 
ATOM     68  C   UNL     1      -9.070  -4.000   9.040  1.00  0.00     0.049 A 
ATOM     69  H   UNL     1      -8.759  -6.076   8.916  1.00  0.00     0.167 HD
ATOM     70  C   UNL     1     -11.330  -3.384   8.548  1.00  0.00     0.074 A 
ATOM     71  C   UNL     1     -12.666  -2.836   8.695  1.00  0.00     0.031 C 
ATOM     72  C   UNL     1     -10.482  -4.028   9.407  1.00  0.00     0.037 A 
BRANCH  59  73
ATOM     73  C   UNL     1      -4.953  -6.450   8.177  1.00  0.00     0.057 A 
ATOM     74  C   UNL     1      -4.407  -6.001   9.398  1.00  0.00     0.134 A 
ATOM     75  C   UNL     1      -4.076  -7.258   7.425  1.00  0.00     0.134 A 
ATOM     76  F   UNL     1      -5.111  -5.226  10.235  1.00  0.00    -0.206 F 
ATOM     77  C   UNL     1      -3.102  -6.305   9.815  1.00  0.00     0.040 A 
ATOM     78  C   UNL     1      -2.782  -7.597   7.846  1.00  0.00     0.040 A 
ATOM     79  F   UNL     1      -4.386  -7.737   6.218  1.00  0.00    -0.206 F 
ATOM     80  C   UNL     1      -2.282  -7.109   9.039  1.00  0.00     0.006 A 
ENDBRANCH  59  73
BRANCH  60  81
ATOM     81  C   UNL     1     -12.873  -2.376   4.131  1.00  0.00     0.057 A 
ATOM     82  C   UNL     1     -13.105  -1.428   3.115  1.00  0.00     0.134 A 
ATOM     83  C   UNL     1     -13.114  -3.716   3.810  1.00  0.00     0.134 A 
ATOM     84  F   UNL     1     -12.924  -0.121   3.363  1.00  0.00    -0.206 F 
ATOM     85  C   UNL     1     -13.386  -1.805   1.798  1.00  0.00     0.040 A 
ATOM     86  C   UNL     1     -13.421  -4.102   2.497  1.00  0.00     0.040 A 
ATOM     87  F   UNL     1     -12.923  -4.682   4.719  1.00  0.00    -0.206 F 
ATOM     88  C   UNL     1     -13.496  -3.153   1.477  1.00  0.00     0.006 A 
ENDBRANCH  60  81
BRANCH  72  89
ATOM     89  C   UNL     1     -10.887  -4.674  10.716  1.00  0.00     0.057 A 
ATOM     90  C   UNL     1     -12.191  -5.097  11.018  1.00  0.00     0.134 A 
ATOM     91  C   UNL     1      -9.912  -5.045  11.671  1.00  0.00     0.134 A 
ATOM     92  F   UNL     1     -13.203  -4.945  10.153  1.00  0.00    -0.206 F 
ATOM     93  C   UNL     1     -12.513  -5.763  12.208  1.00  0.00     0.040 A 
ATOM     94  C   UNL     1     -10.211  -5.771  12.827  1.00  0.00     0.040 A 
ATOM     95  F   UNL     1      -8.614  -4.747  11.513  1.00  0.00    -0.206 F 
ATOM     96  C   UNL     1     -11.521  -6.114  13.112  1.00  0.00     0.006 A 
ENDBRANCH  72  89
ENDBRANCH  46  47
ENDBRANCH  38  41
ENDBRANCH  36  37
ENDBRANCH  35  36
ENDBRANCH  34  35
ENDBRANCH   1  34
TORSDOF 18
