REMARK SMILES CC[C@H](NC(=O)c1ccc(C)nc1)C(=O)NCCCCNC(=O)c1ccc(-c2c3nc(c(-c4c(F)cccc4F)c4ccc([nH]4)c(-c4c(F)cccc4F)c4nc(c(-c5c(F)cccc5F)c5ccc2[nH]5)C=C4)C=C3)cc1
REMARK SMILES IDX 18 1 17 2 16 3 14 4 15 5 3 7 2 8 1 9 4 10 5 11 6 13 7 14
REMARK SMILES IDX 8 15 13 16 9 17 12 18 10 19 11 20 19 21 20 22 21 23 22 24
REMARK SMILES IDX 23 26 24 27 25 28 77 29 26 30 76 31 27 32 28 33 29 34 70 35
REMARK SMILES IDX 30 36 75 37 69 38 71 39 31 40 74 41 68 42 67 43 32 45 58 46
REMARK SMILES IDX 41 47 57 48 42 49 45 50 56 51 72 52 43 53 44 54 55 56 73 57
REMARK SMILES IDX 46 58 33 59 34 60 39 61 35 62 36 63 38 64 40 65 37 66 59 67
REMARK SMILES IDX 60 68 65 69 61 70 62 71 64 72 66 73 63 74 47 75 48 76 53 77
REMARK SMILES IDX 49 78 50 79 52 80 54 81 51 82
REMARK H PARENT 16 6 4 12 21 25 71 44 45 55
REMARK Flexibility Score: inf
ROOT
ATOM      1  C   UNL     1      -3.169  -1.818   0.952  1.00  0.00     0.023 C 
ENDROOT
BRANCH   1   2
ATOM      2  C   UNL     1      -2.594  -0.886   2.014  1.00  0.00     0.116 C 
BRANCH   2   3
ATOM      3  N   UNL     1      -1.840  -1.469   3.105  1.00  0.00    -0.354 N 
ATOM      4  C   UNL     1      -0.500  -1.525   3.324  1.00  0.00     0.242 C 
ATOM      5  O   UNL     1      -0.130  -1.601   4.502  1.00  0.00    -0.273 OA
ATOM      6  H   UNL     1      -2.389  -1.895   3.802  1.00  0.00     0.163 HD
BRANCH   4   7
ATOM      7  C   UNL     1       0.545  -1.441   2.199  1.00  0.00     0.171 C 
BRANCH   7   8
ATOM      8  C   UNL     1       1.159  -0.020   2.124  1.00  0.00     0.032 C 
ATOM      9  C   UNL     1       0.190   1.157   2.129  1.00  0.00     0.006 C 
ENDBRANCH   7   8
BRANCH   7  10
ATOM     10  N   UNL     1       0.172  -1.953   0.883  1.00  0.00    -0.340 N 
ATOM     11  C   UNL     1       0.042  -3.240   0.403  1.00  0.00     0.253 C 
ATOM     12  H   UNL     1      -0.022  -1.253   0.219  1.00  0.00     0.164 HD
ATOM     13  O   UNL     1       0.182  -3.369  -0.816  1.00  0.00    -0.269 OA
BRANCH  11  14
ATOM     14  C   UNL     1      -0.396  -4.433   1.190  1.00  0.00     0.058 A 
ATOM     15  C   UNL     1      -0.506  -4.557   2.571  1.00  0.00     0.017 A 
ATOM     16  C   UNL     1      -0.881  -5.514   0.452  1.00  0.00     0.125 A 
ATOM     17  C   UNL     1      -1.200  -5.636   3.136  1.00  0.00     0.024 A 
ATOM     18  N   UNL     1      -1.535  -6.591   0.972  1.00  0.00    -0.261 NA
ATOM     19  C   UNL     1      -1.730  -6.615   2.306  1.00  0.00     0.037 A 
ATOM     20  C   UNL     1      -2.532  -7.754   2.862  1.00  0.00     0.066 C 
ENDBRANCH  11  14
ENDBRANCH   7  10
ENDBRANCH   4   7
ENDBRANCH   2   3
ENDBRANCH   1   2
BRANCH   1  21
ATOM     21  C   UNL     1      -3.846  -3.109   1.395  1.00  0.00     0.023 C 
BRANCH  21  22
ATOM     22  C   UNL     1      -4.691  -3.052   2.651  1.00  0.00     0.116 C 
BRANCH  22  23
ATOM     23  N   UNL     1      -5.798  -2.124   2.532  1.00  0.00    -0.352 N 
ATOM     24  C   UNL     1      -7.131  -2.342   2.751  1.00  0.00     0.251 C 
ATOM     25  H   UNL     1      -5.557  -1.210   2.256  1.00  0.00     0.163 HD
ATOM     26  O   UNL     1      -7.948  -1.483   2.416  1.00  0.00    -0.269 OA
BRANCH  24  27
ATOM     27  C   UNL     1      -7.600  -3.598   3.377  1.00  0.00     0.039 A 
ATOM     28  C   UNL     1      -8.783  -4.175   2.909  1.00  0.00     0.014 A 
ATOM     29  C   UNL     1      -6.922  -4.174   4.457  1.00  0.00     0.014 A 
ATOM     30  C   UNL     1      -9.285  -5.325   3.521  1.00  0.00     0.010 A 
ATOM     31  C   UNL     1      -7.377  -5.368   5.010  1.00  0.00     0.010 A 
ATOM     32  C   UNL     1      -8.587  -5.929   4.578  1.00  0.00    -0.014 A 
BRANCH  32  33
ATOM     33  C   UNL     1      -9.163  -7.090   5.303  1.00  0.00     0.031 A 
ATOM     34  C   UNL     1      -9.572  -6.940   6.745  1.00  0.00     0.074 A 
ATOM     35  C   UNL     1      -9.304  -8.275   4.681  1.00  0.00     0.049 A 
ATOM     36  N   UNL     1     -10.090  -7.826   7.557  1.00  0.00    -0.248 NA
ATOM     37  C   UNL     1      -9.340  -5.625   7.366  1.00  0.00     0.031 C 
ATOM     38  C   UNL     1      -8.910  -8.559   3.300  1.00  0.00     0.029 A 
ATOM     39  N   UNL     1      -9.824  -9.461   5.131  1.00  0.00    -0.354 N 
ATOM     40  C   UNL     1     -10.223  -7.184   8.783  1.00  0.00     0.074 A 
ATOM     41  C   UNL     1      -9.678  -5.855   8.626  1.00  0.00     0.031 C 
ATOM     42  C   UNL     1      -9.237  -9.828   3.005  1.00  0.00     0.029 A 
ATOM     43  C   UNL     1      -9.836 -10.452   4.181  1.00  0.00     0.049 A 
ATOM     44  H   UNL     1     -10.156  -9.590   6.049  1.00  0.00     0.167 HD
ATOM     45  C   UNL     1     -10.774  -7.648   9.929  1.00  0.00     0.037 A 
ATOM     46  C   UNL     1     -10.292 -11.717   4.250  1.00  0.00     0.037 A 
ATOM     47  C   UNL     1     -11.355  -8.957  10.071  1.00  0.00     0.049 A 
ATOM     48  C   UNL     1     -10.920 -12.204   5.527  1.00  0.00     0.074 A 
ATOM     49  C   UNL     1     -11.997  -9.502  11.169  1.00  0.00     0.029 A 
ATOM     50  N   UNL     1     -11.365  -9.925   9.078  1.00  0.00    -0.354 N 
ATOM     51  N   UNL     1     -11.102 -11.564   6.657  1.00  0.00    -0.248 NA
ATOM     52  C   UNL     1     -11.418 -13.586   5.532  1.00  0.00     0.031 C 
ATOM     53  C   UNL     1     -12.361 -10.816  10.853  1.00  0.00     0.029 A 
ATOM     54  C   UNL     1     -11.989 -11.070   9.542  1.00  0.00     0.049 A 
ATOM     55  H   UNL     1     -10.986  -9.813   8.177  1.00  0.00     0.167 HD
ATOM     56  C   UNL     1     -11.772 -12.450   7.492  1.00  0.00     0.074 A 
ATOM     57  C   UNL     1     -11.969 -13.669   6.735  1.00  0.00     0.031 C 
ATOM     58  C   UNL     1     -12.193 -12.268   8.768  1.00  0.00     0.037 A 
BRANCH  45  59
ATOM     59  C   UNL     1     -10.771  -6.730  11.118  1.00  0.00     0.057 A 
ATOM     60  C   UNL     1     -11.564  -5.575  11.168  1.00  0.00     0.134 A 
ATOM     61  C   UNL     1      -9.972  -7.010  12.234  1.00  0.00     0.134 A 
ATOM     62  F   UNL     1     -12.342  -5.240  10.127  1.00  0.00    -0.206 F 
ATOM     63  C   UNL     1     -11.536  -4.715  12.267  1.00  0.00     0.040 A 
ATOM     64  C   UNL     1      -9.958  -6.174  13.351  1.00  0.00     0.040 A 
ATOM     65  F   UNL     1      -9.191  -8.101  12.257  1.00  0.00    -0.206 F 
ATOM     66  C   UNL     1     -10.735  -5.017  13.366  1.00  0.00     0.006 A 
ENDBRANCH  45  59
BRANCH  46  67
ATOM     67  C   UNL     1     -10.226 -12.597   3.056  1.00  0.00     0.057 A 
ATOM     68  C   UNL     1     -11.389 -12.957   2.364  1.00  0.00     0.134 A 
ATOM     69  C   UNL     1      -9.010 -13.103   2.583  1.00  0.00     0.134 A 
ATOM     70  F   UNL     1     -12.585 -12.517   2.780  1.00  0.00    -0.206 F 
ATOM     71  C   UNL     1     -11.348 -13.805   1.256  1.00  0.00     0.040 A 
ATOM     72  C   UNL     1      -8.952 -13.933   1.462  1.00  0.00     0.040 A 
ATOM     73  F   UNL     1      -7.861 -12.789   3.198  1.00  0.00    -0.206 F 
ATOM     74  C   UNL     1     -10.125 -14.292   0.800  1.00  0.00     0.006 A 
ENDBRANCH  46  67
BRANCH  58  75
ATOM     75  C   UNL     1     -12.958 -13.392   9.405  1.00  0.00     0.057 A 
ATOM     76  C   UNL     1     -12.341 -14.587   9.793  1.00  0.00     0.134 A 
ATOM     77  C   UNL     1     -14.330 -13.260   9.656  1.00  0.00     0.134 A 
ATOM     78  F   UNL     1     -11.032 -14.781   9.570  1.00  0.00    -0.206 F 
ATOM     79  C   UNL     1     -13.067 -15.624  10.382  1.00  0.00     0.040 A 
ATOM     80  C   UNL     1     -15.061 -14.278  10.270  1.00  0.00     0.040 A 
ATOM     81  F   UNL     1     -14.980 -12.136   9.319  1.00  0.00    -0.206 F 
ATOM     82  C   UNL     1     -14.430 -15.468  10.626  1.00  0.00     0.006 A 
ENDBRANCH  58  75
ENDBRANCH  32  33
ENDBRANCH  24  27
ENDBRANCH  22  23
ENDBRANCH  21  22
ENDBRANCH   1  21
TORSDOF 14
