REMARK SMILES C[C@H](C(=O)NCCCCNC(=O)c1ccc(-c2c3nc(c(-c4c(F)cccc4F)c4ccc([nH]4)c(-c4c(F)cccc4F)c4nc(c(-c5c(F)cccc5F)c5ccc2[nH]5)C=C4)C=C3)cc1)c1ccc2c3cc(Cl)ccc3n(C(=O)c3ccc(Cl)cc3)c2c1
REMARK SMILES IDX 7 1 6 2 5 3 3 4 4 5 2 7 1 8 67 9 68 10 89 11 69 12 88 13
REMARK SMILES IDX 70 14 78 15 71 16 77 17 72 18 76 19 73 20 75 21 74 22 79 23
REMARK SMILES IDX 80 24 81 25 82 26 87 27 83 28 86 29 84 30 85 31 8 32 9 33
REMARK SMILES IDX 10 34 11 35 12 37 13 38 14 39 66 40 15 41 65 42 16 43 17 44
REMARK SMILES IDX 18 45 59 46 19 47 64 48 58 49 60 50 20 51 63 52 57 53 56 54
REMARK SMILES IDX 21 56 47 57 30 58 46 59 31 60 34 61 45 62 61 63 32 64 33 65
REMARK SMILES IDX 44 67 62 68 35 69 22 70 23 71 28 72 24 73 25 74 27 75 29 76
REMARK SMILES IDX 26 77 48 78 49 79 54 80 50 81 51 82 53 83 55 84 52 85 36 86
REMARK SMILES IDX 37 87 42 88 38 89 39 90 41 91 43 92 40 93
REMARK H PARENT 5 6 10 36 60 55 34 66
REMARK Flexibility Score: inf
ROOT
ATOM      1  C   UNL     1      -1.022   2.613   0.299  1.00  0.00     0.023 C 
ENDROOT
BRANCH   1   2
ATOM      2  C   UNL     1      -0.775   1.453  -0.669  1.00  0.00     0.116 C 
BRANCH   2   3
ATOM      3  N   UNL     1       0.573   0.935  -0.554  1.00  0.00    -0.356 N 
ATOM      4  C   UNL     1       1.155  -0.013   0.219  1.00  0.00     0.227 C 
ATOM      5  O   UNL     1       2.363  -0.181  -0.019  1.00  0.00    -0.274 OA
ATOM      6  H   UNL     1       1.204   1.367  -1.174  1.00  0.00     0.163 HD
BRANCH   4   7
ATOM      7  C   UNL     1       0.512  -0.846   1.343  1.00  0.00     0.105 C 
ATOM      8  C   UNL     1       1.226  -0.540   2.664  1.00  0.00     0.023 C 
BRANCH   7   9
ATOM      9  C   UNL     1      -0.996  -0.883   1.526  1.00  0.00    -0.034 A 
ATOM     10  C   UNL     1      -1.715   0.193   2.042  1.00  0.00     0.005 A 
ATOM     11  C   UNL     1      -1.695  -2.068   1.248  1.00  0.00     0.032 A 
ATOM     12  C   UNL     1      -3.110   0.240   1.955  1.00  0.00     0.011 A 
ATOM     13  C   UNL     1      -3.099  -2.093   1.401  1.00  0.00     0.057 A 
ATOM     14  C   UNL     1      -3.808  -0.919   1.583  1.00  0.00     0.008 A 
ATOM     15  N   UNL     1      -4.014  -3.158   1.474  1.00  0.00    -0.276 N 
ATOM     16  C   UNL     1      -5.160  -1.215   1.295  1.00  0.00     0.009 A 
ATOM     17  C   UNL     1      -5.307  -2.610   1.376  1.00  0.00     0.057 A 
ATOM     18  C   UNL     1      -6.279  -0.392   1.042  1.00  0.00     0.031 A 
ATOM     19  C   UNL     1      -6.604  -3.159   1.422  1.00  0.00     0.029 A 
ATOM     20  C   UNL     1      -7.539  -0.968   0.939  1.00  0.00     0.041 A 
ATOM     21  C   UNL     1      -7.707  -2.325   1.173  1.00  0.00     0.023 A 
ATOM     22  Cl  UNL     1      -8.897   0.018   0.561  1.00  0.00    -0.084 Cl
BRANCH  15  23
ATOM     23  C   UNL     1      -3.588  -4.496   1.706  1.00  0.00     0.262 C 
ATOM     24  O   UNL     1      -2.419  -4.634   2.083  1.00  0.00    -0.268 OA
BRANCH  23  25
ATOM     25  C   UNL     1      -4.322  -5.778   1.582  1.00  0.00     0.040 A 
ATOM     26  C   UNL     1      -3.866  -6.849   2.378  1.00  0.00     0.015 A 
ATOM     27  C   UNL     1      -5.299  -6.023   0.617  1.00  0.00     0.015 A 
ATOM     28  C   UNL     1      -4.388  -8.134   2.228  1.00  0.00     0.021 A 
ATOM     29  C   UNL     1      -5.854  -7.305   0.495  1.00  0.00     0.021 A 
ATOM     30  C   UNL     1      -5.390  -8.354   1.291  1.00  0.00     0.041 A 
ATOM     31  Cl  UNL     1      -6.029  -9.937   1.086  1.00  0.00    -0.084 Cl
ENDBRANCH  23  25
ENDBRANCH  15  23
ENDBRANCH   7   9
ENDBRANCH   4   7
ENDBRANCH   2   3
ENDBRANCH   1   2
BRANCH   1  32
ATOM     32  C   UNL     1      -0.722   4.008  -0.231  1.00  0.00     0.023 C 
BRANCH  32  33
ATOM     33  C   UNL     1      -1.598   4.448  -1.391  1.00  0.00     0.116 C 
BRANCH  33  34
ATOM     34  N   UNL     1      -3.025   4.455  -1.099  1.00  0.00    -0.352 N 
ATOM     35  C   UNL     1      -3.992   5.268  -1.647  1.00  0.00     0.251 C 
ATOM     36  H   UNL     1      -3.335   3.801  -0.432  1.00  0.00     0.163 HD
ATOM     37  O   UNL     1      -5.154   5.213  -1.258  1.00  0.00    -0.269 OA
BRANCH  35  38
ATOM     38  C   UNL     1      -3.593   6.250  -2.676  1.00  0.00     0.039 A 
ATOM     39  C   UNL     1      -3.957   7.588  -2.512  1.00  0.00     0.014 A 
ATOM     40  C   UNL     1      -2.786   5.860  -3.748  1.00  0.00     0.014 A 
ATOM     41  C   UNL     1      -3.441   8.549  -3.382  1.00  0.00     0.010 A 
ATOM     42  C   UNL     1      -2.201   6.827  -4.554  1.00  0.00     0.010 A 
ATOM     43  C   UNL     1      -2.525   8.181  -4.382  1.00  0.00    -0.014 A 
BRANCH  43  44
ATOM     44  C   UNL     1      -1.899   9.193  -5.267  1.00  0.00     0.031 A 
ATOM     45  C   UNL     1      -2.155   9.151  -6.748  1.00  0.00     0.074 A 
ATOM     46  C   UNL     1      -1.048  10.101  -4.751  1.00  0.00     0.049 A 
ATOM     47  N   UNL     1      -1.654   9.902  -7.695  1.00  0.00    -0.248 NA
ATOM     48  C   UNL     1      -3.067   8.103  -7.232  1.00  0.00     0.031 C 
ATOM     49  C   UNL     1      -0.669  10.204  -3.340  1.00  0.00     0.029 A 
ATOM     50  N   UNL     1      -0.340  11.107  -5.359  1.00  0.00    -0.354 N 
ATOM     51  C   UNL     1      -2.175   9.406  -8.883  1.00  0.00     0.074 A 
ATOM     52  C   UNL     1      -2.982   8.254  -8.545  1.00  0.00     0.031 C 
ATOM     53  C   UNL     1       0.178  11.235  -3.187  1.00  0.00     0.029 A 
ATOM     54  C   UNL     1       0.426  11.844  -4.490  1.00  0.00     0.049 A 
ATOM     55  H   UNL     1      -0.378  11.283  -6.327  1.00  0.00     0.167 HD
ATOM     56  C   UNL     1      -2.022   9.884 -10.140  1.00  0.00     0.037 A 
ATOM     57  C   UNL     1       1.236  12.895  -4.720  1.00  0.00     0.037 A 
ATOM     58  C   UNL     1      -1.248  11.051 -10.469  1.00  0.00     0.049 A 
ATOM     59  C   UNL     1       1.375  13.421  -6.122  1.00  0.00     0.074 A 
ATOM     60  C   UNL     1      -1.083  11.656 -11.702  1.00  0.00     0.029 A 
ATOM     61  N   UNL     1      -0.513  11.791  -9.556  1.00  0.00    -0.354 N 
ATOM     62  N   UNL     1       0.816  12.987  -7.226  1.00  0.00    -0.248 NA
ATOM     63  C   UNL     1       2.250  14.587  -6.308  1.00  0.00     0.031 C 
ATOM     64  C   UNL     1      -0.218  12.744 -11.541  1.00  0.00     0.029 A 
ATOM     65  C   UNL     1       0.121  12.840 -10.201  1.00  0.00     0.049 A 
ATOM     66  H   UNL     1      -0.450  11.599  -8.593  1.00  0.00     0.167 HD
ATOM     67  C   UNL     1       1.247  13.843  -8.231  1.00  0.00     0.074 A 
ATOM     68  C   UNL     1       2.104  14.828  -7.603  1.00  0.00     0.031 C 
ATOM     69  C   UNL     1       0.961  13.816  -9.556  1.00  0.00     0.037 A 
BRANCH  56  70
ATOM     70  C   UNL     1      -2.717   9.147 -11.246  1.00  0.00     0.057 A 
ATOM     71  C   UNL     1      -4.112   9.168 -11.384  1.00  0.00     0.134 A 
ATOM     72  C   UNL     1      -1.986   8.421 -12.195  1.00  0.00     0.134 A 
ATOM     73  F   UNL     1      -4.872   9.832 -10.499  1.00  0.00    -0.206 F 
ATOM     74  C   UNL     1      -4.756   8.471 -12.407  1.00  0.00     0.040 A 
ATOM     75  C   UNL     1      -2.617   7.742 -13.238  1.00  0.00     0.040 A 
ATOM     76  F   UNL     1      -0.648   8.361 -12.124  1.00  0.00    -0.206 F 
ATOM     77  C   UNL     1      -4.007   7.760 -13.342  1.00  0.00     0.006 A 
ENDBRANCH  56  70
BRANCH  57  78
ATOM     78  C   UNL     1       1.947  13.549  -3.593  1.00  0.00     0.057 A 
ATOM     79  C   UNL     1       1.572  14.822  -3.148  1.00  0.00     0.134 A 
ATOM     80  C   UNL     1       3.018  12.927  -2.941  1.00  0.00     0.134 A 
ATOM     81  F   UNL     1       0.564  15.476  -3.745  1.00  0.00    -0.206 F 
ATOM     82  C   UNL     1       2.249  15.464  -2.110  1.00  0.00     0.040 A 
ATOM     83  C   UNL     1       3.689  13.547  -1.885  1.00  0.00     0.040 A 
ATOM     84  F   UNL     1       3.420  11.704  -3.314  1.00  0.00    -0.206 F 
ATOM     85  C   UNL     1       3.309  14.823  -1.472  1.00  0.00     0.006 A 
ENDBRANCH  57  78
BRANCH  69  86
ATOM     86  C   UNL     1       1.547  14.904 -10.405  1.00  0.00     0.057 A 
ATOM     87  C   UNL     1       2.907  14.932 -10.735  1.00  0.00     0.134 A 
ATOM     88  C   UNL     1       0.731  15.916 -10.928  1.00  0.00     0.134 A 
ATOM     89  F   UNL     1       3.743  13.999 -10.255  1.00  0.00    -0.206 F 
ATOM     90  C   UNL     1       3.441  15.941 -11.538  1.00  0.00     0.040 A 
ATOM     91  C   UNL     1       1.248  16.916 -11.752  1.00  0.00     0.040 A 
ATOM     92  F   UNL     1      -0.582  15.941 -10.656  1.00  0.00    -0.206 F 
ATOM     93  C   UNL     1       2.609  16.933 -12.054  1.00  0.00     0.006 A 
ENDBRANCH  69  86
ENDBRANCH  43  44
ENDBRANCH  35  38
ENDBRANCH  33  34
ENDBRANCH  32  33
ENDBRANCH   1  32
TORSDOF 14
