REMARK SMILES Cc1nc(-c2ccc(S(=O)(=O)N3CC[NH2+][C@H](C(=O)NCCCCNC(=O)c4ccc(-c5c6nc(c(-c7c(F)cccc7F)c7ccc([nH]7)c(-c7c(F)cccc7F)c7nc(c(-c8c(F)cccc8F)c8ccc5[nH]8)C=C7)C=C6)cc4)C3)s2)cs1
REMARK SMILES IDX 21 1 20 2 19 3 17 4 18 5 16 7 12 8 13 9 81 10 14 11 15 12
REMARK SMILES IDX 9 15 10 16 11 17 8 18 5 19 6 20 82 21 7 22 4 23 1 24 2 25
REMARK SMILES IDX 3 26 84 27 83 28 22 29 23 30 24 31 25 32 26 34 27 35 28 36
REMARK SMILES IDX 80 37 29 38 79 39 30 40 31 41 32 42 73 43 33 44 78 45 72 46
REMARK SMILES IDX 74 47 34 48 77 49 71 50 70 51 35 53 61 54 44 55 60 56 45 57
REMARK SMILES IDX 48 58 59 59 75 60 46 61 47 62 58 64 76 65 49 66 36 67 37 68
REMARK SMILES IDX 42 69 38 70 39 71 41 72 43 73 40 74 62 75 63 76 68 77 64 78
REMARK SMILES IDX 65 79 67 80 69 81 66 82 50 83 51 84 56 85 52 86 53 87 55 88
REMARK SMILES IDX 57 89 54 90
REMARK H PARENT 19 6 15 13 15 14 24 33 74 52 48 63
REMARK Flexibility Score: inf
ROOT
ATOM      1  C   UNL     1       8.206  -6.147  -3.292  1.00  0.00     0.023 C 
ENDROOT
BRANCH   1   2
ATOM      2  C   UNL     1       7.402  -4.844  -3.235  1.00  0.00     0.116 C 
BRANCH   2   3
ATOM      3  N   UNL     1       6.201  -4.989  -4.027  1.00  0.00    -0.351 N 
ATOM      4  C   UNL     1       5.081  -5.724  -3.782  1.00  0.00     0.279 C 
ATOM      5  O   UNL     1       4.459  -6.096  -4.785  1.00  0.00    -0.268 OA
ATOM      6  H   UNL     1       6.192  -4.481  -4.870  1.00  0.00     0.163 HD
BRANCH   4   7
ATOM      7  C   UNL     1       4.518  -5.963  -2.351  1.00  0.00     0.287 C 
ATOM      8  N   UNL     1       4.737  -6.542   0.030  1.00  0.00    -0.185 NA
ATOM      9  C   UNL     1       3.685  -7.571   0.011  1.00  0.00     0.164 C 
ATOM     10  C   UNL     1       5.457  -6.476  -1.264  1.00  0.00     0.178 C 
ATOM     11  C   UNL     1       2.792  -7.466  -1.241  1.00  0.00     0.278 C 
ATOM     12  N   UNL     1       3.314  -6.848  -2.471  1.00  0.00    -0.334 N 
ATOM     13  H   UNL     1       2.563  -6.287  -2.873  1.00  0.00     0.347 HD
ATOM     14  H   UNL     1       3.629  -7.634  -3.040  1.00  0.00     0.347 HD
BRANCH   8  15
ATOM     15  S   UNL     1       4.561  -5.141   0.968  1.00  0.00     0.253 S 
ATOM     16  O   UNL     1       5.793  -4.387   0.817  1.00  0.00    -0.206 OA
ATOM     17  O   UNL     1       4.082  -5.554   2.267  1.00  0.00    -0.206 OA
BRANCH  15  18
ATOM     18  C   UNL     1       3.284  -4.035   0.369  1.00  0.00     0.135 A 
ATOM     19  C   UNL     1       1.825  -2.030   0.269  1.00  0.00     0.055 A 
ATOM     20  C   UNL     1       1.428  -3.005  -0.612  1.00  0.00     0.023 A 
ATOM     21  S   UNL     1       3.245  -2.466   1.103  1.00  0.00    -0.121 S 
ATOM     22  C   UNL     1       2.272  -4.138  -0.564  1.00  0.00     0.034 A 
BRANCH  19  23
ATOM     23  C   UNL     1       1.009  -0.789   0.429  1.00  0.00     0.091 A 
ATOM     24  C   UNL     1      -2.338   0.588   0.029  1.00  0.00     0.079 C 
ATOM     25  C   UNL     1      -0.894   0.334   0.278  1.00  0.00     0.090 A 
ATOM     26  N   UNL     1      -0.295  -0.789  -0.040  1.00  0.00    -0.241 NA
ATOM     27  S   UNL     1       0.112   1.510   1.021  1.00  0.00    -0.127 S 
ATOM     28  C   UNL     1       1.415   0.385   1.023  1.00  0.00     0.096 A 
ENDBRANCH  19  23
ENDBRANCH  15  18
ENDBRANCH   8  15
ENDBRANCH   4   7
ENDBRANCH   2   3
ENDBRANCH   1   2
BRANCH   1  29
ATOM     29  C   UNL     1       8.889  -6.382  -4.647  1.00  0.00     0.023 C 
BRANCH  29  30
ATOM     30  C   UNL     1       9.996  -5.385  -4.965  1.00  0.00     0.116 C 
BRANCH  30  31
ATOM     31  N   UNL     1      11.062  -5.400  -3.978  1.00  0.00    -0.352 N 
ATOM     32  C   UNL     1      12.376  -5.043  -4.139  1.00  0.00     0.251 C 
ATOM     33  H   UNL     1      10.808  -5.707  -3.078  1.00  0.00     0.163 HD
ATOM     34  O   UNL     1      13.186  -5.229  -3.237  1.00  0.00    -0.269 OA
BRANCH  32  35
ATOM     35  C   UNL     1      12.816  -4.478  -5.428  1.00  0.00     0.039 A 
ATOM     36  C   UNL     1      13.940  -5.028  -6.046  1.00  0.00     0.014 A 
ATOM     37  C   UNL     1      12.111  -3.434  -6.034  1.00  0.00     0.014 A 
ATOM     38  C   UNL     1      14.330  -4.563  -7.301  1.00  0.00     0.010 A 
ATOM     39  C   UNL     1      12.460  -3.018  -7.314  1.00  0.00     0.010 A 
ATOM     40  C   UNL     1      13.576  -3.575  -7.956  1.00  0.00    -0.014 A 
BRANCH  40  41
ATOM     41  C   UNL     1      13.951  -3.120  -9.315  1.00  0.00     0.031 A 
ATOM     42  C   UNL     1      14.431  -1.714  -9.537  1.00  0.00     0.074 A 
ATOM     43  C   UNL     1      13.819  -3.966 -10.354  1.00  0.00     0.049 A 
ATOM     44  N   UNL     1      14.810  -1.139 -10.650  1.00  0.00    -0.248 NA
ATOM     45  C   UNL     1      14.462  -0.830  -8.362  1.00  0.00     0.031 C 
ATOM     46  C   UNL     1      13.299  -5.333 -10.271  1.00  0.00     0.029 A 
ATOM     47  N   UNL     1      14.112  -3.801 -11.683  1.00  0.00    -0.354 N 
ATOM     48  C   UNL     1      15.114   0.173 -10.311  1.00  0.00     0.074 A 
ATOM     49  C   UNL     1      14.822   0.325  -8.902  1.00  0.00     0.031 C 
ATOM     50  C   UNL     1      13.342  -5.893 -11.491  1.00  0.00     0.029 A 
ATOM     51  C   UNL     1      13.870  -4.920 -12.442  1.00  0.00     0.049 A 
ATOM     52  H   UNL     1      14.462  -2.960 -12.057  1.00  0.00     0.167 HD
ATOM     53  C   UNL     1      15.616   1.155 -11.097  1.00  0.00     0.037 A 
ATOM     54  C   UNL     1      14.068  -5.138 -13.755  1.00  0.00     0.037 A 
ATOM     55  C   UNL     1      15.931   0.991 -12.491  1.00  0.00     0.049 A 
ATOM     56  C   UNL     1      14.668  -4.047 -14.596  1.00  0.00     0.074 A 
ATOM     57  C   UNL     1      16.494   1.906 -13.364  1.00  0.00     0.029 A 
ATOM     58  N   UNL     1      15.713  -0.171 -13.216  1.00  0.00    -0.354 N 
ATOM     59  N   UNL     1      15.022  -2.834 -14.247  1.00  0.00    -0.248 NA
ATOM     60  C   UNL     1      14.911  -4.362 -16.011  1.00  0.00     0.031 C 
ATOM     61  C   UNL     1      16.590   1.306 -14.624  1.00  0.00     0.029 A 
ATOM     62  C   UNL     1      16.123   0.005 -14.527  1.00  0.00     0.049 A 
ATOM     63  H   UNL     1      15.323  -0.999 -12.852  1.00  0.00     0.167 HD
ATOM     64  C   UNL     1      15.559  -2.252 -15.387  1.00  0.00     0.074 A 
ATOM     65  C   UNL     1      15.493  -3.250 -16.436  1.00  0.00     0.031 C 
ATOM     66  C   UNL     1      16.061  -1.004 -15.552  1.00  0.00     0.037 A 
BRANCH  53  67
ATOM     67  C   UNL     1      15.866   2.488 -10.457  1.00  0.00     0.057 A 
ATOM     68  C   UNL     1      16.904   2.680  -9.535  1.00  0.00     0.134 A 
ATOM     69  C   UNL     1      15.075   3.598 -10.778  1.00  0.00     0.134 A 
ATOM     70  F   UNL     1      17.689   1.654  -9.173  1.00  0.00    -0.206 F 
ATOM     71  C   UNL     1      17.131   3.920  -8.937  1.00  0.00     0.040 A 
ATOM     72  C   UNL     1      15.308   4.850 -10.206  1.00  0.00     0.040 A 
ATOM     73  F   UNL     1      14.067   3.485 -11.656  1.00  0.00    -0.206 F 
ATOM     74  C   UNL     1      16.334   5.012  -9.277  1.00  0.00     0.006 A 
ENDBRANCH  53  67
BRANCH  54  75
ATOM     75  C   UNL     1      13.751  -6.463 -14.341  1.00  0.00     0.057 A 
ATOM     76  C   UNL     1      14.770  -7.341 -14.729  1.00  0.00     0.134 A 
ATOM     77  C   UNL     1      12.429  -6.883 -14.529  1.00  0.00     0.134 A 
ATOM     78  F   UNL     1      16.055  -6.987 -14.587  1.00  0.00    -0.206 F 
ATOM     79  C   UNL     1      14.487  -8.581 -15.303  1.00  0.00     0.040 A 
ATOM     80  C   UNL     1      12.132  -8.130 -15.081  1.00  0.00     0.040 A 
ATOM     81  F   UNL     1      11.409  -6.091 -14.167  1.00  0.00    -0.206 F 
ATOM     82  C   UNL     1      13.163  -8.980 -15.476  1.00  0.00     0.006 A 
ENDBRANCH  54  75
BRANCH  66  83
ATOM     83  C   UNL     1      16.616  -0.667 -16.904  1.00  0.00     0.057 A 
ATOM     84  C   UNL     1      15.787  -0.445 -18.009  1.00  0.00     0.134 A 
ATOM     85  C   UNL     1      17.998  -0.540 -17.092  1.00  0.00     0.134 A 
ATOM     86  F   UNL     1      14.455  -0.564 -17.896  1.00  0.00    -0.206 F 
ATOM     87  C   UNL     1      16.315  -0.134 -19.264  1.00  0.00     0.040 A 
ATOM     88  C   UNL     1      18.536  -0.207 -18.335  1.00  0.00     0.040 A 
ATOM     89  F   UNL     1      18.846  -0.733 -16.070  1.00  0.00    -0.206 F 
ATOM     90  C   UNL     1      17.693  -0.009 -19.427  1.00  0.00     0.006 A 
ENDBRANCH  66  83
ENDBRANCH  40  41
ENDBRANCH  32  35
ENDBRANCH  30  31
ENDBRANCH  29  30
ENDBRANCH   1  29
TORSDOF 14
