REMARK SMILES COc1ccc2c(c1)c(Cc1nc(-c3ccc(C(=O)NCCCCNC(=O)c4ccc(-c5c6nc(c(-c7c(F)cccc7F)c7ccc([nH]7)c(-c7c(F)cccc7F)c7nc(c(-c8c(F)cccc8F)c8ccc5[nH]8)C=C7)C=C6)cc4)cc3)cs1)c(C)n2C(=O)c1ccc(Cl)cc1
REMARK SMILES IDX 21 1 20 2 18 3 19 4 17 6 14 7 15 8 83 9 16 10 82 11 13 12
REMARK SMILES IDX 11 13 12 14 85 15 84 16 10 17 9 18 3 19 4 20 8 21 5 22 7 23
REMARK SMILES IDX 6 24 88 25 86 26 87 27 2 28 1 29 89 30 90 31 91 32 92 33
REMARK SMILES IDX 97 34 93 35 96 36 94 37 95 38 22 39 23 40 24 41 25 42 26 43
REMARK SMILES IDX 27 45 28 46 29 47 81 48 30 49 80 50 31 51 32 52 33 53 74 54
REMARK SMILES IDX 34 55 79 56 73 57 75 58 35 59 78 60 72 61 71 62 36 64 62 65
REMARK SMILES IDX 45 66 61 67 46 68 49 69 60 70 76 71 47 72 48 73 59 75 77 76
REMARK SMILES IDX 50 77 37 78 38 79 43 80 39 81 40 82 42 83 44 84 41 85 63 86
REMARK SMILES IDX 64 87 69 88 65 89 66 90 68 91 70 92 67 93 51 94 52 95 57 96
REMARK SMILES IDX 53 97 54 98 56 99 58 100 55 101
REMARK H PARENT 20 5 25 44 75 63 49 74
REMARK Flexibility Score: inf
ROOT
ATOM      1  C   UNL     1      -4.172   4.224   3.738  1.00  0.00     0.116 C 
ENDROOT
BRANCH   1   2
ATOM      2  N   UNL     1      -3.470   4.577   4.960  1.00  0.00    -0.352 N 
ATOM      3  C   UNL     1      -2.659   3.840   5.794  1.00  0.00     0.251 C 
ATOM      4  O   UNL     1      -2.159   4.415   6.766  1.00  0.00    -0.269 OA
ATOM      5  H   UNL     1      -3.596   5.511   5.242  1.00  0.00     0.163 HD
BRANCH   3   6
ATOM      6  C   UNL     1      -2.434   2.375   5.631  1.00  0.00     0.039 A 
ATOM      7  C   UNL     1      -2.399  -0.443   5.524  1.00  0.00     0.001 A 
ATOM      8  C   UNL     1      -2.193   0.216   6.739  1.00  0.00     0.011 A 
ATOM      9  C   UNL     1      -2.470   0.320   4.352  1.00  0.00     0.011 A 
ATOM     10  C   UNL     1      -2.222   1.615   6.792  1.00  0.00     0.014 A 
ATOM     11  C   UNL     1      -2.442   1.716   4.402  1.00  0.00     0.014 A 
BRANCH   7  12
ATOM     12  C   UNL     1      -2.534  -1.890   5.437  1.00  0.00     0.081 A 
ATOM     13  C   UNL     1      -2.370  -3.847   4.404  1.00  0.00     0.098 A 
ATOM     14  N   UNL     1      -2.216  -2.548   4.269  1.00  0.00    -0.241 NA
ATOM     15  S   UNL     1      -3.035  -4.341   5.910  1.00  0.00    -0.126 S 
ATOM     16  C   UNL     1      -3.051  -2.702   6.427  1.00  0.00     0.095 A 
BRANCH  13  17
ATOM     17  C   UNL     1      -2.050  -4.840   3.325  1.00  0.00     0.105 C 
BRANCH  17  18
ATOM     18  C   UNL     1      -0.576  -4.905   3.002  1.00  0.00    -0.012 A 
ATOM     19  C   UNL     1       0.808  -1.757   1.319  1.00  0.00     0.119 A 
ATOM     20  C   UNL     1       2.069  -2.265   1.067  1.00  0.00     0.048 A 
ATOM     21  C   UNL     1      -0.137  -2.565   1.948  1.00  0.00     0.057 A 
ATOM     22  C   UNL     1       2.399  -3.573   1.444  1.00  0.00     0.031 A 
ATOM     23  C   UNL     1       0.183  -3.876   2.377  1.00  0.00     0.008 A 
ATOM     24  C   UNL     1       1.474  -4.365   2.161  1.00  0.00     0.057 A 
ATOM     25  N   UNL     1       1.564  -5.643   2.752  1.00  0.00    -0.280 N 
ATOM     26  C   UNL     1       0.280  -5.979   3.221  1.00  0.00     0.028 A 
ATOM     27  C   UNL     1      -0.107  -7.274   3.865  1.00  0.00     0.065 C 
BRANCH  19  28
ATOM     28  O   UNL     1       0.396  -0.485   1.029  1.00  0.00    -0.497 OA
ATOM     29  C   UNL     1       0.980   0.092  -0.133  1.00  0.00     0.278 C 
ENDBRANCH  19  28
BRANCH  25  30
ATOM     30  C   UNL     1       2.741  -6.447   2.837  1.00  0.00     0.262 C 
ATOM     31  O   UNL     1       2.654  -7.608   3.233  1.00  0.00    -0.268 OA
BRANCH  30  32
ATOM     32  C   UNL     1       4.096  -6.024   2.437  1.00  0.00     0.040 A 
ATOM     33  C   UNL     1       4.742  -4.959   3.075  1.00  0.00     0.015 A 
ATOM     34  C   UNL     1       4.701  -6.688   1.363  1.00  0.00     0.015 A 
ATOM     35  C   UNL     1       5.952  -4.487   2.558  1.00  0.00     0.021 A 
ATOM     36  C   UNL     1       5.915  -6.221   0.860  1.00  0.00     0.021 A 
ATOM     37  C   UNL     1       6.522  -5.108   1.443  1.00  0.00     0.041 A 
ATOM     38  Cl  UNL     1       7.967  -4.473   0.759  1.00  0.00    -0.084 Cl
ENDBRANCH  30  32
ENDBRANCH  25  30
ENDBRANCH  17  18
ENDBRANCH  13  17
ENDBRANCH   7  12
ENDBRANCH   3   6
ENDBRANCH   1   2
BRANCH   1  39
ATOM     39  C   UNL     1      -5.602   4.743   3.646  1.00  0.00     0.023 C 
BRANCH  39  40
ATOM     40  C   UNL     1      -5.797   6.258   3.600  1.00  0.00     0.023 C 
BRANCH  40  41
ATOM     41  C   UNL     1      -4.960   7.018   2.571  1.00  0.00     0.116 C 
BRANCH  41  42
ATOM     42  N   UNL     1      -5.029   6.505   1.218  1.00  0.00    -0.352 N 
ATOM     43  C   UNL     1      -5.786   6.791   0.115  1.00  0.00     0.251 C 
ATOM     44  H   UNL     1      -4.381   5.782   1.054  1.00  0.00     0.163 HD
ATOM     45  O   UNL     1      -5.362   6.350  -0.957  1.00  0.00    -0.269 OA
BRANCH  43  46
ATOM     46  C   UNL     1      -7.102   7.485   0.125  1.00  0.00     0.039 A 
ATOM     47  C   UNL     1      -7.714   8.057   1.237  1.00  0.00     0.014 A 
ATOM     48  C   UNL     1      -7.815   7.451  -1.092  1.00  0.00     0.014 A 
ATOM     49  C   UNL     1      -9.052   8.442   1.173  1.00  0.00     0.010 A 
ATOM     50  C   UNL     1      -9.143   7.851  -1.167  1.00  0.00     0.010 A 
ATOM     51  C   UNL     1      -9.781   8.285  -0.015  1.00  0.00    -0.014 A 
BRANCH  51  52
ATOM     52  C   UNL     1     -11.162   8.763  -0.054  1.00  0.00     0.031 A 
ATOM     53  C   UNL     1     -11.262  10.224   0.214  1.00  0.00     0.074 A 
ATOM     54  C   UNL     1     -12.233   8.005  -0.380  1.00  0.00     0.049 A 
ATOM     55  N   UNL     1     -11.770  10.790   1.258  1.00  0.00    -0.248 NA
ATOM     56  C   UNL     1     -10.548  11.154  -0.677  1.00  0.00     0.031 C 
ATOM     57  C   UNL     1     -12.252   6.631  -0.885  1.00  0.00     0.029 A 
ATOM     58  N   UNL     1     -13.560   8.338  -0.382  1.00  0.00    -0.354 N 
ATOM     59  C   UNL     1     -11.633  12.162   1.059  1.00  0.00     0.074 A 
ATOM     60  C   UNL     1     -10.727  12.317  -0.046  1.00  0.00     0.031 C 
ATOM     61  C   UNL     1     -13.490   6.333  -1.349  1.00  0.00     0.029 A 
ATOM     62  C   UNL     1     -14.389   7.435  -1.053  1.00  0.00     0.049 A 
ATOM     63  H   UNL     1     -13.904   9.150   0.055  1.00  0.00     0.167 HD
ATOM     64  C   UNL     1     -12.480  13.034   1.672  1.00  0.00     0.037 A 
ATOM     65  C   UNL     1     -15.706   7.605  -1.361  1.00  0.00     0.037 A 
ATOM     66  C   UNL     1     -13.140  12.396   2.787  1.00  0.00     0.049 A 
ATOM     67  C   UNL     1     -16.238   8.666  -0.472  1.00  0.00     0.074 A 
ATOM     68  C   UNL     1     -12.731  11.832   3.979  1.00  0.00     0.029 A 
ATOM     69  N   UNL     1     -14.417  11.938   2.574  1.00  0.00    -0.354 N 
ATOM     70  N   UNL     1     -16.421   8.505   0.806  1.00  0.00    -0.248 NA
ATOM     71  C   UNL     1     -16.103  10.043  -0.920  1.00  0.00     0.031 C 
ATOM     72  C   UNL     1     -13.588  10.707   4.170  1.00  0.00     0.029 A 
ATOM     73  C   UNL     1     -14.523  10.695   3.135  1.00  0.00     0.049 A 
ATOM     74  H   UNL     1     -15.132  12.421   2.099  1.00  0.00     0.167 HD
ATOM     75  C   UNL     1     -15.945   9.678   1.370  1.00  0.00     0.074 A 
ATOM     76  C   UNL     1     -15.831  10.618   0.254  1.00  0.00     0.031 C 
ATOM     77  C   UNL     1     -15.408   9.678   2.626  1.00  0.00     0.037 A 
BRANCH  64  78
ATOM     78  C   UNL     1     -13.063  14.267   1.008  1.00  0.00     0.057 A 
ATOM     79  C   UNL     1     -13.032  14.525  -0.376  1.00  0.00     0.134 A 
ATOM     80  C   UNL     1     -13.993  15.040   1.733  1.00  0.00     0.134 A 
ATOM     81  F   UNL     1     -12.212  13.888  -1.217  1.00  0.00    -0.206 F 
ATOM     82  C   UNL     1     -13.922  15.402  -1.003  1.00  0.00     0.040 A 
ATOM     83  C   UNL     1     -14.917  15.886   1.110  1.00  0.00     0.040 A 
ATOM     84  F   UNL     1     -14.104  14.917   3.065  1.00  0.00    -0.206 F 
ATOM     85  C   UNL     1     -14.899  16.052  -0.267  1.00  0.00     0.006 A 
ENDBRANCH  64  78
BRANCH  65  86
ATOM     86  C   UNL     1     -16.493   7.132  -2.529  1.00  0.00     0.057 A 
ATOM     87  C   UNL     1     -15.882   6.905  -3.772  1.00  0.00     0.134 A 
ATOM     88  C   UNL     1     -17.899   7.190  -2.542  1.00  0.00     0.134 A 
ATOM     89  F   UNL     1     -14.547   6.901  -3.893  1.00  0.00    -0.206 F 
ATOM     90  C   UNL     1     -16.616   6.772  -4.958  1.00  0.00     0.040 A 
ATOM     91  C   UNL     1     -18.646   7.061  -3.724  1.00  0.00     0.040 A 
ATOM     92  F   UNL     1     -18.583   7.447  -1.418  1.00  0.00    -0.206 F 
ATOM     93  C   UNL     1     -18.002   6.865  -4.940  1.00  0.00     0.006 A 
ENDBRANCH  65  86
BRANCH  77  94
ATOM     94  C   UNL     1     -15.595   8.441   3.461  1.00  0.00     0.057 A 
ATOM     95  C   UNL     1     -16.201   8.572   4.715  1.00  0.00     0.134 A 
ATOM     96  C   UNL     1     -15.120   7.165   3.118  1.00  0.00     0.134 A 
ATOM     97  F   UNL     1     -16.626   9.773   5.138  1.00  0.00    -0.206 F 
ATOM     98  C   UNL     1     -16.356   7.486   5.577  1.00  0.00     0.040 A 
ATOM     99  C   UNL     1     -15.304   6.061   3.956  1.00  0.00     0.040 A 
ATOM    100  F   UNL     1     -14.430   6.960   1.988  1.00  0.00    -0.206 F 
ATOM    101  C   UNL     1     -15.923   6.221   5.192  1.00  0.00     0.006 A 
ENDBRANCH  77  94
ENDBRANCH  51  52
ENDBRANCH  43  46
ENDBRANCH  41  42
ENDBRANCH  40  41
ENDBRANCH  39  40
ENDBRANCH   1  39
TORSDOF 17
