REMARK SMILES O=C(COc1ccc(/C=C2\SC(=O)N(Cc3cc4c(cc3Cl)OCO4)C2=O)cc1)NCCCCNC(=O)c1ccc(-c2c3nc(c(-c4c(F)cccc4F)c4ccc([nH]4)c(-c4c(F)cccc4F)c4nc(c(-c5c(F)cccc5F)c5ccc2[nH]5)C=C4)C=C3)cc1
REMARK SMILES IDX 31 1 30 2 1 3 2 4 3 6 4 7 5 8 6 9 29 10 7 11 28 12 8 13 9 14
REMARK SMILES IDX 10 15 11 16 26 17 12 18 14 19 27 20 13 21 15 22 16 23 17 24
REMARK SMILES IDX 21 25 18 26 20 27 22 28 19 29 25 30 23 31 24 32 32 33 33 34
REMARK SMILES IDX 34 35 35 36 36 37 37 39 38 40 39 41 91 42 40 43 90 44 41 45
REMARK SMILES IDX 42 46 43 47 84 48 44 49 89 50 83 51 85 52 45 53 88 54 82 55
REMARK SMILES IDX 81 56 46 58 72 59 55 60 71 61 56 62 59 63 70 64 86 65 57 66
REMARK SMILES IDX 58 67 69 69 87 70 60 71 47 72 48 73 53 74 49 75 50 76 52 77
REMARK SMILES IDX 54 78 51 79 73 80 74 81 79 82 75 83 76 84 78 85 80 86 77 87
REMARK SMILES IDX 61 88 62 89 67 90 63 91 64 92 66 93 68 94 65 95
REMARK H PARENT 30 5 35 38 85 57 59 68
REMARK Flexibility Score: inf
ROOT
ATOM      1  C   UNL     1       2.208  -1.881  -1.379  1.00  0.00     0.116 C 
ENDROOT
BRANCH   1   2
ATOM      2  N   UNL     1       2.916  -0.808  -0.712  1.00  0.00    -0.353 N 
ATOM      3  O   UNL     1       1.256   0.762  -0.952  1.00  0.00    -0.271 OA
ATOM      4  C   UNL     1       2.309   0.401  -0.434  1.00  0.00     0.257 C 
ATOM      5  H   UNL     1       3.855  -0.944  -0.449  1.00  0.00     0.163 HD
BRANCH   4   6
ATOM      6  C   UNL     1       3.022   1.240   0.640  1.00  0.00     0.329 C 
BRANCH   6   7
ATOM      7  O   UNL     1       3.929   0.575   1.519  1.00  0.00    -0.484 OA
BRANCH   7   8
ATOM      8  C   UNL     1       3.368  -0.169   2.523  1.00  0.00     0.120 A 
ATOM      9  C   UNL     1       4.041  -0.185   3.750  1.00  0.00     0.047 A 
ATOM     10  C   UNL     1       2.238  -0.965   2.362  1.00  0.00     0.047 A 
ATOM     11  C   UNL     1       3.580  -0.981   4.811  1.00  0.00     0.012 A 
ATOM     12  C   UNL     1       1.802  -1.783   3.393  1.00  0.00     0.012 A 
ATOM     13  C   UNL     1       2.465  -1.793   4.620  1.00  0.00    -0.024 A 
BRANCH  13  14
ATOM     14  C   UNL     1       1.817  -2.585   5.655  1.00  0.00     0.029 C 
ATOM     15  C   UNL     1       1.873  -3.916   5.768  1.00  0.00     0.083 C 
ATOM     16  S   UNL     1       2.947  -5.078   5.122  1.00  0.00    -0.022 SA
ATOM     17  C   UNL     1       0.785  -4.607   6.485  1.00  0.00     0.268 C 
ATOM     18  C   UNL     1       2.220  -6.369   6.097  1.00  0.00     0.293 C 
ATOM     19  N   UNL     1       1.177  -5.867   6.831  1.00  0.00    -0.264 N 
ATOM     20  O   UNL     1      -0.341  -4.138   6.576  1.00  0.00    -0.268 OA
ATOM     21  O   UNL     1       2.599  -7.524   6.046  1.00  0.00    -0.261 OA
BRANCH  19  22
ATOM     22  C   UNL     1       0.375  -6.676   7.732  1.00  0.00     0.167 C 
BRANCH  22  23
ATOM     23  C   UNL     1       0.779  -6.477   9.186  1.00  0.00    -0.005 A 
ATOM     24  C   UNL     1       1.526  -7.492   9.821  1.00  0.00     0.057 A 
ATOM     25  C   UNL     1       0.440  -5.322   9.945  1.00  0.00     0.050 A 
ATOM     26  C   UNL     1       1.887  -7.317  11.143  1.00  0.00     0.166 A 
ATOM     27  C   UNL     1       0.911  -5.132  11.247  1.00  0.00     0.071 A 
ATOM     28  Cl  UNL     1      -0.675  -4.122   9.410  1.00  0.00    -0.084 Cl
ATOM     29  C   UNL     1       1.611  -6.158  11.824  1.00  0.00     0.167 A 
ATOM     30  O   UNL     1       2.503  -8.234  11.937  1.00  0.00    -0.454 OA
ATOM     31  O   UNL     1       2.042  -6.188  13.112  1.00  0.00    -0.454 OA
ATOM     32  C   UNL     1       2.410  -7.576  13.221  1.00  0.00     0.468 C 
ENDBRANCH  22  23
ENDBRANCH  19  22
ENDBRANCH  13  14
ENDBRANCH   7   8
ENDBRANCH   6   7
ENDBRANCH   4   6
ENDBRANCH   1   2
BRANCH   1  33
ATOM     33  C   UNL     1       2.572  -2.025  -2.850  1.00  0.00     0.023 C 
BRANCH  33  34
ATOM     34  C   UNL     1       4.049  -2.315  -3.117  1.00  0.00     0.023 C 
BRANCH  34  35
ATOM     35  C   UNL     1       4.617  -3.551  -2.423  1.00  0.00     0.116 C 
BRANCH  35  36
ATOM     36  N   UNL     1       3.995  -4.791  -2.860  1.00  0.00    -0.352 N 
ATOM     37  C   UNL     1       4.578  -5.956  -3.298  1.00  0.00     0.251 C 
ATOM     38  H   UNL     1       3.010  -4.797  -2.838  1.00  0.00     0.163 HD
ATOM     39  O   UNL     1       3.880  -6.862  -3.745  1.00  0.00    -0.269 OA
BRANCH  37  40
ATOM     40  C   UNL     1       6.051  -6.114  -3.269  1.00  0.00     0.039 A 
ATOM     41  C   UNL     1       6.691  -6.647  -4.392  1.00  0.00     0.014 A 
ATOM     42  C   UNL     1       6.800  -5.746  -2.149  1.00  0.00     0.014 A 
ATOM     43  C   UNL     1       8.085  -6.737  -4.422  1.00  0.00     0.010 A 
ATOM     44  C   UNL     1       8.193  -5.772  -2.205  1.00  0.00     0.010 A 
ATOM     45  C   UNL     1       8.851  -6.261  -3.345  1.00  0.00    -0.014 A 
BRANCH  45  46
ATOM     46  C   UNL     1      10.336  -6.252  -3.398  1.00  0.00     0.031 A 
ATOM     47  C   UNL     1      11.139  -7.087  -2.440  1.00  0.00     0.074 A 
ATOM     48  C   UNL     1      10.967  -5.434  -4.265  1.00  0.00     0.049 A 
ATOM     49  N   UNL     1      12.438  -7.149  -2.284  1.00  0.00    -0.248 NA
ATOM     50  C   UNL     1      10.382  -7.948  -1.518  1.00  0.00     0.031 C 
ATOM     51  C   UNL     1      10.308  -4.540  -5.218  1.00  0.00     0.029 A 
ATOM     52  N   UNL     1      12.306  -5.214  -4.475  1.00  0.00    -0.354 N 
ATOM     53  C   UNL     1      12.651  -8.037  -1.238  1.00  0.00     0.074 A 
ATOM     54  C   UNL     1      11.348  -8.456  -0.768  1.00  0.00     0.031 C 
ATOM     55  C   UNL     1      11.243  -3.885  -5.925  1.00  0.00     0.029 A 
ATOM     56  C   UNL     1      12.565  -4.283  -5.451  1.00  0.00     0.049 A 
ATOM     57  H   UNL     1      13.013  -5.680  -3.973  1.00  0.00     0.167 HD
ATOM     58  C   UNL     1      13.826  -8.478  -0.727  1.00  0.00     0.037 A 
ATOM     59  C   UNL     1      13.735  -3.798  -5.909  1.00  0.00     0.037 A 
ATOM     60  C   UNL     1      15.123  -8.087  -1.214  1.00  0.00     0.049 A 
ATOM     61  C   UNL     1      15.024  -4.302  -5.323  1.00  0.00     0.074 A 
ATOM     62  C   UNL     1      16.368  -8.535  -0.806  1.00  0.00     0.029 A 
ATOM     63  N   UNL     1      15.342  -7.153  -2.214  1.00  0.00    -0.354 N 
ATOM     64  N   UNL     1      15.211  -5.192  -4.379  1.00  0.00    -0.248 NA
ATOM     65  C   UNL     1      16.266  -3.735  -5.869  1.00  0.00     0.031 C 
ATOM     66  C   UNL     1      17.342  -7.842  -1.532  1.00  0.00     0.029 A 
ATOM     67  C   UNL     1      16.703  -6.994  -2.422  1.00  0.00     0.049 A 
ATOM     68  H   UNL     1      14.636  -6.673  -2.705  1.00  0.00     0.167 HD
ATOM     69  C   UNL     1      16.587  -5.313  -4.239  1.00  0.00     0.074 A 
ATOM     70  C   UNL     1      17.188  -4.414  -5.201  1.00  0.00     0.031 C 
ATOM     71  C   UNL     1      17.289  -6.102  -3.389  1.00  0.00     0.037 A 
BRANCH  58  72
ATOM     72  C   UNL     1      13.762  -9.442   0.422  1.00  0.00     0.057 A 
ATOM     73  C   UNL     1      13.342 -10.767   0.252  1.00  0.00     0.134 A 
ATOM     74  C   UNL     1      14.161  -9.050   1.706  1.00  0.00     0.134 A 
ATOM     75  F   UNL     1      12.937 -11.203  -0.950  1.00  0.00    -0.206 F 
ATOM     76  C   UNL     1      13.296 -11.661   1.323  1.00  0.00     0.040 A 
ATOM     77  C   UNL     1      14.144  -9.942   2.780  1.00  0.00     0.040 A 
ATOM     78  F   UNL     1      14.581  -7.797   1.937  1.00  0.00    -0.206 F 
ATOM     79  C   UNL     1      13.704 -11.251   2.591  1.00  0.00     0.006 A 
ENDBRANCH  58  72
BRANCH  59  80
ATOM     80  C   UNL     1      13.746  -2.792  -7.000  1.00  0.00     0.057 A 
ATOM     81  C   UNL     1      14.187  -3.130  -8.284  1.00  0.00     0.134 A 
ATOM     82  C   UNL     1      13.330  -1.473  -6.786  1.00  0.00     0.134 A 
ATOM     83  F   UNL     1      14.617  -4.374  -8.544  1.00  0.00    -0.206 F 
ATOM     84  C   UNL     1      14.230  -2.189  -9.314  1.00  0.00     0.040 A 
ATOM     85  C   UNL     1      13.346  -0.527  -7.813  1.00  0.00     0.040 A 
ATOM     86  F   UNL     1      12.892  -1.087  -5.579  1.00  0.00    -0.206 F 
ATOM     87  C   UNL     1      13.804  -0.883  -9.080  1.00  0.00     0.006 A 
ENDBRANCH  59  80
BRANCH  71  88
ATOM     88  C   UNL     1      18.785  -6.054  -3.486  1.00  0.00     0.057 A 
ATOM     89  C   UNL     1      19.522  -4.959  -3.017  1.00  0.00     0.134 A 
ATOM     90  C   UNL     1      19.499  -7.134  -4.021  1.00  0.00     0.134 A 
ATOM     91  F   UNL     1      18.897  -3.888  -2.506  1.00  0.00    -0.206 F 
ATOM     92  C   UNL     1      20.916  -4.932  -3.096  1.00  0.00     0.040 A 
ATOM     93  C   UNL     1      20.893  -7.128  -4.084  1.00  0.00     0.040 A 
ATOM     94  F   UNL     1      18.854  -8.216  -4.481  1.00  0.00    -0.206 F 
ATOM     95  C   UNL     1      21.605  -6.022  -3.625  1.00  0.00     0.006 A 
ENDBRANCH  71  88
ENDBRANCH  45  46
ENDBRANCH  37  40
ENDBRANCH  35  36
ENDBRANCH  34  35
ENDBRANCH  33  34
ENDBRANCH   1  33
TORSDOF 16
