REMARK SMILES Cc1cccc(N2C(=O)/C(=C/c3ccc(C(=O)NCCCCNC(=O)c4ccc(-c5c6nc(c(-c7c(F)cccc7F)c7ccc([nH]7)c(-c7c(F)cccc7F)c7nc(c(-c8c(F)cccc8F)c8ccc5[nH]8)C=C7)C=C6)cc4)cc3)c3ccccc3C2=O)c1
REMARK SMILES IDX 20 1 19 2 18 3 16 4 17 5 15 7 12 8 13 9 81 10 14 11 80 12
REMARK SMILES IDX 11 13 7 14 8 15 88 16 9 17 10 18 87 19 89 20 82 21 86 22
REMARK SMILES IDX 83 23 85 24 84 25 6 26 1 27 2 28 3 29 90 30 4 31 5 32 21 33
REMARK SMILES IDX 22 34 23 35 24 36 25 38 26 39 27 40 79 41 28 42 78 43 29 44
REMARK SMILES IDX 30 45 31 46 72 47 32 48 77 49 71 50 73 51 33 52 76 53 70 54
REMARK SMILES IDX 69 55 34 57 60 58 43 59 59 60 44 61 47 62 58 63 74 64 45 65
REMARK SMILES IDX 46 66 57 68 75 69 48 70 35 71 36 72 41 73 37 74 38 75 40 76
REMARK SMILES IDX 42 77 39 78 61 79 62 80 67 81 63 82 64 83 66 84 68 85 65 86
REMARK SMILES IDX 49 87 50 88 55 89 51 90 52 91 54 92 56 93 53 94
REMARK H PARENT 18 6 23 37 73 56 47 67
REMARK Flexibility Score: inf
ROOT
ATOM      1  C   UNL     1      -5.424  10.666   2.423  1.00  0.00     0.023 C 
ENDROOT
BRANCH   1   2
ATOM      2  C   UNL     1      -5.731  10.309   0.963  1.00  0.00     0.116 C 
BRANCH   2   3
ATOM      3  N   UNL     1      -5.172  11.246  -0.003  1.00  0.00    -0.352 N 
ATOM      4  C   UNL     1      -4.186  11.085  -0.950  1.00  0.00     0.251 C 
ATOM      5  O   UNL     1      -3.805  12.053  -1.603  1.00  0.00    -0.269 OA
ATOM      6  H   UNL     1      -5.566  12.147   0.026  1.00  0.00     0.163 HD
BRANCH   4   7
ATOM      7  C   UNL     1      -3.537   9.773  -1.148  1.00  0.00     0.039 A 
ATOM      8  C   UNL     1      -2.249   7.296  -1.181  1.00  0.00    -0.025 A 
ATOM      9  C   UNL     1      -1.496   8.475  -1.137  1.00  0.00     0.009 A 
ATOM     10  C   UNL     1      -3.637   7.370  -1.364  1.00  0.00     0.009 A 
ATOM     11  C   UNL     1      -2.140   9.714  -1.121  1.00  0.00     0.014 A 
ATOM     12  C   UNL     1      -4.281   8.609  -1.353  1.00  0.00     0.014 A 
BRANCH   8  13
ATOM     13  C   UNL     1      -1.571   6.009  -0.985  1.00  0.00     0.022 C 
ATOM     14  N   UNL     1      -1.732   2.651   0.305  1.00  0.00    -0.242 N 
ATOM     15  C   UNL     1      -1.054   3.807  -0.134  1.00  0.00     0.265 C 
ATOM     16  C   UNL     1      -3.063   2.714   0.772  1.00  0.00     0.265 C 
ATOM     17  O   UNL     1       0.060   3.854  -0.657  1.00  0.00    -0.268 OA
ATOM     18  C   UNL     1      -1.834   5.091  -0.025  1.00  0.00     0.049 C 
ATOM     19  C   UNL     1      -3.520   4.003   1.344  1.00  0.00     0.048 A 
ATOM     20  O   UNL     1      -3.894   1.809   0.793  1.00  0.00    -0.268 OA
ATOM     21  C   UNL     1      -2.862   5.182   1.015  1.00  0.00    -0.000 A 
ATOM     22  C   UNL     1      -4.599   4.016   2.244  1.00  0.00     0.014 A 
ATOM     23  C   UNL     1      -3.219   6.361   1.689  1.00  0.00     0.010 A 
ATOM     24  C   UNL     1      -4.989   5.206   2.855  1.00  0.00     0.001 A 
ATOM     25  C   UNL     1      -4.285   6.376   2.592  1.00  0.00     0.001 A 
BRANCH  14  26
ATOM     26  C   UNL     1      -1.071   1.350   0.172  1.00  0.00     0.053 A 
ATOM     27  C   UNL     1       2.495  -0.078   0.019  1.00  0.00     0.044 C 
ATOM     28  C   UNL     1       0.996  -0.002   0.041  1.00  0.00    -0.049 A 
ATOM     29  C   UNL     1       0.243  -1.169  -0.063  1.00  0.00     0.003 A 
ATOM     30  C   UNL     1       0.335   1.234   0.178  1.00  0.00     0.030 A 
ATOM     31  C   UNL     1      -1.143  -1.096  -0.045  1.00  0.00     0.002 A 
ATOM     32  C   UNL     1      -1.785   0.145   0.066  1.00  0.00     0.027 A 
ENDBRANCH  14  26
ENDBRANCH   8  13
ENDBRANCH   4   7
ENDBRANCH   2   3
ENDBRANCH   1   2
BRANCH   1  33
ATOM     33  C   UNL     1      -5.903  12.040   2.894  1.00  0.00     0.023 C 
BRANCH  33  34
ATOM     34  C   UNL     1      -7.411  12.250   2.872  1.00  0.00     0.116 C 
BRANCH  34  35
ATOM     35  N   UNL     1      -8.121  11.777   4.058  1.00  0.00    -0.352 N 
ATOM     36  C   UNL     1      -9.483  11.733   4.318  1.00  0.00     0.251 C 
ATOM     37  H   UNL     1      -7.546  11.437   4.782  1.00  0.00     0.163 HD
ATOM     38  O   UNL     1      -9.889  11.334   5.385  1.00  0.00    -0.269 OA
BRANCH  36  39
ATOM     39  C   UNL     1     -10.451  12.043   3.223  1.00  0.00     0.039 A 
ATOM     40  C   UNL     1     -11.541  11.177   3.057  1.00  0.00     0.014 A 
ATOM     41  C   UNL     1     -10.183  13.012   2.263  1.00  0.00     0.014 A 
ATOM     42  C   UNL     1     -12.162  11.096   1.814  1.00  0.00     0.010 A 
ATOM     43  C   UNL     1     -10.725  12.866   1.002  1.00  0.00     0.010 A 
ATOM     44  C   UNL     1     -11.650  11.848   0.759  1.00  0.00    -0.014 A 
BRANCH  44  45
ATOM     45  C   UNL     1     -11.892  11.523  -0.641  1.00  0.00     0.031 A 
ATOM     46  C   UNL     1     -12.753  12.377  -1.481  1.00  0.00     0.074 A 
ATOM     47  C   UNL     1     -11.234  10.473  -1.183  1.00  0.00     0.049 A 
ATOM     48  N   UNL     1     -13.270  12.002  -2.601  1.00  0.00    -0.248 NA
ATOM     49  C   UNL     1     -13.178  13.710  -1.072  1.00  0.00     0.031 C 
ATOM     50  C   UNL     1     -11.078  10.150  -2.597  1.00  0.00     0.029 A 
ATOM     51  N   UNL     1     -10.741   9.344  -0.511  1.00  0.00    -0.354 N 
ATOM     52  C   UNL     1     -13.840  13.106  -3.193  1.00  0.00     0.074 A 
ATOM     53  C   UNL     1     -13.880  14.092  -2.143  1.00  0.00     0.031 C 
ATOM     54  C   UNL     1     -10.807   8.841  -2.714  1.00  0.00     0.029 A 
ATOM     55  C   UNL     1     -10.934   8.257  -1.391  1.00  0.00     0.049 A 
ATOM     56  H   UNL     1     -10.342   9.316   0.389  1.00  0.00     0.167 HD
ATOM     57  C   UNL     1     -14.074  13.079  -4.537  1.00  0.00     0.037 A 
ATOM     58  C   UNL     1     -11.771   7.227  -1.072  1.00  0.00     0.037 A 
ATOM     59  C   UNL     1     -13.937  11.711  -5.053  1.00  0.00     0.049 A 
ATOM     60  C   UNL     1     -12.910   7.035  -2.048  1.00  0.00     0.074 A 
ATOM     61  C   UNL     1     -12.950  11.063  -5.777  1.00  0.00     0.029 A 
ATOM     62  N   UNL     1     -14.804  10.721  -4.596  1.00  0.00    -0.354 N 
ATOM     63  N   UNL     1     -13.295   7.941  -2.903  1.00  0.00    -0.248 NA
ATOM     64  C   UNL     1     -13.726   5.825  -2.113  1.00  0.00     0.031 C 
ATOM     65  C   UNL     1     -13.180   9.665  -5.673  1.00  0.00     0.029 A 
ATOM     66  C   UNL     1     -14.326   9.466  -4.921  1.00  0.00     0.049 A 
ATOM     67  H   UNL     1     -15.643  10.892  -4.110  1.00  0.00     0.167 HD
ATOM     68  C   UNL     1     -14.391   7.488  -3.589  1.00  0.00     0.074 A 
ATOM     69  C   UNL     1     -14.606   6.147  -3.078  1.00  0.00     0.031 C 
ATOM     70  C   UNL     1     -15.040   8.266  -4.504  1.00  0.00     0.037 A 
BRANCH  57  71
ATOM     71  C   UNL     1     -14.183  14.297  -5.448  1.00  0.00     0.057 A 
ATOM     72  C   UNL     1     -14.172  14.134  -6.852  1.00  0.00     0.134 A 
ATOM     73  C   UNL     1     -14.177  15.648  -5.045  1.00  0.00     0.134 A 
ATOM     74  F   UNL     1     -14.221  12.921  -7.420  1.00  0.00    -0.206 F 
ATOM     75  C   UNL     1     -14.095  15.207  -7.756  1.00  0.00     0.040 A 
ATOM     76  C   UNL     1     -14.117  16.730  -5.939  1.00  0.00     0.040 A 
ATOM     77  F   UNL     1     -14.213  16.026  -3.768  1.00  0.00    -0.206 F 
ATOM     78  C   UNL     1     -14.056  16.514  -7.301  1.00  0.00     0.006 A 
ENDBRANCH  57  71
BRANCH  58  79
ATOM     79  C   UNL     1     -11.844   6.954   0.387  1.00  0.00     0.057 A 
ATOM     80  C   UNL     1     -10.684   6.513   1.049  1.00  0.00     0.134 A 
ATOM     81  C   UNL     1     -12.878   7.456   1.181  1.00  0.00     0.134 A 
ATOM     82  F   UNL     1      -9.651   6.023   0.344  1.00  0.00    -0.206 F 
ATOM     83  C   UNL     1     -10.514   6.671   2.426  1.00  0.00     0.040 A 
ATOM     84  C   UNL     1     -12.723   7.608   2.565  1.00  0.00     0.040 A 
ATOM     85  F   UNL     1     -14.006   7.919   0.623  1.00  0.00    -0.206 F 
ATOM     86  C   UNL     1     -11.525   7.251   3.184  1.00  0.00     0.006 A 
ENDBRANCH  58  79
BRANCH  70  87
ATOM     87  C   UNL     1     -16.369   7.946  -5.143  1.00  0.00     0.057 A 
ATOM     88  C   UNL     1     -17.389   7.213  -4.518  1.00  0.00     0.134 A 
ATOM     89  C   UNL     1     -16.716   8.514  -6.388  1.00  0.00     0.134 A 
ATOM     90  F   UNL     1     -17.237   6.709  -3.286  1.00  0.00    -0.206 F 
ATOM     91  C   UNL     1     -18.643   7.013  -5.112  1.00  0.00     0.040 A 
ATOM     92  C   UNL     1     -17.980   8.365  -6.966  1.00  0.00     0.040 A 
ATOM     93  F   UNL     1     -15.846   9.258  -7.088  1.00  0.00    -0.206 F 
ATOM     94  C   UNL     1     -18.947   7.600  -6.334  1.00  0.00     0.006 A 
ENDBRANCH  70  87
ENDBRANCH  44  45
ENDBRANCH  36  39
ENDBRANCH  34  35
ENDBRANCH  33  34
ENDBRANCH   1  33
TORSDOF 13
