REMARK SMILES O=C(COc1ccccc1/C=C1/SC(=S)N(c2ccc(F)c(Cl)c2)C1=O)NCCCCNC(=O)c1ccc(-c2c3nc(c(-c4c(F)cccc4F)c4ccc([nH]4)c(-c4c(F)cccc4F)c4nc(c(-c5c(F)cccc5F)c5ccc2[nH]5)C=C4)C=C3)cc1
REMARK SMILES IDX 28 1 27 2 1 3 2 4 3 6 4 7 5 8 6 9 10 10 7 11 9 12 8 13 11 14
REMARK SMILES IDX 12 15 13 16 25 17 14 18 16 19 26 20 15 21 17 22 18 23 24 24
REMARK SMILES IDX 19 25 22 26 20 27 23 28 21 29 29 30 30 31 31 32 32 33 33 34
REMARK SMILES IDX 34 36 35 37 36 38 88 39 37 40 87 41 38 42 39 43 40 44 81 45
REMARK SMILES IDX 41 46 86 47 80 48 82 49 42 50 85 51 79 52 78 53 43 55 69 56
REMARK SMILES IDX 52 57 68 58 53 59 56 60 67 61 83 62 54 63 55 64 66 66 84 67
REMARK SMILES IDX 57 68 44 69 45 70 50 71 46 72 47 73 49 74 51 75 48 76 70 77
REMARK SMILES IDX 71 78 76 79 72 80 73 81 75 82 77 83 74 84 58 85 59 86 64 87
REMARK SMILES IDX 60 88 61 89 63 90 65 91 62 92
REMARK H PARENT 27 5 32 35 82 54 56 65
REMARK Flexibility Score: inf
ROOT
ATOM      1  C   UNL     1       2.691  -1.195  -2.219  1.00  0.00     0.116 C 
ENDROOT
BRANCH   1   2
ATOM      2  N   UNL     1       3.018   0.072  -0.567  1.00  0.00    -0.353 N 
ATOM      3  O   UNL     1       1.747   1.994   0.268  1.00  0.00    -0.271 OA
ATOM      4  C   UNL     1       2.556   1.084   0.409  1.00  0.00     0.257 C 
ATOM      5  H   UNL     1       3.956  -0.093  -0.318  1.00  0.00     0.163 HD
BRANCH   4   6
ATOM      6  C   UNL     1       3.228   0.896   1.779  1.00  0.00     0.329 C 
BRANCH   6   7
ATOM      7  O   UNL     1       3.824  -0.374   1.967  1.00  0.00    -0.483 OA
BRANCH   7   8
ATOM      8  C   UNL     1       3.052  -1.349   2.562  1.00  0.00     0.127 A 
ATOM      9  C   UNL     1       3.692  -1.952   3.651  1.00  0.00     0.047 A 
ATOM     10  C   UNL     1       1.857  -1.910   2.043  1.00  0.00     0.018 A 
ATOM     11  C   UNL     1       3.174  -3.108   4.228  1.00  0.00     0.004 A 
ATOM     12  C   UNL     1       1.352  -3.076   2.639  1.00  0.00     0.012 A 
ATOM     13  C   UNL     1       2.013  -3.677   3.713  1.00  0.00     0.001 A 
BRANCH  10  14
ATOM     14  C   UNL     1       1.131  -1.427   0.858  1.00  0.00     0.033 C 
ATOM     15  C   UNL     1       1.760  -1.382  -0.330  1.00  0.00     0.081 C 
ATOM     16  S   UNL     1       1.173   0.334  -1.721  1.00  0.00    -0.054 SA
ATOM     17  C   UNL     1       3.687  -1.773  -0.474  1.00  0.00     0.270 C 
ATOM     18  C   UNL     1       3.410   0.767  -2.277  1.00  0.00     0.152 C 
ATOM     19  N   UNL     1       4.467  -0.540  -1.576  1.00  0.00    -0.261 N 
ATOM     20  O   UNL     1       4.230  -2.743   0.035  1.00  0.00    -0.268 OA
ATOM     21  S   UNL     1       3.766   2.227  -3.048  1.00  0.00    -0.051 S 
BRANCH  19  22
ATOM     22  C   UNL     1       5.905  -0.594  -1.699  1.00  0.00     0.052 A 
ATOM     23  C   UNL     1       6.583  -1.800  -1.434  1.00  0.00     0.030 A 
ATOM     24  C   UNL     1       6.682   0.515  -2.044  1.00  0.00     0.050 A 
ATOM     25  C   UNL     1       7.977  -1.895  -1.489  1.00  0.00     0.043 A 
ATOM     26  C   UNL     1       8.083   0.423  -2.100  1.00  0.00     0.078 A 
ATOM     27  C   UNL     1       8.723  -0.778  -1.819  1.00  0.00     0.141 A 
ATOM     28  Cl  UNL     1       9.003   1.824  -2.496  1.00  0.00    -0.081 Cl
ATOM     29  F   UNL     1      10.058  -0.879  -1.851  1.00  0.00    -0.205 F 
ENDBRANCH  19  22
ENDBRANCH  10  14
ENDBRANCH   7   8
ENDBRANCH   6   7
ENDBRANCH   4   6
ENDBRANCH   1   2
BRANCH   1  30
ATOM     30  C   UNL     1       2.689  -0.905  -3.887  1.00  0.00     0.023 C 
BRANCH  30  31
ATOM     31  C   UNL     1       4.013  -1.093  -4.642  1.00  0.00     0.023 C 
BRANCH  31  32
ATOM     32  C   UNL     1       4.653  -2.469  -4.524  1.00  0.00     0.116 C 
BRANCH  32  33
ATOM     33  N   UNL     1       3.996  -3.478  -5.333  1.00  0.00    -0.352 N 
ATOM     34  C   UNL     1       4.607  -4.386  -6.169  1.00  0.00     0.251 C 
ATOM     35  H   UNL     1       3.014  -3.519  -5.278  1.00  0.00     0.163 HD
ATOM     36  O   UNL     1       3.956  -5.109  -6.912  1.00  0.00    -0.269 OA
BRANCH  34  37
ATOM     37  C   UNL     1       6.083  -4.439  -6.169  1.00  0.00     0.039 A 
ATOM     38  C   UNL     1       6.771  -4.213  -7.361  1.00  0.00     0.014 A 
ATOM     39  C   UNL     1       6.772  -4.597  -4.962  1.00  0.00     0.014 A 
ATOM     40  C   UNL     1       8.162  -4.106  -7.335  1.00  0.00     0.010 A 
ATOM     41  C   UNL     1       8.147  -4.400  -4.928  1.00  0.00     0.010 A 
ATOM     42  C   UNL     1       8.859  -4.174  -6.117  1.00  0.00    -0.014 A 
BRANCH  42  43
ATOM     43  C   UNL     1      10.339  -4.070  -6.074  1.00  0.00     0.031 A 
ATOM     44  C   UNL     1      11.151  -5.244  -5.596  1.00  0.00     0.074 A 
ATOM     45  C   UNL     1      10.951  -2.921  -6.423  1.00  0.00     0.049 A 
ATOM     46  N   UNL     1      12.446  -5.351  -5.447  1.00  0.00    -0.248 NA
ATOM     47  C   UNL     1      10.403  -6.450  -5.202  1.00  0.00     0.031 C 
ATOM     48  C   UNL     1      10.275  -1.695  -6.853  1.00  0.00     0.029 A 
ATOM     49  N   UNL     1      12.284  -2.599  -6.471  1.00  0.00    -0.354 N 
ATOM     50  C   UNL     1      12.661  -6.620  -4.922  1.00  0.00     0.074 A 
ATOM     51  C   UNL     1      11.363  -7.221  -4.718  1.00  0.00     0.031 C 
ATOM     52  C   UNL     1      11.199  -0.767  -7.154  1.00  0.00     0.029 A 
ATOM     53  C   UNL     1      12.528  -1.319  -6.909  1.00  0.00     0.049 A 
ATOM     54  H   UNL     1      12.999  -3.226  -6.216  1.00  0.00     0.167 HD
ATOM     55  C   UNL     1      13.834  -7.243  -4.665  1.00  0.00     0.037 A 
ATOM     56  C   UNL     1      13.693  -0.670  -7.095  1.00  0.00     0.037 A 
ATOM     57  C   UNL     1      15.125  -6.660  -4.912  1.00  0.00     0.049 A 
ATOM     58  C   UNL     1      14.985  -1.387  -6.811  1.00  0.00     0.074 A 
ATOM     59  C   UNL     1      16.374  -7.232  -4.755  1.00  0.00     0.029 A 
ATOM     60  N   UNL     1      15.329  -5.368  -5.372  1.00  0.00    -0.354 N 
ATOM     61  N   UNL     1      15.176  -2.615  -6.390  1.00  0.00    -0.248 NA
ATOM     62  C   UNL     1      16.226  -0.632  -7.037  1.00  0.00     0.031 C 
ATOM     63  C   UNL     1      17.337  -6.271  -5.079  1.00  0.00     0.029 A 
ATOM     64  C   UNL     1      16.686  -5.117  -5.485  1.00  0.00     0.049 A 
ATOM     65  H   UNL     1      14.616  -4.724  -5.587  1.00  0.00     0.167 HD
ATOM     66  C   UNL     1      16.553  -2.788  -6.328  1.00  0.00     0.074 A 
ATOM     67  C   UNL     1      17.150  -1.544  -6.770  1.00  0.00     0.031 C 
ATOM     68  C   UNL     1      17.260  -3.877  -5.940  1.00  0.00     0.037 A 
BRANCH  55  69
ATOM     69  C   UNL     1      13.770  -8.631  -4.096  1.00  0.00     0.057 A 
ATOM     70  C   UNL     1      13.318  -9.722  -4.851  1.00  0.00     0.134 A 
ATOM     71  C   UNL     1      14.182  -8.883  -2.781  1.00  0.00     0.134 A 
ATOM     72  F   UNL     1      12.893  -9.546  -6.112  1.00  0.00    -0.206 F 
ATOM     73  C   UNL     1      13.248 -11.006  -4.310  1.00  0.00     0.040 A 
ATOM     74  C   UNL     1      14.145 -10.169  -2.239  1.00  0.00     0.040 A 
ATOM     75  F   UNL     1      14.629  -7.886  -2.003  1.00  0.00    -0.206 F 
ATOM     76  C   UNL     1      13.669 -11.234  -3.002  1.00  0.00     0.006 A 
ENDBRANCH  55  69
BRANCH  56  77
ATOM     77  C   UNL     1      13.699   0.725  -7.607  1.00  0.00     0.057 A 
ATOM     78  C   UNL     1      14.168   1.020  -8.893  1.00  0.00     0.134 A 
ATOM     79  C   UNL     1      13.253   1.796  -6.824  1.00  0.00     0.134 A 
ATOM     80  F   UNL     1      14.627   0.039  -9.685  1.00  0.00    -0.206 F 
ATOM     81  C   UNL     1      14.214   2.329  -9.374  1.00  0.00     0.040 A 
ATOM     82  C   UNL     1      13.269   3.108  -7.302  1.00  0.00     0.040 A 
ATOM     83  F   UNL     1      12.786   1.581  -5.586  1.00  0.00    -0.206 F 
ATOM     84  C   UNL     1      13.758   3.378  -8.579  1.00  0.00     0.006 A 
ENDBRANCH  56  77
BRANCH  68  85
ATOM     85  C   UNL     1      18.756  -3.787  -6.012  1.00  0.00     0.057 A 
ATOM     86  C   UNL     1      19.496  -3.014  -5.108  1.00  0.00     0.134 A 
ATOM     87  C   UNL     1      19.467  -4.523  -6.968  1.00  0.00     0.134 A 
ATOM     88  F   UNL     1      18.874  -2.277  -4.175  1.00  0.00    -0.206 F 
ATOM     89  C   UNL     1      20.889  -2.958  -5.168  1.00  0.00     0.040 A 
ATOM     90  C   UNL     1      20.861  -4.497  -7.020  1.00  0.00     0.040 A 
ATOM     91  F   UNL     1      18.819  -5.293  -7.856  1.00  0.00    -0.206 F 
ATOM     92  C   UNL     1      21.576  -3.708  -6.122  1.00  0.00     0.006 A 
ENDBRANCH  68  85
ENDBRANCH  42  43
ENDBRANCH  34  37
ENDBRANCH  32  33
ENDBRANCH  31  32
ENDBRANCH  30  31
ENDBRANCH   1  30
TORSDOF 15
