REMARK SMILES CC1(C)C[C@@H]([NH2+]C[C@@H]2CCCC[C@@H]2C(=O)NCCCCNC(=O)c2ccc(-c3c4nc(c(-c5c(F)cccc5F)c5ccc([nH]5)c(-c5c(F)cccc5F)c5nc(c(-c6c(F)cccc6F)c6ccc3[nH]6)C=C5)C=C4)cc2)C(C)(C)O1
REMARK SMILES IDX 18 1 17 2 16 3 14 4 15 5 13 7 8 8 9 9 10 10 12 11 11 12 7 13
REMARK SMILES IDX 6 14 5 17 1 18 2 19 3 20 4 21 81 22 78 23 79 24 80 25 19 26
REMARK SMILES IDX 20 27 21 28 22 29 23 31 24 32 25 33 77 34 26 35 76 36 27 37
REMARK SMILES IDX 28 38 29 39 70 40 30 41 75 42 69 43 71 44 31 45 74 46 68 47
REMARK SMILES IDX 67 48 32 50 58 51 41 52 57 53 42 54 45 55 56 56 72 57 43 58
REMARK SMILES IDX 44 59 55 61 73 62 46 63 33 64 34 65 39 66 35 67 36 68 38 69
REMARK SMILES IDX 40 70 37 71 59 72 60 73 65 74 61 75 62 76 64 77 66 78 63 79
REMARK SMILES IDX 47 80 48 81 53 82 49 83 50 84 52 85 54 86 51 87
REMARK H PARENT 16 6 6 15 6 16 21 30 71 49 45 60
REMARK Flexibility Score: inf
ROOT
ATOM      1  C   UNL     1       7.480   1.659   5.806  1.00  0.00     0.023 C 
ENDROOT
BRANCH   1   2
ATOM      2  C   UNL     1       7.236   0.172   5.546  1.00  0.00     0.116 C 
BRANCH   2   3
ATOM      3  N   UNL     1       6.182  -0.337   6.404  1.00  0.00    -0.356 N 
ATOM      4  C   UNL     1       4.859  -0.519   6.121  1.00  0.00     0.223 C 
ATOM      5  O   UNL     1       4.091  -0.755   7.051  1.00  0.00    -0.275 OA
ATOM      6  H   UNL     1       6.460  -0.586   7.316  1.00  0.00     0.163 HD
BRANCH   4   7
ATOM      7  C   UNL     1       4.424  -0.486   4.662  1.00  0.00     0.087 C 
ATOM      8  C   UNL     1       2.935  -0.185   4.426  1.00  0.00     0.056 C 
ATOM      9  C   UNL     1       1.998  -1.315   4.871  1.00  0.00     0.010 C 
ATOM     10  C   UNL     1       2.375  -2.620   4.178  1.00  0.00     0.001 C 
ATOM     11  C   UNL     1       4.787  -1.830   3.995  1.00  0.00     0.014 C 
ATOM     12  C   UNL     1       3.844  -2.971   4.391  1.00  0.00     0.001 C 
BRANCH   8  13
ATOM     13  C   UNL     1       2.454   1.195   4.917  1.00  0.00     0.265 C 
BRANCH  13  14
ATOM     14  N   UNL     1       2.296   2.187   3.839  1.00  0.00    -0.341 N 
ATOM     15  H   UNL     1       2.214   3.109   4.267  1.00  0.00     0.346 HD
ATOM     16  H   UNL     1       3.116   2.088   3.240  1.00  0.00     0.346 HD
BRANCH  14  17
ATOM     17  C   UNL     1       1.124   1.983   2.966  1.00  0.00     0.217 C 
ATOM     18  C   UNL     1       0.585   0.546  -0.424  1.00  0.00     0.042 C 
ATOM     19  C   UNL     1       0.191   1.150   0.922  1.00  0.00     0.069 C 
ATOM     20  C   UNL     1      -1.199   0.655   1.333  1.00  0.00     0.042 C 
ATOM     21  C   UNL     1       1.238   0.836   1.974  1.00  0.00     0.103 C 
ATOM     22  O   UNL     1       0.158   2.580   0.825  1.00  0.00    -0.363 OA
ATOM     23  C   UNL     1       0.780   3.161   2.003  1.00  0.00     0.115 C 
ATOM     24  C   UNL     1       2.006   3.932   1.500  1.00  0.00     0.048 C 
ATOM     25  C   UNL     1      -0.220   4.134   2.627  1.00  0.00     0.048 C 
ENDBRANCH  14  17
ENDBRANCH  13  14
ENDBRANCH   8  13
ENDBRANCH   4   7
ENDBRANCH   2   3
ENDBRANCH   1   2
BRANCH   1  26
ATOM     26  C   UNL     1       7.924   1.982   7.236  1.00  0.00     0.023 C 
BRANCH  26  27
ATOM     27  C   UNL     1       9.115   1.176   7.740  1.00  0.00     0.116 C 
BRANCH  27  28
ATOM     28  N   UNL     1      10.313   1.369   6.938  1.00  0.00    -0.352 N 
ATOM     29  C   UNL     1      11.615   1.459   7.369  1.00  0.00     0.251 C 
ATOM     30  H   UNL     1      10.174   1.445   5.967  1.00  0.00     0.163 HD
ATOM     31  O   UNL     1      12.516   1.740   6.585  1.00  0.00    -0.269 OA
BRANCH  29  32
ATOM     32  C   UNL     1      11.912   1.247   8.800  1.00  0.00     0.039 A 
ATOM     33  C   UNL     1      12.661   2.207   9.484  1.00  0.00     0.014 A 
ATOM     34  C   UNL     1      11.412   0.127   9.469  1.00  0.00     0.014 A 
ATOM     35  C   UNL     1      12.854   2.076  10.861  1.00  0.00     0.010 A 
ATOM     36  C   UNL     1      11.547   0.035  10.850  1.00  0.00     0.010 A 
ATOM     37  C   UNL     1      12.269   1.008  11.559  1.00  0.00    -0.014 A 
BRANCH  37  38
ATOM     38  C   UNL     1      12.411   0.870  13.030  1.00  0.00     0.031 A 
ATOM     39  C   UNL     1      13.143  -0.312  13.600  1.00  0.00     0.074 A 
ATOM     40  C   UNL     1      11.822   1.762  13.851  1.00  0.00     0.049 A 
ATOM     41  N   UNL     1      13.273  -0.685  14.848  1.00  0.00    -0.248 NA
ATOM     42  C   UNL     1      13.795  -1.211  12.634  1.00  0.00     0.031 C 
ATOM     43  C   UNL     1      11.061   2.937  13.424  1.00  0.00     0.029 A 
ATOM     44  N   UNL     1      11.763   1.808  15.222  1.00  0.00    -0.354 N 
ATOM     45  C   UNL     1      14.006  -1.864  14.815  1.00  0.00     0.074 A 
ATOM     46  C   UNL     1      14.245  -2.175  13.422  1.00  0.00     0.031 C 
ATOM     47  C   UNL     1      10.626   3.597  14.510  1.00  0.00     0.029 A 
ATOM     48  C   UNL     1      11.040   2.872  15.707  1.00  0.00     0.049 A 
ATOM     49  H   UNL     1      12.197   1.143  15.803  1.00  0.00     0.167 HD
ATOM     50  C   UNL     1      14.460  -2.608  15.851  1.00  0.00     0.037 A 
ATOM     51  C   UNL     1      10.737   3.215  16.973  1.00  0.00     0.037 A 
ATOM     52  C   UNL     1      14.241  -2.285  17.235  1.00  0.00     0.049 A 
ATOM     53  C   UNL     1      11.230   2.355  18.106  1.00  0.00     0.074 A 
ATOM     54  C   UNL     1      14.683  -2.961  18.359  1.00  0.00     0.029 A 
ATOM     55  N   UNL     1      13.520  -1.189  17.684  1.00  0.00    -0.354 N 
ATOM     56  N   UNL     1      11.955   1.263  18.061  1.00  0.00    -0.248 NA
ATOM     57  C   UNL     1      10.865   2.777  19.466  1.00  0.00     0.031 C 
ATOM     58  C   UNL     1      14.204  -2.290  19.489  1.00  0.00     0.029 A 
ATOM     59  C   UNL     1      13.500  -1.173  19.068  1.00  0.00     0.049 A 
ATOM     60  H   UNL     1      13.088  -0.521  17.104  1.00  0.00     0.167 HD
ATOM     61  C   UNL     1      12.166   0.893  19.383  1.00  0.00     0.074 A 
ATOM     62  C   UNL     1      11.497   1.878  20.206  1.00  0.00     0.031 C 
ATOM     63  C   UNL     1      12.854  -0.168  19.872  1.00  0.00     0.037 A 
BRANCH  50  64
ATOM     64  C   UNL     1      15.252  -3.839  15.521  1.00  0.00     0.057 A 
ATOM     65  C   UNL     1      16.547  -3.759  14.991  1.00  0.00     0.134 A 
ATOM     66  C   UNL     1      14.730  -5.115  15.762  1.00  0.00     0.134 A 
ATOM     67  F   UNL     1      17.099  -2.566  14.723  1.00  0.00    -0.206 F 
ATOM     68  C   UNL     1      17.284  -4.904  14.689  1.00  0.00     0.040 A 
ATOM     69  C   UNL     1      15.469  -6.268  15.490  1.00  0.00     0.040 A 
ATOM     70  F   UNL     1      13.499  -5.264  16.273  1.00  0.00    -0.206 F 
ATOM     71  C   UNL     1      16.748  -6.164  14.945  1.00  0.00     0.006 A 
ENDBRANCH  50  64
BRANCH  51  72
ATOM     72  C   UNL     1       9.942   4.438  17.251  1.00  0.00     0.057 A 
ATOM     73  C   UNL     1      10.527   5.550  17.869  1.00  0.00     0.134 A 
ATOM     74  C   UNL     1       8.581   4.517  16.938  1.00  0.00     0.134 A 
ATOM     75  F   UNL     1      11.824   5.527  18.212  1.00  0.00    -0.206 F 
ATOM     76  C   UNL     1       9.782   6.685  18.191  1.00  0.00     0.040 A 
ATOM     77  C   UNL     1       7.829   5.656  17.230  1.00  0.00     0.040 A 
ATOM     78  F   UNL     1       7.962   3.488  16.339  1.00  0.00    -0.206 F 
ATOM     79  C   UNL     1       8.428   6.741  17.868  1.00  0.00     0.006 A 
ENDBRANCH  51  72
BRANCH  63  80
ATOM     80  C   UNL     1      12.974  -0.285  21.362  1.00  0.00     0.057 A 
ATOM     81  C   UNL     1      11.896  -0.676  22.166  1.00  0.00     0.134 A 
ATOM     82  C   UNL     1      14.202  -0.050  21.994  1.00  0.00     0.134 A 
ATOM     83  F   UNL     1      10.690  -0.903  21.623  1.00  0.00    -0.206 F 
ATOM     84  C   UNL     1      12.031  -0.812  23.548  1.00  0.00     0.040 A 
ATOM     85  C   UNL     1      14.356  -0.207  23.371  1.00  0.00     0.040 A 
ATOM     86  F   UNL     1      15.276   0.320  21.279  1.00  0.00    -0.206 F 
ATOM     87  C   UNL     1      13.267  -0.585  24.153  1.00  0.00     0.006 A 
ENDBRANCH  63  80
ENDBRANCH  37  38
ENDBRANCH  29  32
ENDBRANCH  27  28
ENDBRANCH  26  27
ENDBRANCH   1  26
TORSDOF 14
