REMARK SMILES C=C1C(=O)O[C@H]2[C@@H]1[C@@H](OC(=O)[C@]1(C)O[C@@H]1C)[C@@H](OC(C)=O)/C(C(=O)NCCCCNC(=O)c1ccc(-c3c4nc(c(-c5c(F)cccc5F)c5ccc([nH]5)c(-c5c(F)cccc5F)c5nc(c(-c6c(F)cccc6F)c6ccc3[nH]6)C=C5)C=C4)cc1)=C/[C@@H]1O[C@@H]1[C@]1(C)O[C@H]21
REMARK SMILES IDX 26 1 25 2 23 3 24 4 22 6 87 7 17 8 8 9 7 10 1 11 2 12 3 13
REMARK SMILES IDX 5 14 4 15 6 16 94 17 91 18 93 19 92 20 9 22 10 23 11 24
REMARK SMILES IDX 12 25 14 26 15 27 13 28 16 29 18 30 19 31 20 32 21 33 88 34
REMARK SMILES IDX 89 35 90 36 27 38 28 39 29 40 30 41 31 42 32 44 33 45 34 46
REMARK SMILES IDX 86 47 35 48 85 49 36 50 37 51 38 52 79 53 39 54 84 55 78 56
REMARK SMILES IDX 80 57 40 58 83 59 77 60 76 61 41 63 67 64 50 65 66 66 51 67
REMARK SMILES IDX 54 68 65 69 81 70 52 71 53 72 64 74 82 75 55 76 42 77 43 78
REMARK SMILES IDX 48 79 44 80 45 81 47 82 49 83 46 84 68 85 69 86 74 87 70 88
REMARK SMILES IDX 71 89 73 90 75 91 72 92 56 93 57 94 62 95 58 96 59 97 61 98
REMARK SMILES IDX 63 99 60 100
REMARK H PARENT 25 5 30 43 80 62 54 73
REMARK Flexibility Score: 90.00
ROOT
ATOM      1  C   UNL     1      -6.365  -3.046   0.302  1.00  0.00     0.116 C 
ENDROOT
BRANCH   1   2
ATOM      2  N   UNL     1      -6.686  -1.638   0.337  1.00  0.00    -0.352 N 
ATOM      3  C   UNL     1      -6.947  -0.819  -0.707  1.00  0.00     0.250 C 
ATOM      4  O   UNL     1      -7.426   0.290  -0.508  1.00  0.00    -0.270 OA
ATOM      5  H   UNL     1      -6.720  -1.224   1.229  1.00  0.00     0.163 HD
BRANCH   3   6
ATOM      6  C   UNL     1      -6.651  -1.321  -2.062  1.00  0.00     0.060 C 
ATOM      7  C   UNL     1      -7.584  -2.020  -2.728  1.00  0.00     0.020 C 
BRANCH   6   8
ATOM      8  C   UNL     1      -5.350  -0.933  -2.709  1.00  0.00     0.253 C 
BRANCH   8   9
ATOM      9  C   UNL     1      -5.210   0.591  -3.040  1.00  0.00     0.233 C 
BRANCH   9  10
ATOM     10  C   UNL     1      -6.053   0.984  -4.297  1.00  0.00     0.115 C 
ATOM     11  C   UNL     1      -5.437   3.522  -4.373  1.00  0.00     0.021 C 
ATOM     12  C   UNL     1      -6.066   2.410  -4.770  1.00  0.00     0.041 C 
ATOM     13  C   UNL     1      -7.104   2.470  -5.832  1.00  0.00     0.334 C 
ATOM     14  O   UNL     1      -7.896   1.375  -5.671  1.00  0.00    -0.455 OA
ATOM     15  O   UNL     1      -7.195   3.305  -6.710  1.00  0.00    -0.247 OA
ATOM     16  C   UNL     1      -7.569   0.699  -4.427  1.00  0.00     0.220 C 
BRANCH  16  17
ATOM     17  C   UNL     1      -8.511   1.220  -3.366  1.00  0.00     0.195 C 
ATOM     18  C   UNL     1      -9.544   0.438  -2.485  1.00  0.00     0.125 CG0
ATOM     19  O   UNL     1      -9.888   1.045  -3.735  1.00  0.00    -0.359 OA
ATOM     20  C   UNL     1     -10.089   1.245  -1.313  1.00  0.00     0.048 C 
ATOM     21  G   UNL     1      -9.983  -1.035  -2.367  1.00  0.00     0.000 G0
ENDBRANCH  16  17
ENDBRANCH   9  10
BRANCH   9  22
ATOM     22  O   UNL     1      -5.577   1.514  -2.004  1.00  0.00    -0.455 OA
BRANCH  22  23
ATOM     23  C   UNL     1      -5.015   1.594  -0.766  1.00  0.00     0.341 C 
ATOM     24  O   UNL     1      -4.154   0.865  -0.322  1.00  0.00    -0.249 OA
BRANCH  23  25
ATOM     25  C   UNL     1      -5.666   2.728  -0.025  1.00  0.00     0.188 C 
ATOM     26  O   UNL     1      -4.774   3.477   0.828  1.00  0.00    -0.354 OA
ATOM     27  C   UNL     1      -5.841   2.779   1.481  1.00  0.00     0.160 C 
ATOM     28  C   UNL     1      -6.605   3.615  -0.802  1.00  0.00     0.058 C 
ATOM     29  C   UNL     1      -5.399   1.771   2.473  1.00  0.00     0.042 C 
ENDBRANCH  23  25
ENDBRANCH  22  23
ENDBRANCH   9  22
ENDBRANCH   8   9
BRANCH   8  30
ATOM     30  O   UNL     1      -4.244  -1.403  -1.907  1.00  0.00    -0.453 OA
BRANCH  30  31
ATOM     31  C   UNL     1      -3.533  -2.538  -2.086  1.00  0.00     0.303 C 
ATOM     32  C   UNL     1      -3.734  -3.365  -3.323  1.00  0.00     0.139 C 
ATOM     33  O   UNL     1      -2.750  -2.924  -1.220  1.00  0.00    -0.253 OA
ENDBRANCH  30  31
ENDBRANCH   8  30
ENDBRANCH   6   8
BRANCH   7  34
ATOM     34  C   UNL     1      -9.002  -2.191  -2.432  1.00  0.00     0.174 C 
ATOM     35  O   UNL     1      -9.911  -1.888  -3.509  1.00  0.00    -0.362 OA
ATOM     36  C   UNL     1      -9.983  -1.035  -2.367  1.00  0.00     0.186 CG0
ATOM     37  G   UNL     1      -9.544   0.438  -2.485  1.00  0.00     0.000 G0
ENDBRANCH   7  34
ENDBRANCH   3   6
ENDBRANCH   1   2
BRANCH   1  38
ATOM     38  C   UNL     1      -5.335  -3.452   1.345  1.00  0.00     0.023 C 
BRANCH  38  39
ATOM     39  C   UNL     1      -5.628  -3.010   2.776  1.00  0.00     0.023 C 
BRANCH  39  40
ATOM     40  C   UNL     1      -7.073  -3.163   3.232  1.00  0.00     0.116 C 
BRANCH  40  41
ATOM     41  N   UNL     1      -7.592  -4.510   3.050  1.00  0.00    -0.352 N 
ATOM     42  C   UNL     1      -8.143  -5.355   3.978  1.00  0.00     0.251 C 
ATOM     43  H   UNL     1      -7.540  -4.864   2.133  1.00  0.00     0.163 HD
ATOM     44  O   UNL     1      -8.441  -6.506   3.683  1.00  0.00    -0.269 OA
BRANCH  42  45
ATOM     45  C   UNL     1      -8.334  -4.861   5.350  1.00  0.00     0.039 A 
ATOM     46  C   UNL     1      -7.753  -5.565   6.404  1.00  0.00     0.014 A 
ATOM     47  C   UNL     1      -9.011  -3.658   5.573  1.00  0.00     0.014 A 
ATOM     48  C   UNL     1      -7.790  -5.023   7.687  1.00  0.00     0.010 A 
ATOM     49  C   UNL     1      -8.971  -3.081   6.834  1.00  0.00     0.010 A 
ATOM     50  C   UNL     1      -8.364  -3.760   7.903  1.00  0.00    -0.014 A 
BRANCH  50  51
ATOM     51  C   UNL     1      -8.353  -3.128   9.244  1.00  0.00     0.031 A 
ATOM     52  C   UNL     1      -9.654  -2.839   9.936  1.00  0.00     0.074 A 
ATOM     53  C   UNL     1      -7.185  -2.750   9.798  1.00  0.00     0.049 A 
ATOM     54  N   UNL     1      -9.870  -2.203  11.058  1.00  0.00    -0.248 NA
ATOM     55  C   UNL     1     -10.879  -3.297   9.259  1.00  0.00     0.031 C 
ATOM     56  C   UNL     1      -5.861  -2.941   9.202  1.00  0.00     0.029 A 
ATOM     57  N   UNL     1      -6.925  -2.112  10.985  1.00  0.00    -0.354 N 
ATOM     58  C   UNL     1     -11.250  -2.170  11.210  1.00  0.00     0.074 A 
ATOM     59  C   UNL     1     -11.823  -2.796  10.040  1.00  0.00     0.031 C 
ATOM     60  C   UNL     1      -4.929  -2.449  10.033  1.00  0.00     0.029 A 
ATOM     61  C   UNL     1      -5.589  -1.868  11.198  1.00  0.00     0.049 A 
ATOM     62  H   UNL     1      -7.628  -1.854  11.623  1.00  0.00     0.167 HD
ATOM     63  C   UNL     1     -11.973  -1.683  12.246  1.00  0.00     0.037 A 
ATOM     64  C   UNL     1      -4.971  -1.233  12.212  1.00  0.00     0.037 A 
ATOM     65  C   UNL     1     -11.393  -1.085  13.418  1.00  0.00     0.049 A 
ATOM     66  C   UNL     1      -5.798  -0.683  13.342  1.00  0.00     0.074 A 
ATOM     67  C   UNL     1     -12.033  -0.614  14.550  1.00  0.00     0.029 A 
ATOM     68  N   UNL     1     -10.035  -0.871  13.605  1.00  0.00    -0.354 N 
ATOM     69  N   UNL     1      -7.099  -0.718  13.507  1.00  0.00    -0.248 NA
ATOM     70  C   UNL     1      -5.074  -0.009  14.428  1.00  0.00     0.031 C 
ATOM     71  C   UNL     1     -11.068  -0.065  15.399  1.00  0.00     0.029 A 
ATOM     72  C   UNL     1      -9.820  -0.250  14.824  1.00  0.00     0.049 A 
ATOM     73  H   UNL     1      -9.329  -1.124  12.967  1.00  0.00     0.167 HD
ATOM     74  C   UNL     1      -7.345  -0.102  14.728  1.00  0.00     0.074 A 
ATOM     75  C   UNL     1      -6.058   0.289  15.265  1.00  0.00     0.031 C 
ATOM     76  C   UNL     1      -8.529   0.117  15.349  1.00  0.00     0.037 A 
BRANCH  63  77
ATOM     77  C   UNL     1     -13.468  -1.777  12.153  1.00  0.00     0.057 A 
ATOM     78  C   UNL     1     -14.139  -3.005  12.213  1.00  0.00     0.134 A 
ATOM     79  C   UNL     1     -14.249  -0.621  12.031  1.00  0.00     0.134 A 
ATOM     80  F   UNL     1     -13.451  -4.153  12.316  1.00  0.00    -0.206 F 
ATOM     81  C   UNL     1     -15.530  -3.083  12.127  1.00  0.00     0.040 A 
ATOM     82  C   UNL     1     -15.642  -0.683  11.975  1.00  0.00     0.040 A 
ATOM     83  F   UNL     1     -13.672   0.589  11.971  1.00  0.00    -0.206 F 
ATOM     84  C   UNL     1     -16.286  -1.918  12.016  1.00  0.00     0.006 A 
ENDBRANCH  63  77
BRANCH  64  85
ATOM     85  C   UNL     1      -3.492  -1.092  12.213  1.00  0.00     0.057 A 
ATOM     86  C   UNL     1      -2.701  -1.776  13.144  1.00  0.00     0.134 A 
ATOM     87  C   UNL     1      -2.834  -0.267  11.293  1.00  0.00     0.134 A 
ATOM     88  F   UNL     1      -3.273  -2.568  14.062  1.00  0.00    -0.206 F 
ATOM     89  C   UNL     1      -1.314  -1.627  13.176  1.00  0.00     0.040 A 
ATOM     90  C   UNL     1      -1.445  -0.131  11.295  1.00  0.00     0.040 A 
ATOM     91  F   UNL     1      -3.532   0.409  10.368  1.00  0.00    -0.206 F 
ATOM     92  C   UNL     1      -0.681  -0.805  12.245  1.00  0.00     0.006 A 
ENDBRANCH  64  85
BRANCH  76  93
ATOM     93  C   UNL     1      -8.493   0.768  16.701  1.00  0.00     0.057 A 
ATOM     94  C   UNL     1      -8.190   2.125  16.865  1.00  0.00     0.134 A 
ATOM     95  C   UNL     1      -8.832   0.037  17.848  1.00  0.00     0.134 A 
ATOM     96  F   UNL     1      -7.846   2.877  15.809  1.00  0.00    -0.206 F 
ATOM     97  C   UNL     1      -8.212   2.729  18.123  1.00  0.00     0.040 A 
ATOM     98  C   UNL     1      -8.886   0.636  19.106  1.00  0.00     0.040 A 
ATOM     99  F   UNL     1      -9.143  -1.265  17.759  1.00  0.00    -0.206 F 
ATOM    100  C   UNL     1      -8.571   1.986  19.247  1.00  0.00     0.006 A 
ENDBRANCH  76  93
ENDBRANCH  50  51
ENDBRANCH  42  45
ENDBRANCH  40  41
ENDBRANCH  39  40
ENDBRANCH  38  39
ENDBRANCH   1  38
TORSDOF 16
