REMARK SMILES CNC(=O)c1ccc(N(CCC(=O)NCCCCNC(=O)c2ccc(-c3c4nc(c(-c5c(F)cccc5F)c5ccc([nH]5)c(-c5c(F)cccc5F)c5nc(c(-c6c(F)cccc6F)c6ccc3[nH]6)C=C5)C=C4)cc2)C2CC2)nn1
REMARK SMILES IDX 15 1 14 2 12 3 13 4 11 6 10 7 9 8 8 9 5 10 6 11 80 12 7 13
REMARK SMILES IDX 79 14 3 15 1 16 2 17 4 19 76 20 77 21 78 22 16 23 17 24
REMARK SMILES IDX 18 25 19 26 20 27 21 29 22 30 23 31 75 32 24 33 74 34 25 35
REMARK SMILES IDX 26 36 27 37 68 38 28 39 73 40 67 41 69 42 29 43 72 44 66 45
REMARK SMILES IDX 65 46 30 48 56 49 39 50 55 51 40 52 43 53 54 54 70 55 41 56
REMARK SMILES IDX 42 57 53 59 71 60 44 61 31 62 32 63 37 64 33 65 34 66 36 67
REMARK SMILES IDX 38 68 35 69 57 70 58 71 63 72 59 73 60 74 62 75 64 76 61 77
REMARK SMILES IDX 45 78 46 79 51 80 47 81 48 82 50 83 52 84 49 85
REMARK H PARENT 14 5 2 18 19 28 69 47 43 58
REMARK Flexibility Score: inf
ROOT
ATOM      1  C   UNL     1      -0.166  -6.866   2.823  1.00  0.00     0.116 C 
ENDROOT
BRANCH   1   2
ATOM      2  N   UNL     1       0.008  -7.982   1.905  1.00  0.00    -0.356 N 
ATOM      3  C   UNL     1       0.038  -8.025   0.546  1.00  0.00     0.221 C 
ATOM      4  O   UNL     1      -0.096  -9.124   0.005  1.00  0.00    -0.275 OA
ATOM      5  H   UNL     1       0.123  -8.856   2.343  1.00  0.00     0.163 HD
BRANCH   3   6
ATOM      6  C   UNL     1       0.271  -6.776  -0.272  1.00  0.00     0.121 C 
BRANCH   6   7
ATOM      7  C   UNL     1      -0.928  -6.463  -1.171  1.00  0.00     0.128 C 
BRANCH   7   8
ATOM      8  N   UNL     1      -1.652  -5.240  -0.754  1.00  0.00    -0.352 N 
BRANCH   8   9
ATOM      9  C   UNL     1      -1.167  -4.031  -1.304  1.00  0.00     0.151 A 
ATOM     10  C   UNL     1      -0.152  -1.633  -2.193  1.00  0.00     0.150 A 
ATOM     11  C   UNL     1      -1.454  -1.662  -1.751  1.00  0.00     0.040 A 
ATOM     12  N   UNL     1       0.621  -2.736  -2.233  1.00  0.00    -0.143 NA
ATOM     13  C   UNL     1      -1.962  -2.885  -1.325  1.00  0.00     0.051 A 
ATOM     14  N   UNL     1       0.095  -3.942  -1.792  1.00  0.00    -0.132 NA
BRANCH  10  15
ATOM     15  C   UNL     1       0.443  -0.345  -2.593  1.00  0.00     0.271 C 
ATOM     16  C   UNL     1       1.305   0.107  -0.250  1.00  0.00     0.143 C 
ATOM     17  N   UNL     1       1.068   0.425  -1.640  1.00  0.00    -0.354 N 
ATOM     18  H   UNL     1       1.394   1.303  -1.943  1.00  0.00     0.163 HD
ATOM     19  O   UNL     1       0.302   0.068  -3.740  1.00  0.00    -0.267 OA
ENDBRANCH  10  15
ENDBRANCH   8   9
BRANCH   8  20
ATOM     20  C   UNL     1      -2.387  -5.331   0.525  1.00  0.00     0.084 C 
ATOM     21  C   UNL     1      -2.378  -4.197   1.515  1.00  0.00     0.027 C 
ATOM     22  C   UNL     1      -3.670  -4.661   0.913  1.00  0.00     0.027 C 
ENDBRANCH   8  20
ENDBRANCH   7   8
ENDBRANCH   6   7
ENDBRANCH   3   6
ENDBRANCH   1   2
BRANCH   1  23
ATOM     23  C   UNL     1      -1.428  -7.126   3.651  1.00  0.00     0.023 C 
BRANCH  23  24
ATOM     24  C   UNL     1      -1.924  -6.039   4.605  1.00  0.00     0.023 C 
BRANCH  24  25
ATOM     25  C   UNL     1      -0.862  -5.160   5.248  1.00  0.00     0.116 C 
BRANCH  25  26
ATOM     26  N   UNL     1      -0.844  -3.779   4.761  1.00  0.00    -0.352 N 
ATOM     27  C   UNL     1      -1.101  -2.599   5.433  1.00  0.00     0.251 C 
ATOM     28  H   UNL     1      -0.613  -3.676   3.810  1.00  0.00     0.163 HD
ATOM     29  O   UNL     1      -1.173  -1.538   4.818  1.00  0.00    -0.269 OA
BRANCH  27  30
ATOM     30  C   UNL     1      -1.319  -2.625   6.897  1.00  0.00     0.039 A 
ATOM     31  C   UNL     1      -2.355  -1.885   7.472  1.00  0.00     0.014 A 
ATOM     32  C   UNL     1      -0.535  -3.455   7.693  1.00  0.00     0.014 A 
ATOM     33  C   UNL     1      -2.676  -2.083   8.820  1.00  0.00     0.010 A 
ATOM     34  C   UNL     1      -0.961  -3.775   8.972  1.00  0.00     0.010 A 
ATOM     35  C   UNL     1      -2.026  -3.083   9.563  1.00  0.00    -0.014 A 
BRANCH  35  36
ATOM     36  C   UNL     1      -2.406  -3.421  10.962  1.00  0.00     0.031 A 
ATOM     37  C   UNL     1      -1.355  -3.408  12.045  1.00  0.00     0.074 A 
ATOM     38  C   UNL     1      -3.655  -3.846  11.243  1.00  0.00     0.049 A 
ATOM     39  N   UNL     1      -1.438  -3.808  13.288  1.00  0.00    -0.248 NA
ATOM     40  C   UNL     1      -0.011  -2.943  11.661  1.00  0.00     0.031 C 
ATOM     41  C   UNL     1      -4.745  -3.996  10.276  1.00  0.00     0.029 A 
ATOM     42  N   UNL     1      -4.216  -4.241  12.432  1.00  0.00    -0.354 N 
ATOM     43  C   UNL     1      -0.155  -3.686  13.809  1.00  0.00     0.074 A 
ATOM     44  C   UNL     1       0.703  -3.258  12.729  1.00  0.00     0.031 C 
ATOM     45  C   UNL     1      -5.853  -4.403  10.917  1.00  0.00     0.029 A 
ATOM     46  C   UNL     1      -5.545  -4.582  12.331  1.00  0.00     0.049 A 
ATOM     47  H   UNL     1      -3.715  -4.278  13.278  1.00  0.00     0.167 HD
ATOM     48  C   UNL     1       0.268  -3.869  15.082  1.00  0.00     0.037 A 
ATOM     49  C   UNL     1      -6.415  -4.985  13.276  1.00  0.00     0.037 A 
ATOM     50  C   UNL     1      -0.602  -4.217  16.171  1.00  0.00     0.049 A 
ATOM     51  C   UNL     1      -5.942  -5.109  14.698  1.00  0.00     0.074 A 
ATOM     52  C   UNL     1      -0.298  -4.339  17.515  1.00  0.00     0.029 A 
ATOM     53  N   UNL     1      -1.957  -4.480  16.038  1.00  0.00    -0.354 N 
ATOM     54  N   UNL     1      -4.742  -4.918  15.190  1.00  0.00    -0.248 NA
ATOM     55  C   UNL     1      -6.947  -5.494  15.699  1.00  0.00     0.031 C 
ATOM     56  C   UNL     1      -1.467  -4.703  18.193  1.00  0.00     0.029 A 
ATOM     57  C   UNL     1      -2.504  -4.768  17.276  1.00  0.00     0.049 A 
ATOM     58  H   UNL     1      -2.456  -4.464  15.190  1.00  0.00     0.167 HD
ATOM     59  C   UNL     1      -4.853  -5.129  16.558  1.00  0.00     0.074 A 
ATOM     60  C   UNL     1      -6.241  -5.447  16.820  1.00  0.00     0.031 C 
ATOM     61  C   UNL     1      -3.893  -5.067  17.513  1.00  0.00     0.037 A 
BRANCH  48  62
ATOM     62  C   UNL     1       1.730  -3.661  15.360  1.00  0.00     0.057 A 
ATOM     63  C   UNL     1       2.326  -2.394  15.281  1.00  0.00     0.134 A 
ATOM     64  C   UNL     1       2.553  -4.738  15.714  1.00  0.00     0.134 A 
ATOM     65  F   UNL     1       1.599  -1.322  14.931  1.00  0.00    -0.206 F 
ATOM     66  C   UNL     1       3.692  -2.212  15.502  1.00  0.00     0.040 A 
ATOM     67  C   UNL     1       3.914  -4.563  15.970  1.00  0.00     0.040 A 
ATOM     68  F   UNL     1       2.049  -5.977  15.814  1.00  0.00    -0.206 F 
ATOM     69  C   UNL     1       4.489  -3.299  15.854  1.00  0.00     0.006 A 
ENDBRANCH  48  62
BRANCH  49  70
ATOM     70  C   UNL     1      -7.835  -5.242  12.923  1.00  0.00     0.057 A 
ATOM     71  C   UNL     1      -8.848  -4.370  13.343  1.00  0.00     0.134 A 
ATOM     72  C   UNL     1      -8.219  -6.358  12.171  1.00  0.00     0.134 A 
ATOM     73  F   UNL     1      -8.545  -3.291  14.080  1.00  0.00    -0.206 F 
ATOM     74  C   UNL     1     -10.191  -4.609  13.047  1.00  0.00     0.040 A 
ATOM     75  C   UNL     1      -9.556  -6.597  11.848  1.00  0.00     0.040 A 
ATOM     76  F   UNL     1      -7.297  -7.226  11.729  1.00  0.00    -0.206 F 
ATOM     77  C   UNL     1     -10.548  -5.724  12.293  1.00  0.00     0.006 A 
ENDBRANCH  49  70
BRANCH  61  78
ATOM     78  C   UNL     1      -4.321  -5.309  18.929  1.00  0.00     0.057 A 
ATOM     79  C   UNL     1      -4.660  -6.587  19.391  1.00  0.00     0.134 A 
ATOM     80  C   UNL     1      -4.357  -4.254  19.850  1.00  0.00     0.134 A 
ATOM     81  F   UNL     1      -4.656  -7.635  18.555  1.00  0.00    -0.206 F 
ATOM     82  C   UNL     1      -5.044  -6.803  20.715  1.00  0.00     0.040 A 
ATOM     83  C   UNL     1      -4.713  -4.462  21.182  1.00  0.00     0.040 A 
ATOM     84  F   UNL     1      -4.033  -3.008  19.472  1.00  0.00    -0.206 F 
ATOM     85  C   UNL     1      -5.065  -5.739  21.616  1.00  0.00     0.006 A 
ENDBRANCH  61  78
ENDBRANCH  35  36
ENDBRANCH  27  30
ENDBRANCH  25  26
ENDBRANCH  24  25
ENDBRANCH  23  24
ENDBRANCH   1  23
TORSDOF 16
