REMARK SMILES C[C@H]1CCCN(C(=O)c2cn(C)nc2C(=O)NCCCCNC(=O)c2ccc(-c3c4nc(c(-c5c(F)cccc5F)c5ccc([nH]5)c(-c5c(F)cccc5F)c5nc(c(-c6c(F)cccc6F)c6ccc3[nH]6)C=C5)C=C4)cc2)C1
REMARK SMILES IDX 19 1 18 2 17 3 15 4 16 5 14 7 9 8 10 9 11 10 13 11 12 12
REMARK SMILES IDX 7 13 8 14 6 15 1 16 2 17 3 18 79 19 4 20 5 21 20 22 21 23
REMARK SMILES IDX 22 24 23 25 24 27 25 28 26 29 78 30 27 31 77 32 28 33 29 34
REMARK SMILES IDX 30 35 71 36 31 37 76 38 70 39 72 40 32 41 75 42 69 43 68 44
REMARK SMILES IDX 33 46 59 47 42 48 58 49 43 50 46 51 57 52 73 53 44 54 45 55
REMARK SMILES IDX 56 57 74 58 47 59 34 60 35 61 40 62 36 63 37 64 39 65 41 66
REMARK SMILES IDX 38 67 60 68 61 69 66 70 62 71 63 72 65 73 67 74 64 75 48 76
REMARK SMILES IDX 49 77 54 78 50 79 51 80 53 81 55 82 52 83
REMARK H PARENT 17 6 22 26 72 45 46 56
REMARK Flexibility Score: inf
ROOT
ATOM      1  C   UNL     1      -2.099   3.668  -1.917  1.00  0.00     0.023 C 
ENDROOT
BRANCH   1   2
ATOM      2  C   UNL     1      -2.012   3.489  -0.409  1.00  0.00     0.116 C 
BRANCH   2   3
ATOM      3  N   UNL     1      -2.899   4.291   0.387  1.00  0.00    -0.351 N 
ATOM      4  C   UNL     1      -3.458   4.028   1.624  1.00  0.00     0.272 C 
ATOM      5  O   UNL     1      -4.185   4.925   2.064  1.00  0.00    -0.267 OA
ATOM      6  H   UNL     1      -3.146   5.158  -0.007  1.00  0.00     0.163 HD
BRANCH   4   7
ATOM      7  C   UNL     1      -3.265   2.749   2.365  1.00  0.00     0.162 A 
ATOM      8  C   UNL     1      -2.176   1.814   2.438  1.00  0.00     0.091 A 
ATOM      9  C   UNL     1      -2.561   0.872   3.377  1.00  0.00     0.123 A 
ATOM     10  N   UNL     1      -3.807   1.227   3.776  1.00  0.00    -0.274 N 
ATOM     11  N   UNL     1      -4.267   2.328   3.173  1.00  0.00    -0.167 NA
ATOM     12  C   UNL     1      -4.633   0.550   4.746  1.00  0.00     0.173 C 
BRANCH   8  13
ATOM     13  C   UNL     1      -0.888   1.831   1.782  1.00  0.00     0.257 C 
ATOM     14  O   UNL     1      -0.087   2.736   2.022  1.00  0.00    -0.269 OA
BRANCH  13  15
ATOM     15  N   UNL     1      -0.648   0.853   0.811  1.00  0.00    -0.338 N 
ATOM     16  C   UNL     1       2.157  -0.434   1.181  1.00  0.00     0.009 C 
ATOM     17  C   UNL     1       1.353  -0.286  -0.110  1.00  0.00     0.005 C 
ATOM     18  C   UNL     1       0.472  -1.516  -0.389  1.00  0.00     0.007 C 
ATOM     19  C   UNL     1       0.512   0.993  -0.068  1.00  0.00     0.123 C 
ATOM     20  C   UNL     1      -0.768  -1.576   0.505  1.00  0.00     0.022 C 
ATOM     21  C   UNL     1      -1.538  -0.260   0.466  1.00  0.00     0.120 C 
ENDBRANCH  13  15
ENDBRANCH   8  13
ENDBRANCH   4   7
ENDBRANCH   2   3
ENDBRANCH   1   2
BRANCH   1  22
ATOM     22  C   UNL     1      -1.694   5.025  -2.480  1.00  0.00     0.023 C 
BRANCH  22  23
ATOM     23  C   UNL     1      -0.394   5.631  -1.958  1.00  0.00     0.116 C 
BRANCH  23  24
ATOM     24  N   UNL     1       0.783   4.786  -2.132  1.00  0.00    -0.352 N 
ATOM     25  C   UNL     1       1.905   4.946  -2.913  1.00  0.00     0.251 C 
ATOM     26  H   UNL     1       0.772   3.959  -1.598  1.00  0.00     0.163 HD
ATOM     27  O   UNL     1       2.755   4.060  -2.953  1.00  0.00    -0.269 OA
BRANCH  25  28
ATOM     28  C   UNL     1       2.066   6.153  -3.753  1.00  0.00     0.039 A 
ATOM     29  C   UNL     1       2.420   5.999  -5.097  1.00  0.00     0.014 A 
ATOM     30  C   UNL     1       1.818   7.426  -3.240  1.00  0.00     0.014 A 
ATOM     31  C   UNL     1       2.376   7.101  -5.956  1.00  0.00     0.010 A 
ATOM     32  C   UNL     1       1.685   8.503  -4.110  1.00  0.00     0.010 A 
ATOM     33  C   UNL     1       1.929   8.344  -5.483  1.00  0.00    -0.014 A 
BRANCH  33  34
ATOM     34  C   UNL     1       1.633   9.473  -6.404  1.00  0.00     0.031 A 
ATOM     35  C   UNL     1       2.344  10.787  -6.250  1.00  0.00     0.074 A 
ATOM     36  C   UNL     1       0.626   9.355  -7.294  1.00  0.00     0.049 A 
ATOM     37  N   UNL     1       2.106  11.930  -6.841  1.00  0.00    -0.248 NA
ATOM     38  C   UNL     1       3.443  10.832  -5.273  1.00  0.00     0.031 C 
ATOM     39  C   UNL     1      -0.191   8.156  -7.499  1.00  0.00     0.029 A 
ATOM     40  N   UNL     1       0.097  10.268  -8.174  1.00  0.00    -0.354 N 
ATOM     41  C   UNL     1       2.999  12.835  -6.284  1.00  0.00     0.074 A 
ATOM     42  C   UNL     1       3.758  12.118  -5.282  1.00  0.00     0.031 C 
ATOM     43  C   UNL     1      -1.106   8.402  -8.449  1.00  0.00     0.029 A 
ATOM     44  C   UNL     1      -0.974   9.786  -8.889  1.00  0.00     0.049 A 
ATOM     45  H   UNL     1       0.450  11.180  -8.281  1.00  0.00     0.167 HD
ATOM     46  C   UNL     1       3.181  14.142  -6.592  1.00  0.00     0.037 A 
ATOM     47  C   UNL     1      -1.775  10.395  -9.784  1.00  0.00     0.037 A 
ATOM     48  C   UNL     1       2.459  14.841  -7.621  1.00  0.00     0.049 A 
ATOM     49  C   UNL     1      -1.543  11.840 -10.119  1.00  0.00     0.074 A 
ATOM     50  C   UNL     1       2.653  16.130  -8.086  1.00  0.00     0.029 A 
ATOM     51  N   UNL     1       1.401  14.310  -8.343  1.00  0.00    -0.354 N 
ATOM     52  N   UNL     1      -0.640  12.661  -9.644  1.00  0.00    -0.248 NA
ATOM     53  C   UNL     1      -2.446  12.445 -11.109  1.00  0.00     0.031 C 
ATOM     54  C   UNL     1       1.687  16.393  -9.063  1.00  0.00     0.029 A 
ATOM     55  C   UNL     1       0.912  15.256  -9.229  1.00  0.00     0.049 A 
ATOM     56  H   UNL     1       1.050  13.396  -8.241  1.00  0.00     0.167 HD
ATOM     57  C   UNL     1      -0.859  13.876 -10.279  1.00  0.00     0.074 A 
ATOM     58  C   UNL     1      -1.968  13.679 -11.190  1.00  0.00     0.031 C 
ATOM     59  C   UNL     1      -0.200  15.049 -10.119  1.00  0.00     0.037 A 
BRANCH  46  60
ATOM     60  C   UNL     1       4.210  14.897  -5.806  1.00  0.00     0.057 A 
ATOM     61  C   UNL     1       5.582  14.675  -5.979  1.00  0.00     0.134 A 
ATOM     62  C   UNL     1       3.824  15.875  -4.881  1.00  0.00     0.134 A 
ATOM     63  F   UNL     1       6.016  13.743  -6.841  1.00  0.00    -0.206 F 
ATOM     64  C   UNL     1       6.534  15.377  -5.239  1.00  0.00     0.040 A 
ATOM     65  C   UNL     1       4.768  16.602  -4.152  1.00  0.00     0.040 A 
ATOM     66  F   UNL     1       2.526  16.142  -4.671  1.00  0.00    -0.206 F 
ATOM     67  C   UNL     1       6.127  16.348  -4.326  1.00  0.00     0.006 A 
ENDBRANCH  46  60
BRANCH  47  68
ATOM     68  C   UNL     1      -2.874   9.635 -10.428  1.00  0.00     0.057 A 
ATOM     69  C   UNL     1      -2.787   9.240 -11.767  1.00  0.00     0.134 A 
ATOM     70  C   UNL     1      -4.030   9.280  -9.723  1.00  0.00     0.134 A 
ATOM     71  F   UNL     1      -1.711   9.570 -12.498  1.00  0.00    -0.206 F 
ATOM     72  C   UNL     1      -3.813   8.527 -12.387  1.00  0.00     0.040 A 
ATOM     73  C   UNL     1      -5.056   8.549 -10.324  1.00  0.00     0.040 A 
ATOM     74  F   UNL     1      -4.170   9.624  -8.434  1.00  0.00    -0.206 F 
ATOM     75  C   UNL     1      -4.950   8.174 -11.662  1.00  0.00     0.006 A 
ENDBRANCH  47  68
BRANCH  59  76
ATOM     76  C   UNL     1      -0.664  16.211 -10.944  1.00  0.00     0.057 A 
ATOM     77  C   UNL     1      -1.836  16.908 -10.629  1.00  0.00     0.134 A 
ATOM     78  C   UNL     1       0.092  16.666 -12.031  1.00  0.00     0.134 A 
ATOM     79  F   UNL     1      -2.610  16.511  -9.608  1.00  0.00    -0.206 F 
ATOM     80  C   UNL     1      -2.248  18.014 -11.375  1.00  0.00     0.040 A 
ATOM     81  C   UNL     1      -0.299  17.782 -12.772  1.00  0.00     0.040 A 
ATOM     82  F   UNL     1       1.227  16.043 -12.380  1.00  0.00    -0.206 F 
ATOM     83  C   UNL     1      -1.473  18.457 -12.446  1.00  0.00     0.006 A 
ENDBRANCH  59  76
ENDBRANCH  33  34
ENDBRANCH  25  28
ENDBRANCH  23  24
ENDBRANCH  22  23
ENDBRANCH   1  22
TORSDOF 13
