REMARK SMILES CC(=O)N[C@H]1[C@@H](Oc2ccc(C)c(C)c2)O[C@H]2CO[C@H](c3ccco3)O[C@@H]2[C@H]1OCC(=O)NCCCCNC(=O)c1ccc(-c2c3nc(c(-c4c(F)cccc4F)c4ccc([nH]4)c(-c4c(F)cccc4F)c4nc(c(-c5c(F)cccc5F)c5ccc2[nH]5)C=C4)C=C3)cc1
REMARK SMILES IDX 34 1 33 2 31 3 32 4 30 6 29 7 28 8 5 9 6 10 16 11 27 12
REMARK SMILES IDX 17 13 26 14 18 15 20 16 19 17 4 18 1 19 2 20 3 21 7 23 8 24
REMARK SMILES IDX 9 25 15 26 10 27 13 28 11 29 14 30 12 31 21 32 22 33 25 34
REMARK SMILES IDX 23 35 24 36 35 37 36 38 37 39 38 40 39 41 40 43 41 44 42 45
REMARK SMILES IDX 94 46 43 47 93 48 44 49 45 50 46 51 87 52 47 53 92 54 86 55
REMARK SMILES IDX 88 56 48 57 91 58 85 59 84 60 49 62 75 63 58 64 74 65 59 66
REMARK SMILES IDX 62 67 73 68 89 69 60 70 61 71 72 73 90 74 63 75 50 76 51 77
REMARK SMILES IDX 56 78 52 79 53 80 55 81 57 82 54 83 76 84 77 85 82 86 78 87
REMARK SMILES IDX 79 88 81 89 83 90 80 91 64 92 65 93 70 94 66 95 67 96 69 97
REMARK SMILES IDX 71 98 68 99
REMARK H PARENT 33 5 4 22 38 42 88 61 62 72
REMARK Flexibility Score: inf
ROOT
ATOM      1  C   UNL     1      -0.278   2.676   0.110  1.00  0.00     0.116 C 
ENDROOT
BRANCH   1   2
ATOM      2  N   UNL     1      -0.371   1.341   0.635  1.00  0.00    -0.354 N 
ATOM      3  C   UNL     1       0.265   0.265   0.103  1.00  0.00     0.246 C 
ATOM      4  O   UNL     1      -0.232  -0.837   0.317  1.00  0.00    -0.272 OA
ATOM      5  H   UNL     1      -0.931   1.198   1.432  1.00  0.00     0.163 HD
BRANCH   3   6
ATOM      6  C   UNL     1       1.563   0.517  -0.704  1.00  0.00     0.260 C 
BRANCH   6   7
ATOM      7  O   UNL     1       2.314  -0.529  -1.257  1.00  0.00    -0.363 OA
BRANCH   7   8
ATOM      8  C   UNL     1       1.640  -1.545  -1.992  1.00  0.00     0.179 C 
ATOM      9  C   UNL     1       1.790  -2.907  -1.239  1.00  0.00     0.182 C 
ATOM     10  C   UNL     1       0.987  -4.021  -2.063  1.00  0.00     0.333 C 
ATOM     11  O   UNL     1      -0.255  -3.626  -2.654  1.00  0.00    -0.332 OA
ATOM     12  C   UNL     1       0.238  -1.280  -2.628  1.00  0.00     0.184 C 
ATOM     13  C   UNL     1      -0.148  -2.486  -3.486  1.00  0.00     0.180 C 
ATOM     14  O   UNL     1       0.183  -0.089  -3.432  1.00  0.00    -0.337 OA
ATOM     15  C   UNL     1      -1.491  -2.219  -4.177  1.00  0.00     0.199 C 
ATOM     16  C   UNL     1      -1.149   0.070  -3.951  1.00  0.00     0.319 C 
ATOM     17  O   UNL     1      -1.470  -0.970  -4.868  1.00  0.00    -0.343 OA
BRANCH   9  18
ATOM     18  N   UNL     1       1.545  -3.021   0.238  1.00  0.00    -0.345 N 
ATOM     19  C   UNL     1       2.553  -1.299   1.813  1.00  0.00     0.114 C 
ATOM     20  C   UNL     1       1.845  -2.566   1.465  1.00  0.00     0.217 C 
ATOM     21  O   UNL     1       1.478  -3.294   2.399  1.00  0.00    -0.275 OA
ATOM     22  H   UNL     1       0.878  -3.735   0.359  1.00  0.00     0.164 HD
ENDBRANCH   9  18
BRANCH  10  23
ATOM     23  O   UNL     1       0.845  -5.283  -1.385  1.00  0.00    -0.463 OA
BRANCH  23  24
ATOM     24  C   UNL     1      -0.086  -5.447  -0.390  1.00  0.00     0.123 A 
ATOM     25  C   UNL     1      -1.050  -4.523   0.012  1.00  0.00     0.047 A 
ATOM     26  C   UNL     1       0.121  -6.585   0.391  1.00  0.00     0.050 A 
ATOM     27  C   UNL     1      -1.688  -4.668   1.247  1.00  0.00     0.007 A 
ATOM     28  C   UNL     1      -0.537  -6.761   1.622  1.00  0.00    -0.045 A 
ATOM     29  C   UNL     1      -1.409  -5.759   2.083  1.00  0.00    -0.048 A 
ATOM     30  C   UNL     1      -0.222  -8.004   2.406  1.00  0.00     0.045 C 
ATOM     31  C   UNL     1      -2.026  -5.798   3.453  1.00  0.00     0.044 C 
ENDBRANCH  23  24
ENDBRANCH  10  23
BRANCH  16  32
ATOM     32  C   UNL     1      -1.309   1.385  -4.645  1.00  0.00     0.159 A 
ATOM     33  C   UNL     1      -2.421   2.014  -5.181  1.00  0.00     0.051 A 
ATOM     34  O   UNL     1      -0.245   2.245  -4.680  1.00  0.00    -0.464 OA
ATOM     35  C   UNL     1      -2.024   3.329  -5.524  1.00  0.00     0.042 A 
ATOM     36  C   UNL     1      -0.688   3.413  -5.214  1.00  0.00     0.195 A 
ENDBRANCH  16  32
ENDBRANCH   7   8
ENDBRANCH   6   7
ENDBRANCH   3   6
ENDBRANCH   1   2
BRANCH   1  37
ATOM     37  C   UNL     1      -0.980   2.746  -1.248  1.00  0.00     0.023 C 
BRANCH  37  38
ATOM     38  C   UNL     1      -2.433   2.258  -1.227  1.00  0.00     0.023 C 
BRANCH  38  39
ATOM     39  C   UNL     1      -3.279   2.885  -0.133  1.00  0.00     0.116 C 
BRANCH  39  40
ATOM     40  N   UNL     1      -3.101   4.326  -0.080  1.00  0.00    -0.352 N 
ATOM     41  C   UNL     1      -4.037   5.308   0.073  1.00  0.00     0.251 C 
ATOM     42  H   UNL     1      -2.172   4.640  -0.167  1.00  0.00     0.163 HD
ATOM     43  O   UNL     1      -3.732   6.484  -0.055  1.00  0.00    -0.269 OA
BRANCH  41  44
ATOM     44  C   UNL     1      -5.421   4.916   0.367  1.00  0.00     0.039 A 
ATOM     45  C   UNL     1      -6.442   5.474  -0.402  1.00  0.00     0.014 A 
ATOM     46  C   UNL     1      -5.695   3.986   1.374  1.00  0.00     0.014 A 
ATOM     47  C   UNL     1      -7.753   5.075  -0.175  1.00  0.00     0.010 A 
ATOM     48  C   UNL     1      -6.994   3.533   1.547  1.00  0.00     0.010 A 
ATOM     49  C   UNL     1      -8.033   4.090   0.788  1.00  0.00    -0.014 A 
BRANCH  49  50
ATOM     50  C   UNL     1      -9.424   3.666   1.045  1.00  0.00     0.031 A 
ATOM     51  C   UNL     1     -10.056   3.976   2.371  1.00  0.00     0.074 A 
ATOM     52  C   UNL     1     -10.091   2.977   0.101  1.00  0.00     0.049 A 
ATOM     53  N   UNL     1     -11.243   3.655   2.813  1.00  0.00    -0.248 NA
ATOM     54  C   UNL     1      -9.235   4.722   3.340  1.00  0.00     0.031 C 
ATOM     55  C   UNL     1      -9.550   2.586  -1.204  1.00  0.00     0.029 A 
ATOM     56  N   UNL     1     -11.368   2.483   0.094  1.00  0.00    -0.354 N 
ATOM     57  C   UNL     1     -11.305   4.148   4.110  1.00  0.00     0.074 A 
ATOM     58  C   UNL     1     -10.019   4.736   4.407  1.00  0.00     0.031 C 
ATOM     59  C   UNL     1     -10.501   1.935  -1.894  1.00  0.00     0.029 A 
ATOM     60  C   UNL     1     -11.702   1.839  -1.071  1.00  0.00     0.049 A 
ATOM     61  H   UNL     1     -11.987   2.581   0.853  1.00  0.00     0.167 HD
ATOM     62  C   UNL     1     -12.354   4.137   4.965  1.00  0.00     0.037 A 
ATOM     63  C   UNL     1     -12.853   1.242  -1.429  1.00  0.00     0.037 A 
ATOM     64  C   UNL     1     -13.639   3.577   4.647  1.00  0.00     0.049 A 
ATOM     65  C   UNL     1     -14.006   1.258  -0.464  1.00  0.00     0.074 A 
ATOM     66  C   UNL     1     -14.782   3.540   5.425  1.00  0.00     0.029 A 
ATOM     67  N   UNL     1     -13.951   2.965   3.442  1.00  0.00    -0.354 N 
ATOM     68  N   UNL     1     -14.069   1.773   0.741  1.00  0.00    -0.248 NA
ATOM     69  C   UNL     1     -15.252   0.623  -0.912  1.00  0.00     0.031 C 
ATOM     70  C   UNL     1     -15.780   2.881   4.700  1.00  0.00     0.029 A 
ATOM     71  C   UNL     1     -15.270   2.545   3.456  1.00  0.00     0.049 A 
ATOM     72  H   UNL     1     -13.328   2.846   2.689  1.00  0.00     0.167 HD
ATOM     73  C   UNL     1     -15.368   1.557   1.179  1.00  0.00     0.074 A 
ATOM     74  C   UNL     1     -16.062   0.874   0.106  1.00  0.00     0.031 C 
ATOM     75  C   UNL     1     -15.940   1.891   2.362  1.00  0.00     0.037 A 
BRANCH  62  76
ATOM     76  C   UNL     1     -12.155   4.766   6.312  1.00  0.00     0.057 A 
ATOM     77  C   UNL     1     -12.035   6.154   6.464  1.00  0.00     0.134 A 
ATOM     78  C   UNL     1     -12.115   3.983   7.471  1.00  0.00     0.134 A 
ATOM     79  F   UNL     1     -12.047   6.959   5.391  1.00  0.00    -0.206 F 
ATOM     80  C   UNL     1     -11.863   6.739   7.719  1.00  0.00     0.040 A 
ATOM     81  C   UNL     1     -11.969   4.558   8.735  1.00  0.00     0.040 A 
ATOM     82  F   UNL     1     -12.225   2.648   7.397  1.00  0.00    -0.206 F 
ATOM     83  C   UNL     1     -11.838   5.940   8.860  1.00  0.00     0.006 A 
ENDBRANCH  62  76
BRANCH  63  84
ATOM     84  C   UNL     1     -12.989   0.613  -2.766  1.00  0.00     0.057 A 
ATOM     85  C   UNL     1     -13.822   1.170  -3.743  1.00  0.00     0.134 A 
ATOM     86  C   UNL     1     -12.311  -0.567  -3.092  1.00  0.00     0.134 A 
ATOM     87  F   UNL     1     -14.507   2.293  -3.485  1.00  0.00    -0.206 F 
ATOM     88  C   UNL     1     -14.002   0.560  -4.985  1.00  0.00     0.040 A 
ATOM     89  C   UNL     1     -12.461  -1.175  -4.340  1.00  0.00     0.040 A 
ATOM     90  F   UNL     1     -11.487  -1.143  -2.204  1.00  0.00    -0.206 F 
ATOM     91  C   UNL     1     -13.318  -0.616  -5.287  1.00  0.00     0.006 A 
ENDBRANCH  63  84
BRANCH  75  92
ATOM     92  C   UNL     1     -17.395   1.574   2.529  1.00  0.00     0.057 A 
ATOM     93  C   UNL     1     -17.850   0.264   2.721  1.00  0.00     0.134 A 
ATOM     94  C   UNL     1     -18.346   2.602   2.534  1.00  0.00     0.134 A 
ATOM     95  F   UNL     1     -16.987  -0.763   2.714  1.00  0.00    -0.206 F 
ATOM     96  C   UNL     1     -19.206  -0.016   2.887  1.00  0.00     0.040 A 
ATOM     97  C   UNL     1     -19.702   2.336   2.725  1.00  0.00     0.040 A 
ATOM     98  F   UNL     1     -17.972   3.879   2.365  1.00  0.00    -0.206 F 
ATOM     99  C   UNL     1     -20.136   1.023   2.896  1.00  0.00     0.006 A 
ENDBRANCH  75  92
ENDBRANCH  49  50
ENDBRANCH  41  44
ENDBRANCH  39  40
ENDBRANCH  38  39
ENDBRANCH  37  38
ENDBRANCH   1  37
TORSDOF 17
