REMARK SMILES Cc1csc(C[NH2+]C[C@H]2CCC[C@H]2C(=O)NCCCCNC(=O)c2ccc(-c3c4nc(c(-c5c(F)cccc5F)c5ccc([nH]5)c(-c5c(F)cccc5F)c5nc(c(-c6c(F)cccc6F)c6ccc3[nH]6)C=C5)C=C4)cc2)n1
REMARK SMILES IDX 17 1 16 2 14 3 15 4 13 6 9 7 10 8 11 9 12 10 8 11 7 12 6 15
REMARK SMILES IDX 5 16 1 17 2 18 3 19 78 20 4 21 18 22 19 23 20 24 21 25 22 26
REMARK SMILES IDX 23 28 24 29 25 30 77 31 26 32 76 33 27 34 28 35 29 36 70 37
REMARK SMILES IDX 30 38 75 39 69 40 71 41 31 42 74 43 68 44 67 45 32 47 58 48
REMARK SMILES IDX 41 49 57 50 42 51 45 52 56 53 72 54 43 55 44 56 55 58 73 59
REMARK SMILES IDX 46 60 33 61 34 62 39 63 35 64 36 65 38 66 40 67 37 68 59 69
REMARK SMILES IDX 60 70 65 71 61 72 62 73 64 74 66 75 63 76 47 77 48 78 53 79
REMARK SMILES IDX 49 80 50 81 52 82 54 83 51 84
REMARK H PARENT 16 5 7 13 7 14 21 27 71 46 45 57
REMARK Flexibility Score: inf
ROOT
ATOM      1  C   UNL     1       5.006   2.131   0.727  1.00  0.00     0.116 C 
ENDROOT
BRANCH   1   2
ATOM      2  N   UNL     1       3.890   1.573  -0.014  1.00  0.00    -0.356 N 
ATOM      3  C   UNL     1       3.232   1.948  -1.139  1.00  0.00     0.223 C 
ATOM      4  O   UNL     1       2.223   1.287  -1.415  1.00  0.00    -0.275 OA
ATOM      5  H   UNL     1       3.534   0.746   0.385  1.00  0.00     0.163 HD
BRANCH   3   6
ATOM      6  C   UNL     1       3.638   3.097  -2.066  1.00  0.00     0.087 C 
ATOM      7  C   UNL     1       3.252   4.555  -1.700  1.00  0.00     0.057 C 
ATOM      8  C   UNL     1       4.167   5.354  -2.635  1.00  0.00     0.010 C 
ATOM      9  C   UNL     1       5.490   4.603  -2.589  1.00  0.00     0.001 C 
ATOM     10  C   UNL     1       5.098   3.128  -2.541  1.00  0.00     0.014 C 
BRANCH   7  11
ATOM     11  C   UNL     1       3.447   4.886  -0.221  1.00  0.00     0.265 C 
BRANCH  11  12
ATOM     12  N   UNL     1       3.444   6.268   0.202  1.00  0.00    -0.340 N 
ATOM     13  H   UNL     1       3.959   6.329   1.079  1.00  0.00     0.346 HD
ATOM     14  H   UNL     1       3.867   6.794  -0.564  1.00  0.00     0.346 HD
BRANCH  12  15
ATOM     15  C   UNL     1       2.129   6.862   0.412  1.00  0.00     0.329 C 
BRANCH  15  16
ATOM     16  C   UNL     1       2.305   8.214   1.057  1.00  0.00     0.147 A 
ATOM     17  C   UNL     1       3.373  10.136   3.905  1.00  0.00     0.067 C 
ATOM     18  C   UNL     1       2.896   9.738   2.557  1.00  0.00     0.049 A 
ATOM     19  C   UNL     1       2.691  10.565   1.470  1.00  0.00     0.090 A 
ATOM     20  N   UNL     1       2.641   8.400   2.319  1.00  0.00    -0.241 NA
ATOM     21  S   UNL     1       2.193   9.647   0.112  1.00  0.00    -0.121 S 
ENDBRANCH  15  16
ENDBRANCH  12  15
ENDBRANCH  11  12
ENDBRANCH   7  11
ENDBRANCH   3   6
ENDBRANCH   1   2
BRANCH   1  22
ATOM     22  C   UNL     1       4.529   2.808   2.016  1.00  0.00     0.023 C 
BRANCH  22  23
ATOM     23  C   UNL     1       4.287   1.879   3.195  1.00  0.00     0.023 C 
BRANCH  23  24
ATOM     24  C   UNL     1       5.534   1.189   3.713  1.00  0.00     0.116 C 
BRANCH  24  25
ATOM     25  N   UNL     1       6.596   2.110   4.090  1.00  0.00    -0.352 N 
ATOM     26  C   UNL     1       7.461   2.030   5.157  1.00  0.00     0.251 C 
ATOM     27  H   UNL     1       6.710   2.893   3.505  1.00  0.00     0.163 HD
ATOM     28  O   UNL     1       8.243   2.936   5.397  1.00  0.00    -0.269 OA
BRANCH  26  29
ATOM     29  C   UNL     1       7.399   0.842   6.032  1.00  0.00     0.039 A 
ATOM     30  C   UNL     1       7.381   1.025   7.415  1.00  0.00     0.014 A 
ATOM     31  C   UNL     1       7.304  -0.439   5.482  1.00  0.00     0.014 A 
ATOM     32  C   UNL     1       7.213  -0.081   8.247  1.00  0.00     0.010 A 
ATOM     33  C   UNL     1       7.026  -1.520   6.304  1.00  0.00     0.010 A 
ATOM     34  C   UNL     1       7.005  -1.357   7.696  1.00  0.00    -0.014 A 
BRANCH  34  35
ATOM     35  C   UNL     1       6.820  -2.544   8.561  1.00  0.00     0.031 A 
ATOM     36  C   UNL     1       7.825  -3.662   8.512  1.00  0.00     0.074 A 
ATOM     37  C   UNL     1       5.733  -2.635   9.351  1.00  0.00     0.049 A 
ATOM     38  N   UNL     1       7.833  -4.797   9.162  1.00  0.00    -0.248 NA
ATOM     39  C   UNL     1       8.954  -3.501   7.579  1.00  0.00     0.031 C 
ATOM     40  C   UNL     1       4.657  -1.645   9.433  1.00  0.00     0.029 A 
ATOM     41  N   UNL     1       5.355  -3.610  10.237  1.00  0.00    -0.354 N 
ATOM     42  C   UNL     1       8.951  -5.483   8.706  1.00  0.00     0.074 A 
ATOM     43  C   UNL     1       9.555  -4.676   7.672  1.00  0.00     0.031 C 
ATOM     44  C   UNL     1       3.762  -2.044  10.352  1.00  0.00     0.029 A 
ATOM     45  C   UNL     1       4.184  -3.329  10.899  1.00  0.00     0.049 A 
ATOM     46  H   UNL     1       5.873  -4.434  10.386  1.00  0.00     0.167 HD
ATOM     47  C   UNL     1       9.454  -6.663   9.137  1.00  0.00     0.037 A 
ATOM     48  C   UNL     1       3.534  -4.029  11.847  1.00  0.00     0.037 A 
ATOM     49  C   UNL     1       8.872  -7.441  10.196  1.00  0.00     0.049 A 
ATOM     50  C   UNL     1       4.123  -5.329  12.323  1.00  0.00     0.074 A 
ATOM     51  C   UNL     1       9.334  -8.618  10.757  1.00  0.00     0.029 A 
ATOM     52  N   UNL     1       7.698  -7.112  10.858  1.00  0.00    -0.354 N 
ATOM     53  N   UNL     1       5.223  -5.929  11.938  1.00  0.00    -0.248 NA
ATOM     54  C   UNL     1       3.383  -6.043  13.372  1.00  0.00     0.031 C 
ATOM     55  C   UNL     1       8.418  -9.021  11.735  1.00  0.00     0.029 A 
ATOM     56  C   UNL     1       7.410  -8.073  11.811  1.00  0.00     0.049 A 
ATOM     57  H   UNL     1       7.151  -6.314  10.676  1.00  0.00     0.167 HD
ATOM     58  C   UNL     1       5.322  -7.077  12.713  1.00  0.00     0.074 A 
ATOM     59  C   UNL     1       4.179  -7.077  13.604  1.00  0.00     0.031 C 
ATOM     60  C   UNL     1       6.269  -8.047  12.689  1.00  0.00     0.037 A 
BRANCH  47  61
ATOM     61  C   UNL     1      10.702  -7.165   8.473  1.00  0.00     0.057 A 
ATOM     62  C   UNL     1      11.940  -6.532   8.653  1.00  0.00     0.134 A 
ATOM     63  C   UNL     1      10.673  -8.300   7.654  1.00  0.00     0.134 A 
ATOM     64  F   UNL     1      12.035  -5.428   9.411  1.00  0.00    -0.206 F 
ATOM     65  C   UNL     1      13.096  -6.991   8.021  1.00  0.00     0.040 A 
ATOM     66  C   UNL     1      11.828  -8.787   7.040  1.00  0.00     0.040 A 
ATOM     67  F   UNL     1       9.522  -8.956   7.439  1.00  0.00    -0.206 F 
ATOM     68  C   UNL     1      13.043  -8.127   7.217  1.00  0.00     0.006 A 
ENDBRANCH  47  61
BRANCH  48  69
ATOM     69  C   UNL     1       2.280  -3.500  12.440  1.00  0.00     0.057 A 
ATOM     70  C   UNL     1       2.244  -3.047  13.764  1.00  0.00     0.134 A 
ATOM     71  C   UNL     1       1.089  -3.444  11.707  1.00  0.00     0.134 A 
ATOM     72  F   UNL     1       3.349  -3.091  14.522  1.00  0.00    -0.206 F 
ATOM     73  C   UNL     1       1.064  -2.581  14.347  1.00  0.00     0.040 A 
ATOM     74  C   UNL     1      -0.093  -2.957  12.270  1.00  0.00     0.040 A 
ATOM     75  F   UNL     1       1.058  -3.854  10.431  1.00  0.00    -0.206 F 
ATOM     76  C   UNL     1      -0.109  -2.532  13.597  1.00  0.00     0.006 A 
ENDBRANCH  48  69
BRANCH  60  77
ATOM     77  C   UNL     1       6.119  -9.170  13.672  1.00  0.00     0.057 A 
ATOM     78  C   UNL     1       5.133 -10.153  13.522  1.00  0.00     0.134 A 
ATOM     79  C   UNL     1       6.994  -9.287  14.759  1.00  0.00     0.134 A 
ATOM     80  F   UNL     1       4.257 -10.089  12.508  1.00  0.00    -0.206 F 
ATOM     81  C   UNL     1       5.007 -11.201  14.434  1.00  0.00     0.040 A 
ATOM     82  C   UNL     1       6.895 -10.345  15.662  1.00  0.00     0.040 A 
ATOM     83  F   UNL     1       7.966  -8.383  14.952  1.00  0.00    -0.206 F 
ATOM     84  C   UNL     1       5.895 -11.303  15.505  1.00  0.00     0.006 A 
ENDBRANCH  60  77
ENDBRANCH  34  35
ENDBRANCH  26  29
ENDBRANCH  24  25
ENDBRANCH  23  24
ENDBRANCH  22  23
ENDBRANCH   1  22
TORSDOF 15
