REMARK SMILES Cc1cc(C)c2c(c1)C=C(C(=O)NCCCCNC(=O)c1ccc(-c3c4nc(c(-c5c(F)cccc5F)c5ccc([nH]5)c(-c5c(F)cccc5F)c5nc(c(-c6c(F)cccc6F)c6ccc3[nH]6)C=C5)C=C4)cc1)[C@@H](C(F)(F)F)O2
REMARK SMILES IDX 16 1 15 2 14 3 13 4 11 5 12 6 10 8 1 9 2 10 3 11 8 12 4 13
REMARK SMILES IDX 7 14 5 15 6 16 9 17 80 18 75 19 76 20 77 21 78 22 79 23
REMARK SMILES IDX 17 24 18 25 19 26 20 28 21 29 22 30 74 31 23 32 73 33 24 34
REMARK SMILES IDX 25 35 26 36 67 37 27 38 72 39 66 40 68 41 28 42 71 43 65 44
REMARK SMILES IDX 64 45 29 47 55 48 38 49 54 50 39 51 42 52 53 53 69 54 40 55
REMARK SMILES IDX 41 56 52 58 70 59 43 60 30 61 31 62 36 63 32 64 33 65 35 66
REMARK SMILES IDX 37 67 34 68 56 69 57 70 62 71 58 72 59 73 61 74 63 75 60 76
REMARK SMILES IDX 44 77 45 78 50 79 46 80 47 81 49 82 51 83 48 84
REMARK H PARENT 13 7 18 27 68 46 42 57
REMARK Flexibility Score: inf
ROOT
ATOM      1  C   UNL     1      -4.430  -6.024  -7.805  1.00  0.00     0.023 C 
ENDROOT
BRANCH   1   2
ATOM      2  C   UNL     1      -3.422  -5.823  -6.671  1.00  0.00     0.023 C 
BRANCH   2   3
ATOM      3  C   UNL     1      -2.205  -4.988  -7.061  1.00  0.00     0.116 C 
BRANCH   3   4
ATOM      4  N   UNL     1      -2.449  -3.567  -6.897  1.00  0.00    -0.352 N 
ATOM      5  C   UNL     1      -2.123  -2.607  -5.999  1.00  0.00     0.251 C 
ATOM      6  O   UNL     1      -2.568  -1.483  -6.253  1.00  0.00    -0.270 OA
ATOM      7  H   UNL     1      -2.995  -3.206  -7.632  1.00  0.00     0.163 HD
BRANCH   5   8
ATOM      8  C   UNL     1      -1.296  -2.815  -4.774  1.00  0.00     0.067 C 
ATOM      9  C   UNL     1       1.063   0.315   0.018  1.00  0.00     0.044 C 
ATOM     10  C   UNL     1       0.706  -0.883  -0.812  1.00  0.00    -0.050 A 
ATOM     11  C   UNL     1       1.137  -2.156  -0.415  1.00  0.00     0.010 A 
ATOM     12  C   UNL     1      -0.056  -0.750  -1.981  1.00  0.00     0.015 A 
ATOM     13  C   UNL     1       0.816  -3.293  -1.168  1.00  0.00    -0.008 A 
ATOM     14  C   UNL     1      -0.377  -1.873  -2.748  1.00  0.00     0.018 A 
ATOM     15  C   UNL     1       1.286  -4.652  -0.735  1.00  0.00     0.048 C 
ATOM     16  C   UNL     1       0.066  -3.134  -2.340  1.00  0.00     0.130 A 
ATOM     17  C   UNL     1      -1.195  -1.755  -3.950  1.00  0.00     0.025 C 
ATOM     18  O   UNL     1      -0.253  -4.267  -3.038  1.00  0.00    -0.475 OA
ATOM     19  C   UNL     1      -0.564  -4.084  -4.445  1.00  0.00     0.314 C 
BRANCH  19  20
ATOM     20  C   UNL     1       0.718  -4.266  -5.279  1.00  0.00     0.429 C 
ATOM     21  F   UNL     1       1.160  -5.547  -5.194  1.00  0.00    -0.167 F 
ATOM     22  F   UNL     1       0.517  -4.021  -6.596  1.00  0.00    -0.167 F 
ATOM     23  F   UNL     1       1.728  -3.462  -4.880  1.00  0.00    -0.167 F 
ENDBRANCH  19  20
ENDBRANCH   5   8
ENDBRANCH   3   4
ENDBRANCH   2   3
ENDBRANCH   1   2
BRANCH   1  24
ATOM     24  C   UNL     1      -3.862  -6.635  -9.085  1.00  0.00     0.116 C 
BRANCH  24  25
ATOM     25  N   UNL     1      -3.108  -7.861  -8.870  1.00  0.00    -0.352 N 
ATOM     26  C   UNL     1      -2.973  -8.930  -9.724  1.00  0.00     0.251 C 
ATOM     27  H   UNL     1      -2.637  -7.934  -8.009  1.00  0.00     0.163 HD
ATOM     28  O   UNL     1      -2.361  -9.937  -9.383  1.00  0.00    -0.269 OA
BRANCH  26  29
ATOM     29  C   UNL     1      -3.621  -8.862 -11.045  1.00  0.00     0.039 A 
ATOM     30  C   UNL     1      -4.536  -9.857 -11.396  1.00  0.00     0.014 A 
ATOM     31  C   UNL     1      -3.380  -7.778 -11.893  1.00  0.00     0.014 A 
ATOM     32  C   UNL     1      -5.271  -9.724 -12.573  1.00  0.00     0.010 A 
ATOM     33  C   UNL     1      -4.154  -7.619 -13.036  1.00  0.00     0.010 A 
ATOM     34  C   UNL     1      -5.111  -8.586 -13.380  1.00  0.00    -0.014 A 
BRANCH  34  35
ATOM     35  C   UNL     1      -5.939  -8.389 -14.592  1.00  0.00     0.031 A 
ATOM     36  C   UNL     1      -5.298  -8.426 -15.948  1.00  0.00     0.074 A 
ATOM     37  C   UNL     1      -7.252  -8.122 -14.466  1.00  0.00     0.049 A 
ATOM     38  N   UNL     1      -5.837  -8.214 -17.121  1.00  0.00    -0.248 NA
ATOM     39  C   UNL     1      -3.856  -8.717 -15.990  1.00  0.00     0.031 C 
ATOM     40  C   UNL     1      -7.979  -8.023 -13.198  1.00  0.00     0.029 A 
ATOM     41  N   UNL     1      -8.210  -7.883 -15.418  1.00  0.00    -0.354 N 
ATOM     42  C   UNL     1      -4.801  -8.337 -18.036  1.00  0.00     0.074 A 
ATOM     43  C   UNL     1      -3.593  -8.591 -17.282  1.00  0.00     0.031 C 
ATOM     44  C   UNL     1      -9.274  -7.774 -13.453  1.00  0.00     0.029 A 
ATOM     45  C   UNL     1      -9.462  -7.665 -14.896  1.00  0.00     0.049 A 
ATOM     46  H   UNL     1      -8.019  -7.868 -16.383  1.00  0.00     0.167 HD
ATOM     47  C   UNL     1      -4.857  -8.269 -19.387  1.00  0.00     0.037 A 
ATOM     48  C   UNL     1     -10.630  -7.410 -15.516  1.00  0.00     0.037 A 
ATOM     49  C   UNL     1      -6.063  -8.043 -20.136  1.00  0.00     0.049 A 
ATOM     50  C   UNL     1     -10.664  -7.332 -17.016  1.00  0.00     0.074 A 
ATOM     51  C   UNL     1      -6.230  -8.001 -21.508  1.00  0.00     0.029 A 
ATOM     52  N   UNL     1      -7.311  -7.828 -19.572  1.00  0.00    -0.354 N 
ATOM     53  N   UNL     1      -9.684  -7.489 -17.872  1.00  0.00    -0.248 NA
ATOM     54  C   UNL     1     -11.965  -7.043 -17.636  1.00  0.00     0.031 C 
ATOM     55  C   UNL     1      -7.576  -7.734 -21.775  1.00  0.00     0.029 A 
ATOM     56  C   UNL     1      -8.252  -7.641 -20.569  1.00  0.00     0.049 A 
ATOM     57  H   UNL     1      -7.500  -7.811 -18.606  1.00  0.00     0.167 HD
ATOM     58  C   UNL     1     -10.251  -7.336 -19.130  1.00  0.00     0.074 A 
ATOM     59  C   UNL     1     -11.663  -7.085 -18.927  1.00  0.00     0.031 C 
ATOM     60  C   UNL     1      -9.654  -7.397 -20.345  1.00  0.00     0.037 A 
BRANCH  47  61
ATOM     61  C   UNL     1      -3.575  -8.461 -20.137  1.00  0.00     0.057 A 
ATOM     62  C   UNL     1      -2.972  -9.721 -20.245  1.00  0.00     0.134 A 
ATOM     63  C   UNL     1      -2.951  -7.386 -20.782  1.00  0.00     0.134 A 
ATOM     64  F   UNL     1      -3.513 -10.787 -19.637  1.00  0.00    -0.206 F 
ATOM     65  C   UNL     1      -1.782  -9.902 -20.952  1.00  0.00     0.040 A 
ATOM     66  C   UNL     1      -1.773  -7.559 -21.510  1.00  0.00     0.040 A 
ATOM     67  F   UNL     1      -3.479  -6.154 -20.718  1.00  0.00    -0.206 F 
ATOM     68  C   UNL     1      -1.183  -8.819 -21.593  1.00  0.00     0.006 A 
ENDBRANCH  47  61
BRANCH  48  69
ATOM     69  C   UNL     1     -11.869  -7.249 -14.718  1.00  0.00     0.057 A 
ATOM     70  C   UNL     1     -12.843  -8.253 -14.701  1.00  0.00     0.134 A 
ATOM     71  C   UNL     1     -12.105  -6.105 -13.947  1.00  0.00     0.134 A 
ATOM     72  F   UNL     1     -12.678  -9.365 -15.434  1.00  0.00    -0.206 F 
ATOM     73  C   UNL     1     -14.014  -8.123 -13.953  1.00  0.00     0.040 A 
ATOM     74  C   UNL     1     -13.264  -5.969 -13.180  1.00  0.00     0.040 A 
ATOM     75  F   UNL     1     -11.206  -5.111 -13.918  1.00  0.00    -0.206 F 
ATOM     76  C   UNL     1     -14.224  -6.980 -13.185  1.00  0.00     0.006 A 
ENDBRANCH  48  69
BRANCH  60  77
ATOM     77  C   UNL     1     -10.523  -7.205 -21.549  1.00  0.00     0.057 A 
ATOM     78  C   UNL     1     -10.973  -5.937 -21.933  1.00  0.00     0.134 A 
ATOM     79  C   UNL     1     -10.855  -8.290 -22.370  1.00  0.00     0.134 A 
ATOM     80  F   UNL     1     -10.697  -4.861 -21.180  1.00  0.00    -0.206 F 
ATOM     81  C   UNL     1     -11.731  -5.754 -23.090  1.00  0.00     0.040 A 
ATOM     82  C   UNL     1     -11.595  -8.117 -23.540  1.00  0.00     0.040 A 
ATOM     83  F   UNL     1     -10.446  -9.530 -22.059  1.00  0.00    -0.206 F 
ATOM     84  C   UNL     1     -12.036  -6.846 -23.902  1.00  0.00     0.006 A 
ENDBRANCH  60  77
ENDBRANCH  34  35
ENDBRANCH  26  29
ENDBRANCH  24  25
ENDBRANCH   1  24
TORSDOF 12
