REMARK SMILES O=C(NCCCCNC(=O)[C@@H]1CCC[N@@H+](Cc2ccc(F)cc2Cl)C1)c1ccc(-c2c3nc(c(-c4c(F)cccc4F)c4ccc([nH]4)c(-c4c(F)cccc4F)c4nc(c(-c5c(F)cccc5F)c5ccc2[nH]5)C=C4)C=C3)cc1
REMARK SMILES IDX 5 1 4 2 3 3 1 4 2 5 26 7 27 8 79 9 28 10 78 11 29 12 30 13
REMARK SMILES IDX 31 14 72 15 32 16 77 17 71 18 73 19 33 20 76 21 70 22 69 23
REMARK SMILES IDX 34 25 60 26 43 27 59 28 44 29 47 30 58 31 74 32 45 33 46 34
REMARK SMILES IDX 57 36 75 37 48 38 35 39 36 40 41 41 37 42 38 43 40 44 42 45
REMARK SMILES IDX 39 46 61 47 62 48 67 49 63 50 64 51 66 52 68 53 65 54 49 55
REMARK SMILES IDX 50 56 55 57 51 58 52 59 54 60 56 61 53 62 6 63 7 64 8 65
REMARK SMILES IDX 9 66 10 68 11 69 12 70 25 71 13 72 15 73 14 74 16 76 17 77
REMARK SMILES IDX 18 78 23 79 19 80 22 81 24 82 20 83 21 84
REMARK H PARENT 3 6 73 24 47 35 8 67 15 75
REMARK Flexibility Score: inf
ROOT
ATOM      1  C   UNL     1       5.218  -0.425  -2.535  1.00  0.00     0.023 C 
ENDROOT
BRANCH   1   2
ATOM      2  C   UNL     1       4.649  -0.281  -1.130  1.00  0.00     0.116 C 
BRANCH   2   3
ATOM      3  N   UNL     1       3.222   0.011  -1.069  1.00  0.00    -0.352 N 
ATOM      4  O   UNL     1       1.179   0.016  -0.065  1.00  0.00    -0.269 OA
ATOM      5  C   UNL     1       2.380  -0.201   0.005  1.00  0.00     0.251 C 
ATOM      6  H   UNL     1       2.816   0.399  -1.878  1.00  0.00     0.163 HD
BRANCH   5   7
ATOM      7  C   UNL     1       2.974  -0.759   1.238  1.00  0.00     0.039 A 
ATOM      8  C   UNL     1       4.089  -0.139   1.800  1.00  0.00     0.014 A 
ATOM      9  C   UNL     1       2.508  -1.979   1.733  1.00  0.00     0.014 A 
ATOM     10  C   UNL     1       4.855  -0.834   2.722  1.00  0.00     0.010 A 
ATOM     11  C   UNL     1       3.230  -2.632   2.736  1.00  0.00     0.010 A 
ATOM     12  C   UNL     1       4.440  -2.092   3.196  1.00  0.00    -0.014 A 
BRANCH  12  13
ATOM     13  C   UNL     1       5.304  -2.798   4.175  1.00  0.00     0.031 A 
ATOM     14  C   UNL     1       5.986  -4.094   3.830  1.00  0.00     0.074 A 
ATOM     15  C   UNL     1       5.547  -2.200   5.357  1.00  0.00     0.049 A 
ATOM     16  N   UNL     1       6.827  -4.795   4.548  1.00  0.00    -0.248 NA
ATOM     17  C   UNL     1       5.684  -4.686   2.517  1.00  0.00     0.031 C 
ATOM     18  C   UNL     1       4.937  -0.945   5.804  1.00  0.00     0.029 A 
ATOM     19  N   UNL     1       6.403  -2.534   6.373  1.00  0.00    -0.354 N 
ATOM     20  C   UNL     1       7.131  -5.921   3.793  1.00  0.00     0.074 A 
ATOM     21  C   UNL     1       6.378  -5.816   2.561  1.00  0.00     0.031 C 
ATOM     22  C   UNL     1       5.496  -0.575   6.964  1.00  0.00     0.029 A 
ATOM     23  C   UNL     1       6.456  -1.593   7.371  1.00  0.00     0.049 A 
ATOM     24  H   UNL     1       6.928  -3.367   6.386  1.00  0.00     0.167 HD
ATOM     25  C   UNL     1       7.964  -6.945   4.100  1.00  0.00     0.037 A 
ATOM     26  C   UNL     1       7.196  -1.551   8.493  1.00  0.00     0.037 A 
ATOM     27  C   UNL     1       8.735  -7.032   5.314  1.00  0.00     0.049 A 
ATOM     28  C   UNL     1       8.144  -2.674   8.784  1.00  0.00     0.074 A 
ATOM     29  C   UNL     1       9.598  -8.035   5.720  1.00  0.00     0.029 A 
ATOM     30  N   UNL     1       8.746  -6.068   6.311  1.00  0.00    -0.354 N 
ATOM     31  N   UNL     1       8.396  -3.743   8.070  1.00  0.00    -0.248 NA
ATOM     32  C   UNL     1       8.900  -2.591  10.040  1.00  0.00     0.031 C 
ATOM     33  C   UNL     1      10.118  -7.687   6.972  1.00  0.00     0.029 A 
ATOM     34  C   UNL     1       9.601  -6.453   7.331  1.00  0.00     0.049 A 
ATOM     35  H   UNL     1       8.224  -5.234   6.296  1.00  0.00     0.167 HD
ATOM     36  C   UNL     1       9.326  -4.471   8.796  1.00  0.00     0.074 A 
ATOM     37  C   UNL     1       9.626  -3.699   9.986  1.00  0.00     0.031 C 
ATOM     38  C   UNL     1       9.870  -5.679   8.514  1.00  0.00     0.037 A 
BRANCH  25  39
ATOM     39  C   UNL     1       8.078  -8.069   3.114  1.00  0.00     0.057 A 
ATOM     40  C   UNL     1       8.827  -7.946   1.937  1.00  0.00     0.134 A 
ATOM     41  C   UNL     1       7.480  -9.309   3.374  1.00  0.00     0.134 A 
ATOM     42  F   UNL     1       9.412  -6.781   1.623  1.00  0.00    -0.206 F 
ATOM     43  C   UNL     1       8.971  -9.015   1.050  1.00  0.00     0.040 A 
ATOM     44  C   UNL     1       7.632 -10.390   2.504  1.00  0.00     0.040 A 
ATOM     45  F   UNL     1       6.753  -9.494   4.486  1.00  0.00    -0.206 F 
ATOM     46  C   UNL     1       8.379 -10.244   1.337  1.00  0.00     0.006 A 
ENDBRANCH  25  39
BRANCH  26  47
ATOM     47  C   UNL     1       7.058  -0.400   9.415  1.00  0.00     0.057 A 
ATOM     48  C   UNL     1       8.066   0.562   9.528  1.00  0.00     0.134 A 
ATOM     49  C   UNL     1       5.896  -0.215  10.174  1.00  0.00     0.134 A 
ATOM     50  F   UNL     1       9.207   0.430   8.835  1.00  0.00    -0.206 F 
ATOM     51  C   UNL     1       7.926   1.668  10.367  1.00  0.00     0.040 A 
ATOM     52  C   UNL     1       5.732   0.897  10.998  1.00  0.00     0.040 A 
ATOM     53  F   UNL     1       4.891  -1.100  10.098  1.00  0.00    -0.206 F 
ATOM     54  C   UNL     1       6.752   1.841  11.099  1.00  0.00     0.006 A 
ENDBRANCH  26  47
BRANCH  38  55
ATOM     55  C   UNL     1      10.826  -6.234   9.523  1.00  0.00     0.057 A 
ATOM     56  C   UNL     1      10.371  -6.788  10.726  1.00  0.00     0.134 A 
ATOM     57  C   UNL     1      12.206  -6.214   9.293  1.00  0.00     0.134 A 
ATOM     58  F   UNL     1       9.060  -6.820  11.007  1.00  0.00    -0.206 F 
ATOM     59  C   UNL     1      11.261  -7.283  11.679  1.00  0.00     0.040 A 
ATOM     60  C   UNL     1      13.104  -6.723  10.232  1.00  0.00     0.040 A 
ATOM     61  F   UNL     1      12.701  -5.699   8.158  1.00  0.00    -0.206 F 
ATOM     62  C   UNL     1      12.632  -7.253  11.431  1.00  0.00     0.006 A 
ENDBRANCH  38  55
ENDBRANCH  12  13
ENDBRANCH   5   7
ENDBRANCH   2   3
ENDBRANCH   1   2
BRANCH   1  63
ATOM     63  C   UNL     1       5.050   0.811  -3.412  1.00  0.00     0.023 C 
BRANCH  63  64
ATOM     64  C   UNL     1       5.767   2.068  -2.919  1.00  0.00     0.116 C 
BRANCH  64  65
ATOM     65  N   UNL     1       7.028   2.294  -3.589  1.00  0.00    -0.356 N 
ATOM     66  C   UNL     1       7.345   3.017  -4.691  1.00  0.00     0.228 C 
ATOM     67  H   UNL     1       7.795   1.840  -3.170  1.00  0.00     0.163 HD
ATOM     68  O   UNL     1       8.546   3.050  -4.988  1.00  0.00    -0.275 OA
BRANCH  66  69
ATOM     69  C   UNL     1       6.342   3.796  -5.549  1.00  0.00     0.133 C 
ATOM     70  C   UNL     1       5.935   5.162  -4.988  1.00  0.00     0.025 C 
ATOM     71  C   UNL     1       5.188   2.987  -6.145  1.00  0.00     0.276 C 
ATOM     72  C   UNL     1       4.557   5.211  -4.338  1.00  0.00     0.062 C 
ATOM     73  N   UNL     1       3.958   3.036  -5.355  1.00  0.00    -0.330 N 
ATOM     74  C   UNL     1       3.503   4.399  -5.092  1.00  0.00     0.262 C 
ATOM     75  H   UNL     1       4.208   2.667  -4.437  1.00  0.00     0.348 HD
BRANCH  73  76
ATOM     76  C   UNL     1       2.910   2.111  -5.817  1.00  0.00     0.300 C 
BRANCH  76  77
ATOM     77  C   UNL     1       1.959   2.614  -6.882  1.00  0.00     0.025 A 
ATOM     78  C   UNL     1       2.401   2.689  -8.216  1.00  0.00     0.014 A 
ATOM     79  C   UNL     1       0.638   3.011  -6.592  1.00  0.00     0.052 A 
ATOM     80  C   UNL     1       1.564   3.177  -9.219  1.00  0.00     0.040 A 
ATOM     81  C   UNL     1      -0.199   3.493  -7.599  1.00  0.00     0.060 A 
ATOM     82  Cl  UNL     1      -0.031   2.924  -4.999  1.00  0.00    -0.084 Cl
ATOM     83  C   UNL     1       0.275   3.579  -8.899  1.00  0.00     0.124 A 
ATOM     84  F   UNL     1      -0.526   4.052  -9.862  1.00  0.00    -0.207 F 
ENDBRANCH  76  77
ENDBRANCH  73  76
ENDBRANCH  66  69
ENDBRANCH  64  65
ENDBRANCH  63  64
ENDBRANCH   1  63
TORSDOF 13
