REMARK SMILES C[C@@H](CCO)SCc1cccc(/C=C/C(=O)NCCCCNC(=O)c2ccc(-c3c4nc(c(-c5c(F)cccc5F)c5ccc([nH]5)c(-c5c(F)cccc5F)c5nc(c(-c6c(F)cccc6F)c6ccc3[nH]6)C=C5)C=C4)cc2)c1
REMARK SMILES IDX 15 1 16 2 17 3 14 5 13 6 12 7 8 8 9 9 79 10 10 11 11 12 7 13
REMARK SMILES IDX 6 14 2 15 1 16 3 17 4 18 5 19 18 21 19 22 20 23 21 24 22 25
REMARK SMILES IDX 23 26 24 28 25 29 26 30 78 31 27 32 77 33 28 34 29 35 30 36
REMARK SMILES IDX 71 37 31 38 76 39 70 40 72 41 32 42 75 43 69 44 68 45 33 47
REMARK SMILES IDX 59 48 42 49 58 50 43 51 46 52 57 53 73 54 44 55 45 56 56 58
REMARK SMILES IDX 74 59 47 60 34 61 35 62 40 63 36 64 37 65 39 66 41 67 38 68
REMARK SMILES IDX 60 69 61 70 66 71 62 72 63 73 65 74 67 75 64 76 48 77 49 78
REMARK SMILES IDX 54 79 50 80 51 81 53 82 55 83 52 84
REMARK H PARENT 17 4 5 20 22 27 72 46 46 57
REMARK Flexibility Score: inf
ROOT
ATOM      1  C   UNL     1      -3.174   8.698  -0.784  1.00  0.00     0.243 C 
ATOM      2  O   UNL     1      -2.657   9.809  -0.861  1.00  0.00    -0.270 OA
ATOM      3  N   UNL     1      -4.367   8.546  -0.147  1.00  0.00    -0.353 N 
ATOM      4  H   UNL     1      -4.717   9.361   0.280  1.00  0.00     0.163 HD
ENDROOT
BRANCH   1   5
ATOM      5  C   UNL     1      -2.554   7.550  -1.478  1.00  0.00     0.072 C 
ATOM      6  C   UNL     1      -2.334   6.366  -0.887  1.00  0.00     0.014 C 
BRANCH   6   7
ATOM      7  C   UNL     1      -1.766   5.193  -1.563  1.00  0.00    -0.025 A 
ATOM      8  C   UNL     1      -1.542   2.755  -1.616  1.00  0.00    -0.037 A 
ATOM      9  C   UNL     1      -0.619   2.873  -2.661  1.00  0.00     0.004 A 
ATOM     10  C   UNL     1      -2.151   3.921  -1.117  1.00  0.00     0.012 A 
ATOM     11  C   UNL     1      -0.244   4.134  -3.128  1.00  0.00     0.001 A 
ATOM     12  C   UNL     1      -0.795   5.287  -2.564  1.00  0.00     0.008 A 
BRANCH   8  13
ATOM     13  C   UNL     1      -1.842   1.417  -0.990  1.00  0.00     0.105 C 
BRANCH  13  14
ATOM     14  S   UNL     1      -1.408   1.374   0.796  1.00  0.00    -0.154 SA
BRANCH  14  15
ATOM     15  C   UNL     1       0.347   0.808   0.858  1.00  0.00     0.046 C 
ATOM     16  C   UNL     1       0.803  -0.065  -0.305  1.00  0.00     0.019 C 
BRANCH  15  17
ATOM     17  C   UNL     1       1.370   1.907   1.220  1.00  0.00     0.042 C 
BRANCH  17  18
ATOM     18  C   UNL     1       1.518   3.070   0.252  1.00  0.00     0.157 C 
BRANCH  18  19
ATOM     19  O   UNL     1       0.636   4.121   0.610  1.00  0.00    -0.396 OA
ATOM     20  H   UNL     1      -0.279   3.801   0.577  1.00  0.00     0.210 HD
ENDBRANCH  18  19
ENDBRANCH  17  18
ENDBRANCH  15  17
ENDBRANCH  14  15
ENDBRANCH  13  14
ENDBRANCH   8  13
ENDBRANCH   6   7
ENDBRANCH   1   5
BRANCH   3  21
ATOM     21  C   UNL     1      -5.207   7.370   0.003  1.00  0.00     0.116 C 
BRANCH  21  22
ATOM     22  C   UNL     1      -5.259   6.927   1.464  1.00  0.00     0.023 C 
BRANCH  22  23
ATOM     23  C   UNL     1      -6.196   7.769   2.336  1.00  0.00     0.023 C 
BRANCH  23  24
ATOM     24  C   UNL     1      -7.662   7.749   1.911  1.00  0.00     0.116 C 
BRANCH  24  25
ATOM     25  N   UNL     1      -8.229   6.410   1.862  1.00  0.00    -0.352 N 
ATOM     26  C   UNL     1      -9.517   6.013   2.134  1.00  0.00     0.251 C 
ATOM     27  H   UNL     1      -7.607   5.693   1.599  1.00  0.00     0.163 HD
ATOM     28  O   UNL     1      -9.813   4.829   2.149  1.00  0.00    -0.269 OA
BRANCH  26  29
ATOM     29  C   UNL     1     -10.533   7.039   2.451  1.00  0.00     0.039 A 
ATOM     30  C   UNL     1     -11.309   6.877   3.600  1.00  0.00     0.014 A 
ATOM     31  C   UNL     1     -10.688   8.168   1.643  1.00  0.00     0.014 A 
ATOM     32  C   UNL     1     -12.195   7.887   3.978  1.00  0.00     0.010 A 
ATOM     33  C   UNL     1     -11.521   9.202   2.057  1.00  0.00     0.010 A 
ATOM     34  C   UNL     1     -12.278   9.074   3.231  1.00  0.00    -0.014 A 
BRANCH  34  35
ATOM     35  C   UNL     1     -13.133  10.199   3.682  1.00  0.00     0.031 A 
ATOM     36  C   UNL     1     -14.311  10.636   2.858  1.00  0.00     0.074 A 
ATOM     37  C   UNL     1     -12.809  10.866   4.806  1.00  0.00     0.049 A 
ATOM     38  N   UNL     1     -15.148  11.619   3.071  1.00  0.00    -0.248 NA
ATOM     39  C   UNL     1     -14.568   9.886   1.618  1.00  0.00     0.031 C 
ATOM     40  C   UNL     1     -11.655  10.575   5.660  1.00  0.00     0.029 A 
ATOM     41  N   UNL     1     -13.415  11.932   5.421  1.00  0.00    -0.354 N 
ATOM     42  C   UNL     1     -16.021  11.612   1.992  1.00  0.00     0.074 A 
ATOM     43  C   UNL     1     -15.581  10.563   1.098  1.00  0.00     0.031 C 
ATOM     44  C   UNL     1     -11.652  11.423   6.700  1.00  0.00     0.029 A 
ATOM     45  C   UNL     1     -12.782  12.338   6.571  1.00  0.00     0.049 A 
ATOM     46  H   UNL     1     -14.228  12.364   5.072  1.00  0.00     0.167 HD
ATOM     47  C   UNL     1     -17.107  12.394   1.777  1.00  0.00     0.037 A 
ATOM     48  C   UNL     1     -13.079  13.336   7.423  1.00  0.00     0.037 A 
ATOM     49  C   UNL     1     -17.554  13.423   2.679  1.00  0.00     0.049 A 
ATOM     50  C   UNL     1     -14.290  14.187   7.163  1.00  0.00     0.074 A 
ATOM     51  C   UNL     1     -18.678  14.225   2.583  1.00  0.00     0.029 A 
ATOM     52  N   UNL     1     -16.896  13.794   3.842  1.00  0.00    -0.354 N 
ATOM     53  N   UNL     1     -15.153  14.118   6.178  1.00  0.00    -0.248 NA
ATOM     54  C   UNL     1     -14.572  15.251   8.137  1.00  0.00     0.031 C 
ATOM     55  C   UNL     1     -18.677  15.111   3.665  1.00  0.00     0.029 A 
ATOM     56  C   UNL     1     -17.578  14.830   4.460  1.00  0.00     0.049 A 
ATOM     57  H   UNL     1     -16.067  13.383   4.178  1.00  0.00     0.167 HD
ATOM     58  C   UNL     1     -16.092  15.111   6.425  1.00  0.00     0.074 A 
ATOM     59  C   UNL     1     -15.703  15.755   7.663  1.00  0.00     0.031 C 
ATOM     60  C   UNL     1     -17.177  15.460   5.692  1.00  0.00     0.037 A 
BRANCH  47  61
ATOM     61  C   UNL     1     -17.890  12.158   0.518  1.00  0.00     0.057 A 
ATOM     62  C   UNL     1     -18.666  11.006   0.338  1.00  0.00     0.134 A 
ATOM     63  C   UNL     1     -17.896  13.109  -0.510  1.00  0.00     0.134 A 
ATOM     64  F   UNL     1     -18.694  10.050   1.279  1.00  0.00    -0.206 F 
ATOM     65  C   UNL     1     -19.401  10.795  -0.831  1.00  0.00     0.040 A 
ATOM     66  C   UNL     1     -18.648  12.922  -1.671  1.00  0.00     0.040 A 
ATOM     67  F   UNL     1     -17.180  14.237  -0.400  1.00  0.00    -0.206 F 
ATOM     68  C   UNL     1     -19.398  11.759  -1.837  1.00  0.00     0.006 A 
ENDBRANCH  47  61
BRANCH  48  69
ATOM     69  C   UNL     1     -12.230  13.572   8.618  1.00  0.00     0.057 A 
ATOM     70  C   UNL     1     -12.704  13.293   9.906  1.00  0.00     0.134 A 
ATOM     71  C   UNL     1     -10.934  14.088   8.505  1.00  0.00     0.134 A 
ATOM     72  F   UNL     1     -13.944  12.814  10.079  1.00  0.00    -0.206 F 
ATOM     73  C   UNL     1     -11.928  13.539  11.040  1.00  0.00     0.040 A 
ATOM     74  C   UNL     1     -10.138  14.315   9.629  1.00  0.00     0.040 A 
ATOM     75  F   UNL     1     -10.419  14.368   7.299  1.00  0.00    -0.206 F 
ATOM     76  C   UNL     1     -10.638  14.048  10.902  1.00  0.00     0.006 A 
ENDBRANCH  48  69
BRANCH  60  77
ATOM     77  C   UNL     1     -18.032  16.571   6.226  1.00  0.00     0.057 A 
ATOM     78  C   UNL     1     -17.606  17.905   6.207  1.00  0.00     0.134 A 
ATOM     79  C   UNL     1     -19.308  16.306   6.740  1.00  0.00     0.134 A 
ATOM     80  F   UNL     1     -16.389  18.224   5.740  1.00  0.00    -0.206 F 
ATOM     81  C   UNL     1     -18.408  18.934   6.705  1.00  0.00     0.040 A 
ATOM     82  C   UNL     1     -20.130  17.329   7.215  1.00  0.00     0.040 A 
ATOM     83  F   UNL     1     -19.781  15.051   6.779  1.00  0.00    -0.206 F 
ATOM     84  C   UNL     1     -19.677  18.647   7.205  1.00  0.00     0.006 A 
ENDBRANCH  60  77
ENDBRANCH  34  35
ENDBRANCH  26  29
ENDBRANCH  24  25
ENDBRANCH  23  24
ENDBRANCH  22  23
ENDBRANCH  21  22
ENDBRANCH   3  21
TORSDOF 18
