REMARK SMILES Cc1cc(C)c(S(=O)(=O)n2cc([C@@H](C)[C@@H]([NH3+])C(=O)NCCCCNC(=O)c3ccc(-c4c5nc(c(-c6c(F)cccc6F)c6ccc([nH]6)c(-c6c(F)cccc6F)c6nc(c(-c7c(F)cccc7F)c7ccc4[nH]7)C=C6)C=C5)cc3)c3ccccc32)c(C)c1
REMARK SMILES IDX 20 1 19 2 17 3 18 4 15 6 13 7 14 8 12 9 10 10 11 11 86 12
REMARK SMILES IDX 81 13 85 14 82 15 84 16 83 17 7 18 8 19 9 20 6 21 1 22 2 23
REMARK SMILES IDX 3 24 89 25 4 26 87 27 5 28 88 29 16 30 21 34 22 35 23 36
REMARK SMILES IDX 24 37 25 38 26 40 27 41 28 42 80 43 29 44 79 45 30 46 31 47
REMARK SMILES IDX 32 48 73 49 33 50 78 51 72 52 74 53 34 54 77 55 71 56 70 57
REMARK SMILES IDX 35 59 61 60 44 61 60 62 45 63 48 64 59 65 75 66 46 67 47 68
REMARK SMILES IDX 58 70 76 71 49 72 36 73 37 74 42 75 38 76 39 77 41 78 43 79
REMARK SMILES IDX 40 80 62 81 63 82 68 83 64 84 65 85 67 86 69 87 66 88 50 89
REMARK SMILES IDX 51 90 56 91 52 92 53 93 55 94 57 95 54 96
REMARK H PARENT 19 5 16 31 16 32 16 33 24 39 74 58 48 69
REMARK Flexibility Score: inf
ROOT
ATOM      1  C   UNL     1      -3.684  -8.420  -3.188  1.00  0.00     0.116 C 
ENDROOT
BRANCH   1   2
ATOM      2  N   UNL     1      -2.846  -9.480  -2.659  1.00  0.00    -0.351 N 
ATOM      3  C   UNL     1      -2.055  -9.485  -1.549  1.00  0.00     0.278 C 
ATOM      4  O   UNL     1      -1.432 -10.518  -1.286  1.00  0.00    -0.268 OA
ATOM      5  H   UNL     1      -2.848 -10.317  -3.178  1.00  0.00     0.163 HD
BRANCH   3   6
ATOM      6  C   UNL     1      -1.946  -8.247  -0.638  1.00  0.00     0.278 C 
BRANCH   6   7
ATOM      7  C   UNL     1      -1.255  -7.050  -1.347  1.00  0.00     0.086 C 
ATOM      8  C   UNL     1       0.162  -7.385  -1.825  1.00  0.00     0.020 C 
BRANCH   7   9
ATOM      9  C   UNL     1      -1.276  -5.800  -0.495  1.00  0.00    -0.012 A 
ATOM     10  N   UNL     1      -1.753  -3.736   0.185  1.00  0.00    -0.241 N 
ATOM     11  C   UNL     1      -1.940  -4.637  -0.828  1.00  0.00     0.109 A 
ATOM     12  C   UNL     1      -1.063  -4.304   1.235  1.00  0.00     0.064 A 
ATOM     13  C   UNL     1      -0.682  -5.582   0.793  1.00  0.00     0.004 A 
ATOM     14  C   UNL     1      -0.679  -3.809   2.494  1.00  0.00     0.028 A 
ATOM     15  C   UNL     1       0.145  -6.362   1.627  1.00  0.00     0.010 A 
ATOM     16  C   UNL     1       0.149  -4.604   3.290  1.00  0.00     0.002 A 
ATOM     17  C   UNL     1       0.567  -5.858   2.860  1.00  0.00     0.001 A 
BRANCH  10  18
ATOM     18  S   UNL     1      -2.284  -2.129   0.099  1.00  0.00     0.268 S 
ATOM     19  O   UNL     1      -2.921  -1.896   1.376  1.00  0.00    -0.201 OA
ATOM     20  O   UNL     1      -3.032  -2.045  -1.151  1.00  0.00    -0.201 OA
BRANCH  18  21
ATOM     21  C   UNL     1      -0.920  -0.971  -0.050  1.00  0.00     0.094 A 
ATOM     22  C   UNL     1       2.155   2.085   0.047  1.00  0.00     0.044 C 
ATOM     23  C   UNL     1       1.091   1.031  -0.006  1.00  0.00    -0.051 A 
ATOM     24  C   UNL     1      -0.253   1.382   0.069  1.00  0.00     0.008 A 
ATOM     25  C   UNL     1       1.419  -0.312  -0.162  1.00  0.00     0.008 A 
ATOM     26  C   UNL     1      -1.268   0.407   0.046  1.00  0.00    -0.030 A 
ATOM     27  C   UNL     1       0.438  -1.326  -0.233  1.00  0.00    -0.030 A 
ATOM     28  C   UNL     1      -2.678   0.952   0.094  1.00  0.00     0.046 C 
ATOM     29  C   UNL     1       0.993  -2.692  -0.512  1.00  0.00     0.046 C 
ENDBRANCH  18  21
ENDBRANCH  10  18
ENDBRANCH   7   9
ENDBRANCH   6   7
BRANCH   6  30
ATOM     30  N   UNL     1      -3.295  -7.939  -0.092  1.00  0.00    -0.347 N 
ATOM     31  H   UNL     1      -3.934  -7.733  -0.859  1.00  0.00     0.345 HD
ATOM     32  H   UNL     1      -3.235  -7.131   0.527  1.00  0.00     0.345 HD
ATOM     33  H   UNL     1      -3.642  -8.743   0.432  1.00  0.00     0.345 HD
ENDBRANCH   6  30
ENDBRANCH   3   6
ENDBRANCH   1   2
BRANCH   1  34
ATOM     34  C   UNL     1      -3.207  -7.987  -4.574  1.00  0.00     0.023 C 
BRANCH  34  35
ATOM     35  C   UNL     1      -3.368  -9.060  -5.659  1.00  0.00     0.023 C 
BRANCH  35  36
ATOM     36  C   UNL     1      -4.768  -9.673  -5.732  1.00  0.00     0.116 C 
BRANCH  36  37
ATOM     37  N   UNL     1      -5.815  -8.685  -5.896  1.00  0.00    -0.352 N 
ATOM     38  C   UNL     1      -6.432  -8.108  -6.968  1.00  0.00     0.251 C 
ATOM     39  H   UNL     1      -6.160  -8.353  -5.036  1.00  0.00     0.163 HD
ATOM     40  O   UNL     1      -7.387  -7.370  -6.713  1.00  0.00    -0.269 OA
BRANCH  38  41
ATOM     41  C   UNL     1      -6.003  -8.256  -8.384  1.00  0.00     0.039 A 
ATOM     42  C   UNL     1      -4.924  -9.018  -8.827  1.00  0.00     0.014 A 
ATOM     43  C   UNL     1      -6.716  -7.487  -9.325  1.00  0.00     0.014 A 
ATOM     44  C   UNL     1      -4.500  -8.935 -10.145  1.00  0.00     0.010 A 
ATOM     45  C   UNL     1      -6.307  -7.411 -10.649  1.00  0.00     0.010 A 
ATOM     46  C   UNL     1      -5.163  -8.095 -11.040  1.00  0.00    -0.014 A 
BRANCH  46  47
ATOM     47  C   UNL     1      -4.633  -8.021 -12.393  1.00  0.00     0.031 A 
ATOM     48  C   UNL     1      -4.615  -9.313 -13.135  1.00  0.00     0.074 A 
ATOM     49  C   UNL     1      -4.244  -6.867 -12.967  1.00  0.00     0.049 A 
ATOM     50  N   UNL     1      -3.590  -9.960 -13.587  1.00  0.00    -0.248 NA
ATOM     51  C   UNL     1      -5.891 -10.027 -13.293  1.00  0.00     0.031 C 
ATOM     52  C   UNL     1      -4.438  -5.497 -12.491  1.00  0.00     0.029 A 
ATOM     53  N   UNL     1      -3.655  -6.687 -14.181  1.00  0.00    -0.354 N 
ATOM     54  C   UNL     1      -4.098 -11.082 -14.239  1.00  0.00     0.074 A 
ATOM     55  C   UNL     1      -5.501 -11.139 -13.917  1.00  0.00     0.031 C 
ATOM     56  C   UNL     1      -4.199  -4.637 -13.507  1.00  0.00     0.029 A 
ATOM     57  C   UNL     1      -3.710  -5.386 -14.653  1.00  0.00     0.049 A 
ATOM     58  H   UNL     1      -3.227  -7.419 -14.680  1.00  0.00     0.167 HD
ATOM     59  C   UNL     1      -3.365 -11.773 -15.156  1.00  0.00     0.037 A 
ATOM     60  C   UNL     1      -3.450  -4.981 -15.921  1.00  0.00     0.037 A 
ATOM     61  C   UNL     1      -1.957 -11.512 -15.013  1.00  0.00     0.049 A 
ATOM     62  C   UNL     1      -2.642  -6.042 -16.577  1.00  0.00     0.074 A 
ATOM     63  C   UNL     1      -1.037 -11.681 -13.995  1.00  0.00     0.029 A 
ATOM     64  N   UNL     1      -1.353 -10.667 -15.912  1.00  0.00    -0.354 N 
ATOM     65  N   UNL     1      -1.407  -6.317 -16.257  1.00  0.00    -0.248 NA
ATOM     66  C   UNL     1      -3.359  -7.109 -17.263  1.00  0.00     0.031 C 
ATOM     67  C   UNL     1      -0.186 -10.540 -14.079  1.00  0.00     0.029 A 
ATOM     68  C   UNL     1      -0.606  -9.786 -15.175  1.00  0.00     0.049 A 
ATOM     69  H   UNL     1      -1.440 -10.691 -16.893  1.00  0.00     0.167 HD
ATOM     70  C   UNL     1      -1.329  -7.701 -16.300  1.00  0.00     0.074 A 
ATOM     71  C   UNL     1      -2.538  -8.130 -17.002  1.00  0.00     0.031 C 
ATOM     72  C   UNL     1      -0.447  -8.394 -15.520  1.00  0.00     0.037 A 
BRANCH  59  73
ATOM     73  C   UNL     1      -3.942 -12.399 -16.402  1.00  0.00     0.057 A 
ATOM     74  C   UNL     1      -5.164 -12.007 -16.983  1.00  0.00     0.134 A 
ATOM     75  C   UNL     1      -3.115 -13.187 -17.224  1.00  0.00     0.134 A 
ATOM     76  F   UNL     1      -6.032 -11.204 -16.356  1.00  0.00    -0.206 F 
ATOM     77  C   UNL     1      -5.519 -12.335 -18.294  1.00  0.00     0.040 A 
ATOM     78  C   UNL     1      -3.439 -13.479 -18.555  1.00  0.00     0.040 A 
ATOM     79  F   UNL     1      -1.923 -13.622 -16.789  1.00  0.00    -0.206 F 
ATOM     80  C   UNL     1      -4.639 -13.040 -19.098  1.00  0.00     0.006 A 
ENDBRANCH  59  73
BRANCH  60  81
ATOM     81  C   UNL     1      -4.130  -3.905 -16.678  1.00  0.00     0.057 A 
ATOM     82  C   UNL     1      -5.457  -3.530 -16.395  1.00  0.00     0.134 A 
ATOM     83  C   UNL     1      -3.588  -3.386 -17.862  1.00  0.00     0.134 A 
ATOM     84  F   UNL     1      -6.113  -4.038 -15.342  1.00  0.00    -0.206 F 
ATOM     85  C   UNL     1      -6.197  -2.689 -17.231  1.00  0.00     0.040 A 
ATOM     86  C   UNL     1      -4.323  -2.549 -18.715  1.00  0.00     0.040 A 
ATOM     87  F   UNL     1      -2.350  -3.725 -18.250  1.00  0.00    -0.206 F 
ATOM     88  C   UNL     1      -5.635  -2.203 -18.402  1.00  0.00     0.006 A 
ENDBRANCH  60  81
BRANCH  72  89
ATOM     89  C   UNL     1       0.593  -7.621 -14.758  1.00  0.00     0.057 A 
ATOM     90  C   UNL     1       1.939  -7.976 -14.900  1.00  0.00     0.134 A 
ATOM     91  C   UNL     1       0.293  -6.659 -13.781  1.00  0.00     0.134 A 
ATOM     92  F   UNL     1       2.299  -8.935 -15.768  1.00  0.00    -0.206 F 
ATOM     93  C   UNL     1       2.942  -7.395 -14.121  1.00  0.00     0.040 A 
ATOM     94  C   UNL     1       1.291  -6.043 -13.020  1.00  0.00     0.040 A 
ATOM     95  F   UNL     1      -0.973  -6.336 -13.490  1.00  0.00    -0.206 F 
ATOM     96  C   UNL     1       2.621  -6.415 -13.185  1.00  0.00     0.006 A 
ENDBRANCH  72  89
ENDBRANCH  46  47
ENDBRANCH  38  41
ENDBRANCH  36  37
ENDBRANCH  35  36
ENDBRANCH  34  35
ENDBRANCH   1  34
TORSDOF 16
