REMARK SMILES Cc1ccc(C(C)(C)C)c(OCC(=O)c2nc(C)c(C(=O)NCCCCNC(=O)c3ccc(-c4c5nc(c(-c6c(F)cccc6F)c6ccc([nH]6)c(-c6c(F)cccc6F)c6nc(c(-c7c(F)cccc7F)c7ccc4[nH]7)C=C6)C=C5)cc3)s2)c1
REMARK SMILES IDX 23 1 22 2 20 3 21 4 19 6 15 7 16 8 84 9 17 10 18 11 13 12
REMARK SMILES IDX 14 13 12 14 11 15 10 16 1 17 2 18 3 19 85 20 4 21 5 22 6 23
REMARK SMILES IDX 7 24 8 25 9 26 24 27 25 28 26 29 27 30 28 31 29 33 30 34
REMARK SMILES IDX 31 35 83 36 32 37 82 38 33 39 34 40 35 41 76 42 36 43 81 44
REMARK SMILES IDX 75 45 77 46 37 47 80 48 74 49 73 50 38 52 64 53 47 54 63 55
REMARK SMILES IDX 48 56 51 57 62 58 78 59 49 60 50 61 61 63 79 64 52 65 39 66
REMARK SMILES IDX 40 67 45 68 41 69 42 70 44 71 46 72 43 73 65 74 66 75 71 76
REMARK SMILES IDX 67 77 68 78 70 79 72 80 69 81 53 82 54 83 59 84 55 85 56 86
REMARK SMILES IDX 58 87 60 88 57 89
REMARK H PARENT 22 5 27 32 77 51 51 62
REMARK Flexibility Score: inf
ROOT
ATOM      1  C   UNL     1      -2.278   4.185   7.664  1.00  0.00     0.116 C 
ENDROOT
BRANCH   1   2
ATOM      2  N   UNL     1      -2.974   3.344   6.723  1.00  0.00    -0.351 N 
ATOM      3  C   UNL     1      -2.845   3.074   5.386  1.00  0.00     0.263 C 
ATOM      4  O   UNL     1      -3.692   2.252   5.006  1.00  0.00    -0.268 OA
ATOM      5  H   UNL     1      -3.716   2.847   7.138  1.00  0.00     0.163 HD
BRANCH   3   6
ATOM      6  C   UNL     1      -1.853   3.645   4.472  1.00  0.00     0.115 A 
ATOM      7  C   UNL     1      -0.634   3.935   2.336  1.00  0.00     0.164 A 
ATOM      8  N   UNL     1      -0.156   4.732   3.258  1.00  0.00    -0.237 NA
ATOM      9  S   UNL     1      -1.911   2.957   2.855  1.00  0.00    -0.105 S 
ATOM     10  C   UNL     1      -0.847   4.613   4.460  1.00  0.00     0.062 A 
ATOM     11  C   UNL     1      -0.339   5.574   5.467  1.00  0.00     0.068 C 
BRANCH   7  12
ATOM     12  C   UNL     1      -0.066   3.919   0.996  1.00  0.00     0.228 C 
ATOM     13  O   UNL     1       1.099   4.268   0.761  1.00  0.00    -0.288 OA
BRANCH  12  14
ATOM     14  C   UNL     1      -0.971   3.582  -0.197  1.00  0.00     0.313 C 
BRANCH  14  15
ATOM     15  O   UNL     1      -1.689   2.370  -0.254  1.00  0.00    -0.485 OA
BRANCH  15  16
ATOM     16  C   UNL     1      -1.030   1.175  -0.215  1.00  0.00     0.123 A 
ATOM     17  C   UNL     1       2.533  -0.212  -0.130  1.00  0.00     0.044 C 
ATOM     18  C   UNL     1       1.035  -0.140  -0.124  1.00  0.00    -0.047 A 
ATOM     19  C   UNL     1       0.276  -1.296   0.010  1.00  0.00     0.004 A 
ATOM     20  C   UNL     1       0.373   1.084  -0.266  1.00  0.00     0.050 A 
ATOM     21  C   UNL     1      -1.118  -1.222   0.010  1.00  0.00     0.008 A 
ATOM     22  C   UNL     1      -1.815   0.006  -0.098  1.00  0.00    -0.000 A 
BRANCH  22  23
ATOM     23  C   UNL     1      -3.366  -0.048  -0.098  1.00  0.00    -0.010 C 
ATOM     24  C   UNL     1      -3.833  -0.853  -1.336  1.00  0.00     0.016 C 
ATOM     25  C   UNL     1      -3.862  -0.759   1.185  1.00  0.00     0.016 C 
ATOM     26  C   UNL     1      -4.124   1.298  -0.159  1.00  0.00     0.016 C 
ENDBRANCH  22  23
ENDBRANCH  15  16
ENDBRANCH  14  15
ENDBRANCH  12  14
ENDBRANCH   7  12
ENDBRANCH   3   6
ENDBRANCH   1   2
BRANCH   1  27
ATOM     27  C   UNL     1      -2.879   5.599   7.716  1.00  0.00     0.023 C 
BRANCH  27  28
ATOM     28  C   UNL     1      -4.155   5.736   8.548  1.00  0.00     0.023 C 
BRANCH  28  29
ATOM     29  C   UNL     1      -3.893   5.679  10.045  1.00  0.00     0.116 C 
BRANCH  29  30
ATOM     30  N   UNL     1      -3.418   6.921  10.641  1.00  0.00    -0.352 N 
ATOM     31  C   UNL     1      -2.798   7.143  11.865  1.00  0.00     0.251 C 
ATOM     32  H   UNL     1      -3.557   7.727  10.092  1.00  0.00     0.163 HD
ATOM     33  O   UNL     1      -2.542   8.281  12.217  1.00  0.00    -0.269 OA
BRANCH  31  34
ATOM     34  C   UNL     1      -2.312   5.988  12.672  1.00  0.00     0.039 A 
ATOM     35  C   UNL     1      -1.044   6.088  13.258  1.00  0.00     0.014 A 
ATOM     36  C   UNL     1      -2.967   4.762  12.653  1.00  0.00     0.014 A 
ATOM     37  C   UNL     1      -0.332   4.925  13.548  1.00  0.00     0.010 A 
ATOM     38  C   UNL     1      -2.222   3.611  12.813  1.00  0.00     0.010 A 
ATOM     39  C   UNL     1      -0.881   3.694  13.193  1.00  0.00    -0.014 A 
BRANCH  39  40
ATOM     40  C   UNL     1      -0.082   2.484  13.035  1.00  0.00     0.031 A 
ATOM     41  C   UNL     1      -0.218   1.349  13.968  1.00  0.00     0.074 A 
ATOM     42  C   UNL     1       0.750   2.368  11.975  1.00  0.00     0.049 A 
ATOM     43  N   UNL     1       0.746   0.539  14.255  1.00  0.00    -0.248 NA
ATOM     44  C   UNL     1      -1.459   1.046  14.672  1.00  0.00     0.031 C 
ATOM     45  C   UNL     1       1.422   1.158  11.508  1.00  0.00     0.029 A 
ATOM     46  N   UNL     1       1.307   3.395  11.203  1.00  0.00    -0.354 N 
ATOM     47  C   UNL     1       0.201  -0.524  14.936  1.00  0.00     0.074 A 
ATOM     48  C   UNL     1      -1.159  -0.131  15.229  1.00  0.00     0.031 C 
ATOM     49  C   UNL     1       2.469   1.509  10.746  1.00  0.00     0.029 A 
ATOM     50  C   UNL     1       2.588   2.955  10.812  1.00  0.00     0.049 A 
ATOM     51  H   UNL     1       0.886   4.256  10.978  1.00  0.00     0.167 HD
ATOM     52  C   UNL     1       0.893  -1.692  15.054  1.00  0.00     0.037 A 
ATOM     53  C   UNL     1       3.717   3.631  11.171  1.00  0.00     0.037 A 
ATOM     54  C   UNL     1       2.183  -1.629  14.378  1.00  0.00     0.049 A 
ATOM     55  C   UNL     1       4.690   2.815  11.989  1.00  0.00     0.074 A 
ATOM     56  C   UNL     1       2.587  -2.044  13.119  1.00  0.00     0.029 A 
ATOM     57  N   UNL     1       3.188  -0.798  14.859  1.00  0.00    -0.354 N 
ATOM     58  N   UNL     1       4.372   1.712  12.605  1.00  0.00    -0.248 NA
ATOM     59  C   UNL     1       6.079   3.203  12.220  1.00  0.00     0.031 C 
ATOM     60  C   UNL     1       3.828  -1.434  12.828  1.00  0.00     0.029 A 
ATOM     61  C   UNL     1       4.184  -0.652  13.911  1.00  0.00     0.049 A 
ATOM     62  H   UNL     1       3.190  -0.374  15.747  1.00  0.00     0.167 HD
ATOM     63  C   UNL     1       5.442   1.277  13.344  1.00  0.00     0.074 A 
ATOM     64  C   UNL     1       6.497   2.225  13.043  1.00  0.00     0.031 C 
ATOM     65  C   UNL     1       5.348   0.185  14.159  1.00  0.00     0.037 A 
BRANCH  52  66
ATOM     66  C   UNL     1       0.226  -2.970  15.495  1.00  0.00     0.057 A 
ATOM     67  C   UNL     1       0.518  -4.204  14.883  1.00  0.00     0.134 A 
ATOM     68  C   UNL     1      -0.762  -3.029  16.492  1.00  0.00     0.134 A 
ATOM     69  F   UNL     1       1.508  -4.335  13.992  1.00  0.00    -0.206 F 
ATOM     70  C   UNL     1      -0.206  -5.372  15.147  1.00  0.00     0.040 A 
ATOM     71  C   UNL     1      -1.529  -4.178  16.732  1.00  0.00     0.040 A 
ATOM     72  F   UNL     1      -1.012  -1.974  17.281  1.00  0.00    -0.206 F 
ATOM     73  C   UNL     1      -1.263  -5.353  16.044  1.00  0.00     0.006 A 
ENDBRANCH  52  66
BRANCH  53  74
ATOM     74  C   UNL     1       3.504   5.092  11.334  1.00  0.00     0.057 A 
ATOM     75  C   UNL     1       3.177   5.858  10.202  1.00  0.00     0.134 A 
ATOM     76  C   UNL     1       3.247   5.658  12.585  1.00  0.00     0.134 A 
ATOM     77  F   UNL     1       3.392   5.368   8.970  1.00  0.00    -0.206 F 
ATOM     78  C   UNL     1       2.522   7.088  10.308  1.00  0.00     0.040 A 
ATOM     79  C   UNL     1       2.599   6.892  12.704  1.00  0.00     0.040 A 
ATOM     80  F   UNL     1       3.508   4.976  13.709  1.00  0.00    -0.206 F 
ATOM     81  C   UNL     1       2.201   7.592  11.565  1.00  0.00     0.006 A 
ENDBRANCH  53  74
BRANCH  65  82
ATOM     82  C   UNL     1       6.362  -0.256  15.187  1.00  0.00     0.057 A 
ATOM     83  C   UNL     1       7.242   0.608  15.853  1.00  0.00     0.134 A 
ATOM     84  C   UNL     1       6.374  -1.593  15.649  1.00  0.00     0.134 A 
ATOM     85  F   UNL     1       7.263   1.923  15.598  1.00  0.00    -0.206 F 
ATOM     86  C   UNL     1       8.109   0.168  16.863  1.00  0.00     0.040 A 
ATOM     87  C   UNL     1       7.196  -2.031  16.692  1.00  0.00     0.040 A 
ATOM     88  F   UNL     1       5.570  -2.529  15.124  1.00  0.00    -0.206 F 
ATOM     89  C   UNL     1       8.080  -1.152  17.295  1.00  0.00     0.006 A 
ENDBRANCH  65  82
ENDBRANCH  39  40
ENDBRANCH  31  34
ENDBRANCH  29  30
ENDBRANCH  28  29
ENDBRANCH  27  28
ENDBRANCH   1  27
TORSDOF 16
