REMARK SMILES COCC[C@@]1(C(=O)NCCCCNC(=O)c2ccc(-c3c4nc(c(-c5c(F)cccc5F)c5ccc([nH]5)c(-c5c(F)cccc5F)c5nc(c(-c6c(F)cccc6F)c6ccc3[nH]6)C=C5)C=C4)cc2)CCCN(C(=O)NCc2ccc(OC)cc2)C1
REMARK SMILES IDX 9 1 8 2 6 3 7 4 5 6 70 7 86 8 71 9 73 10 72 11 4 12 3 13
REMARK SMILES IDX 2 14 1 15 74 16 75 17 76 18 77 20 78 21 79 22 85 23 80 24
REMARK SMILES IDX 84 25 81 26 82 27 83 28 10 29 11 30 12 31 13 32 14 33 15 35
REMARK SMILES IDX 16 36 17 37 69 38 18 39 68 40 19 41 20 42 21 43 62 44 22 45
REMARK SMILES IDX 67 46 61 47 63 48 23 49 66 50 60 51 59 52 24 54 50 55 33 56
REMARK SMILES IDX 49 57 34 58 37 59 48 60 64 61 35 62 36 63 47 65 65 66 38 67
REMARK SMILES IDX 25 68 26 69 31 70 27 71 28 72 30 73 32 74 29 75 51 76 52 77
REMARK SMILES IDX 57 78 53 79 54 80 56 81 58 82 55 83 39 84 40 85 45 86 41 87
REMARK SMILES IDX 42 88 44 89 46 90 43 91
REMARK H PARENT 8 5 76 19 13 34 63 53 37 64
REMARK Flexibility Score: inf
ROOT
ATOM      1  C   UNL     1      -1.863   2.198  -3.191  1.00  0.00     0.116 C 
ENDROOT
BRANCH   1   2
ATOM      2  N   UNL     1      -0.861   1.174  -3.365  1.00  0.00    -0.356 N 
ATOM      3  C   UNL     1       0.431   1.031  -2.999  1.00  0.00     0.228 C 
ATOM      4  O   UNL     1       0.975   0.050  -3.526  1.00  0.00    -0.274 OA
ATOM      5  H   UNL     1      -1.199   0.398  -3.868  1.00  0.00     0.163 HD
BRANCH   3   6
ATOM      6  C   UNL     1       1.178   1.834  -1.905  1.00  0.00     0.069 C 
ATOM      7  C   UNL     1       0.701   3.240  -1.470  1.00  0.00     0.021 C 
ATOM      8  C   UNL     1       2.626   2.032  -2.443  1.00  0.00     0.138 C 
ATOM      9  C   UNL     1       0.828   4.314  -2.563  1.00  0.00     0.023 C 
ATOM     10  N   UNL     1       2.598   2.958  -3.580  1.00  0.00    -0.324 N 
ATOM     11  C   UNL     1       2.209   4.313  -3.217  1.00  0.00     0.121 C 
BRANCH   6  12
ATOM     12  C   UNL     1       1.253   0.892  -0.663  1.00  0.00     0.047 C 
BRANCH  12  13
ATOM     13  C   UNL     1      -0.107   0.446  -0.109  1.00  0.00     0.161 C 
BRANCH  13  14
ATOM     14  O   UNL     1      -0.186  -0.969   0.069  1.00  0.00    -0.385 OA
ATOM     15  C   UNL     1      -0.312  -1.694  -1.151  1.00  0.00     0.194 C 
ENDBRANCH  13  14
ENDBRANCH  12  13
ENDBRANCH   6  12
BRANCH  10  16
ATOM     16  C   UNL     1       2.933   2.452  -4.801  1.00  0.00     0.317 C 
ATOM     17  O   UNL     1       3.616   1.430  -4.921  1.00  0.00    -0.249 OA
ATOM     18  N   UNL     1       2.500   2.977  -5.954  1.00  0.00    -0.334 N 
ATOM     19  H   UNL     1       2.863   2.496  -6.733  1.00  0.00     0.165 HD
BRANCH  18  20
ATOM     20  C   UNL     1       1.638   4.065  -6.351  1.00  0.00     0.153 C 
BRANCH  20  21
ATOM     21  C   UNL     1       2.418   5.267  -6.825  1.00  0.00    -0.028 A 
ATOM     22  C   UNL     1       3.686   5.134  -7.411  1.00  0.00     0.009 A 
ATOM     23  C   UNL     1       1.859   6.549  -6.737  1.00  0.00     0.009 A 
ATOM     24  C   UNL     1       4.387   6.253  -7.858  1.00  0.00     0.047 A 
ATOM     25  C   UNL     1       2.564   7.672  -7.190  1.00  0.00     0.047 A 
ATOM     26  C   UNL     1       3.833   7.527  -7.750  1.00  0.00     0.118 A 
BRANCH  26  27
ATOM     27  O   UNL     1       4.630   8.530  -8.225  1.00  0.00    -0.497 OA
ATOM     28  C   UNL     1       4.085   9.842  -8.217  1.00  0.00     0.278 C 
ENDBRANCH  26  27
ENDBRANCH  20  21
ENDBRANCH  18  20
ENDBRANCH  10  16
ENDBRANCH   3   6
ENDBRANCH   1   2
BRANCH   1  29
ATOM     29  C   UNL     1      -2.015   3.007  -4.479  1.00  0.00     0.023 C 
BRANCH  29  30
ATOM     30  C   UNL     1      -2.834   2.315  -5.564  1.00  0.00     0.023 C 
BRANCH  30  31
ATOM     31  C   UNL     1      -4.247   1.937  -5.147  1.00  0.00     0.116 C 
BRANCH  31  32
ATOM     32  N   UNL     1      -4.997   3.050  -4.580  1.00  0.00    -0.352 N 
ATOM     33  C   UNL     1      -6.332   3.334  -4.734  1.00  0.00     0.251 C 
ATOM     34  H   UNL     1      -4.485   3.673  -4.016  1.00  0.00     0.163 HD
ATOM     35  O   UNL     1      -6.814   4.367  -4.283  1.00  0.00    -0.269 OA
BRANCH  33  36
ATOM     36  C   UNL     1      -7.161   2.384  -5.494  1.00  0.00     0.039 A 
ATOM     37  C   UNL     1      -7.892   2.848  -6.588  1.00  0.00     0.014 A 
ATOM     38  C   UNL     1      -7.128   1.024  -5.174  1.00  0.00     0.014 A 
ATOM     39  C   UNL     1      -8.543   1.930  -7.409  1.00  0.00     0.010 A 
ATOM     40  C   UNL     1      -7.706   0.107  -6.040  1.00  0.00     0.010 A 
ATOM     41  C   UNL     1      -8.424   0.552  -7.160  1.00  0.00    -0.014 A 
BRANCH  41  42
ATOM     42  C   UNL     1      -9.062  -0.445  -8.050  1.00  0.00     0.031 A 
ATOM     43  C   UNL     1     -10.148  -1.333  -7.513  1.00  0.00     0.074 A 
ATOM     44  C   UNL     1      -8.617  -0.595  -9.312  1.00  0.00     0.049 A 
ATOM     45  N   UNL     1     -10.790  -2.305  -8.107  1.00  0.00    -0.248 NA
ATOM     46  C   UNL     1     -10.538  -1.124  -6.109  1.00  0.00     0.031 C 
ATOM     47  C   UNL     1      -7.523   0.163  -9.924  1.00  0.00     0.029 A 
ATOM     48  N   UNL     1      -9.029  -1.444 -10.307  1.00  0.00    -0.354 N 
ATOM     49  C   UNL     1     -11.639  -2.836  -7.144  1.00  0.00     0.074 A 
ATOM     50  C   UNL     1     -11.389  -2.119  -5.914  1.00  0.00     0.031 C 
ATOM     51  C   UNL     1      -7.371  -0.235 -11.197  1.00  0.00     0.029 A 
ATOM     52  C   UNL     1      -8.337  -1.291 -11.484  1.00  0.00     0.049 A 
ATOM     53  H   UNL     1      -9.753  -2.100 -10.190  1.00  0.00     0.167 HD
ATOM     54  C   UNL     1     -12.565  -3.812  -7.282  1.00  0.00     0.037 A 
ATOM     55  C   UNL     1      -8.475  -1.928 -12.661  1.00  0.00     0.037 A 
ATOM     56  C   UNL     1     -12.839  -4.491  -8.519  1.00  0.00     0.049 A 
ATOM     57  C   UNL     1      -9.541  -2.978 -12.801  1.00  0.00     0.074 A 
ATOM     58  C   UNL     1     -13.800  -5.449  -8.784  1.00  0.00     0.029 A 
ATOM     59  N   UNL     1     -12.150  -4.274  -9.703  1.00  0.00    -0.354 N 
ATOM     60  N   UNL     1     -10.388  -3.421 -11.903  1.00  0.00    -0.248 NA
ATOM     61  C   UNL     1      -9.681  -3.608 -14.122  1.00  0.00     0.031 C 
ATOM     62  C   UNL     1     -13.676  -5.832 -10.124  1.00  0.00     0.029 A 
ATOM     63  C   UNL     1     -12.662  -5.084 -10.701  1.00  0.00     0.049 A 
ATOM     64  H   UNL     1     -11.408  -3.637  -9.816  1.00  0.00     0.167 HD
ATOM     65  C   UNL     1     -11.179  -4.357 -12.555  1.00  0.00     0.074 A 
ATOM     66  C   UNL     1     -10.718  -4.410 -13.928  1.00  0.00     0.031 C 
ATOM     67  C   UNL     1     -12.195  -5.107 -12.064  1.00  0.00     0.037 A 
BRANCH  54  68
ATOM     68  C   UNL     1     -13.355  -4.186  -6.063  1.00  0.00     0.057 A 
ATOM     69  C   UNL     1     -14.315  -3.324  -5.514  1.00  0.00     0.134 A 
ATOM     70  C   UNL     1     -13.162  -5.422  -5.434  1.00  0.00     0.134 A 
ATOM     71  F   UNL     1     -14.534  -2.117  -6.058  1.00  0.00    -0.206 F 
ATOM     72  C   UNL     1     -15.032  -3.665  -4.367  1.00  0.00     0.040 A 
ATOM     73  C   UNL     1     -13.893  -5.786  -4.302  1.00  0.00     0.040 A 
ATOM     74  F   UNL     1     -12.261  -6.295  -5.909  1.00  0.00    -0.206 F 
ATOM     75  C   UNL     1     -14.826  -4.903  -3.761  1.00  0.00     0.006 A 
ENDBRANCH  54  68
BRANCH  55  76
ATOM     76  C   UNL     1      -7.617  -1.558 -13.813  1.00  0.00     0.057 A 
ATOM     77  C   UNL     1      -8.143  -0.854 -14.903  1.00  0.00     0.134 A 
ATOM     78  C   UNL     1      -6.260  -1.896 -13.857  1.00  0.00     0.134 A 
ATOM     79  F   UNL     1      -9.440  -0.515 -14.925  1.00  0.00    -0.206 F 
ATOM     80  C   UNL     1      -7.356  -0.518 -16.006  1.00  0.00     0.040 A 
ATOM     81  C   UNL     1      -5.456  -1.548 -14.944  1.00  0.00     0.040 A 
ATOM     82  F   UNL     1      -5.694  -2.561 -12.838  1.00  0.00    -0.206 F 
ATOM     83  C   UNL     1      -6.006  -0.863 -16.026  1.00  0.00     0.006 A 
ENDBRANCH  55  76
BRANCH  67  84
ATOM     84  C   UNL     1     -12.901  -6.015 -13.025  1.00  0.00     0.057 A 
ATOM     85  C   UNL     1     -12.315  -7.199 -13.487  1.00  0.00     0.134 A 
ATOM     86  C   UNL     1     -14.198  -5.718 -13.461  1.00  0.00     0.134 A 
ATOM     87  F   UNL     1     -11.070  -7.532 -13.115  1.00  0.00    -0.206 F 
ATOM     88  C   UNL     1     -12.988  -8.048 -14.368  1.00  0.00     0.040 A 
ATOM     89  C   UNL     1     -14.890  -6.569 -14.322  1.00  0.00     0.040 A 
ATOM     90  F   UNL     1     -14.817  -4.601 -13.047  1.00  0.00    -0.206 F 
ATOM     91  C   UNL     1     -14.282  -7.736 -14.782  1.00  0.00     0.006 A 
ENDBRANCH  67  84
ENDBRANCH  41  42
ENDBRANCH  33  36
ENDBRANCH  31  32
ENDBRANCH  30  31
ENDBRANCH  29  30
ENDBRANCH   1  29
TORSDOF 18
