REMARK SMILES CC(=O)N[C@@H](C(=O)NCCCCNC(=O)c1ccc(-c2c3nc(c(-c4c(F)cccc4F)c4ccc([nH]4)c(-c4c(F)cccc4F)c4nc(c(-c5c(F)cccc5F)c5ccc2[nH]5)C=C4)C=C3)cc1)C(c1ccccc1)c1ccccc1
REMARK SMILES IDX 10 1 9 2 8 3 6 4 7 5 5 7 4 8 1 9 2 10 3 11 70 13 71 14 72 15
REMARK SMILES IDX 76 16 73 17 75 18 74 19 77 20 78 21 82 22 79 23 81 24 80 25
REMARK SMILES IDX 11 26 12 27 13 28 14 29 15 31 16 32 17 33 69 34 18 35 68 36
REMARK SMILES IDX 19 37 20 38 21 39 62 40 22 41 67 42 61 43 63 44 23 45 66 46
REMARK SMILES IDX 60 47 59 48 24 50 50 51 33 52 49 53 34 54 37 55 48 56 64 57
REMARK SMILES IDX 35 58 36 59 47 61 65 62 38 63 25 64 26 65 31 66 27 67 28 68
REMARK SMILES IDX 30 69 32 70 29 71 51 72 52 73 57 74 53 75 54 76 56 77 58 78
REMARK SMILES IDX 55 79 39 80 40 81 45 82 41 83 42 84 44 85 46 86 43 87
REMARK H PARENT 8 6 4 12 13 30 63 49 37 60
REMARK Flexibility Score: inf
ROOT
ATOM      1  C   UNL     1       3.545   1.900   2.414  1.00  0.00     0.023 C 
ENDROOT
BRANCH   1   2
ATOM      2  C   UNL     1       3.932   0.494   1.952  1.00  0.00     0.116 C 
BRANCH   2   3
ATOM      3  N   UNL     1       3.845  -0.449   3.048  1.00  0.00    -0.354 N 
ATOM      4  C   UNL     1       2.813  -1.292   3.360  1.00  0.00     0.243 C 
ATOM      5  O   UNL     1       2.784  -1.748   4.504  1.00  0.00    -0.273 OA
ATOM      6  H   UNL     1       4.627  -0.487   3.644  1.00  0.00     0.163 HD
BRANCH   4   7
ATOM      7  C   UNL     1       1.697  -1.561   2.314  1.00  0.00     0.183 C 
BRANCH   7   8
ATOM      8  N   UNL     1       0.881  -0.336   2.356  1.00  0.00    -0.344 N 
ATOM      9  C   UNL     1       0.643  -0.050  -0.092  1.00  0.00     0.114 C 
ATOM     10  C   UNL     1       0.442   0.432   1.320  1.00  0.00     0.217 C 
ATOM     11  O   UNL     1      -0.090   1.514   1.564  1.00  0.00    -0.275 OA
ATOM     12  H   UNL     1       0.618  -0.031   3.254  1.00  0.00     0.164 HD
ENDBRANCH   7   8
BRANCH   7  13
ATOM     13  C   UNL     1       0.943  -2.899   2.672  1.00  0.00     0.081 C 
BRANCH  13  14
ATOM     14  C   UNL     1      -0.376  -3.095   1.886  1.00  0.00    -0.038 A 
ATOM     15  C   UNL     1      -1.445  -2.199   2.085  1.00  0.00     0.004 A 
ATOM     16  C   UNL     1      -0.603  -4.171   1.010  1.00  0.00     0.004 A 
ATOM     17  C   UNL     1      -2.654  -2.329   1.395  1.00  0.00     0.000 A 
ATOM     18  C   UNL     1      -1.836  -4.339   0.369  1.00  0.00     0.000 A 
ATOM     19  C   UNL     1      -2.854  -3.408   0.545  1.00  0.00     0.000 A 
ENDBRANCH  13  14
BRANCH  13  20
ATOM     20  C   UNL     1       1.873  -4.142   2.648  1.00  0.00    -0.038 A 
ATOM     21  C   UNL     1       1.431  -5.338   3.247  1.00  0.00     0.004 A 
ATOM     22  C   UNL     1       3.158  -4.145   2.072  1.00  0.00     0.004 A 
ATOM     23  C   UNL     1       2.227  -6.488   3.248  1.00  0.00     0.000 A 
ATOM     24  C   UNL     1       3.969  -5.284   2.110  1.00  0.00     0.000 A 
ATOM     25  C   UNL     1       3.500  -6.457   2.688  1.00  0.00     0.000 A 
ENDBRANCH  13  20
ENDBRANCH   7  13
ENDBRANCH   4   7
ENDBRANCH   2   3
ENDBRANCH   1   2
BRANCH   1  26
ATOM     26  C   UNL     1       4.629   2.601   3.237  1.00  0.00     0.023 C 
BRANCH  26  27
ATOM     27  C   UNL     1       5.950   2.808   2.505  1.00  0.00     0.116 C 
BRANCH  27  28
ATOM     28  N   UNL     1       5.815   3.593   1.288  1.00  0.00    -0.352 N 
ATOM     29  C   UNL     1       6.700   4.504   0.759  1.00  0.00     0.251 C 
ATOM     30  H   UNL     1       4.985   3.454   0.778  1.00  0.00     0.163 HD
ATOM     31  O   UNL     1       6.402   5.172  -0.218  1.00  0.00    -0.269 OA
BRANCH  29  32
ATOM     32  C   UNL     1       8.008   4.691   1.422  1.00  0.00     0.039 A 
ATOM     33  C   UNL     1       8.409   5.984   1.762  1.00  0.00     0.014 A 
ATOM     34  C   UNL     1       8.803   3.590   1.748  1.00  0.00     0.014 A 
ATOM     35  C   UNL     1       9.583   6.168   2.493  1.00  0.00     0.010 A 
ATOM     36  C   UNL     1       9.934   3.769   2.537  1.00  0.00     0.010 A 
ATOM     37  C   UNL     1      10.334   5.059   2.918  1.00  0.00    -0.014 A 
BRANCH  37  38
ATOM     38  C   UNL     1      11.543   5.228   3.762  1.00  0.00     0.031 A 
ATOM     39  C   UNL     1      12.891   4.822   3.235  1.00  0.00     0.074 A 
ATOM     40  C   UNL     1      11.418   5.689   5.022  1.00  0.00     0.049 A 
ATOM     41  N   UNL     1      14.050   4.823   3.842  1.00  0.00    -0.248 NA
ATOM     42  C   UNL     1      12.938   4.325   1.851  1.00  0.00     0.031 C 
ATOM     43  C   UNL     1      10.159   6.074   5.665  1.00  0.00     0.029 A 
ATOM     44  N   UNL     1      12.364   5.903   5.993  1.00  0.00    -0.354 N 
ATOM     45  C   UNL     1      14.959   4.321   2.920  1.00  0.00     0.074 A 
ATOM     46  C   UNL     1      14.209   3.971   1.733  1.00  0.00     0.031 C 
ATOM     47  C   UNL     1      10.414   6.499   6.913  1.00  0.00     0.029 A 
ATOM     48  C   UNL     1      11.845   6.381   7.173  1.00  0.00     0.049 A 
ATOM     49  H   UNL     1      13.323   5.730   5.858  1.00  0.00     0.167 HD
ATOM     50  C   UNL     1      16.300   4.188   3.040  1.00  0.00     0.037 A 
ATOM     51  C   UNL     1      12.456   6.684   8.334  1.00  0.00     0.037 A 
ATOM     52  C   UNL     1      17.048   4.559   4.212  1.00  0.00     0.049 A 
ATOM     53  C   UNL     1      13.947   6.513   8.445  1.00  0.00     0.074 A 
ATOM     54  C   UNL     1      18.416   4.505   4.415  1.00  0.00     0.029 A 
ATOM     55  N   UNL     1      16.489   5.057   5.380  1.00  0.00    -0.354 N 
ATOM     56  N   UNL     1      14.801   6.093   7.543  1.00  0.00    -0.248 NA
ATOM     57  C   UNL     1      14.559   6.864   9.734  1.00  0.00     0.031 C 
ATOM     58  C   UNL     1      18.681   4.934   5.720  1.00  0.00     0.029 A 
ATOM     59  C   UNL     1      17.483   5.299   6.312  1.00  0.00     0.049 A 
ATOM     60  H   UNL     1      15.527   5.214   5.524  1.00  0.00     0.167 HD
ATOM     61  C   UNL     1      16.052   6.162   8.143  1.00  0.00     0.074 A 
ATOM     62  C   UNL     1      15.846   6.676   9.481  1.00  0.00     0.031 C 
ATOM     63  C   UNL     1      17.262   5.828   7.633  1.00  0.00     0.037 A 
BRANCH  50  64
ATOM     64  C   UNL     1      17.050   3.631   1.866  1.00  0.00     0.057 A 
ATOM     65  C   UNL     1      17.221   4.368   0.686  1.00  0.00     0.134 A 
ATOM     66  C   UNL     1      17.645   2.365   1.929  1.00  0.00     0.134 A 
ATOM     67  F   UNL     1      16.664   5.582   0.556  1.00  0.00    -0.206 F 
ATOM     68  C   UNL     1      17.939   3.857  -0.397  1.00  0.00     0.040 A 
ATOM     69  C   UNL     1      18.389   1.855   0.863  1.00  0.00     0.040 A 
ATOM     70  F   UNL     1      17.525   1.609   3.031  1.00  0.00    -0.206 F 
ATOM     71  C   UNL     1      18.532   2.600  -0.306  1.00  0.00     0.006 A 
ENDBRANCH  50  64
BRANCH  51  72
ATOM     72  C   UNL     1      11.670   7.199   9.484  1.00  0.00     0.057 A 
ATOM     73  C   UNL     1      11.816   8.520   9.924  1.00  0.00     0.134 A 
ATOM     74  C   UNL     1      10.783   6.379  10.191  1.00  0.00     0.134 A 
ATOM     75  F   UNL     1      12.666   9.348   9.300  1.00  0.00    -0.206 F 
ATOM     76  C   UNL     1      11.132   9.000  11.041  1.00  0.00     0.040 A 
ATOM     77  C   UNL     1      10.071   6.854  11.294  1.00  0.00     0.040 A 
ATOM     78  F   UNL     1      10.592   5.106   9.817  1.00  0.00    -0.206 F 
ATOM     79  C   UNL     1      10.253   8.165  11.729  1.00  0.00     0.006 A 
ENDBRANCH  51  72
BRANCH  63  80
ATOM     80  C   UNL     1      18.461   6.053   8.507  1.00  0.00     0.057 A 
ATOM     81  C   UNL     1      18.731   5.242   9.616  1.00  0.00     0.134 A 
ATOM     82  C   UNL     1      19.376   7.071   8.210  1.00  0.00     0.134 A 
ATOM     83  F   UNL     1      17.887   4.258   9.961  1.00  0.00    -0.206 F 
ATOM     84  C   UNL     1      19.857   5.452  10.414  1.00  0.00     0.040 A 
ATOM     85  C   UNL     1      20.519   7.273   8.984  1.00  0.00     0.040 A 
ATOM     86  F   UNL     1      19.180   7.877   7.156  1.00  0.00    -0.206 F 
ATOM     87  C   UNL     1      20.759   6.465  10.094  1.00  0.00     0.006 A 
ENDBRANCH  63  80
ENDBRANCH  37  38
ENDBRANCH  29  32
ENDBRANCH  27  28
ENDBRANCH  26  27
ENDBRANCH   1  26
TORSDOF 15
