REMARK SMILES O=C(NCCCCNC(=O)c1[nH]ncc1C[N@H+]1CCC[C@@H](C(=O)c2ccc(Oc3ccccc3)cc2)C1)c1ccc(-c2c3nc(c(-c4c(F)cccc4F)c4ccc([nH]4)c(-c4c(F)cccc4F)c4nc(c(-c5c(F)cccc5F)c5ccc2[nH]5)C=C4)C=C3)cc1
REMARK SMILES IDX 8 1 9 2 10 3 7 5 6 6 5 7 4 8 3 9 1 10 2 11 38 13 39 14 91 15
REMARK SMILES IDX 40 16 90 17 41 18 42 19 43 20 84 21 44 22 89 23 83 24 85 25
REMARK SMILES IDX 45 26 88 27 82 28 81 29 46 31 72 32 55 33 71 34 56 35 59 36
REMARK SMILES IDX 70 37 86 38 57 39 58 40 69 42 87 43 60 44 47 45 48 46 53 47
REMARK SMILES IDX 49 48 50 49 52 50 54 51 51 52 73 53 74 54 79 55 75 56 76 57
REMARK SMILES IDX 78 58 80 59 77 60 61 61 62 62 67 63 63 64 64 65 66 66 68 67
REMARK SMILES IDX 65 68 11 69 12 70 15 71 13 72 14 74 16 75 17 76 18 77 37 78
REMARK SMILES IDX 19 80 21 81 20 82 22 83 23 84 24 85 25 86 36 87 26 88 35 89
REMARK SMILES IDX 27 90 28 91 29 92 30 93 34 94 31 95 33 96 32 97
REMARK H PARENT 8 4 3 12 85 30 59 41 12 73 17 79
REMARK Flexibility Score: inf
ROOT
ATOM      1  N   UNL     1       6.204  -2.829  -3.156  1.00  0.00    -0.351 N 
ATOM      2  C   UNL     1       7.005  -3.317  -4.154  1.00  0.00     0.269 C 
ATOM      3  O   UNL     1       8.224  -3.158  -4.060  1.00  0.00    -0.268 OA
ATOM      4  H   UNL     1       6.654  -2.261  -2.489  1.00  0.00     0.163 HD
ENDROOT
BRANCH   1   5
ATOM      5  C   UNL     1       4.780  -3.033  -2.945  1.00  0.00     0.116 C 
BRANCH   5   6
ATOM      6  C   UNL     1       4.432  -3.451  -1.521  1.00  0.00     0.023 C 
BRANCH   6   7
ATOM      7  C   UNL     1       4.900  -2.497  -0.426  1.00  0.00     0.023 C 
BRANCH   7   8
ATOM      8  C   UNL     1       4.593  -1.024  -0.664  1.00  0.00     0.116 C 
BRANCH   8   9
ATOM      9  N   UNL     1       3.169  -0.731  -0.728  1.00  0.00    -0.352 N 
ATOM     10  O   UNL     1       1.187   0.130  -0.072  1.00  0.00    -0.269 OA
ATOM     11  C   UNL     1       2.405   0.092   0.068  1.00  0.00     0.251 C 
ATOM     12  H   UNL     1       2.679  -1.189  -1.448  1.00  0.00     0.163 HD
BRANCH  11  13
ATOM     13  C   UNL     1       3.052   0.897   1.127  1.00  0.00     0.039 A 
ATOM     14  C   UNL     1       4.215   1.619   0.860  1.00  0.00     0.014 A 
ATOM     15  C   UNL     1       2.508   0.892   2.414  1.00  0.00     0.014 A 
ATOM     16  C   UNL     1       4.939   2.163   1.913  1.00  0.00     0.010 A 
ATOM     17  C   UNL     1       3.188   1.529   3.457  1.00  0.00     0.010 A 
ATOM     18  C   UNL     1       4.439   2.119   3.226  1.00  0.00    -0.014 A 
BRANCH  18  19
ATOM     19  C   UNL     1       5.249   2.704   4.327  1.00  0.00     0.031 A 
ATOM     20  C   UNL     1       5.795   1.844   5.435  1.00  0.00     0.074 A 
ATOM     21  C   UNL     1       5.546   4.018   4.287  1.00  0.00     0.049 A 
ATOM     22  N   UNL     1       6.573   2.184   6.434  1.00  0.00    -0.248 NA
ATOM     23  C   UNL     1       5.415   0.423   5.433  1.00  0.00     0.031 C 
ATOM     24  C   UNL     1       5.068   4.958   3.271  1.00  0.00     0.029 A 
ATOM     25  N   UNL     1       6.346   4.781   5.096  1.00  0.00    -0.354 N 
ATOM     26  C   UNL     1       6.748   1.033   7.192  1.00  0.00     0.074 A 
ATOM     27  C   UNL     1       5.983  -0.014   6.549  1.00  0.00     0.031 C 
ATOM     28  C   UNL     1       5.638   6.154   3.477  1.00  0.00     0.029 A 
ATOM     29  C   UNL     1       6.474   6.080   4.670  1.00  0.00     0.049 A 
ATOM     30  H   UNL     1       6.787   4.432   5.905  1.00  0.00     0.167 HD
ATOM     31  C   UNL     1       7.485   0.862   8.316  1.00  0.00     0.037 A 
ATOM     32  C   UNL     1       7.185   7.102   5.180  1.00  0.00     0.037 A 
ATOM     33  C   UNL     1       8.279   1.893   8.934  1.00  0.00     0.049 A 
ATOM     34  C   UNL     1       8.005   6.880   6.415  1.00  0.00     0.074 A 
ATOM     35  C   UNL     1       9.096   1.802  10.048  1.00  0.00     0.029 A 
ATOM     36  N   UNL     1       8.358   3.204   8.488  1.00  0.00    -0.354 N 
ATOM     37  N   UNL     1       8.181   5.779   7.103  1.00  0.00    -0.248 NA
ATOM     38  C   UNL     1       8.720   8.047   6.950  1.00  0.00     0.031 C 
ATOM     39  C   UNL     1       9.644   3.066  10.296  1.00  0.00     0.029 A 
ATOM     40  C   UNL     1       9.196   3.935   9.314  1.00  0.00     0.049 A 
ATOM     41  H   UNL     1       7.888   3.562   7.701  1.00  0.00     0.167 HD
ATOM     42  C   UNL     1       9.036   6.114   8.142  1.00  0.00     0.074 A 
ATOM     43  C   UNL     1       9.359   7.517   7.983  1.00  0.00     0.031 C 
ATOM     44  C   UNL     1       9.508   5.330   9.141  1.00  0.00     0.037 A 
BRANCH  31  45
ATOM     45  C   UNL     1       7.458  -0.490   8.967  1.00  0.00     0.057 A 
ATOM     46  C   UNL     1       8.138  -1.588   8.427  1.00  0.00     0.134 A 
ATOM     47  C   UNL     1       6.778  -0.682  10.177  1.00  0.00     0.134 A 
ATOM     48  F   UNL     1       8.799  -1.474   7.265  1.00  0.00    -0.206 F 
ATOM     49  C   UNL     1       8.129  -2.834   9.057  1.00  0.00     0.040 A 
ATOM     50  C   UNL     1       6.778  -1.917  10.827  1.00  0.00     0.040 A 
ATOM     51  F   UNL     1       6.111   0.330  10.751  1.00  0.00    -0.206 F 
ATOM     52  C   UNL     1       7.452  -2.999  10.265  1.00  0.00     0.006 A 
ENDBRANCH  31  45
BRANCH  32  53
ATOM     53  C   UNL     1       7.162   8.422   4.505  1.00  0.00     0.057 A 
ATOM     54  C   UNL     1       8.283   8.899   3.817  1.00  0.00     0.134 A 
ATOM     55  C   UNL     1       6.017   9.227   4.517  1.00  0.00     0.134 A 
ATOM     56  F   UNL     1       9.413   8.177   3.785  1.00  0.00    -0.206 F 
ATOM     57  C   UNL     1       8.270  10.135   3.170  1.00  0.00     0.040 A 
ATOM     58  C   UNL     1       5.982  10.454   3.855  1.00  0.00     0.040 A 
ATOM     59  F   UNL     1       4.910   8.819   5.154  1.00  0.00    -0.206 F 
ATOM     60  C   UNL     1       7.113  10.914   3.183  1.00  0.00     0.006 A 
ENDBRANCH  32  53
BRANCH  44  61
ATOM     61  C   UNL     1      10.442   5.973  10.121  1.00  0.00     0.057 A 
ATOM     62  C   UNL     1       9.982   6.862  11.100  1.00  0.00     0.134 A 
ATOM     63  C   UNL     1      11.813   5.689  10.093  1.00  0.00     0.134 A 
ATOM     64  F   UNL     1       8.682   7.186  11.168  1.00  0.00    -0.206 F 
ATOM     65  C   UNL     1      10.858   7.467  12.002  1.00  0.00     0.040 A 
ATOM     66  C   UNL     1      12.695   6.271  11.003  1.00  0.00     0.040 A 
ATOM     67  F   UNL     1      12.314   4.841   9.182  1.00  0.00    -0.206 F 
ATOM     68  C   UNL     1      12.219   7.168  11.957  1.00  0.00     0.006 A 
ENDBRANCH  44  61
ENDBRANCH  18  19
ENDBRANCH  11  13
ENDBRANCH   8   9
ENDBRANCH   7   8
ENDBRANCH   6   7
ENDBRANCH   5   6
ENDBRANCH   1   5
BRANCH   2  69
ATOM     69  C   UNL     1       6.407  -4.064  -5.217  1.00  0.00     0.131 A 
ATOM     70  N   UNL     1       6.891  -5.289  -5.585  1.00  0.00    -0.272 N 
ATOM     71  C   UNL     1       5.350  -3.802  -6.084  1.00  0.00     0.057 A 
ATOM     72  N   UNL     1       6.102  -5.940  -6.452  1.00  0.00    -0.183 NA
ATOM     73  H   UNL     1       7.738  -5.657  -5.247  1.00  0.00     0.190 HD
ATOM     74  C   UNL     1       5.172  -5.036  -6.760  1.00  0.00     0.145 A 
BRANCH  71  75
ATOM     75  C   UNL     1       4.533  -2.553  -6.212  1.00  0.00     0.303 C 
BRANCH  75  76
ATOM     76  N   UNL     1       4.685  -1.833  -7.483  1.00  0.00    -0.330 N 
ATOM     77  C   UNL     1       6.048  -1.344  -7.717  1.00  0.00     0.262 C 
ATOM     78  C   UNL     1       4.165  -2.572  -8.635  1.00  0.00     0.274 C 
ATOM     79  H   UNL     1       4.097  -1.005  -7.383  1.00  0.00     0.348 HD
ATOM     80  C   UNL     1       6.085  -0.430  -8.945  1.00  0.00     0.062 C 
ATOM     81  C   UNL     1       4.153  -1.722  -9.911  1.00  0.00     0.116 C 
ATOM     82  C   UNL     1       5.539  -1.133 -10.185  1.00  0.00     0.023 C 
BRANCH  81  83
ATOM     83  C   UNL     1       3.736  -2.646 -11.046  1.00  0.00     0.171 C 
ATOM     84  O   UNL     1       4.381  -3.650 -11.345  1.00  0.00    -0.294 OA
BRANCH  83  85
ATOM     85  C   UNL     1       2.469  -2.384 -11.767  1.00  0.00     0.018 A 
ATOM     86  C   UNL     1       1.688  -3.483 -12.143  1.00  0.00     0.015 A 
ATOM     87  C   UNL     1       2.066  -1.090 -12.102  1.00  0.00     0.015 A 
ATOM     88  C   UNL     1       0.511  -3.288 -12.864  1.00  0.00     0.048 A 
ATOM     89  C   UNL     1       0.881  -0.899 -12.821  1.00  0.00     0.048 A 
ATOM     90  C   UNL     1       0.117  -1.998 -13.227  1.00  0.00     0.127 A 
BRANCH  90  91
ATOM     91  O   UNL     1      -1.060  -1.922 -13.939  1.00  0.00    -0.457 OA
BRANCH  91  92
ATOM     92  C   UNL     1      -1.296  -0.810 -14.708  1.00  0.00     0.127 A 
ATOM     93  C   UNL     1      -2.510  -0.152 -14.512  1.00  0.00     0.047 A 
ATOM     94  C   UNL     1      -0.413  -0.381 -15.702  1.00  0.00     0.047 A 
ATOM     95  C   UNL     1      -2.818   0.975 -15.273  1.00  0.00     0.004 A 
ATOM     96  C   UNL     1      -0.720   0.753 -16.455  1.00  0.00     0.004 A 
ATOM     97  C   UNL     1      -1.919   1.433 -16.236  1.00  0.00     0.000 A 
ENDBRANCH  91  92
ENDBRANCH  90  91
ENDBRANCH  83  85
ENDBRANCH  81  83
ENDBRANCH  75  76
ENDBRANCH  71  75
ENDBRANCH   2  69
TORSDOF 17
