REMARK SMILES CC[NH2+][C@]1(C(=O)NCCCCNC(=O)c2ccc(-c3c4nc(c(-c5c(F)cccc5F)c5ccc([nH]5)c(-c5c(F)cccc5F)c5nc(c(-c6c(F)cccc6F)c6ccc3[nH]6)C=C5)C=C4)cc2)CCC[C@@H]1CCSc1ccccc1F
REMARK SMILES IDX 8 1 7 2 5 3 6 4 4 6 69 7 72 8 70 9 71 10 3 11 2 14 1 15
REMARK SMILES IDX 73 16 74 17 75 18 76 19 77 20 81 21 78 22 80 23 82 24 79 25
REMARK SMILES IDX 9 26 10 27 11 28 12 29 13 30 14 32 15 33 16 34 68 35 17 36
REMARK SMILES IDX 67 37 18 38 19 39 20 40 61 41 21 42 66 43 60 44 62 45 22 46
REMARK SMILES IDX 65 47 59 48 58 49 23 51 49 52 32 53 48 54 33 55 36 56 47 57
REMARK SMILES IDX 63 58 34 59 35 60 46 62 64 63 37 64 24 65 25 66 30 67 26 68
REMARK SMILES IDX 27 69 29 70 31 71 28 72 50 73 51 74 56 75 52 76 53 77 55 78
REMARK SMILES IDX 57 79 54 80 38 81 39 82 44 83 40 84 41 85 43 86 45 87 42 88
REMARK H PARENT 7 5 3 12 3 13 12 31 62 50 36 61
REMARK Flexibility Score: inf
ROOT
ATOM      1  C   UNL     1       2.799  -0.131  -3.543  1.00  0.00     0.116 C 
ENDROOT
BRANCH   1   2
ATOM      2  N   UNL     1       1.757  -0.595  -2.645  1.00  0.00    -0.351 N 
ATOM      3  C   UNL     1       0.583  -1.248  -2.816  1.00  0.00     0.281 C 
ATOM      4  O   UNL     1      -0.266  -0.999  -1.943  1.00  0.00    -0.268 OA
ATOM      5  H   UNL     1       1.947  -0.389  -1.701  1.00  0.00     0.163 HD
BRANCH   3   6
ATOM      6  C   UNL     1       0.211  -2.311  -3.917  1.00  0.00     0.178 C 
ATOM      7  C   UNL     1       0.999  -2.192  -5.227  1.00  0.00     0.079 C 
ATOM      8  C   UNL     1       0.651  -3.745  -3.447  1.00  0.00     0.061 C 
ATOM      9  C   UNL     1       0.860  -3.534  -5.916  1.00  0.00     0.008 C 
ATOM     10  C   UNL     1       0.871  -4.541  -4.771  1.00  0.00     0.011 C 
BRANCH   6  11
ATOM     11  N   UNL     1      -1.240  -2.067  -4.157  1.00  0.00    -0.334 N 
ATOM     12  H   UNL     1      -1.642  -1.819  -3.253  1.00  0.00     0.347 HD
ATOM     13  H   UNL     1      -1.223  -1.366  -4.897  1.00  0.00     0.347 HD
BRANCH  11  14
ATOM     14  C   UNL     1      -2.105  -3.090  -4.721  1.00  0.00     0.257 C 
ATOM     15  C   UNL     1      -3.503  -2.971  -4.116  1.00  0.00     0.071 C 
ENDBRANCH  11  14
ENDBRANCH   6  11
BRANCH   8  16
ATOM     16  C   UNL     1      -0.266  -4.520  -2.465  1.00  0.00     0.022 C 
BRANCH  16  17
ATOM     17  C   UNL     1       0.340  -4.872  -1.101  1.00  0.00     0.075 C 
BRANCH  17  18
ATOM     18  S   UNL     1      -0.170  -3.752   0.251  1.00  0.00    -0.123 SA
BRANCH  18  19
ATOM     19  C   UNL     1       1.171  -2.583   0.403  1.00  0.00     0.043 A 
ATOM     20  C   UNL     1       2.509  -2.928   0.185  1.00  0.00     0.018 A 
ATOM     21  C   UNL     1       0.890  -1.273   0.821  1.00  0.00     0.136 A 
ATOM     22  C   UNL     1       3.527  -1.979   0.331  1.00  0.00     0.001 A 
ATOM     23  C   UNL     1       1.900  -0.322   0.965  1.00  0.00     0.040 A 
ATOM     24  F   UNL     1      -0.369  -0.888   1.085  1.00  0.00    -0.206 F 
ATOM     25  C   UNL     1       3.223  -0.677   0.720  1.00  0.00     0.003 A 
ENDBRANCH  18  19
ENDBRANCH  17  18
ENDBRANCH  16  17
ENDBRANCH   8  16
ENDBRANCH   3   6
ENDBRANCH   1   2
BRANCH   1  26
ATOM     26  C   UNL     1       3.011   1.385  -3.437  1.00  0.00     0.023 C 
BRANCH  26  27
ATOM     27  C   UNL     1       3.586   1.914  -2.120  1.00  0.00     0.023 C 
BRANCH  27  28
ATOM     28  C   UNL     1       4.950   1.367  -1.709  1.00  0.00     0.116 C 
BRANCH  28  29
ATOM     29  N   UNL     1       6.017   1.701  -2.634  1.00  0.00    -0.352 N 
ATOM     30  C   UNL     1       7.234   2.301  -2.408  1.00  0.00     0.251 C 
ATOM     31  H   UNL     1       5.842   1.460  -3.573  1.00  0.00     0.163 HD
ATOM     32  O   UNL     1       7.969   2.556  -3.354  1.00  0.00    -0.269 OA
BRANCH  30  33
ATOM     33  C   UNL     1       7.654   2.680  -1.037  1.00  0.00     0.039 A 
ATOM     34  C   UNL     1       8.196   3.955  -0.842  1.00  0.00     0.014 A 
ATOM     35  C   UNL     1       7.552   1.799   0.043  1.00  0.00     0.014 A 
ATOM     36  C   UNL     1       8.572   4.367   0.440  1.00  0.00     0.010 A 
ATOM     37  C   UNL     1       7.870   2.234   1.333  1.00  0.00     0.010 A 
ATOM     38  C   UNL     1       8.382   3.524   1.547  1.00  0.00    -0.014 A 
BRANCH  38  39
ATOM     39  C   UNL     1       8.707   3.995   2.923  1.00  0.00     0.031 A 
ATOM     40  C   UNL     1       9.812   3.347   3.716  1.00  0.00     0.074 A 
ATOM     41  C   UNL     1       7.989   4.994   3.475  1.00  0.00     0.049 A 
ATOM     42  N   UNL     1      10.230   3.621   4.927  1.00  0.00    -0.248 NA
ATOM     43  C   UNL     1      10.530   2.236   3.073  1.00  0.00     0.031 C 
ATOM     44  C   UNL     1       6.870   5.687   2.832  1.00  0.00     0.029 A 
ATOM     45  N   UNL     1       8.090   5.602   4.703  1.00  0.00    -0.354 N 
ATOM     46  C   UNL     1      11.247   2.712   5.195  1.00  0.00     0.074 A 
ATOM     47  C   UNL     1      11.355   1.851   4.037  1.00  0.00     0.031 C 
ATOM     48  C   UNL     1       6.410   6.641   3.657  1.00  0.00     0.029 A 
ATOM     49  C   UNL     1       7.170   6.605   4.902  1.00  0.00     0.049 A 
ATOM     50  H   UNL     1       8.759   5.344   5.378  1.00  0.00     0.167 HD
ATOM     51  C   UNL     1      12.030   2.615   6.296  1.00  0.00     0.037 A 
ATOM     52  C   UNL     1       6.957   7.401   5.969  1.00  0.00     0.037 A 
ATOM     53  C   UNL     1      11.943   3.490   7.436  1.00  0.00     0.049 A 
ATOM     54  C   UNL     1       7.831   7.252   7.186  1.00  0.00     0.074 A 
ATOM     55  C   UNL     1      12.747   3.514   8.564  1.00  0.00     0.029 A 
ATOM     56  N   UNL     1      10.995   4.487   7.601  1.00  0.00    -0.354 N 
ATOM     57  N   UNL     1       8.845   6.447   7.386  1.00  0.00    -0.248 NA
ATOM     58  C   UNL     1       7.530   8.130   8.328  1.00  0.00     0.031 C 
ATOM     59  C   UNL     1      12.248   4.484   9.438  1.00  0.00     0.029 A 
ATOM     60  C   UNL     1      11.172   5.108   8.828  1.00  0.00     0.049 A 
ATOM     61  H   UNL     1      10.300   4.721   6.944  1.00  0.00     0.167 HD
ATOM     62  C   UNL     1       9.327   6.748   8.654  1.00  0.00     0.074 A 
ATOM     63  C   UNL     1       8.503   7.818   9.172  1.00  0.00     0.031 C 
ATOM     64  C   UNL     1      10.359   6.186   9.329  1.00  0.00     0.037 A 
BRANCH  51  65
ATOM     65  C   UNL     1      13.056   1.518   6.335  1.00  0.00     0.057 A 
ATOM     66  C   UNL     1      14.207   1.549   5.538  1.00  0.00     0.134 A 
ATOM     67  C   UNL     1      12.926   0.456   7.240  1.00  0.00     0.134 A 
ATOM     68  F   UNL     1      14.389   2.534   4.645  1.00  0.00    -0.206 F 
ATOM     69  C   UNL     1      15.183   0.555   5.627  1.00  0.00     0.040 A 
ATOM     70  C   UNL     1      13.909  -0.528   7.358  1.00  0.00     0.040 A 
ATOM     71  F   UNL     1      11.853   0.370   8.041  1.00  0.00    -0.206 F 
ATOM     72  C   UNL     1      15.040  -0.482   6.547  1.00  0.00     0.006 A 
ENDBRANCH  51  65
BRANCH  52  73
ATOM     73  C   UNL     1       5.878   8.424   5.947  1.00  0.00     0.057 A 
ATOM     74  C   UNL     1       6.176   9.792   5.984  1.00  0.00     0.134 A 
ATOM     75  C   UNL     1       4.526   8.062   5.945  1.00  0.00     0.134 A 
ATOM     76  F   UNL     1       7.452  10.204   6.010  1.00  0.00    -0.206 F 
ATOM     77  C   UNL     1       5.173  10.760   6.056  1.00  0.00     0.040 A 
ATOM     78  C   UNL     1       3.511   9.020   5.985  1.00  0.00     0.040 A 
ATOM     79  F   UNL     1       4.170   6.769   5.904  1.00  0.00    -0.206 F 
ATOM     80  C   UNL     1       3.834  10.374   6.055  1.00  0.00     0.006 A 
ENDBRANCH  52  73
BRANCH  64  81
ATOM     81  C   UNL     1      10.693   6.752  10.680  1.00  0.00     0.057 A 
ATOM     82  C   UNL     1       9.863   6.563  11.792  1.00  0.00     0.134 A 
ATOM     83  C   UNL     1      11.884   7.464  10.877  1.00  0.00     0.134 A 
ATOM     84  F   UNL     1       8.702   5.901  11.670  1.00  0.00    -0.206 F 
ATOM     85  C   UNL     1      10.191   7.085  13.045  1.00  0.00     0.040 A 
ATOM     86  C   UNL     1      12.238   7.963  12.131  1.00  0.00     0.040 A 
ATOM     87  F   UNL     1      12.731   7.673   9.858  1.00  0.00    -0.206 F 
ATOM     88  C   UNL     1      11.386   7.780  13.218  1.00  0.00     0.006 A 
ENDBRANCH  64  81
ENDBRANCH  38  39
ENDBRANCH  30  33
ENDBRANCH  28  29
ENDBRANCH  27  28
ENDBRANCH  26  27
ENDBRANCH   1  26
TORSDOF 17
