REMARK SMILES CN1c2ccccc2S[C@H]2C=CC(C(=O)NCCCCNC(=O)c3ccc(-c4c5nc(c(-c6c(F)cccc6F)c6ccc([nH]6)c(-c6c(F)cccc6F)c6nc(c(-c7c(F)cccc7F)c7ccc4[nH]7)C=C6)C=C5)cc3)=C[C@@H]21
REMARK SMILES IDX 19 1 18 2 17 3 16 4 14 5 15 6 13 8 1 9 2 10 3 11 79 12 4 13
REMARK SMILES IDX 8 14 10 15 78 16 5 17 7 18 9 19 11 20 6 21 12 22 20 23 21 24
REMARK SMILES IDX 22 25 23 27 24 28 25 29 77 30 26 31 76 32 27 33 28 34 29 35
REMARK SMILES IDX 70 36 30 37 75 38 69 39 71 40 31 41 74 42 68 43 67 44 32 46
REMARK SMILES IDX 58 47 41 48 57 49 42 50 45 51 56 52 72 53 43 54 44 55 55 57
REMARK SMILES IDX 73 58 46 59 33 60 34 61 39 62 35 63 36 64 38 65 40 66 37 67
REMARK SMILES IDX 59 68 60 69 65 70 61 71 62 72 64 73 66 74 63 75 47 76 48 77
REMARK SMILES IDX 53 78 49 79 50 80 52 81 54 82 51 83
REMARK H PARENT 16 7 21 26 71 45 45 56
REMARK Flexibility Score: inf
ROOT
ATOM      1  C   UNL     1      -1.273   8.600   1.621  1.00  0.00     0.023 C 
ENDROOT
BRANCH   1   2
ATOM      2  C   UNL     1      -0.777   7.686   0.498  1.00  0.00     0.023 C 
BRANCH   2   3
ATOM      3  C   UNL     1       0.443   6.836   0.864  1.00  0.00     0.116 C 
BRANCH   3   4
ATOM      4  N   UNL     1       0.061   5.728   1.718  1.00  0.00    -0.352 N 
ATOM      5  C   UNL     1      -0.297   4.441   1.452  1.00  0.00     0.251 C 
ATOM      6  O   UNL     1      -0.607   3.740   2.419  1.00  0.00    -0.269 OA
ATOM      7  H   UNL     1       0.059   5.950   2.678  1.00  0.00     0.163 HD
BRANCH   5   8
ATOM      8  C   UNL     1      -0.247   3.857   0.064  1.00  0.00     0.037 C 
ATOM      9  C   UNL     1       1.239  -0.018  -0.058  1.00  0.00     0.144 C 
ATOM     10  N   UNL     1       0.677   0.519  -1.288  1.00  0.00    -0.366 N 
ATOM     11  C   UNL     1       0.703  -0.250  -2.464  1.00  0.00     0.051 A 
ATOM     12  C   UNL     1      -0.064   1.794  -1.354  1.00  0.00     0.123 C 
ATOM     13  C   UNL     1       0.871  -1.649  -2.407  1.00  0.00     0.027 A 
ATOM     14  C   UNL     1       0.573   0.319  -3.759  1.00  0.00     0.031 A 
ATOM     15  C   UNL     1       0.610   2.717  -2.411  1.00  0.00     0.101 C 
ATOM     16  C   UNL     1      -0.186   2.509  -0.023  1.00  0.00     0.013 C 
ATOM     17  C   UNL     1       0.937  -2.442  -3.558  1.00  0.00     0.002 A 
ATOM     18  C   UNL     1       0.652  -0.484  -4.911  1.00  0.00     0.017 A 
ATOM     19  S   UNL     1       0.309   2.066  -4.080  1.00  0.00    -0.114 SA
ATOM     20  C   UNL     1       0.093   4.129  -2.334  1.00  0.00    -0.009 C 
ATOM     21  C   UNL     1       0.840  -1.858  -4.812  1.00  0.00     0.001 A 
ATOM     22  C   UNL     1      -0.343   4.622  -1.166  1.00  0.00     0.010 C 
ENDBRANCH   5   8
ENDBRANCH   3   4
ENDBRANCH   2   3
ENDBRANCH   1   2
BRANCH   1  23
ATOM     23  C   UNL     1      -0.297   9.695   2.027  1.00  0.00     0.116 C 
BRANCH  23  24
ATOM     24  N   UNL     1       0.037  10.613   0.947  1.00  0.00    -0.352 N 
ATOM     25  C   UNL     1       0.438  11.927   1.046  1.00  0.00     0.251 C 
ATOM     26  H   UNL     1      -0.031  10.249   0.035  1.00  0.00     0.163 HD
ATOM     27  O   UNL     1       0.599  12.612   0.045  1.00  0.00    -0.269 OA
BRANCH  25  28
ATOM     28  C   UNL     1       0.612  12.515   2.392  1.00  0.00     0.039 A 
ATOM     29  C   UNL     1       1.356  11.843   3.362  1.00  0.00     0.014 A 
ATOM     30  C   UNL     1      -0.048  13.706   2.703  1.00  0.00     0.014 A 
ATOM     31  C   UNL     1       1.292  12.264   4.684  1.00  0.00     0.010 A 
ATOM     32  C   UNL     1      -0.042  14.174   4.019  1.00  0.00     0.010 A 
ATOM     33  C   UNL     1       0.578  13.423   5.031  1.00  0.00    -0.014 A 
BRANCH  33  34
ATOM     34  C   UNL     1       0.474  13.803   6.462  1.00  0.00     0.031 A 
ATOM     35  C   UNL     1      -0.851  13.761   7.176  1.00  0.00     0.074 A 
ATOM     36  C   UNL     1       1.596  14.108   7.142  1.00  0.00     0.049 A 
ATOM     37  N   UNL     1      -1.117  13.997   8.437  1.00  0.00    -0.248 NA
ATOM     38  C   UNL     1      -2.033  13.413   6.372  1.00  0.00     0.031 C 
ATOM     39  C   UNL     1       2.939  14.174   6.564  1.00  0.00     0.029 A 
ATOM     40  N   UNL     1       1.790  14.383   8.470  1.00  0.00    -0.354 N 
ATOM     41  C   UNL     1      -2.491  13.845   8.572  1.00  0.00     0.074 A 
ATOM     42  C   UNL     1      -3.010  13.523   7.260  1.00  0.00     0.031 C 
ATOM     43  C   UNL     1       3.826  14.411   7.542  1.00  0.00     0.029 A 
ATOM     44  C   UNL     1       3.110  14.564   8.803  1.00  0.00     0.049 A 
ATOM     45  H   UNL     1       1.055  14.444   9.123  1.00  0.00     0.167 HD
ATOM     46  C   UNL     1      -3.251  13.951   9.690  1.00  0.00     0.037 A 
ATOM     47  C   UNL     1       3.680  14.828   9.993  1.00  0.00     0.037 A 
ATOM     48  C   UNL     1      -2.734  14.248  11.000  1.00  0.00     0.049 A 
ATOM     49  C   UNL     1       2.812  14.961  11.209  1.00  0.00     0.074 A 
ATOM     50  C   UNL     1      -3.422  14.361  12.196  1.00  0.00     0.029 A 
ATOM     51  N   UNL     1      -1.397  14.477  11.287  1.00  0.00    -0.354 N 
ATOM     52  N   UNL     1       1.515  14.808  11.320  1.00  0.00    -0.248 NA
ATOM     53  C   UNL     1       3.489  15.313  12.464  1.00  0.00     0.031 C 
ATOM     54  C   UNL     1      -2.505  14.689  13.202  1.00  0.00     0.029 A 
ATOM     55  C   UNL     1      -1.241  14.744  12.638  1.00  0.00     0.049 A 
ATOM     56  H   UNL     1      -0.666  14.453  10.628  1.00  0.00     0.167 HD
ATOM     57  C   UNL     1       1.221  15.034  12.658  1.00  0.00     0.074 A 
ATOM     58  C   UNL     1       2.479  15.310  13.322  1.00  0.00     0.031 C 
ATOM     59  C   UNL     1       0.017  15.021  13.280  1.00  0.00     0.037 A 
BRANCH  46  60
ATOM     60  C   UNL     1      -4.731  13.755   9.537  1.00  0.00     0.057 A 
ATOM     61  C   UNL     1      -5.609  14.843   9.630  1.00  0.00     0.134 A 
ATOM     62  C   UNL     1      -5.292  12.489   9.327  1.00  0.00     0.134 A 
ATOM     63  F   UNL     1      -5.137  16.082   9.836  1.00  0.00    -0.206 F 
ATOM     64  C   UNL     1      -6.990  14.679   9.519  1.00  0.00     0.040 A 
ATOM     65  C   UNL     1      -6.671  12.315   9.193  1.00  0.00     0.040 A 
ATOM     66  F   UNL     1      -4.506  11.408   9.214  1.00  0.00    -0.206 F 
ATOM     67  C   UNL     1      -7.525  13.412   9.294  1.00  0.00     0.006 A 
ENDBRANCH  46  60
BRANCH  47  68
ATOM     68  C   UNL     1       5.152  14.979  10.091  1.00  0.00     0.057 A 
ATOM     69  C   UNL     1       5.808  16.087   9.541  1.00  0.00     0.134 A 
ATOM     70  C   UNL     1       5.934  14.019  10.741  1.00  0.00     0.134 A 
ATOM     71  F   UNL     1       5.112  17.038   8.901  1.00  0.00    -0.206 F 
ATOM     72  C   UNL     1       7.192  16.231   9.627  1.00  0.00     0.040 A 
ATOM     73  C   UNL     1       7.318  14.162  10.855  1.00  0.00     0.040 A 
ATOM     74  F   UNL     1       5.359  12.946  11.302  1.00  0.00    -0.206 F 
ATOM     75  C   UNL     1       7.951  15.269  10.292  1.00  0.00     0.006 A 
ENDBRANCH  47  68
BRANCH  59  76
ATOM     76  C   UNL     1       0.018  15.297  14.753  1.00  0.00     0.057 A 
ATOM     77  C   UNL     1      -0.191  14.264  15.674  1.00  0.00     0.134 A 
ATOM     78  C   UNL     1       0.228  16.587  15.258  1.00  0.00     0.134 A 
ATOM     79  F   UNL     1      -0.402  13.008  15.253  1.00  0.00    -0.206 F 
ATOM     80  C   UNL     1      -0.186  14.503  17.049  1.00  0.00     0.040 A 
ATOM     81  C   UNL     1       0.257  16.834  16.631  1.00  0.00     0.040 A 
ATOM     82  F   UNL     1       0.451  17.615  14.426  1.00  0.00    -0.206 F 
ATOM     83  C   UNL     1       0.047  15.790  17.531  1.00  0.00     0.006 A 
ENDBRANCH  59  76
ENDBRANCH  33  34
ENDBRANCH  25  28
ENDBRANCH  23  24
ENDBRANCH   1  23
TORSDOF 11
