REMARK SMILES COc1ccc(C(=O)N[C@H](C(=O)NCCCCNC(=O)c2ccc(-c3c4nc(c(-c5c(F)cccc5F)c5ccc([nH]5)c(-c5c(F)cccc5F)c5nc(c(-c6c(F)cccc6F)c6ccc3[nH]6)C=C5)C=C4)cc2)C2=C(C)N=N[C@H]2C)c(F)c1F
REMARK SMILES IDX 15 1 14 2 13 3 11 4 12 5 10 7 9 8 7 9 8 10 6 12 3 13 4 14
REMARK SMILES IDX 84 15 5 16 82 17 85 18 83 19 2 20 1 21 75 22 76 23 80 24
REMARK SMILES IDX 77 25 78 26 79 27 81 28 16 29 17 30 18 31 19 32 20 34 21 35
REMARK SMILES IDX 22 36 74 37 23 38 73 39 24 40 25 41 26 42 67 43 27 44 72 45
REMARK SMILES IDX 66 46 68 47 28 48 71 49 65 50 64 51 29 53 55 54 38 55 54 56
REMARK SMILES IDX 39 57 42 58 53 59 69 60 40 61 41 62 52 64 70 65 43 66 30 67
REMARK SMILES IDX 31 68 36 69 32 70 33 71 35 72 37 73 34 74 56 75 57 76 62 77
REMARK SMILES IDX 58 78 59 79 61 80 63 81 60 82 44 83 45 84 50 85 46 86 47 87
REMARK SMILES IDX 49 88 51 89 48 90
REMARK H PARENT 13 6 9 11 18 33 68 52 42 63
REMARK Flexibility Score: inf
ROOT
ATOM      1  C   UNL     1       1.328  -8.372  -7.140  1.00  0.00     0.023 C 
ENDROOT
BRANCH   1   2
ATOM      2  C   UNL     1       1.133  -8.200  -5.643  1.00  0.00     0.116 C 
BRANCH   2   3
ATOM      3  N   UNL     1       1.517  -6.921  -5.091  1.00  0.00    -0.354 N 
ATOM      4  C   UNL     1       1.032  -6.357  -3.929  1.00  0.00     0.247 C 
ATOM      5  O   UNL     1       1.729  -5.503  -3.377  1.00  0.00    -0.272 OA
ATOM      6  H   UNL     1       2.188  -6.403  -5.591  1.00  0.00     0.163 HD
BRANCH   4   7
ATOM      7  C   UNL     1      -0.313  -6.859  -3.288  1.00  0.00     0.202 C 
BRANCH   7   8
ATOM      8  N   UNL     1      -1.319  -6.960  -4.350  1.00  0.00    -0.336 N 
ATOM      9  C   UNL     1      -2.609  -7.386  -4.439  1.00  0.00     0.255 C 
ATOM     10  O   UNL     1      -3.264  -7.097  -5.438  1.00  0.00    -0.269 OA
ATOM     11  H   UNL     1      -0.975  -6.639  -5.215  1.00  0.00     0.165 HD
BRANCH   9  12
ATOM     12  C   UNL     1      -3.163  -8.350  -3.492  1.00  0.00     0.078 A 
ATOM     13  C   UNL     1      -3.867 -10.432  -1.780  1.00  0.00     0.157 A 
ATOM     14  C   UNL     1      -3.934 -10.620  -3.163  1.00  0.00     0.050 A 
ATOM     15  C   UNL     1      -3.560  -9.162  -1.275  1.00  0.00     0.201 A 
ATOM     16  C   UNL     1      -3.584  -9.578  -4.020  1.00  0.00     0.021 A 
ATOM     17  C   UNL     1      -3.221  -8.118  -2.128  1.00  0.00     0.175 A 
ATOM     18  F   UNL     1      -3.526  -8.955   0.051  1.00  0.00    -0.200 F 
ATOM     19  F   UNL     1      -2.896  -6.918  -1.626  1.00  0.00    -0.203 F 
BRANCH  13  20
ATOM     20  O   UNL     1      -4.097 -11.423  -0.865  1.00  0.00    -0.494 OA
ATOM     21  C   UNL     1      -3.797 -12.744  -1.310  1.00  0.00     0.278 C 
ENDBRANCH  13  20
ENDBRANCH   9  12
ENDBRANCH   7   8
BRANCH   7  22
ATOM     22  C   UNL     1      -0.066  -8.036  -2.393  1.00  0.00     0.011 C 
ATOM     23  C   UNL     1      -0.002  -9.375  -2.488  1.00  0.00     0.064 C 
ATOM     24  C   UNL     1       0.118  -7.769  -0.918  1.00  0.00     0.156 C 
ATOM     25  C   UNL     1      -0.218 -10.320  -3.620  1.00  0.00     0.069 C 
ATOM     26  N   UNL     1       0.280  -9.974  -1.282  1.00  0.00    -0.160 NA
ATOM     27  N   UNL     1       0.381  -9.119  -0.369  1.00  0.00    -0.181 NA
ATOM     28  C   UNL     1       1.253  -6.845  -0.511  1.00  0.00     0.040 C 
ENDBRANCH   7  22
ENDBRANCH   4   7
ENDBRANCH   2   3
ENDBRANCH   1   2
BRANCH   1  29
ATOM     29  C   UNL     1       2.684  -8.923  -7.562  1.00  0.00     0.023 C 
BRANCH  29  30
ATOM     30  C   UNL     1       3.149 -10.200  -6.865  1.00  0.00     0.116 C 
BRANCH  30  31
ATOM     31  N   UNL     1       2.235 -11.330  -6.979  1.00  0.00    -0.352 N 
ATOM     32  C   UNL     1       2.509 -12.634  -7.334  1.00  0.00     0.251 C 
ATOM     33  H   UNL     1       1.292 -11.136  -6.774  1.00  0.00     0.163 HD
ATOM     34  O   UNL     1       1.607 -13.463  -7.408  1.00  0.00    -0.269 OA
BRANCH  32  35
ATOM     35  C   UNL     1       3.894 -13.011  -7.688  1.00  0.00     0.039 A 
ATOM     36  C   UNL     1       4.132 -13.624  -8.921  1.00  0.00     0.014 A 
ATOM     37  C   UNL     1       4.959 -12.665  -6.854  1.00  0.00     0.014 A 
ATOM     38  C   UNL     1       5.446 -13.778  -9.370  1.00  0.00     0.010 A 
ATOM     39  C   UNL     1       6.260 -12.736  -7.342  1.00  0.00     0.010 A 
ATOM     40  C   UNL     1       6.517 -13.275  -8.613  1.00  0.00    -0.014 A 
BRANCH  40  41
ATOM     41  C   UNL     1       7.906 -13.268  -9.141  1.00  0.00     0.031 A 
ATOM     42  C   UNL     1       8.991 -14.023  -8.427  1.00  0.00     0.074 A 
ATOM     43  C   UNL     1       8.211 -12.514 -10.216  1.00  0.00     0.049 A 
ATOM     44  N   UNL     1      10.275 -14.064  -8.679  1.00  0.00    -0.248 NA
ATOM     45  C   UNL     1       8.583 -14.810  -7.253  1.00  0.00     0.031 C 
ATOM     46  C   UNL     1       7.266 -11.691 -10.974  1.00  0.00     0.029 A 
ATOM     47  N   UNL     1       9.410 -12.311 -10.855  1.00  0.00    -0.354 N 
ATOM     48  C   UNL     1      10.828 -14.864  -7.687  1.00  0.00     0.074 A 
ATOM     49  C   UNL     1       9.750 -15.237  -6.796  1.00  0.00     0.031 C 
ATOM     50  C   UNL     1       7.912 -11.103 -11.994  1.00  0.00     0.029 A 
ATOM     51  C   UNL     1       9.323 -11.473 -11.941  1.00  0.00     0.049 A 
ATOM     52  H   UNL     1      10.253 -12.727 -10.563  1.00  0.00     0.167 HD
ATOM     53  C   UNL     1      12.110 -15.274  -7.544  1.00  0.00     0.037 A 
ATOM     54  C   UNL     1      10.272 -11.050 -12.797  1.00  0.00     0.037 A 
ATOM     55  C   UNL     1      13.178 -14.928  -8.443  1.00  0.00     0.049 A 
ATOM     56  C   UNL     1      11.690 -11.511 -12.613  1.00  0.00     0.074 A 
ATOM     57  C   UNL     1      14.499 -15.340  -8.414  1.00  0.00     0.029 A 
ATOM     58  N   UNL     1      13.046 -14.085  -9.536  1.00  0.00    -0.354 N 
ATOM     59  N   UNL     1      12.187 -12.314 -11.704  1.00  0.00    -0.248 NA
ATOM     60  C   UNL     1      12.680 -11.007 -13.576  1.00  0.00     0.031 C 
ATOM     61  C   UNL     1      15.175 -14.720  -9.471  1.00  0.00     0.029 A 
ATOM     62  C   UNL     1      14.265 -13.952 -10.181  1.00  0.00     0.049 A 
ATOM     63  H   UNL     1      12.210 -13.646  -9.813  1.00  0.00     0.167 HD
ATOM     64  C   UNL     1      13.538 -12.436 -12.002  1.00  0.00     0.074 A 
ATOM     65  C   UNL     1      13.782 -11.629 -13.181  1.00  0.00     0.031 C 
ATOM     66  C   UNL     1      14.491 -13.153 -11.358  1.00  0.00     0.037 A 
BRANCH  53  67
ATOM     67  C   UNL     1      12.416 -16.155  -6.368  1.00  0.00     0.057 A 
ATOM     68  C   UNL     1      11.955 -17.477  -6.300  1.00  0.00     0.134 A 
ATOM     69  C   UNL     1      13.179 -15.681  -5.295  1.00  0.00     0.134 A 
ATOM     70  F   UNL     1      11.206 -17.988  -7.289  1.00  0.00    -0.206 F 
ATOM     71  C   UNL     1      12.211 -18.283  -5.189  1.00  0.00     0.040 A 
ATOM     72  C   UNL     1      13.465 -16.486  -4.191  1.00  0.00     0.040 A 
ATOM     73  F   UNL     1      13.656 -14.427  -5.298  1.00  0.00    -0.206 F 
ATOM     74  C   UNL     1      12.972 -17.789  -4.132  1.00  0.00     0.006 A 
ENDBRANCH  53  67
BRANCH  54  75
ATOM     75  C   UNL     1       9.907 -10.171 -13.936  1.00  0.00     0.057 A 
ATOM     76  C   UNL     1       9.900 -10.665 -15.245  1.00  0.00     0.134 A 
ATOM     77  C   UNL     1       9.564  -8.827 -13.751  1.00  0.00     0.134 A 
ATOM     78  F   UNL     1      10.240 -11.940 -15.486  1.00  0.00    -0.206 F 
ATOM     79  C   UNL     1       9.579  -9.852 -16.333  1.00  0.00     0.040 A 
ATOM     80  C   UNL     1       9.220  -8.008 -14.827  1.00  0.00     0.040 A 
ATOM     81  F   UNL     1       9.547  -8.296 -12.520  1.00  0.00    -0.206 F 
ATOM     82  C   UNL     1       9.232  -8.519 -16.124  1.00  0.00     0.006 A 
ENDBRANCH  54  75
BRANCH  66  83
ATOM     83  C   UNL     1      15.874 -13.128 -11.934  1.00  0.00     0.057 A 
ATOM     84  C   UNL     1      16.706 -12.008 -11.811  1.00  0.00     0.134 A 
ATOM     85  C   UNL     1      16.393 -14.252 -12.588  1.00  0.00     0.134 A 
ATOM     86  F   UNL     1      16.262 -10.895 -11.208  1.00  0.00    -0.206 F 
ATOM     87  C   UNL     1      18.000 -12.001 -12.335  1.00  0.00     0.040 A 
ATOM     88  C   UNL     1      17.693 -14.266 -13.096  1.00  0.00     0.040 A 
ATOM     89  F   UNL     1      15.649 -15.359 -12.734  1.00  0.00    -0.206 F 
ATOM     90  C   UNL     1      18.499 -13.135 -12.973  1.00  0.00     0.006 A 
ENDBRANCH  66  83
ENDBRANCH  40  41
ENDBRANCH  32  35
ENDBRANCH  30  31
ENDBRANCH  29  30
ENDBRANCH   1  29
TORSDOF 15
