REMARK SMILES O=C(NCCCCNC(=O)[C@@H]1CCCC[C@@H]1C(=O)Nc1nc(-c2ccc(Cl)c(Cl)c2)cs1)c1ccc(-c2c3nc(c(-c4c(F)cccc4F)c4ccc([nH]4)c(-c4c(F)cccc4F)c4nc(c(-c5c(F)cccc5F)c5ccc2[nH]5)C=C4)C=C3)cc1
REMARK SMILES IDX 6 1 5 2 4 3 3 4 1 5 2 6 33 8 34 9 86 10 35 11 85 12 36 13
REMARK SMILES IDX 37 14 38 15 79 16 39 17 84 18 78 19 80 20 40 21 83 22 77 23
REMARK SMILES IDX 76 24 41 26 67 27 50 28 66 29 51 30 54 31 65 32 81 33 52 34
REMARK SMILES IDX 53 35 64 37 82 38 55 39 42 40 43 41 48 42 44 43 45 44 47 45
REMARK SMILES IDX 49 46 46 47 68 48 69 49 74 50 70 51 71 52 73 53 75 54 72 55
REMARK SMILES IDX 56 56 57 57 62 58 58 59 59 60 61 61 63 62 60 63 7 64 8 65
REMARK SMILES IDX 9 66 10 68 11 69 12 70 16 71 13 72 15 73 14 74 17 75 18 76
REMARK SMILES IDX 19 77 20 79 21 80 32 81 22 82 31 83 23 84 24 85 30 86 25 87
REMARK SMILES IDX 28 88 26 89 29 90 27 91
REMARK H PARENT 3 7 80 25 54 36 8 67 19 78
REMARK Flexibility Score: inf
ROOT
ATOM      1  C   UNL     1       4.375   2.760   2.608  1.00  0.00     0.023 C 
ENDROOT
BRANCH   1   2
ATOM      2  C   UNL     1       4.843   2.272   1.234  1.00  0.00     0.023 C 
BRANCH   2   3
ATOM      3  C   UNL     1       4.516   0.817   0.927  1.00  0.00     0.116 C 
BRANCH   3   4
ATOM      4  N   UNL     1       3.086   0.555   0.902  1.00  0.00    -0.352 N 
ATOM      5  O   UNL     1       1.119  -0.039  -0.035  1.00  0.00    -0.269 OA
ATOM      6  C   UNL     1       2.345  -0.062  -0.076  1.00  0.00     0.251 C 
ATOM      7  H   UNL     1       2.583   0.860   1.691  1.00  0.00     0.163 HD
BRANCH   6   8
ATOM      8  C   UNL     1       3.038  -0.741  -1.190  1.00  0.00     0.039 A 
ATOM      9  C   UNL     1       4.125  -1.580  -0.935  1.00  0.00     0.014 A 
ATOM     10  C   UNL     1       2.591  -0.549  -2.499  1.00  0.00     0.014 A 
ATOM     11  C   UNL     1       4.835  -2.140  -1.988  1.00  0.00     0.010 A 
ATOM     12  C   UNL     1       3.256  -1.178  -3.555  1.00  0.00     0.010 A 
ATOM     13  C   UNL     1       4.388  -1.970  -3.306  1.00  0.00    -0.014 A 
BRANCH  13  14
ATOM     14  C   UNL     1       5.048  -2.727  -4.396  1.00  0.00     0.031 A 
ATOM     15  C   UNL     1       5.793  -2.026  -5.493  1.00  0.00     0.074 A 
ATOM     16  C   UNL     1       4.952  -4.072  -4.383  1.00  0.00     0.049 A 
ATOM     17  N   UNL     1       6.380  -2.541  -6.544  1.00  0.00    -0.248 NA
ATOM     18  C   UNL     1       5.891  -0.561  -5.408  1.00  0.00     0.031 C 
ATOM     19  C   UNL     1       4.242  -4.855  -3.366  1.00  0.00     0.029 A 
ATOM     20  N   UNL     1       5.441  -5.017  -5.246  1.00  0.00    -0.354 N 
ATOM     21  C   UNL     1       6.894  -1.466  -7.258  1.00  0.00     0.074 A 
ATOM     22  C   UNL     1       6.543  -0.268  -6.526  1.00  0.00     0.031 C 
ATOM     23  C   UNL     1       4.355  -6.158  -3.655  1.00  0.00     0.029 A 
ATOM     24  C   UNL     1       5.080  -6.300  -4.911  1.00  0.00     0.049 A 
ATOM     25  H   UNL     1       5.997  -4.799  -6.028  1.00  0.00     0.167 HD
ATOM     26  C   UNL     1       7.591  -1.488  -8.418  1.00  0.00     0.037 A 
ATOM     27  C   UNL     1       5.268  -7.460  -5.566  1.00  0.00     0.037 A 
ATOM     28  C   UNL     1       7.949  -2.693  -9.124  1.00  0.00     0.049 A 
ATOM     29  C   UNL     1       6.004  -7.442  -6.873  1.00  0.00     0.074 A 
ATOM     30  C   UNL     1       8.721  -2.822 -10.266  1.00  0.00     0.029 A 
ATOM     31  N   UNL     1       7.545  -3.971  -8.767  1.00  0.00    -0.354 N 
ATOM     32  N   UNL     1       6.547  -6.427  -7.500  1.00  0.00    -0.248 NA
ATOM     33  C   UNL     1       6.146  -8.726  -7.572  1.00  0.00     0.031 C 
ATOM     34  C   UNL     1       8.729  -4.170 -10.637  1.00  0.00     0.029 A 
ATOM     35  C   UNL     1       8.011  -4.888  -9.695  1.00  0.00     0.049 A 
ATOM     36  H   UNL     1       7.008  -4.193  -7.973  1.00  0.00     0.167 HD
ATOM     37  C   UNL     1       7.104  -6.950  -8.658  1.00  0.00     0.074 A 
ATOM     38  C   UNL     1       6.857  -8.377  -8.634  1.00  0.00     0.031 C 
ATOM     39  C   UNL     1       7.754  -6.305  -9.656  1.00  0.00     0.037 A 
BRANCH  26  40
ATOM     40  C   UNL     1       8.000  -0.179  -9.026  1.00  0.00     0.057 A 
ATOM     41  C   UNL     1       9.031   0.602  -8.492  1.00  0.00     0.134 A 
ATOM     42  C   UNL     1       7.411   0.258 -10.221  1.00  0.00     0.134 A 
ATOM     43  F   UNL     1       9.633   0.244  -7.348  1.00  0.00    -0.206 F 
ATOM     44  C   UNL     1       9.458   1.775  -9.120  1.00  0.00     0.040 A 
ATOM     45  C   UNL     1       7.844   1.416 -10.870  1.00  0.00     0.040 A 
ATOM     46  F   UNL     1       6.423  -0.448 -10.791  1.00  0.00    -0.206 F 
ATOM     47  C   UNL     1       8.871   2.178 -10.318  1.00  0.00     0.006 A 
ENDBRANCH  26  40
BRANCH  27  48
ATOM     48  C   UNL     1       4.704  -8.721  -5.022  1.00  0.00     0.057 A 
ATOM     49  C   UNL     1       5.531  -9.756  -4.576  1.00  0.00     0.134 A 
ATOM     50  C   UNL     1       3.319  -8.925  -4.951  1.00  0.00     0.134 A 
ATOM     51  F   UNL     1       6.864  -9.628  -4.633  1.00  0.00    -0.206 F 
ATOM     52  C   UNL     1       5.004 -10.959  -4.101  1.00  0.00     0.040 A 
ATOM     53  C   UNL     1       2.778 -10.108  -4.449  1.00  0.00     0.040 A 
ATOM     54  F   UNL     1       2.471  -7.968  -5.356  1.00  0.00    -0.206 F 
ATOM     55  C   UNL     1       3.623 -11.134  -4.033  1.00  0.00     0.006 A 
ENDBRANCH  27  48
BRANCH  39  56
ATOM     56  C   UNL     1       8.256  -7.140 -10.796  1.00  0.00     0.057 A 
ATOM     57  C   UNL     1       7.384  -7.687 -11.746  1.00  0.00     0.134 A 
ATOM     58  C   UNL     1       9.628  -7.362 -10.971  1.00  0.00     0.134 A 
ATOM     59  F   UNL     1       6.058  -7.526 -11.623  1.00  0.00    -0.206 F 
ATOM     60  C   UNL     1       7.858  -8.438 -12.822  1.00  0.00     0.040 A 
ATOM     61  C   UNL     1      10.115  -8.086 -12.059  1.00  0.00     0.040 A 
ATOM     62  F   UNL     1      10.516  -6.860 -10.100  1.00  0.00    -0.206 F 
ATOM     63  C   UNL     1       9.228  -8.631 -12.986  1.00  0.00     0.006 A 
ENDBRANCH  39  56
ENDBRANCH  13  14
ENDBRANCH   6   8
ENDBRANCH   3   4
ENDBRANCH   2   3
ENDBRANCH   1   2
BRANCH   1  64
ATOM     64  C   UNL     1       4.872   1.914   3.781  1.00  0.00     0.116 C 
BRANCH  64  65
ATOM     65  N   UNL     1       6.321   1.940   3.869  1.00  0.00    -0.356 N 
ATOM     66  C   UNL     1       7.146   2.566   4.754  1.00  0.00     0.223 C 
ATOM     67  H   UNL     1       6.784   1.419   3.174  1.00  0.00     0.163 HD
ATOM     68  O   UNL     1       8.357   2.517   4.537  1.00  0.00    -0.275 OA
BRANCH  66  69
ATOM     69  C   UNL     1       6.566   3.255   5.979  1.00  0.00     0.091 C 
ATOM     70  C   UNL     1       7.057   4.699   6.101  1.00  0.00     0.014 C 
ATOM     71  C   UNL     1       6.821   2.419   7.242  1.00  0.00     0.091 C 
ATOM     72  C   UNL     1       6.426   5.373   7.318  1.00  0.00     0.001 C 
ATOM     73  C   UNL     1       6.294   3.132   8.501  1.00  0.00     0.014 C 
ATOM     74  C   UNL     1       6.704   4.601   8.603  1.00  0.00     0.001 C 
BRANCH  71  75
ATOM     75  C   UNL     1       8.294   2.041   7.463  1.00  0.00     0.230 C 
ATOM     76  O   UNL     1       9.147   2.905   7.696  1.00  0.00    -0.274 OA
ATOM     77  N   UNL     1       8.682   0.741   7.574  1.00  0.00    -0.302 N 
ATOM     78  H   UNL     1       9.571   0.582   7.967  1.00  0.00     0.172 HD
BRANCH  77  79
ATOM     79  C   UNL     1       7.980  -0.363   7.204  1.00  0.00     0.189 A 
ATOM     80  N   UNL     1       6.927  -0.450   6.434  1.00  0.00    -0.220 NA
ATOM     81  S   UNL     1       8.591  -1.831   7.827  1.00  0.00    -0.105 S 
ATOM     82  C   UNL     1       6.545  -1.769   6.336  1.00  0.00     0.084 A 
ATOM     83  C   UNL     1       7.288  -2.666   7.078  1.00  0.00     0.097 A 
BRANCH  82  84
ATOM     84  C   UNL     1       5.473  -2.162   5.451  1.00  0.00     0.003 A 
ATOM     85  C   UNL     1       5.716  -2.204   4.075  1.00  0.00     0.012 A 
ATOM     86  C   UNL     1       4.204  -2.475   5.947  1.00  0.00     0.032 A 
ATOM     87  C   UNL     1       4.700  -2.580   3.198  1.00  0.00     0.023 A 
ATOM     88  C   UNL     1       3.180  -2.835   5.064  1.00  0.00     0.060 A 
ATOM     89  C   UNL     1       3.428  -2.889   3.687  1.00  0.00     0.059 A 
ATOM     90  Cl  UNL     1       1.633  -3.202   5.738  1.00  0.00    -0.083 Cl
ATOM     91  Cl  UNL     1       2.217  -3.325   2.536  1.00  0.00    -0.083 Cl
ENDBRANCH  82  84
ENDBRANCH  77  79
ENDBRANCH  71  75
ENDBRANCH  66  69
ENDBRANCH  64  65
ENDBRANCH   1  64
TORSDOF 14
