REMARK SMILES CCN1C(=O)C[C@@H](C(=O)Nc2cccc(C(=O)NCCCCNC(=O)c3ccc(-c4c5nc(c(-c6c(F)cccc6F)c6ccc([nH]6)c(-c6c(F)cccc6F)c6nc(c(-c7c(F)cccc7F)c7ccc4[nH]7)C=C6)C=C5)cc3)c2)S/C1=[NH+]/c1ccccc1
REMARK SMILES IDX 20 1 19 2 18 3 16 4 17 5 15 7 11 8 12 9 80 10 13 11 14 12
REMARK SMILES IDX 10 13 8 14 9 15 7 17 3 18 4 19 82 20 5 21 6 22 81 23 83 24
REMARK SMILES IDX 2 26 1 27 84 28 85 29 89 30 86 31 88 32 87 33 21 34 22 35
REMARK SMILES IDX 23 36 24 37 25 39 26 40 27 41 79 42 28 43 78 44 29 45 30 46
REMARK SMILES IDX 31 47 72 48 32 49 77 50 71 51 73 52 33 53 76 54 70 55 69 56
REMARK SMILES IDX 34 58 60 59 43 60 59 61 44 62 47 63 58 64 74 65 45 66 46 67
REMARK SMILES IDX 57 69 75 70 48 71 35 72 36 73 41 74 37 75 38 76 40 77 42 78
REMARK SMILES IDX 39 79 61 80 62 81 67 82 63 83 64 84 66 85 68 86 65 87 49 88
REMARK SMILES IDX 50 89 55 90 51 91 52 92 54 93 56 94 53 95
REMARK H PARENT 18 6 10 16 83 25 23 38 73 57 47 68
REMARK Flexibility Score: inf
ROOT
ATOM      1  C   UNL     1      -0.567   6.393  -3.649  1.00  0.00     0.023 C 
ENDROOT
BRANCH   1   2
ATOM      2  C   UNL     1      -0.724   4.925  -3.281  1.00  0.00     0.116 C 
BRANCH   2   3
ATOM      3  N   UNL     1      -1.290   4.638  -1.972  1.00  0.00    -0.352 N 
ATOM      4  C   UNL     1      -2.056   3.567  -1.554  1.00  0.00     0.251 C 
ATOM      5  O   UNL     1      -2.381   3.487  -0.372  1.00  0.00    -0.269 OA
ATOM      6  H   UNL     1      -1.098   5.310  -1.278  1.00  0.00     0.163 HD
BRANCH   4   7
ATOM      7  C   UNL     1      -2.531   2.517  -2.500  1.00  0.00     0.041 A 
ATOM      8  C   UNL     1      -2.263   1.235  -4.549  1.00  0.00     0.041 A 
ATOM      9  C   UNL     1      -3.566   0.754  -4.405  1.00  0.00     0.026 A 
ATOM     10  C   UNL     1      -1.749   2.075  -3.569  1.00  0.00     0.040 A 
ATOM     11  C   UNL     1      -4.314   1.075  -3.268  1.00  0.00     0.003 A 
ATOM     12  C   UNL     1      -3.800   1.962  -2.319  1.00  0.00     0.014 A 
BRANCH   8  13
ATOM     13  N   UNL     1      -1.568   0.949  -5.735  1.00  0.00    -0.325 N 
ATOM     14  C   UNL     1      -0.240   0.970  -6.071  1.00  0.00     0.238 C 
ATOM     15  O   UNL     1       0.021   1.119  -7.271  1.00  0.00    -0.273 OA
ATOM     16  H   UNL     1      -2.155   0.678  -6.477  1.00  0.00     0.169 HD
BRANCH  14  17
ATOM     17  C   UNL     1       0.898   0.688  -5.073  1.00  0.00     0.160 C 
ATOM     18  N   UNL     1       1.436   0.882  -2.192  1.00  0.00    -0.191 N 
ATOM     19  C   UNL     1       1.410  -0.333  -2.841  1.00  0.00     0.311 C 
ATOM     20  C   UNL     1       1.961   2.003  -2.800  1.00  0.00     0.319 C 
ATOM     21  O   UNL     1       1.951  -1.348  -2.409  1.00  0.00    -0.247 OA
ATOM     22  C   UNL     1       0.557  -0.378  -4.063  1.00  0.00     0.153 C 
ATOM     23  S   UNL     1       1.694   2.211  -4.524  1.00  0.00    -0.024 SA
ATOM     24  N   UNL     1       2.616   2.978  -2.252  1.00  0.00    -0.235 N 
ATOM     25  H   UNL     1       2.698   3.822  -2.751  1.00  0.00     0.313 HD
BRANCH  18  26
ATOM     26  C   UNL     1       0.796   0.959  -0.875  1.00  0.00     0.243 C 
ATOM     27  C   UNL     1       1.242  -0.073   0.147  1.00  0.00     0.054 C 
ENDBRANCH  18  26
BRANCH  24  28
ATOM     28  C   UNL     1       3.214   2.893  -0.987  1.00  0.00     0.125 A 
ATOM     29  C   UNL     1       2.968   3.878  -0.025  1.00  0.00     0.051 A 
ATOM     30  C   UNL     1       4.183   1.921  -0.714  1.00  0.00     0.051 A 
ATOM     31  C   UNL     1       3.662   3.885   1.189  1.00  0.00     0.004 A 
ATOM     32  C   UNL     1       4.867   1.913   0.504  1.00  0.00     0.004 A 
ATOM     33  C   UNL     1       4.610   2.899   1.453  1.00  0.00     0.000 A 
ENDBRANCH  24  28
ENDBRANCH  14  17
ENDBRANCH   8  13
ENDBRANCH   4   7
ENDBRANCH   2   3
ENDBRANCH   1   2
BRANCH   1  34
ATOM     34  C   UNL     1       0.418   7.210  -2.822  1.00  0.00     0.023 C 
BRANCH  34  35
ATOM     35  C   UNL     1       1.815   6.627  -2.638  1.00  0.00     0.116 C 
BRANCH  35  36
ATOM     36  N   UNL     1       2.558   6.407  -3.867  1.00  0.00    -0.352 N 
ATOM     37  C   UNL     1       3.844   6.776  -4.192  1.00  0.00     0.251 C 
ATOM     38  H   UNL     1       2.070   5.922  -4.571  1.00  0.00     0.163 HD
ATOM     39  O   UNL     1       4.295   6.522  -5.307  1.00  0.00    -0.269 OA
BRANCH  37  40
ATOM     40  C   UNL     1       4.676   7.535  -3.229  1.00  0.00     0.039 A 
ATOM     41  C   UNL     1       5.377   8.655  -3.685  1.00  0.00     0.014 A 
ATOM     42  C   UNL     1       4.768   7.160  -1.887  1.00  0.00     0.014 A 
ATOM     43  C   UNL     1       6.101   9.440  -2.784  1.00  0.00     0.010 A 
ATOM     44  C   UNL     1       5.413   7.994  -0.974  1.00  0.00     0.010 A 
ATOM     45  C   UNL     1       6.094   9.140  -1.411  1.00  0.00    -0.014 A 
BRANCH  45  46
ATOM     46  C   UNL     1       6.819  10.001  -0.437  1.00  0.00     0.031 A 
ATOM     47  C   UNL     1       7.966   9.441   0.362  1.00  0.00     0.074 A 
ATOM     48  C   UNL     1       6.431  11.277  -0.242  1.00  0.00     0.049 A 
ATOM     49  N   UNL     1       8.713  10.029   1.264  1.00  0.00    -0.248 NA
ATOM     50  C   UNL     1       8.303   8.027   0.138  1.00  0.00     0.031 C 
ATOM     51  C   UNL     1       5.306  11.934  -0.910  1.00  0.00     0.029 A 
ATOM     52  N   UNL     1       6.944  12.255   0.577  1.00  0.00    -0.354 N 
ATOM     53  C   UNL     1       9.595   9.056   1.718  1.00  0.00     0.074 A 
ATOM     54  C   UNL     1       9.247   7.824   1.044  1.00  0.00     0.031 C 
ATOM     55  C   UNL     1       5.237  13.212  -0.503  1.00  0.00     0.029 A 
ATOM     56  C   UNL     1       6.291  13.460   0.476  1.00  0.00     0.049 A 
ATOM     57  H   UNL     1       7.708  12.106   1.179  1.00  0.00     0.167 HD
ATOM     58  C   UNL     1      10.624   9.179   2.591  1.00  0.00     0.037 A 
ATOM     59  C   UNL     1       6.520  14.633   1.096  1.00  0.00     0.037 A 
ATOM     60  C   UNL     1      10.989  10.407   3.246  1.00  0.00     0.049 A 
ATOM     61  C   UNL     1       7.669  14.747   2.061  1.00  0.00     0.074 A 
ATOM     62  C   UNL     1      12.040  10.643   4.116  1.00  0.00     0.029 A 
ATOM     63  N   UNL     1      10.313  11.609   3.102  1.00  0.00    -0.354 N 
ATOM     64  N   UNL     1       8.535  13.834   2.429  1.00  0.00    -0.248 NA
ATOM     65  C   UNL     1       7.881  16.061   2.686  1.00  0.00     0.031 C 
ATOM     66  C   UNL     1      11.976  11.978   4.528  1.00  0.00     0.029 A 
ATOM     67  C   UNL     1      10.917  12.587   3.875  1.00  0.00     0.049 A 
ATOM     68  H   UNL     1       9.520  11.747   2.534  1.00  0.00     0.167 HD
ATOM     69  C   UNL     1       9.417  14.472   3.293  1.00  0.00     0.074 A 
ATOM     70  C   UNL     1       8.986  15.851   3.387  1.00  0.00     0.031 C 
ATOM     71  C   UNL     1      10.490  13.961   3.946  1.00  0.00     0.037 A 
BRANCH  58  72
ATOM     72  C   UNL     1      11.433   7.946   2.877  1.00  0.00     0.057 A 
ATOM     73  C   UNL     1      12.268   7.370   1.910  1.00  0.00     0.134 A 
ATOM     74  C   UNL     1      11.391   7.336   4.137  1.00  0.00     0.134 A 
ATOM     75  F   UNL     1      12.345   7.897   0.678  1.00  0.00    -0.206 F 
ATOM     76  C   UNL     1      13.003   6.213   2.173  1.00  0.00     0.040 A 
ATOM     77  C   UNL     1      12.146   6.196   4.422  1.00  0.00     0.040 A 
ATOM     78  F   UNL     1      10.619   7.838   5.113  1.00  0.00    -0.206 F 
ATOM     79  C   UNL     1      12.947   5.626   3.435  1.00  0.00     0.006 A 
ENDBRANCH  58  72
BRANCH  59  80
ATOM     80  C   UNL     1       5.674  15.817   0.793  1.00  0.00     0.057 A 
ATOM     81  C   UNL     1       6.193  16.913   0.091  1.00  0.00     0.134 A 
ATOM     82  C   UNL     1       4.342  15.894   1.213  1.00  0.00     0.134 A 
ATOM     83  F   UNL     1       7.470  16.908  -0.320  1.00  0.00    -0.206 F 
ATOM     84  C   UNL     1       5.426  18.052  -0.159  1.00  0.00     0.040 A 
ATOM     85  C   UNL     1       3.555  17.017   0.946  1.00  0.00     0.040 A 
ATOM     86  F   UNL     1       3.783  14.876   1.883  1.00  0.00    -0.206 F 
ATOM     87  C   UNL     1       4.100  18.104   0.266  1.00  0.00     0.006 A 
ENDBRANCH  59  80
BRANCH  71  88
ATOM     88  C   UNL     1      11.309  14.911   4.771  1.00  0.00     0.057 A 
ATOM     89  C   UNL     1      10.840  15.450   5.976  1.00  0.00     0.134 A 
ATOM     90  C   UNL     1      12.601  15.270   4.364  1.00  0.00     0.134 A 
ATOM     91  F   UNL     1       9.607  15.156   6.418  1.00  0.00    -0.206 F 
ATOM     92  C   UNL     1      11.613  16.335   6.729  1.00  0.00     0.040 A 
ATOM     93  C   UNL     1      13.395  16.130   5.123  1.00  0.00     0.040 A 
ATOM     94  F   UNL     1      13.117  14.782   3.225  1.00  0.00    -0.206 F 
ATOM     95  C   UNL     1      12.898  16.672   6.306  1.00  0.00     0.006 A 
ENDBRANCH  71  88
ENDBRANCH  45  46
ENDBRANCH  37  40
ENDBRANCH  35  36
ENDBRANCH  34  35
ENDBRANCH   1  34
TORSDOF 15
