REMARK SMILES O=C(NCCCCNC(=O)c1cc(Br)ccc1OC(=O)c1ccc(F)cc1)c1ccc(-c2c3nc(c(-c4c(F)cccc4F)c4ccc([nH]4)c(-c4c(F)cccc4F)c4nc(c(-c5c(F)cccc5F)c5ccc2[nH]5)C=C4)C=C3)cc1
REMARK SMILES IDX 6 1 5 2 4 3 3 4 1 5 2 6 28 8 29 9 81 10 30 11 80 12 31 13
REMARK SMILES IDX 32 14 33 15 74 16 34 17 79 18 73 19 75 20 35 21 78 22 72 23
REMARK SMILES IDX 71 24 36 26 62 27 45 28 61 29 46 30 49 31 60 32 76 33 47 34
REMARK SMILES IDX 48 35 59 37 77 38 50 39 37 40 38 41 43 42 39 43 40 44 42 45
REMARK SMILES IDX 44 46 41 47 63 48 64 49 69 50 65 51 66 52 68 53 70 54 67 55
REMARK SMILES IDX 51 56 52 57 57 58 53 59 54 60 56 61 58 62 55 63 7 64 8 65
REMARK SMILES IDX 9 66 10 68 11 69 12 70 17 71 13 72 16 73 14 74 15 75 18 76
REMARK SMILES IDX 19 77 20 78 21 79 22 80 27 81 23 82 26 83 24 84 25 85
REMARK H PARENT 3 7 75 25 49 36 8 67
REMARK Flexibility Score: inf
ROOT
ATOM      1  C   UNL     1       4.664  -1.738   3.334  1.00  0.00     0.023 C 
ENDROOT
BRANCH   1   2
ATOM      2  C   UNL     1       5.122  -0.610   2.413  1.00  0.00     0.023 C 
BRANCH   2   3
ATOM      3  C   UNL     1       4.721  -0.750   0.949  1.00  0.00     0.116 C 
BRANCH   3   4
ATOM      4  N   UNL     1       3.282  -0.803   0.751  1.00  0.00    -0.352 N 
ATOM      5  O   UNL     1       1.249  -0.137   0.047  1.00  0.00    -0.269 OA
ATOM      6  C   UNL     1       2.467   0.001  -0.008  1.00  0.00     0.251 C 
ATOM      7  H   UNL     1       2.821  -1.525   1.236  1.00  0.00     0.163 HD
BRANCH   6   8
ATOM      8  C   UNL     1       3.047   1.056  -0.866  1.00  0.00     0.039 A 
ATOM      9  C   UNL     1       4.143   0.801  -1.696  1.00  0.00     0.014 A 
ATOM     10  C   UNL     1       2.465   2.327  -0.847  1.00  0.00     0.014 A 
ATOM     11  C   UNL     1       4.737   1.845  -2.401  1.00  0.00     0.010 A 
ATOM     12  C   UNL     1       3.019   3.357  -1.609  1.00  0.00     0.010 A 
ATOM     13  C   UNL     1       4.178   3.131  -2.367  1.00  0.00    -0.014 A 
BRANCH  13  14
ATOM     14  C   UNL     1       4.782   4.234  -3.153  1.00  0.00     0.031 A 
ATOM     15  C   UNL     1       5.402   5.416  -2.465  1.00  0.00     0.074 A 
ATOM     16  C   UNL     1       4.748   4.177  -4.497  1.00  0.00     0.049 A 
ATOM     17  N   UNL     1       5.894   6.510  -2.989  1.00  0.00    -0.248 NA
ATOM     18  C   UNL     1       5.472   5.368  -0.997  1.00  0.00     0.031 C 
ATOM     19  C   UNL     1       4.183   3.077  -5.279  1.00  0.00     0.029 A 
ATOM     20  N   UNL     1       5.191   5.067  -5.443  1.00  0.00    -0.354 N 
ATOM     21  C   UNL     1       6.308   7.291  -1.918  1.00  0.00     0.074 A 
ATOM     22  C   UNL     1       5.996   6.553  -0.712  1.00  0.00     0.031 C 
ATOM     23  C   UNL     1       4.327   3.348  -6.584  1.00  0.00     0.029 A 
ATOM     24  C   UNL     1       4.939   4.665  -6.731  1.00  0.00     0.049 A 
ATOM     25  H   UNL     1       5.646   5.911  -5.219  1.00  0.00     0.167 HD
ATOM     26  C   UNL     1       6.898   8.509  -1.942  1.00  0.00     0.037 A 
ATOM     27  C   UNL     1       5.147   5.295  -7.901  1.00  0.00     0.037 A 
ATOM     28  C   UNL     1       7.226   9.227  -3.146  1.00  0.00     0.049 A 
ATOM     29  C   UNL     1       5.760   6.664  -7.904  1.00  0.00     0.074 A 
ATOM     30  C   UNL     1       7.872  10.445  -3.272  1.00  0.00     0.029 A 
ATOM     31  N   UNL     1       6.927   8.797  -4.430  1.00  0.00    -0.354 N 
ATOM     32  N   UNL     1       6.165   7.383  -6.886  1.00  0.00    -0.248 NA
ATOM     33  C   UNL     1       5.935   7.315  -9.209  1.00  0.00     0.031 C 
ATOM     34  C   UNL     1       7.922  10.774  -4.630  1.00  0.00     0.029 A 
ATOM     35  C   UNL     1       7.349   9.739  -5.353  1.00  0.00     0.049 A 
ATOM     36  H   UNL     1       6.481   7.948  -4.653  1.00  0.00     0.167 HD
ATOM     37  C   UNL     1       6.657   8.563  -7.425  1.00  0.00     0.074 A 
ATOM     38  C   UNL     1       6.503   8.463  -8.862  1.00  0.00     0.031 C 
ATOM     39  C   UNL     1       7.192   9.628  -6.782  1.00  0.00     0.037 A 
BRANCH  26  40
ATOM     40  C   UNL     1       7.214   9.159  -0.627  1.00  0.00     0.057 A 
ATOM     41  C   UNL     1       6.492  10.280  -0.197  1.00  0.00     0.134 A 
ATOM     42  C   UNL     1       8.264   8.715   0.186  1.00  0.00     0.134 A 
ATOM     43  F   UNL     1       5.479  10.761  -0.933  1.00  0.00    -0.206 F 
ATOM     44  C   UNL     1       6.806  10.939   0.993  1.00  0.00     0.040 A 
ATOM     45  C   UNL     1       8.573   9.352   1.389  1.00  0.00     0.040 A 
ATOM     46  F   UNL     1       8.989   7.642  -0.164  1.00  0.00    -0.206 F 
ATOM     47  C   UNL     1       7.847  10.472   1.792  1.00  0.00     0.006 A 
ENDBRANCH  26  40
BRANCH  27  48
ATOM     48  C   UNL     1       4.760   4.614  -9.159  1.00  0.00     0.057 A 
ATOM     49  C   UNL     1       3.414   4.435  -9.505  1.00  0.00     0.134 A 
ATOM     50  C   UNL     1       5.726   4.051  -9.998  1.00  0.00     0.134 A 
ATOM     51  F   UNL     1       2.444   4.944  -8.732  1.00  0.00    -0.206 F 
ATOM     52  C   UNL     1       3.042   3.691 -10.625  1.00  0.00     0.040 A 
ATOM     53  C   UNL     1       5.368   3.321 -11.133  1.00  0.00     0.040 A 
ATOM     54  F   UNL     1       7.029   4.201  -9.723  1.00  0.00    -0.206 F 
ATOM     55  C   UNL     1       4.021   3.130 -11.441  1.00  0.00     0.006 A 
ENDBRANCH  27  48
BRANCH  39  56
ATOM     56  C   UNL     1       7.676  10.775  -7.615  1.00  0.00     0.057 A 
ATOM     57  C   UNL     1       9.048  11.006  -7.779  1.00  0.00     0.134 A 
ATOM     58  C   UNL     1       6.789  11.710  -8.161  1.00  0.00     0.134 A 
ATOM     59  F   UNL     1       9.947  10.151  -7.270  1.00  0.00    -0.206 F 
ATOM     60  C   UNL     1       9.521  12.141  -8.438  1.00  0.00     0.040 A 
ATOM     61  C   UNL     1       7.251  12.839  -8.839  1.00  0.00     0.040 A 
ATOM     62  F   UNL     1       5.464  11.538  -8.046  1.00  0.00    -0.206 F 
ATOM     63  C   UNL     1       8.621  13.063  -8.968  1.00  0.00     0.006 A 
ENDBRANCH  39  56
ENDBRANCH  13  14
ENDBRANCH   6   8
ENDBRANCH   3   4
ENDBRANCH   2   3
ENDBRANCH   1   2
BRANCH   1  64
ATOM     64  C   UNL     1       4.945  -3.154   2.841  1.00  0.00     0.116 C 
BRANCH  64  65
ATOM     65  N   UNL     1       6.354  -3.410   2.576  1.00  0.00    -0.352 N 
ATOM     66  C   UNL     1       7.172  -4.377   3.110  1.00  0.00     0.255 C 
ATOM     67  H   UNL     1       6.779  -2.806   1.925  1.00  0.00     0.163 HD
ATOM     68  O   UNL     1       8.370  -4.397   2.844  1.00  0.00    -0.269 OA
BRANCH  66  69
ATOM     69  C   UNL     1       6.599  -5.390   4.016  1.00  0.00     0.083 A 
ATOM     70  C   UNL     1       5.533  -6.181   3.566  1.00  0.00     0.033 A 
ATOM     71  C   UNL     1       7.109  -5.586   5.304  1.00  0.00     0.144 A 
ATOM     72  C   UNL     1       4.938  -7.095   4.434  1.00  0.00     0.019 A 
ATOM     73  C   UNL     1       6.523  -6.519   6.162  1.00  0.00     0.049 A 
ATOM     74  Br  UNL     1       3.458  -8.111   3.844  1.00  0.00    -0.051 Br
ATOM     75  C   UNL     1       5.419  -7.258   5.732  1.00  0.00     0.019 A 
BRANCH  71  76
ATOM     76  O   UNL     1       8.283  -4.973   5.768  1.00  0.00    -0.422 OA
BRANCH  76  77
ATOM     77  C   UNL     1       8.255  -3.603   5.942  1.00  0.00     0.343 C 
ATOM     78  O   UNL     1       7.293  -2.862   5.791  1.00  0.00    -0.246 OA
BRANCH  77  79
ATOM     79  C   UNL     1       9.604  -3.137   6.370  1.00  0.00     0.060 A 
ATOM     80  C   UNL     1      10.571  -4.019   6.884  1.00  0.00     0.019 A 
ATOM     81  C   UNL     1       9.898  -1.768   6.281  1.00  0.00     0.019 A 
ATOM     82  C   UNL     1      11.810  -3.532   7.307  1.00  0.00     0.040 A 
ATOM     83  C   UNL     1      11.141  -1.287   6.700  1.00  0.00     0.040 A 
ATOM     84  C   UNL     1      12.084  -2.172   7.212  1.00  0.00     0.123 A 
ATOM     85  F   UNL     1      13.270  -1.709   7.624  1.00  0.00    -0.207 F 
ENDBRANCH  77  79
ENDBRANCH  76  77
ENDBRANCH  71  76
ENDBRANCH  66  69
ENDBRANCH  64  65
ENDBRANCH   1  64
TORSDOF 14
