REMARK SMILES Cc1cc(C(=O)N[C@@H]2C(=O)N3C(C(=O)NCCCCNC(=O)c4ccc(-c5c6nc(c(-c7c(F)cccc7F)c7ccc([nH]7)c(-c7c(F)cccc7F)c7nc(c(-c8c(F)cccc8F)c8ccc5[nH]8)C=C7)C=C6)cc4)=C(CSc4nnc(C)s4)CS[C@H]23)n(C)n1
REMARK SMILES IDX 17 1 16 2 15 3 13 4 14 5 12 7 8 8 9 9 88 10 10 11 11 12
REMARK SMILES IDX 87 13 86 14 77 15 7 16 5 17 6 18 4 20 1 21 2 22 3 23 91 24
REMARK SMILES IDX 89 25 90 26 78 27 79 28 80 29 81 30 85 31 82 32 83 33 84 34
REMARK SMILES IDX 18 35 19 36 20 37 21 38 22 40 23 41 24 42 76 43 25 44 75 45
REMARK SMILES IDX 26 46 27 47 28 48 69 49 29 50 74 51 68 52 70 53 30 54 73 55
REMARK SMILES IDX 67 56 66 57 31 59 57 60 40 61 56 62 41 63 44 64 55 65 71 66
REMARK SMILES IDX 42 67 43 68 54 70 72 71 45 72 32 73 33 74 38 75 34 76 35 77
REMARK SMILES IDX 37 78 39 79 36 80 58 81 59 82 64 83 60 84 61 85 63 86 65 87
REMARK SMILES IDX 62 88 46 89 47 90 52 91 48 92 49 93 51 94 53 95 50 96
REMARK H PARENT 15 6 7 19 20 39 70 58 44 69
REMARK Flexibility Score: inf
ROOT
ATOM      1  C   UNL     1      -5.803  -0.572  -3.864  1.00  0.00     0.023 C 
ENDROOT
BRANCH   1   2
ATOM      2  C   UNL     1      -4.344  -0.646  -4.331  1.00  0.00     0.116 C 
BRANCH   2   3
ATOM      3  N   UNL     1      -3.442  -0.439  -3.219  1.00  0.00    -0.351 N 
ATOM      4  C   UNL     1      -2.660  -1.200  -2.418  1.00  0.00     0.268 C 
ATOM      5  O   UNL     1      -1.897  -0.518  -1.722  1.00  0.00    -0.268 OA
ATOM      6  H   UNL     1      -3.381   0.514  -2.981  1.00  0.00     0.163 HD
BRANCH   4   7
ATOM      7  C   UNL     1      -2.500  -2.732  -2.442  1.00  0.00     0.111 C 
ATOM      8  C   UNL     1      -0.087  -4.083  -0.380  1.00  0.00     0.206 C 
ATOM      9  C   UNL     1      -1.074  -2.880  -0.390  1.00  0.00     0.253 C 
ATOM     10  C   UNL     1      -0.872  -4.495  -1.656  1.00  0.00     0.181 C 
ATOM     11  O   UNL     1      -1.490  -2.120   0.461  1.00  0.00    -0.272 OA
ATOM     12  N   UNL     1      -1.398  -3.143  -1.698  1.00  0.00    -0.290 N 
ATOM     13  S   UNL     1      -2.249  -5.668  -1.433  1.00  0.00    -0.129 SA
ATOM     14  C   UNL     1      -2.920  -5.163  -3.016  1.00  0.00     0.106 C 
ATOM     15  C   UNL     1      -3.338  -3.708  -2.918  1.00  0.00    -0.020 C 
BRANCH   8  16
ATOM     16  N   UNL     1      -0.080  -4.967   0.817  1.00  0.00    -0.336 N 
ATOM     17  C   UNL     1       0.253  -6.305   0.927  1.00  0.00     0.270 C 
ATOM     18  O   UNL     1       0.207  -6.812   2.046  1.00  0.00    -0.268 OA
ATOM     19  H   UNL     1      -0.354  -4.534   1.658  1.00  0.00     0.164 HD
BRANCH  17  20
ATOM     20  C   UNL     1       0.556  -7.053  -0.273  1.00  0.00     0.126 A 
ATOM     21  C   UNL     1       0.686  -7.431  -3.890  1.00  0.00     0.069 C 
ATOM     22  C   UNL     1       0.720  -7.593  -2.416  1.00  0.00     0.060 A 
ATOM     23  C   UNL     1       1.189  -6.678  -1.449  1.00  0.00     0.059 A 
ATOM     24  N   UNL     1       0.158  -8.655  -1.838  1.00  0.00    -0.178 NA
ATOM     25  N   UNL     1       0.162  -8.351  -0.519  1.00  0.00    -0.263 N 
ATOM     26  C   UNL     1      -0.315  -9.358   0.399  1.00  0.00     0.174 C 
ENDBRANCH  17  20
ENDBRANCH   8  16
BRANCH  15  27
ATOM     27  C   UNL     1      -4.841  -3.607  -3.031  1.00  0.00     0.111 C 
BRANCH  27  28
ATOM     28  S   UNL     1      -5.429  -2.821  -1.528  1.00  0.00    -0.089 SA
BRANCH  28  29
ATOM     29  C   UNL     1      -6.909  -3.607  -1.144  1.00  0.00     0.174 A 
ATOM     30  N   UNL     1      -6.981  -4.881  -0.832  1.00  0.00    -0.132 NA
ATOM     31  S   UNL     1      -8.234  -2.673  -0.593  1.00  0.00    -0.091 S 
ATOM     32  N   UNL     1      -7.886  -5.070   0.202  1.00  0.00    -0.143 NA
ATOM     33  C   UNL     1      -8.444  -3.929   0.559  1.00  0.00     0.115 A 
ATOM     34  C   UNL     1      -9.054  -3.630   1.873  1.00  0.00     0.081 C 
ENDBRANCH  28  29
ENDBRANCH  27  28
ENDBRANCH  15  27
ENDBRANCH   4   7
ENDBRANCH   2   3
ENDBRANCH   1   2
BRANCH   1  35
ATOM     35  C   UNL     1      -6.578   0.679  -4.218  1.00  0.00     0.023 C 
BRANCH  35  36
ATOM     36  C   UNL     1      -6.733   0.919  -5.701  1.00  0.00     0.116 C 
BRANCH  36  37
ATOM     37  N   UNL     1      -7.424  -0.145  -6.421  1.00  0.00    -0.352 N 
ATOM     38  C   UNL     1      -8.309   0.000  -7.469  1.00  0.00     0.251 C 
ATOM     39  H   UNL     1      -7.238  -1.066  -6.128  1.00  0.00     0.163 HD
ATOM     40  O   UNL     1      -8.870  -0.965  -7.971  1.00  0.00    -0.269 OA
BRANCH  38  41
ATOM     41  C   UNL     1      -8.607   1.373  -7.923  1.00  0.00     0.039 A 
ATOM     42  C   UNL     1      -9.926   1.826  -7.888  1.00  0.00     0.014 A 
ATOM     43  C   UNL     1      -7.553   2.253  -8.179  1.00  0.00     0.014 A 
ATOM     44  C   UNL     1     -10.178   3.192  -8.011  1.00  0.00     0.010 A 
ATOM     45  C   UNL     1      -7.796   3.617  -8.168  1.00  0.00     0.010 A 
ATOM     46  C   UNL     1      -9.111   4.104  -8.090  1.00  0.00    -0.014 A 
BRANCH  46  47
ATOM     47  C   UNL     1      -9.338   5.571  -8.109  1.00  0.00     0.031 A 
ATOM     48  C   UNL     1      -8.845   6.381  -9.277  1.00  0.00     0.074 A 
ATOM     49  C   UNL     1      -9.913   6.183  -7.054  1.00  0.00     0.049 A 
ATOM     50  N   UNL     1      -8.866   7.677  -9.454  1.00  0.00    -0.248 NA
ATOM     51  C   UNL     1      -8.201   5.638 -10.374  1.00  0.00     0.031 C 
ATOM     52  C   UNL     1     -10.372   5.521  -5.830  1.00  0.00     0.029 A 
ATOM     53  N   UNL     1     -10.204   7.508  -6.839  1.00  0.00    -0.354 N 
ATOM     54  C   UNL     1      -8.223   7.900 -10.664  1.00  0.00     0.074 A 
ATOM     55  C   UNL     1      -7.754   6.619 -11.141  1.00  0.00     0.031 C 
ATOM     56  C   UNL     1     -10.920   6.435  -5.013  1.00  0.00     0.029 A 
ATOM     57  C   UNL     1     -10.816   7.752  -5.633  1.00  0.00     0.049 A 
ATOM     58  H   UNL     1      -9.993   8.217  -7.489  1.00  0.00     0.167 HD
ATOM     59  C   UNL     1      -8.068   9.061 -11.340  1.00  0.00     0.037 A 
ATOM     60  C   UNL     1     -11.245   8.908  -5.091  1.00  0.00     0.037 A 
ATOM     61  C   UNL     1      -8.573  10.327 -10.885  1.00  0.00     0.049 A 
ATOM     62  C   UNL     1     -11.074  10.186  -5.867  1.00  0.00     0.074 A 
ATOM     63  C   UNL     1      -8.532  11.552 -11.525  1.00  0.00     0.029 A 
ATOM     64  N   UNL     1      -9.217  10.527  -9.673  1.00  0.00    -0.354 N 
ATOM     65  N   UNL     1     -10.532  10.371  -7.047  1.00  0.00    -0.248 NA
ATOM     66  C   UNL     1     -11.580  11.415  -5.240  1.00  0.00     0.031 C 
ATOM     67  C   UNL     1      -9.112  12.504 -10.680  1.00  0.00     0.029 A 
ATOM     68  C   UNL     1      -9.561  11.861  -9.537  1.00  0.00     0.049 A 
ATOM     69  H   UNL     1      -9.401   9.825  -9.008  1.00  0.00     0.167 HD
ATOM     70  C   UNL     1     -10.661  11.727  -7.317  1.00  0.00     0.074 A 
ATOM     71  C   UNL     1     -11.343  12.316  -6.184  1.00  0.00     0.031 C 
ATOM     72  C   UNL     1     -10.253  12.424  -8.406  1.00  0.00     0.037 A 
BRANCH  59  73
ATOM     73  C   UNL     1      -7.336   9.006 -12.650  1.00  0.00     0.057 A 
ATOM     74  C   UNL     1      -7.878   8.368 -13.774  1.00  0.00     0.134 A 
ATOM     75  C   UNL     1      -6.081   9.609 -12.794  1.00  0.00     0.134 A 
ATOM     76  F   UNL     1      -9.069   7.754 -13.700  1.00  0.00    -0.206 F 
ATOM     77  C   UNL     1      -7.186   8.305 -14.984  1.00  0.00     0.040 A 
ATOM     78  C   UNL     1      -5.393   9.581 -14.008  1.00  0.00     0.040 A 
ATOM     79  F   UNL     1      -5.504  10.238 -11.759  1.00  0.00    -0.206 F 
ATOM     80  C   UNL     1      -5.942   8.920 -15.105  1.00  0.00     0.006 A 
ENDBRANCH  59  73
BRANCH  60  81
ATOM     81  C   UNL     1     -11.907   8.912  -3.761  1.00  0.00     0.057 A 
ATOM     82  C   UNL     1     -13.274   9.193  -3.636  1.00  0.00     0.134 A 
ATOM     83  C   UNL     1     -11.195   8.652  -2.584  1.00  0.00     0.134 A 
ATOM     84  F   UNL     1     -14.008   9.469  -4.724  1.00  0.00    -0.206 F 
ATOM     85  C   UNL     1     -13.902   9.238  -2.390  1.00  0.00     0.040 A 
ATOM     86  C   UNL     1     -11.816   8.667  -1.334  1.00  0.00     0.040 A 
ATOM     87  F   UNL     1      -9.885   8.367  -2.635  1.00  0.00    -0.206 F 
ATOM     88  C   UNL     1     -13.172   8.969  -1.234  1.00  0.00     0.006 A 
ENDBRANCH  60  81
BRANCH  72  89
ATOM     89  C   UNL     1     -10.570  13.890  -8.445  1.00  0.00     0.057 A 
ATOM     90  C   UNL     1      -9.904  14.815  -7.633  1.00  0.00     0.134 A 
ATOM     91  C   UNL     1     -11.521  14.386  -9.348  1.00  0.00     0.134 A 
ATOM     92  F   UNL     1      -8.991  14.403  -6.740  1.00  0.00    -0.206 F 
ATOM     93  C   UNL     1     -10.188  16.180  -7.700  1.00  0.00     0.040 A 
ATOM     94  C   UNL     1     -11.792  15.750  -9.444  1.00  0.00     0.040 A 
ATOM     95  F   UNL     1     -12.186  13.553 -10.162  1.00  0.00    -0.206 F 
ATOM     96  C   UNL     1     -11.129  16.651  -8.614  1.00  0.00     0.006 A 
ENDBRANCH  72  89
ENDBRANCH  46  47
ENDBRANCH  38  41
ENDBRANCH  36  37
ENDBRANCH  35  36
ENDBRANCH   1  35
TORSDOF 16
