REMARK SMILES CN(CC(=O)NCCCCNC(=O)c1ccc(-c2c3nc(c(-c4c(F)cccc4F)c4ccc([nH]4)c(-c4c(F)cccc4F)c4nc(c(-c5c(F)cccc5F)c5ccc2[nH]5)C=C4)C=C3)cc1)C(=O)c1ccccn1
REMARK SMILES IDX 8 1 7 2 6 3 4 4 5 5 3 7 2 8 1 9 68 10 69 11 70 12 71 13
REMARK SMILES IDX 75 14 72 15 74 16 73 17 9 18 10 19 11 20 12 21 13 23 14 24
REMARK SMILES IDX 15 25 67 26 16 27 66 28 17 29 18 30 19 31 60 32 20 33 65 34
REMARK SMILES IDX 59 35 61 36 21 37 64 38 58 39 57 40 22 42 48 43 31 44 47 45
REMARK SMILES IDX 32 46 35 47 46 48 62 49 33 50 34 51 45 53 63 54 36 55 23 56
REMARK SMILES IDX 24 57 29 58 25 59 26 60 28 61 30 62 27 63 49 64 50 65 55 66
REMARK SMILES IDX 51 67 52 68 54 69 56 70 53 71 37 72 38 73 43 74 39 75 40 76
REMARK SMILES IDX 42 77 44 78 41 79
REMARK H PARENT 6 6 11 22 61 41 35 52
REMARK Flexibility Score: inf
ROOT
ATOM      1  C   UNL     1      -1.943  -0.591   1.527  1.00  0.00     0.023 C 
ENDROOT
BRANCH   1   2
ATOM      2  C   UNL     1      -2.144  -0.168   0.073  1.00  0.00     0.116 C 
BRANCH   2   3
ATOM      3  N   UNL     1      -2.526   1.220  -0.076  1.00  0.00    -0.355 N 
ATOM      4  C   UNL     1      -1.774   2.300  -0.435  1.00  0.00     0.239 C 
ATOM      5  O   UNL     1      -2.390   3.323  -0.751  1.00  0.00    -0.273 OA
ATOM      6  H   UNL     1      -3.473   1.414   0.110  1.00  0.00     0.163 HD
BRANCH   4   7
ATOM      7  C   UNL     1      -0.242   2.233  -0.585  1.00  0.00     0.219 C 
BRANCH   7   8
ATOM      8  N   UNL     1       0.486   1.527   0.475  1.00  0.00    -0.331 N 
ATOM      9  C   UNL     1       1.239   0.335   0.117  1.00  0.00     0.147 C 
BRANCH   8  10
ATOM     10  C   UNL     1       0.778   2.077   1.735  1.00  0.00     0.272 C 
ATOM     11  O   UNL     1       1.420   1.458   2.584  1.00  0.00    -0.267 OA
BRANCH  10  12
ATOM     12  C   UNL     1       0.328   3.459   2.064  1.00  0.00     0.128 A 
ATOM     13  C   UNL     1      -1.014   3.734   2.291  1.00  0.00     0.034 A 
ATOM     14  N   UNL     1       1.315   4.386   2.165  1.00  0.00    -0.251 NA
ATOM     15  C   UNL     1      -1.372   5.044   2.595  1.00  0.00     0.004 A 
ATOM     16  C   UNL     1       0.937   5.637   2.503  1.00  0.00     0.112 A 
ATOM     17  C   UNL     1      -0.380   6.013   2.712  1.00  0.00     0.020 A 
ENDBRANCH  10  12
ENDBRANCH   8  10
ENDBRANCH   7   8
ENDBRANCH   4   7
ENDBRANCH   2   3
ENDBRANCH   1   2
BRANCH   1  18
ATOM     18  C   UNL     1      -3.198  -0.559   2.402  1.00  0.00     0.023 C 
BRANCH  18  19
ATOM     19  C   UNL     1      -4.404  -1.327   1.871  1.00  0.00     0.116 C 
BRANCH  19  20
ATOM     20  N   UNL     1      -4.130  -2.729   1.600  1.00  0.00    -0.352 N 
ATOM     21  C   UNL     1      -4.929  -3.827   1.815  1.00  0.00     0.251 C 
ATOM     22  H   UNL     1      -3.248  -2.919   1.208  1.00  0.00     0.163 HD
ATOM     23  O   UNL     1      -4.494  -4.954   1.596  1.00  0.00    -0.269 OA
BRANCH  21  24
ATOM     24  C   UNL     1      -6.298  -3.659   2.350  1.00  0.00     0.039 A 
ATOM     25  C   UNL     1      -6.713  -4.487   3.397  1.00  0.00     0.014 A 
ATOM     26  C   UNL     1      -7.165  -2.689   1.840  1.00  0.00     0.014 A 
ATOM     27  C   UNL     1      -7.968  -4.293   3.980  1.00  0.00     0.010 A 
ATOM     28  C   UNL     1      -8.386  -2.452   2.466  1.00  0.00     0.010 A 
ATOM     29  C   UNL     1      -8.798  -3.247   3.547  1.00  0.00    -0.014 A 
BRANCH  29  30
ATOM     30  C   UNL     1     -10.090  -2.961   4.222  1.00  0.00     0.031 A 
ATOM     31  C   UNL     1     -11.387  -3.105   3.475  1.00  0.00     0.074 A 
ATOM     32  C   UNL     1     -10.092  -2.503   5.490  1.00  0.00     0.049 A 
ATOM     33  N   UNL     1     -12.604  -2.830   3.871  1.00  0.00    -0.248 NA
ATOM     34  C   UNL     1     -11.303  -3.598   2.091  1.00  0.00     0.031 C 
ATOM     35  C   UNL     1      -8.900  -2.272   6.309  1.00  0.00     0.029 A 
ATOM     36  N   UNL     1     -11.132  -2.138   6.309  1.00  0.00    -0.354 N 
ATOM     37  C   UNL     1     -13.426  -3.102   2.785  1.00  0.00     0.074 A 
ATOM     38  C   UNL     1     -12.566  -3.517   1.698  1.00  0.00     0.031 C 
ATOM     39  C   UNL     1      -9.277  -1.822   7.516  1.00  0.00     0.029 A 
ATOM     40  C   UNL     1     -10.730  -1.698   7.547  1.00  0.00     0.049 A 
ATOM     41  H   UNL     1     -12.076  -2.186   6.034  1.00  0.00     0.167 HD
ATOM     42  C   UNL     1     -14.777  -3.032   2.707  1.00  0.00     0.037 A 
ATOM     43  C   UNL     1     -11.451  -1.238   8.587  1.00  0.00     0.037 A 
ATOM     44  C   UNL     1     -15.634  -2.648   3.797  1.00  0.00     0.049 A 
ATOM     45  C   UNL     1     -12.949  -1.174   8.474  1.00  0.00     0.074 A 
ATOM     46  C   UNL     1     -17.018  -2.610   3.833  1.00  0.00     0.029 A 
ATOM     47  N   UNL     1     -15.191  -2.234   5.043  1.00  0.00    -0.354 N 
ATOM     48  N   UNL     1     -13.717  -1.501   7.463  1.00  0.00    -0.248 NA
ATOM     49  C   UNL     1     -13.682  -0.682   9.650  1.00  0.00     0.031 C 
ATOM     50  C   UNL     1     -17.411  -2.134   5.088  1.00  0.00     0.029 A 
ATOM     51  C   UNL     1     -16.273  -1.920   5.849  1.00  0.00     0.049 A 
ATOM     52  H   UNL     1     -14.247  -2.173   5.316  1.00  0.00     0.167 HD
ATOM     53  C   UNL     1     -15.021  -1.284   7.890  1.00  0.00     0.074 A 
ATOM     54  C   UNL     1     -14.941  -0.810   9.256  1.00  0.00     0.031 C 
ATOM     55  C   UNL     1     -16.180  -1.460   7.210  1.00  0.00     0.037 A 
BRANCH  42  56
ATOM     56  C   UNL     1     -15.416  -3.388   1.396  1.00  0.00     0.057 A 
ATOM     57  C   UNL     1     -15.462  -4.709   0.933  1.00  0.00     0.134 A 
ATOM     58  C   UNL     1     -16.038  -2.407   0.614  1.00  0.00     0.134 A 
ATOM     59  F   UNL     1     -14.876  -5.695   1.630  1.00  0.00    -0.206 F 
ATOM     60  C   UNL     1     -16.085  -5.039  -0.272  1.00  0.00     0.040 A 
ATOM     61  C   UNL     1     -16.686  -2.728  -0.580  1.00  0.00     0.040 A 
ATOM     62  F   UNL     1     -16.036  -1.123   1.002  1.00  0.00    -0.206 F 
ATOM     63  C   UNL     1     -16.707  -4.047  -1.028  1.00  0.00     0.006 A 
ENDBRANCH  42  56
BRANCH  43  64
ATOM     64  C   UNL     1     -10.771  -0.816   9.838  1.00  0.00     0.057 A 
ATOM     65  C   UNL     1     -10.899  -1.562  11.016  1.00  0.00     0.134 A 
ATOM     66  C   UNL     1      -9.999   0.349   9.894  1.00  0.00     0.134 A 
ATOM     67  F   UNL     1     -11.643  -2.678  11.031  1.00  0.00    -0.206 F 
ATOM     68  C   UNL     1     -10.303  -1.152  12.210  1.00  0.00     0.040 A 
ATOM     69  C   UNL     1      -9.376   0.758  11.074  1.00  0.00     0.040 A 
ATOM     70  F   UNL     1      -9.832   1.105   8.798  1.00  0.00    -0.206 F 
ATOM     71  C   UNL     1      -9.535   0.010  12.239  1.00  0.00     0.006 A 
ENDBRANCH  43  64
BRANCH  55  72
ATOM     72  C   UNL     1     -17.457  -1.176   7.945  1.00  0.00     0.057 A 
ATOM     73  C   UNL     1     -17.863   0.130   8.246  1.00  0.00     0.134 A 
ATOM     74  C   UNL     1     -18.308  -2.222   8.323  1.00  0.00     0.134 A 
ATOM     75  F   UNL     1     -17.086   1.175   7.923  1.00  0.00    -0.206 F 
ATOM     76  C   UNL     1     -19.059   0.385   8.918  1.00  0.00     0.040 A 
ATOM     77  C   UNL     1     -19.519  -1.979   8.972  1.00  0.00     0.040 A 
ATOM     78  F   UNL     1     -17.982  -3.496   8.057  1.00  0.00    -0.206 F 
ATOM     79  C   UNL     1     -19.895  -0.672   9.276  1.00  0.00     0.006 A 
ENDBRANCH  55  72
ENDBRANCH  29  30
ENDBRANCH  21  24
ENDBRANCH  19  20
ENDBRANCH  18  19
ENDBRANCH   1  18
TORSDOF 14
