REMARK SMILES CCOc1c(Br)cc(CNc2cccc(C(=O)NCCCCNC(=O)c3ccc(-c4c5nc(c(-c6c(F)cccc6F)c6ccc([nH]6)c(-c6c(F)cccc6F)c6nc(c(-c7c(F)cccc7F)c7ccc4[nH]7)C=C6)C=C5)cc3)c2C)cc1OC
REMARK SMILES IDX 19 1 18 2 16 3 17 4 15 6 11 7 12 8 80 9 13 10 81 11 14 12
REMARK SMILES IDX 10 13 9 15 8 16 4 17 5 18 83 19 6 20 7 21 82 22 3 23 2 24
REMARK SMILES IDX 1 25 84 26 85 27 20 28 21 29 22 30 23 31 24 32 25 34 26 35
REMARK SMILES IDX 27 36 79 37 28 38 78 39 29 40 30 41 31 42 72 43 32 44 77 45
REMARK SMILES IDX 71 46 73 47 33 48 76 49 70 50 69 51 34 53 60 54 43 55 59 56
REMARK SMILES IDX 44 57 47 58 58 59 74 60 45 61 46 62 57 64 75 65 48 66 35 67
REMARK SMILES IDX 36 68 41 69 37 70 38 71 40 72 42 73 39 74 61 75 62 76 67 77
REMARK SMILES IDX 63 78 64 79 66 80 68 81 65 82 49 83 50 84 55 85 51 86 52 87
REMARK SMILES IDX 54 88 56 89 53 90
REMARK H PARENT 18 5 10 14 23 33 73 52 47 63
REMARK Flexibility Score: inf
ROOT
ATOM      1  C   UNL     1      11.364   2.037  -2.598  1.00  0.00     0.116 C 
ENDROOT
BRANCH   1   2
ATOM      2  N   UNL     1      10.111   1.324  -2.817  1.00  0.00    -0.352 N 
ATOM      3  C   UNL     1       9.104   0.787  -2.045  1.00  0.00     0.251 C 
ATOM      4  O   UNL     1       8.113   0.420  -2.681  1.00  0.00    -0.269 OA
ATOM      5  H   UNL     1       9.937   1.190  -3.776  1.00  0.00     0.163 HD
BRANCH   3   6
ATOM      6  C   UNL     1       9.121   0.626  -0.547  1.00  0.00     0.044 A 
ATOM      7  C   UNL     1       8.239  -0.389   1.532  1.00  0.00     0.038 A 
ATOM      8  C   UNL     1       9.072   0.466   2.264  1.00  0.00     0.026 A 
ATOM      9  C   UNL     1       8.323  -0.368   0.108  1.00  0.00    -0.015 A 
ATOM     10  C   UNL     1       9.856   1.419   1.635  1.00  0.00     0.003 A 
ATOM     11  C   UNL     1       7.484  -1.354  -0.678  1.00  0.00     0.047 C 
ATOM     12  C   UNL     1       9.826   1.534   0.250  1.00  0.00     0.014 A 
BRANCH   7  13
ATOM     13  N   UNL     1       7.296  -1.167   2.200  1.00  0.00    -0.381 N 
ATOM     14  H   UNL     1       7.118  -2.080   1.879  1.00  0.00     0.160 HD
BRANCH  13  15
ATOM     15  C   UNL     1       6.565  -0.672   3.360  1.00  0.00     0.149 C 
BRANCH  15  16
ATOM     16  C   UNL     1       5.104  -0.494   3.013  1.00  0.00    -0.024 A 
ATOM     17  C   UNL     1       2.372  -0.166   2.356  1.00  0.00     0.175 A 
ATOM     18  C   UNL     1       3.355   0.662   1.786  1.00  0.00     0.064 A 
ATOM     19  C   UNL     1       2.752  -1.108   3.325  1.00  0.00     0.162 A 
ATOM     20  Br  UNL     1       2.919   2.083   0.601  1.00  0.00    -0.047 Br
ATOM     21  C   UNL     1       4.707   0.485   2.095  1.00  0.00     0.025 A 
ATOM     22  C   UNL     1       4.115  -1.273   3.626  1.00  0.00     0.056 A 
BRANCH  17  23
ATOM     23  O   UNL     1       1.065   0.016   1.982  1.00  0.00    -0.489 OA
BRANCH  23  24
ATOM     24  C   UNL     1       0.614  -0.993   1.065  1.00  0.00     0.226 C 
ATOM     25  C   UNL     1       0.563  -0.454  -0.353  1.00  0.00     0.049 C 
ENDBRANCH  23  24
ENDBRANCH  17  23
BRANCH  19  26
ATOM     26  O   UNL     1       1.952  -1.957   4.042  1.00  0.00    -0.493 OA
ATOM     27  C   UNL     1       0.602  -1.578   4.273  1.00  0.00     0.278 C 
ENDBRANCH  19  26
ENDBRANCH  15  16
ENDBRANCH  13  15
ENDBRANCH   7  13
ENDBRANCH   3   6
ENDBRANCH   1   2
BRANCH   1  28
ATOM     28  C   UNL     1      12.626   1.179  -2.709  1.00  0.00     0.023 C 
BRANCH  28  29
ATOM     29  C   UNL     1      12.952   0.667  -4.115  1.00  0.00     0.023 C 
BRANCH  29  30
ATOM     30  C   UNL     1      13.260   1.747  -5.151  1.00  0.00     0.116 C 
BRANCH  30  31
ATOM     31  N   UNL     1      14.632   2.245  -5.161  1.00  0.00    -0.352 N 
ATOM     32  C   UNL     1      15.151   3.350  -5.825  1.00  0.00     0.251 C 
ATOM     33  H   UNL     1      15.276   1.728  -4.626  1.00  0.00     0.163 HD
ATOM     34  O   UNL     1      16.342   3.613  -5.756  1.00  0.00    -0.269 OA
BRANCH  32  35
ATOM     35  C   UNL     1      14.224   4.285  -6.513  1.00  0.00     0.039 A 
ATOM     36  C   UNL     1      14.329   5.650  -6.219  1.00  0.00     0.014 A 
ATOM     37  C   UNL     1      13.141   3.809  -7.247  1.00  0.00     0.014 A 
ATOM     38  C   UNL     1      13.226   6.477  -6.418  1.00  0.00     0.010 A 
ATOM     39  C   UNL     1      12.014   4.602  -7.360  1.00  0.00     0.010 A 
ATOM     40  C   UNL     1      12.033   5.912  -6.870  1.00  0.00    -0.014 A 
BRANCH  40  41
ATOM     41  C   UNL     1      10.736   6.561  -6.689  1.00  0.00     0.031 A 
ATOM     42  C   UNL     1       9.996   7.135  -7.829  1.00  0.00     0.074 A 
ATOM     43  C   UNL     1      10.176   6.555  -5.458  1.00  0.00     0.049 A 
ATOM     44  N   UNL     1       9.105   8.065  -7.730  1.00  0.00    -0.248 NA
ATOM     45  C   UNL     1      10.240   6.716  -9.202  1.00  0.00     0.031 C 
ATOM     46  C   UNL     1       8.800   6.886  -5.102  1.00  0.00     0.029 A 
ATOM     47  N   UNL     1      10.837   6.437  -4.226  1.00  0.00    -0.354 N 
ATOM     48  C   UNL     1       8.473   8.173  -8.949  1.00  0.00     0.074 A 
ATOM     49  C   UNL     1       9.260   7.356  -9.846  1.00  0.00     0.031 C 
ATOM     50  C   UNL     1       8.760   7.225  -3.803  1.00  0.00     0.029 A 
ATOM     51  C   UNL     1      10.134   7.272  -3.331  1.00  0.00     0.049 A 
ATOM     52  H   UNL     1      11.627   5.886  -4.027  1.00  0.00     0.167 HD
ATOM     53  C   UNL     1       7.275   8.825  -9.035  1.00  0.00     0.037 A 
ATOM     54  C   UNL     1      10.728   8.359  -2.758  1.00  0.00     0.037 A 
ATOM     55  C   UNL     1       6.897   9.419  -7.754  1.00  0.00     0.049 A 
ATOM     56  C   UNL     1      10.036   9.669  -3.057  1.00  0.00     0.074 A 
ATOM     57  C   UNL     1       6.059   8.989  -6.737  1.00  0.00     0.029 A 
ATOM     58  N   UNL     1       7.636  10.476  -7.232  1.00  0.00    -0.354 N 
ATOM     59  N   UNL     1       9.188   9.839  -4.032  1.00  0.00    -0.248 NA
ATOM     60  C   UNL     1      10.298  10.905  -2.321  1.00  0.00     0.031 C 
ATOM     61  C   UNL     1       6.347   9.748  -5.577  1.00  0.00     0.029 A 
ATOM     62  C   UNL     1       7.347  10.651  -5.892  1.00  0.00     0.049 A 
ATOM     63  H   UNL     1       8.274  11.022  -7.745  1.00  0.00     0.167 HD
ATOM     64  C   UNL     1       8.846  11.162  -4.107  1.00  0.00     0.074 A 
ATOM     65  C   UNL     1       9.538  11.784  -2.996  1.00  0.00     0.031 C 
ATOM     66  C   UNL     1       8.046  11.648  -5.099  1.00  0.00     0.037 A 
BRANCH  53  67
ATOM     67  C   UNL     1       6.309   8.630 -10.188  1.00  0.00     0.057 A 
ATOM     68  C   UNL     1       4.915   8.656  -9.982  1.00  0.00     0.134 A 
ATOM     69  C   UNL     1       6.687   8.338 -11.509  1.00  0.00     0.134 A 
ATOM     70  F   UNL     1       4.378   9.053  -8.822  1.00  0.00    -0.206 F 
ATOM     71  C   UNL     1       3.989   8.274 -10.963  1.00  0.00     0.040 A 
ATOM     72  C   UNL     1       5.778   7.900 -12.485  1.00  0.00     0.040 A 
ATOM     73  F   UNL     1       7.945   8.518 -11.931  1.00  0.00    -0.206 F 
ATOM     74  C   UNL     1       4.422   7.846 -12.207  1.00  0.00     0.006 A 
ENDBRANCH  53  67
BRANCH  54  75
ATOM     75  C   UNL     1      12.198   8.216  -2.583  1.00  0.00     0.057 A 
ATOM     76  C   UNL     1      12.693   7.184  -1.766  1.00  0.00     0.134 A 
ATOM     77  C   UNL     1      13.106   8.837  -3.445  1.00  0.00     0.134 A 
ATOM     78  F   UNL     1      11.873   6.542  -0.917  1.00  0.00    -0.206 F 
ATOM     79  C   UNL     1      14.004   6.717  -1.880  1.00  0.00     0.040 A 
ATOM     80  C   UNL     1      14.427   8.387  -3.557  1.00  0.00     0.040 A 
ATOM     81  F   UNL     1      12.709   9.817  -4.269  1.00  0.00    -0.206 F 
ATOM     82  C   UNL     1      14.868   7.302  -2.800  1.00  0.00     0.006 A 
ENDBRANCH  54  75
BRANCH  66  83
ATOM     83  C   UNL     1       7.799  13.107  -5.354  1.00  0.00     0.057 A 
ATOM     84  C   UNL     1       8.779  14.098  -5.201  1.00  0.00     0.134 A 
ATOM     85  C   UNL     1       6.574  13.539  -5.902  1.00  0.00     0.134 A 
ATOM     86  F   UNL     1      10.017  13.795  -4.786  1.00  0.00    -0.206 F 
ATOM     87  C   UNL     1       8.538  15.441  -5.513  1.00  0.00     0.040 A 
ATOM     88  C   UNL     1       6.338  14.869  -6.259  1.00  0.00     0.040 A 
ATOM     89  F   UNL     1       5.567  12.681  -6.125  1.00  0.00    -0.206 F 
ATOM     90  C   UNL     1       7.317  15.830  -6.051  1.00  0.00     0.006 A 
ENDBRANCH  66  83
ENDBRANCH  40  41
ENDBRANCH  32  35
ENDBRANCH  30  31
ENDBRANCH  29  30
ENDBRANCH  28  29
ENDBRANCH   1  28
TORSDOF 17
