REMARK SMILES C[C@H]1c2ccc(O)cc2OC(=O)[C@@H]1CC(=O)N[C@@H](CC1=c2ccccc2=NC1)C(=O)NCCCCNC(=O)c1ccc(-c2c3nc(c(-c4c(F)cccc4F)c4ccc([nH]4)c(-c4c(F)cccc4F)c4nc(c(-c5c(F)cccc5F)c5ccc2[nH]5)C=C4)C=C3)cc1
REMARK SMILES IDX 32 1 31 2 29 3 30 4 18 6 17 7 15 8 16 9 14 11 13 12 1 13
REMARK SMILES IDX 2 14 3 15 4 16 9 17 11 18 5 19 8 20 10 21 12 22 6 23 7 24
REMARK SMILES IDX 19 26 20 27 21 28 28 29 22 30 26 31 27 32 23 33 25 34 24 35
REMARK SMILES IDX 33 36 34 37 35 38 36 39 37 40 38 42 39 43 40 44 92 45 41 46
REMARK SMILES IDX 91 47 42 48 43 49 44 50 85 51 45 52 90 53 84 54 86 55 46 56
REMARK SMILES IDX 89 57 83 58 82 59 47 61 73 62 56 63 72 64 57 65 60 66 71 67
REMARK SMILES IDX 87 68 58 69 59 70 70 72 88 73 61 74 48 75 49 76 54 77 50 78
REMARK SMILES IDX 51 79 53 80 55 81 52 82 74 83 75 84 80 85 76 86 77 87 79 88
REMARK SMILES IDX 81 89 78 90 62 91 63 92 68 93 64 94 65 95 67 96 69 97 66 98
REMARK H PARENT 31 5 17 10 7 25 36 41 86 60 60 71
REMARK Flexibility Score: inf
ROOT
ATOM      1  C   UNL     1      -1.964  -6.593   4.385  1.00  0.00     0.116 C 
ENDROOT
BRANCH   1   2
ATOM      2  N   UNL     1      -2.854  -5.478   4.234  1.00  0.00    -0.354 N 
ATOM      3  C   UNL     1      -2.777  -4.495   3.286  1.00  0.00     0.242 C 
ATOM      4  O   UNL     1      -3.756  -3.750   3.171  1.00  0.00    -0.273 OA
ATOM      5  H   UNL     1      -3.596  -5.414   4.878  1.00  0.00     0.163 HD
BRANCH   3   6
ATOM      6  C   UNL     1      -1.567  -4.362   2.312  1.00  0.00     0.175 C 
BRANCH   6   7
ATOM      7  N   UNL     1      -0.269  -4.196   2.993  1.00  0.00    -0.344 N 
ATOM      8  C   UNL     1       0.445  -3.091   3.336  1.00  0.00     0.221 C 
ATOM      9  O   UNL     1       1.508  -3.250   3.939  1.00  0.00    -0.275 OA
ATOM     10  H   UNL     1       0.160  -5.045   3.247  1.00  0.00     0.164 HD
BRANCH   8  11
ATOM     11  C   UNL     1      -0.029  -1.697   2.979  1.00  0.00     0.116 C 
BRANCH  11  12
ATOM     12  C   UNL     1       0.556  -1.218   1.635  1.00  0.00     0.116 C 
ATOM     13  C   UNL     1       1.243   0.743   0.156  1.00  0.00     0.014 C 
ATOM     14  C   UNL     1       0.493   0.307   1.425  1.00  0.00     0.034 C 
ATOM     15  C   UNL     1      -0.954   0.721   1.352  1.00  0.00    -0.001 A 
ATOM     16  C   UNL     1      -1.394   1.969   1.798  1.00  0.00     0.011 A 
ATOM     17  C   UNL     1      -1.898  -0.188   0.864  1.00  0.00     0.138 A 
ATOM     18  C   UNL     1      -0.198  -1.841   0.492  1.00  0.00     0.315 C 
ATOM     19  C   UNL     1      -2.761   2.266   1.802  1.00  0.00     0.047 A 
ATOM     20  C   UNL     1      -3.259   0.085   0.879  1.00  0.00     0.093 A 
ATOM     21  O   UNL     1      -1.503  -1.418   0.320  1.00  0.00    -0.426 OA
ATOM     22  O   UNL     1       0.286  -2.702  -0.228  1.00  0.00    -0.251 OA
ATOM     23  C   UNL     1      -3.681   1.314   1.363  1.00  0.00     0.119 A 
BRANCH  23  24
ATOM     24  O   UNL     1      -5.022   1.554   1.390  1.00  0.00    -0.508 OA
ATOM     25  H   UNL     1      -5.344   2.374   1.711  1.00  0.00     0.293 HD
ENDBRANCH  23  24
ENDBRANCH  11  12
ENDBRANCH   8  11
ENDBRANCH   6   7
BRANCH   6  26
ATOM     26  C   UNL     1      -1.581  -5.457   1.179  1.00  0.00     0.068 C 
BRANCH  26  27
ATOM     27  C   UNL     1      -0.285  -6.190   0.927  1.00  0.00    -0.037 C 
ATOM     28  C   UNL     1       0.340  -7.152   1.603  1.00  0.00     0.001 A 
ATOM     29  C   UNL     1       0.604  -5.830  -0.233  1.00  0.00     0.174 C 
ATOM     30  C   UNL     1       0.046  -8.146   2.575  1.00  0.00     0.010 A 
ATOM     31  C   UNL     1       1.746  -6.806   1.300  1.00  0.00     0.065 A 
ATOM     32  N   UNL     1       1.976  -6.083   0.250  1.00  0.00    -0.280 NA
ATOM     33  C   UNL     1       1.027  -8.598   3.372  1.00  0.00     0.001 A 
ATOM     34  C   UNL     1       2.738  -7.192   2.329  1.00  0.00     0.028 A 
ATOM     35  C   UNL     1       2.350  -8.003   3.328  1.00  0.00     0.002 A 
ENDBRANCH  26  27
ENDBRANCH   6  26
ENDBRANCH   3   6
ENDBRANCH   1   2
BRANCH   1  36
ATOM     36  C   UNL     1      -2.103  -7.388   5.676  1.00  0.00     0.023 C 
BRANCH  36  37
ATOM     37  C   UNL     1      -3.350  -8.258   5.783  1.00  0.00     0.023 C 
BRANCH  37  38
ATOM     38  C   UNL     1      -3.614  -9.202   4.616  1.00  0.00     0.116 C 
BRANCH  38  39
ATOM     39  N   UNL     1      -2.541 -10.155   4.352  1.00  0.00    -0.352 N 
ATOM     40  C   UNL     1      -2.598 -11.527   4.178  1.00  0.00     0.251 C 
ATOM     41  H   UNL     1      -1.640  -9.763   4.290  1.00  0.00     0.163 HD
ATOM     42  O   UNL     1      -1.597 -12.171   3.950  1.00  0.00    -0.269 OA
BRANCH  40  43
ATOM     43  C   UNL     1      -3.902 -12.194   4.381  1.00  0.00     0.039 A 
ATOM     44  C   UNL     1      -5.030 -11.739   3.704  1.00  0.00     0.014 A 
ATOM     45  C   UNL     1      -4.010 -13.123   5.417  1.00  0.00     0.014 A 
ATOM     46  C   UNL     1      -6.281 -12.002   4.247  1.00  0.00     0.010 A 
ATOM     47  C   UNL     1      -5.275 -13.473   5.889  1.00  0.00     0.010 A 
ATOM     48  C   UNL     1      -6.414 -12.838   5.371  1.00  0.00    -0.014 A 
BRANCH  48  49
ATOM     49  C   UNL     1      -7.738 -12.964   6.036  1.00  0.00     0.031 A 
ATOM     50  C   UNL     1      -7.937 -12.504   7.460  1.00  0.00     0.074 A 
ATOM     51  C   UNL     1      -8.787 -13.424   5.330  1.00  0.00     0.049 A 
ATOM     52  N   UNL     1      -9.017 -12.549   8.201  1.00  0.00    -0.248 NA
ATOM     53  C   UNL     1      -6.771 -11.925   8.148  1.00  0.00     0.031 C 
ATOM     54  C   UNL     1      -8.732 -13.879   3.940  1.00  0.00     0.029 A 
ATOM     55  N   UNL     1     -10.107 -13.557   5.674  1.00  0.00    -0.354 N 
ATOM     56  C   UNL     1      -8.652 -12.049   9.446  1.00  0.00     0.074 A 
ATOM     57  C   UNL     1      -7.246 -11.718   9.368  1.00  0.00     0.031 C 
ATOM     58  C   UNL     1      -9.970 -14.181   3.529  1.00  0.00     0.029 A 
ATOM     59  C   UNL     1     -10.893 -14.015   4.646  1.00  0.00     0.049 A 
ATOM     60  H   UNL     1     -10.457 -13.344   6.569  1.00  0.00     0.167 HD
ATOM     61  C   UNL     1      -9.418 -11.875  10.551  1.00  0.00     0.037 A 
ATOM     62  C   UNL     1     -12.207 -14.294   4.611  1.00  0.00     0.037 A 
ATOM     63  C   UNL     1     -10.828 -12.163  10.614  1.00  0.00     0.049 A 
ATOM     64  C   UNL     1     -13.030 -14.111   5.850  1.00  0.00     0.074 A 
ATOM     65  C   UNL     1     -11.700 -11.987  11.676  1.00  0.00     0.029 A 
ATOM     66  N   UNL     1     -11.575 -12.681   9.567  1.00  0.00    -0.354 N 
ATOM     67  N   UNL     1     -12.664 -13.655   7.023  1.00  0.00    -0.248 NA
ATOM     68  C   UNL     1     -14.443 -14.500   5.764  1.00  0.00     0.031 C 
ATOM     69  C   UNL     1     -12.967 -12.432  11.281  1.00  0.00     0.029 A 
ATOM     70  C   UNL     1     -12.892 -12.851   9.963  1.00  0.00     0.049 A 
ATOM     71  H   UNL     1     -11.222 -12.897   8.674  1.00  0.00     0.167 HD
ATOM     72  C   UNL     1     -13.800 -13.704   7.817  1.00  0.00     0.074 A 
ATOM     73  C   UNL     1     -14.873 -14.206   6.983  1.00  0.00     0.031 C 
ATOM     74  C   UNL     1     -13.941 -13.370   9.124  1.00  0.00     0.037 A 
BRANCH  61  75
ATOM     75  C   UNL     1      -8.738 -11.374  11.793  1.00  0.00     0.057 A 
ATOM     76  C   UNL     1      -8.524 -12.233  12.880  1.00  0.00     0.134 A 
ATOM     77  C   UNL     1      -8.315 -10.046  11.929  1.00  0.00     0.134 A 
ATOM     78  F   UNL     1      -8.910 -13.516  12.820  1.00  0.00    -0.206 F 
ATOM     79  C   UNL     1      -7.910 -11.790  14.053  1.00  0.00     0.040 A 
ATOM     80  C   UNL     1      -7.680  -9.596  13.089  1.00  0.00     0.040 A 
ATOM     81  F   UNL     1      -8.476  -9.175  10.921  1.00  0.00    -0.206 F 
ATOM     82  C   UNL     1      -7.480 -10.469  14.158  1.00  0.00     0.006 A 
ENDBRANCH  61  75
BRANCH  62  83
ATOM     83  C   UNL     1     -12.810 -14.796   3.354  1.00  0.00     0.057 A 
ATOM     84  C   UNL     1     -12.514 -16.075   2.867  1.00  0.00     0.134 A 
ATOM     85  C   UNL     1     -13.666 -13.994   2.593  1.00  0.00     0.134 A 
ATOM     86  F   UNL     1     -11.692 -16.886   3.550  1.00  0.00    -0.206 F 
ATOM     87  C   UNL     1     -13.029 -16.531   1.654  1.00  0.00     0.040 A 
ATOM     88  C   UNL     1     -14.209 -14.447   1.390  1.00  0.00     0.040 A 
ATOM     89  F   UNL     1     -13.998 -12.767   3.019  1.00  0.00    -0.206 F 
ATOM     90  C   UNL     1     -13.882 -15.716   0.913  1.00  0.00     0.006 A 
ENDBRANCH  62  83
BRANCH  74  91
ATOM     91  C   UNL     1     -15.306 -13.544   9.716  1.00  0.00     0.057 A 
ATOM     92  C   UNL     1     -16.122 -12.437   9.976  1.00  0.00     0.134 A 
ATOM     93  C   UNL     1     -15.813 -14.812  10.027  1.00  0.00     0.134 A 
ATOM     94  F   UNL     1     -15.692 -11.195   9.704  1.00  0.00    -0.206 F 
ATOM     95  C   UNL     1     -17.398 -12.585  10.520  1.00  0.00     0.040 A 
ATOM     96  C   UNL     1     -17.095 -14.975  10.552  1.00  0.00     0.040 A 
ATOM     97  F   UNL     1     -15.085 -15.913   9.784  1.00  0.00    -0.206 F 
ATOM     98  C   UNL     1     -17.891 -13.858  10.802  1.00  0.00     0.006 A 
ENDBRANCH  74  91
ENDBRANCH  48  49
ENDBRANCH  40  43
ENDBRANCH  38  39
ENDBRANCH  37  38
ENDBRANCH  36  37
ENDBRANCH   1  36
TORSDOF 17
