REMARK SMILES CC1=C(CC(=O)NCCCCNC(=O)c2ccc(-c3c4nc(c(-c5c(F)cccc5F)c5ccc([nH]5)c(-c5c(F)cccc5F)c5nc(c(-c6c(F)cccc6F)c6ccc3[nH]6)C=C5)C=C4)cc2)c2cc(F)ccc2/C1=C\c1ccc([S@@+](C)[O-])cc1
REMARK SMILES IDX 9 1 8 2 7 3 5 4 6 5 4 7 3 8 1 9 2 10 76 11 69 12 75 13 77 14
REMARK SMILES IDX 70 15 74 16 71 17 73 18 72 19 78 20 79 21 86 22 80 23 85 24
REMARK SMILES IDX 81 25 82 26 83 27 84 28 10 29 11 30 12 31 13 32 14 34 15 35
REMARK SMILES IDX 16 36 68 37 17 38 67 39 18 40 19 41 20 42 61 43 21 44 66 45
REMARK SMILES IDX 60 46 62 47 22 48 65 49 59 50 58 51 23 53 49 54 32 55 48 56
REMARK SMILES IDX 33 57 36 58 47 59 63 60 34 61 35 62 46 64 64 65 37 66 24 67
REMARK SMILES IDX 25 68 30 69 26 70 27 71 29 72 31 73 28 74 50 75 51 76 56 77
REMARK SMILES IDX 52 78 53 79 55 80 57 81 54 82 38 83 39 84 44 85 40 86 41 87
REMARK SMILES IDX 43 88 45 89 42 90
REMARK H PARENT 7 6 12 33 62 52 36 63
REMARK Flexibility Score: inf
ROOT
ATOM      1  C   UNL     1      -2.575  -0.606  -0.485  1.00  0.00     0.023 C 
ENDROOT
BRANCH   1   2
ATOM      2  C   UNL     1      -1.851  -1.838   0.058  1.00  0.00     0.116 C 
BRANCH   2   3
ATOM      3  N   UNL     1      -1.829  -2.926  -0.897  1.00  0.00    -0.356 N 
ATOM      4  C   UNL     1      -0.832  -3.292  -1.753  1.00  0.00     0.224 C 
ATOM      5  O   UNL     1      -1.035  -4.244  -2.509  1.00  0.00    -0.275 OA
ATOM      6  H   UNL     1      -2.645  -3.477  -0.933  1.00  0.00     0.163 HD
BRANCH   4   7
ATOM      7  C   UNL     1       0.510  -2.560  -1.741  1.00  0.00     0.136 C 
BRANCH   7   8
ATOM      8  C   UNL     1       0.428  -1.155  -2.245  1.00  0.00    -0.027 C 
ATOM      9  C   UNL     1       1.299   0.189  -0.245  1.00  0.00     0.045 C 
ATOM     10  C   UNL     1       0.739   0.005  -1.618  1.00  0.00    -0.039 C 
ATOM     11  C   UNL     1       0.429   1.143  -2.501  1.00  0.00    -0.014 C 
ATOM     12  C   UNL     1      -0.017  -0.823  -3.611  1.00  0.00    -0.011 A 
ATOM     13  C   UNL     1       0.025   0.570  -3.801  1.00  0.00    -0.010 A 
ATOM     14  C   UNL     1       0.452   2.435  -2.116  1.00  0.00     0.017 C 
ATOM     15  C   UNL     1      -0.413  -1.667  -4.641  1.00  0.00     0.048 A 
ATOM     16  C   UNL     1      -0.270   1.119  -5.043  1.00  0.00     0.012 A 
ATOM     17  C   UNL     1      -0.759  -1.099  -5.864  1.00  0.00     0.123 A 
ATOM     18  C   UNL     1      -0.681   0.276  -6.076  1.00  0.00     0.040 A 
ATOM     19  F   UNL     1      -1.161  -1.891  -6.867  1.00  0.00    -0.207 F 
BRANCH  14  20
ATOM     20  C   UNL     1       0.097   3.569  -2.972  1.00  0.00    -0.025 A 
ATOM     21  C   UNL     1      -1.232   3.798  -3.349  1.00  0.00     0.013 A 
ATOM     22  C   UNL     1       1.117   4.339  -3.534  1.00  0.00     0.013 A 
ATOM     23  C   UNL     1      -1.522   4.694  -4.384  1.00  0.00     0.061 A 
ATOM     24  C   UNL     1       0.823   5.248  -4.553  1.00  0.00     0.061 A 
ATOM     25  C   UNL     1      -0.490   5.398  -5.018  1.00  0.00     0.152 A 
BRANCH  25  26
ATOM     26  S   UNL     1      -0.786   6.325  -6.545  1.00  0.00    -0.018 S 
ATOM     27  C   UNL     1      -2.176   7.348  -6.029  1.00  0.00     0.346 C 
ATOM     28  O   UNL     1       0.454   7.264  -6.760  1.00  0.00    -0.612 OA
ENDBRANCH  25  26
ENDBRANCH  14  20
ENDBRANCH   7   8
ENDBRANCH   4   7
ENDBRANCH   2   3
ENDBRANCH   1   2
BRANCH   1  29
ATOM     29  C   UNL     1      -4.084  -0.774  -0.670  1.00  0.00     0.023 C 
BRANCH  29  30
ATOM     30  C   UNL     1      -4.851  -1.175   0.582  1.00  0.00     0.116 C 
BRANCH  30  31
ATOM     31  N   UNL     1      -4.707  -0.235   1.685  1.00  0.00    -0.352 N 
ATOM     32  C   UNL     1      -5.635   0.095   2.647  1.00  0.00     0.251 C 
ATOM     33  H   UNL     1      -3.838   0.221   1.751  1.00  0.00     0.163 HD
ATOM     34  O   UNL     1      -5.398   0.974   3.469  1.00  0.00    -0.269 OA
BRANCH  32  35
ATOM     35  C   UNL     1      -6.947  -0.585   2.638  1.00  0.00     0.039 A 
ATOM     36  C   UNL     1      -7.022  -1.976   2.538  1.00  0.00     0.014 A 
ATOM     37  C   UNL     1      -8.111   0.188   2.642  1.00  0.00     0.014 A 
ATOM     38  C   UNL     1      -8.243  -2.576   2.258  1.00  0.00     0.010 A 
ATOM     39  C   UNL     1      -9.348  -0.428   2.438  1.00  0.00     0.010 A 
ATOM     40  C   UNL     1      -9.415  -1.806   2.182  1.00  0.00    -0.014 A 
BRANCH  40  41
ATOM     41  C   UNL     1     -10.690  -2.457   1.784  1.00  0.00     0.031 A 
ATOM     42  C   UNL     1     -11.350  -2.108   0.476  1.00  0.00     0.074 A 
ATOM     43  C   UNL     1     -11.219  -3.413   2.570  1.00  0.00     0.049 A 
ATOM     44  N   UNL     1     -12.459  -2.576  -0.041  1.00  0.00    -0.248 NA
ATOM     45  C   UNL     1     -10.680  -1.099  -0.360  1.00  0.00     0.031 C 
ATOM     46  C   UNL     1     -10.666  -3.854   3.851  1.00  0.00     0.029 A 
ATOM     47  N   UNL     1     -12.328  -4.200   2.395  1.00  0.00    -0.354 N 
ATOM     48  C   UNL     1     -12.628  -1.909  -1.249  1.00  0.00     0.074 A 
ATOM     49  C   UNL     1     -11.524  -0.983  -1.376  1.00  0.00     0.031 C 
ATOM     50  C   UNL     1     -11.414  -4.861   4.327  1.00  0.00     0.029 A 
ATOM     51  C   UNL     1     -12.526  -5.100   3.413  1.00  0.00     0.049 A 
ATOM     52  H   UNL     1     -12.924  -4.128   1.615  1.00  0.00     0.167 HD
ATOM     53  C   UNL     1     -13.605  -2.064  -2.174  1.00  0.00     0.037 A 
ATOM     54  C   UNL     1     -13.503  -6.006   3.598  1.00  0.00     0.037 A 
ATOM     55  C   UNL     1     -14.693  -3.000  -2.061  1.00  0.00     0.049 A 
ATOM     56  C   UNL     1     -14.594  -6.130   2.575  1.00  0.00     0.074 A 
ATOM     57  C   UNL     1     -15.729  -3.234  -2.949  1.00  0.00     0.029 A 
ATOM     58  N   UNL     1     -14.882  -3.862  -0.992  1.00  0.00    -0.354 N 
ATOM     59  N   UNL     1     -14.743  -5.487   1.443  1.00  0.00    -0.248 NA
ATOM     60  C   UNL     1     -15.658  -7.103   2.861  1.00  0.00     0.031 C 
ATOM     61  C   UNL     1     -16.561  -4.219  -2.404  1.00  0.00     0.029 A 
ATOM     62  C   UNL     1     -16.024  -4.621  -1.192  1.00  0.00     0.049 A 
ATOM     63  H   UNL     1     -14.292  -3.926  -0.206  1.00  0.00     0.167 HD
ATOM     64  C   UNL     1     -15.911  -5.980   0.879  1.00  0.00     0.074 A 
ATOM     65  C   UNL     1     -16.418  -6.994   1.781  1.00  0.00     0.031 C 
ATOM     66  C   UNL     1     -16.515  -5.621  -0.280  1.00  0.00     0.037 A 
BRANCH  53  67
ATOM     67  C   UNL     1     -13.547  -1.188  -3.391  1.00  0.00     0.057 A 
ATOM     68  C   UNL     1     -14.454  -0.134  -3.558  1.00  0.00     0.134 A 
ATOM     69  C   UNL     1     -12.611  -1.404  -4.411  1.00  0.00     0.134 A 
ATOM     70  F   UNL     1     -15.378   0.124  -2.620  1.00  0.00    -0.206 F 
ATOM     71  C   UNL     1     -14.433   0.674  -4.696  1.00  0.00     0.040 A 
ATOM     72  C   UNL     1     -12.567  -0.590  -5.545  1.00  0.00     0.040 A 
ATOM     73  F   UNL     1     -11.705  -2.387  -4.305  1.00  0.00    -0.206 F 
ATOM     74  C   UNL     1     -13.484   0.450  -5.692  1.00  0.00     0.006 A 
ENDBRANCH  53  67
BRANCH  54  75
ATOM     75  C   UNL     1     -13.500  -6.857   4.812  1.00  0.00     0.057 A 
ATOM     76  C   UNL     1     -13.771  -6.320   6.076  1.00  0.00     0.134 A 
ATOM     77  C   UNL     1     -13.230  -8.227   4.734  1.00  0.00     0.134 A 
ATOM     78  F   UNL     1     -14.033  -5.012   6.213  1.00  0.00    -0.206 F 
ATOM     79  C   UNL     1     -13.764  -7.113   7.222  1.00  0.00     0.040 A 
ATOM     80  C   UNL     1     -13.243  -9.038   5.870  1.00  0.00     0.040 A 
ATOM     81  F   UNL     1     -12.982  -8.800   3.547  1.00  0.00    -0.206 F 
ATOM     82  C   UNL     1     -13.506  -8.479   7.120  1.00  0.00     0.006 A 
ENDBRANCH  54  75
BRANCH  66  83
ATOM     83  C   UNL     1     -17.779  -6.343  -0.634  1.00  0.00     0.057 A 
ATOM     84  C   UNL     1     -17.792  -7.311  -1.646  1.00  0.00     0.134 A 
ATOM     85  C   UNL     1     -18.987  -6.072   0.022  1.00  0.00     0.134 A 
ATOM     86  F   UNL     1     -16.669  -7.612  -2.314  1.00  0.00    -0.206 F 
ATOM     87  C   UNL     1     -18.962  -7.987  -1.991  1.00  0.00     0.040 A 
ATOM     88  C   UNL     1     -20.159  -6.757  -0.300  1.00  0.00     0.040 A 
ATOM     89  F   UNL     1     -19.035  -5.167   1.011  1.00  0.00    -0.206 F 
ATOM     90  C   UNL     1     -20.149  -7.715  -1.312  1.00  0.00     0.006 A 
ENDBRANCH  66  83
ENDBRANCH  40  41
ENDBRANCH  32  35
ENDBRANCH  30  31
ENDBRANCH  29  30
ENDBRANCH   1  29
TORSDOF 14
