REMARK SMILES COc1ccc(C(=O)C2=C(NCCCCNC(=O)c3ccc(-c4c5nc(c(-c6c(F)cccc6F)c6ccc([nH]6)c(-c6c(F)cccc6F)c6nc(c(-c7c(F)cccc7F)c7ccc4[nH]7)C=C6)C=C5)cc3)C(=O)N(CC(=O)[O-])[C@H]2c2ccccc2)cc1
REMARK SMILES IDX 13 1 12 2 11 3 10 5 9 6 80 7 73 8 75 9 74 10 7 11 8 12 6 13
REMARK SMILES IDX 3 14 4 15 88 16 5 17 87 18 2 19 1 20 81 21 82 22 86 23 83 24
REMARK SMILES IDX 85 25 84 26 76 27 77 28 78 29 79 30 14 31 15 32 16 33 17 34
REMARK SMILES IDX 18 36 19 37 20 38 72 39 21 40 71 41 22 42 23 43 24 44 65 45
REMARK SMILES IDX 25 46 70 47 64 48 66 49 26 50 69 51 63 52 62 53 27 55 53 56
REMARK SMILES IDX 36 57 52 58 37 59 40 60 51 61 67 62 38 63 39 64 50 66 68 67
REMARK SMILES IDX 41 68 28 69 29 70 34 71 30 72 31 73 33 74 35 75 32 76 54 77
REMARK SMILES IDX 55 78 60 79 56 80 57 81 59 82 61 83 58 84 42 85 43 86 48 87
REMARK SMILES IDX 44 88 45 89 47 90 49 91 46 92
REMARK H PARENT 11 4 16 35 66 54 40 65
REMARK Flexibility Score: inf
ROOT
ATOM      1  C   UNL     1       1.061   7.106  -1.299  1.00  0.00     0.023 C 
ENDROOT
BRANCH   1   2
ATOM      2  C   UNL     1       1.528   7.118  -2.753  1.00  0.00     0.113 C 
BRANCH   2   3
ATOM      3  N   UNL     1       2.970   7.112  -2.815  1.00  0.00    -0.380 N 
ATOM      4  H   UNL     1       3.410   7.900  -2.422  1.00  0.00     0.160 HD
BRANCH   3   5
ATOM      5  C   UNL     1       3.817   6.172  -3.341  1.00  0.00     0.110 C 
ATOM      6  C   UNL     1       3.694   4.970  -3.921  1.00  0.00     0.056 C 
ATOM      7  C   UNL     1       4.989   4.360  -4.374  1.00  0.00     0.153 C 
ATOM      8  C   UNL     1       5.292   6.456  -3.385  1.00  0.00     0.271 C 
ATOM      9  N   UNL     1       5.909   5.423  -4.045  1.00  0.00    -0.320 N 
ATOM     10  O   UNL     1       5.817   7.449  -2.904  1.00  0.00    -0.267 OA
BRANCH   6  11
ATOM     11  C   UNL     1       2.398   4.370  -4.277  1.00  0.00     0.193 C 
ATOM     12  O   UNL     1       1.874   4.662  -5.349  1.00  0.00    -0.289 OA
BRANCH  11  13
ATOM     13  C   UNL     1       1.736   3.403  -3.351  1.00  0.00     0.023 A 
ATOM     14  C   UNL     1       0.544   1.366  -1.806  1.00  0.00     0.118 A 
ATOM     15  C   UNL     1      -0.122   1.899  -2.911  1.00  0.00     0.047 A 
ATOM     16  C   UNL     1       1.778   1.898  -1.442  1.00  0.00     0.047 A 
ATOM     17  C   UNL     1       0.471   2.904  -3.687  1.00  0.00     0.016 A 
ATOM     18  C   UNL     1       2.344   2.938  -2.185  1.00  0.00     0.016 A 
BRANCH  14  19
ATOM     19  O   UNL     1      -0.098   0.340  -1.172  1.00  0.00    -0.497 OA
ATOM     20  C   UNL     1       0.522  -0.170   0.004  1.00  0.00     0.278 C 
ENDBRANCH  14  19
ENDBRANCH  11  13
ENDBRANCH   6  11
BRANCH   7  21
ATOM     21  C   UNL     1       5.342   3.074  -3.637  1.00  0.00    -0.021 A 
ATOM     22  C   UNL     1       5.771   3.090  -2.292  1.00  0.00     0.006 A 
ATOM     23  C   UNL     1       5.185   1.834  -4.271  1.00  0.00     0.006 A 
ATOM     24  C   UNL     1       5.990   1.903  -1.593  1.00  0.00     0.000 A 
ATOM     25  C   UNL     1       5.422   0.647  -3.572  1.00  0.00     0.000 A 
ATOM     26  C   UNL     1       5.811   0.682  -2.233  1.00  0.00     0.000 A 
ENDBRANCH   7  21
BRANCH   9  27
ATOM     27  C   UNL     1       7.348   5.352  -4.257  1.00  0.00     0.173 C 
BRANCH  27  28
ATOM     28  C   UNL     1       7.888   6.290  -5.324  1.00  0.00     0.061 C 
ATOM     29  O   UNL     1       9.072   6.517  -5.523  1.00  0.00    -0.548 OA
ATOM     30  O   UNL     1       6.957   6.803  -6.153  1.00  0.00    -0.548 OA
ENDBRANCH  27  28
ENDBRANCH   9  27
ENDBRANCH   3   5
ENDBRANCH   2   3
ENDBRANCH   1   2
BRANCH   1  31
ATOM     31  C   UNL     1       1.375   8.382  -0.515  1.00  0.00     0.023 C 
BRANCH  31  32
ATOM     32  C   UNL     1       0.857   9.671  -1.143  1.00  0.00     0.116 C 
BRANCH  32  33
ATOM     33  N   UNL     1      -0.584   9.668  -1.343  1.00  0.00    -0.352 N 
ATOM     34  C   UNL     1      -1.504  10.643  -1.049  1.00  0.00     0.251 C 
ATOM     35  H   UNL     1      -0.952   8.848  -1.746  1.00  0.00     0.163 HD
ATOM     36  O   UNL     1      -2.704  10.410  -1.158  1.00  0.00    -0.269 OA
BRANCH  34  37
ATOM     37  C   UNL     1      -1.050  11.969  -0.577  1.00  0.00     0.039 A 
ATOM     38  C   UNL     1      -1.725  12.573   0.488  1.00  0.00     0.014 A 
ATOM     39  C   UNL     1       0.027  12.620  -1.183  1.00  0.00     0.014 A 
ATOM     40  C   UNL     1      -1.287  13.807   0.974  1.00  0.00     0.010 A 
ATOM     41  C   UNL     1       0.514  13.806  -0.643  1.00  0.00     0.010 A 
ATOM     42  C   UNL     1      -0.149  14.422   0.429  1.00  0.00    -0.014 A 
BRANCH  42  43
ATOM     43  C   UNL     1       0.334  15.734   0.932  1.00  0.00     0.031 A 
ATOM     44  C   UNL     1       0.345  16.929   0.015  1.00  0.00     0.074 A 
ATOM     45  C   UNL     1       0.801  15.845   2.191  1.00  0.00     0.049 A 
ATOM     46  N   UNL     1       0.789  18.140   0.237  1.00  0.00    -0.248 NA
ATOM     47  C   UNL     1      -0.192  16.729  -1.342  1.00  0.00     0.031 C 
ATOM     48  C   UNL     1       0.883  14.755   3.166  1.00  0.00     0.029 A 
ATOM     49  N   UNL     1       1.304  16.930   2.865  1.00  0.00    -0.354 N 
ATOM     50  C   UNL     1       0.594  18.837  -0.949  1.00  0.00     0.074 A 
ATOM     51  C   UNL     1       0.054  17.900  -1.909  1.00  0.00     0.031 C 
ATOM     52  C   UNL     1       1.384  15.232   4.317  1.00  0.00     0.029 A 
ATOM     53  C   UNL     1       1.695  16.648   4.153  1.00  0.00     0.049 A 
ATOM     54  H   UNL     1       1.377  17.826   2.465  1.00  0.00     0.167 HD
ATOM     55  C   UNL     1       0.812  20.148  -1.208  1.00  0.00     0.037 A 
ATOM     56  C   UNL     1       2.250  17.442   5.089  1.00  0.00     0.037 A 
ATOM     57  C   UNL     1       1.327  21.087  -0.247  1.00  0.00     0.049 A 
ATOM     58  C   UNL     1       2.496  18.892   4.767  1.00  0.00     0.074 A 
ATOM     59  C   UNL     1       1.557  22.442  -0.404  1.00  0.00     0.029 A 
ATOM     60  N   UNL     1       1.685  20.767   1.053  1.00  0.00    -0.354 N 
ATOM     61  N   UNL     1       2.256  19.549   3.658  1.00  0.00    -0.248 NA
ATOM     62  C   UNL     1       3.079  19.716   5.835  1.00  0.00     0.031 C 
ATOM     63  C   UNL     1       2.091  22.936   0.790  1.00  0.00     0.029 A 
ATOM     64  C   UNL     1       2.141  21.899   1.708  1.00  0.00     0.049 A 
ATOM     65  H   UNL     1       1.625  19.868   1.452  1.00  0.00     0.167 HD
ATOM     66  C   UNL     1       2.616  20.867   3.910  1.00  0.00     0.074 A 
ATOM     67  C   UNL     1       3.078  20.919   5.280  1.00  0.00     0.031 C 
ATOM     68  C   UNL     1       2.570  21.939   3.082  1.00  0.00     0.037 A 
BRANCH  55  69
ATOM     69  C   UNL     1       0.474  20.651  -2.582  1.00  0.00     0.057 A 
ATOM     70  C   UNL     1      -0.853  20.764  -3.018  1.00  0.00     0.134 A 
ATOM     71  C   UNL     1       1.480  21.075  -3.460  1.00  0.00     0.134 A 
ATOM     72  F   UNL     1      -1.863  20.362  -2.232  1.00  0.00    -0.206 F 
ATOM     73  C   UNL     1      -1.167  21.261  -4.284  1.00  0.00     0.040 A 
ATOM     74  C   UNL     1       1.177  21.602  -4.717  1.00  0.00     0.040 A 
ATOM     75  F   UNL     1       2.771  21.000  -3.105  1.00  0.00    -0.206 F 
ATOM     76  C   UNL     1      -0.150  21.691  -5.133  1.00  0.00     0.006 A 
ENDBRANCH  55  69
BRANCH  56  77
ATOM     77  C   UNL     1       2.604  16.899   6.427  1.00  0.00     0.057 A 
ATOM     78  C   UNL     1       1.938  17.327   7.583  1.00  0.00     0.134 A 
ATOM     79  C   UNL     1       3.650  15.984   6.591  1.00  0.00     0.134 A 
ATOM     80  F   UNL     1       0.938  18.217   7.495  1.00  0.00    -0.206 F 
ATOM     81  C   UNL     1       2.325  16.898   8.853  1.00  0.00     0.040 A 
ATOM     82  C   UNL     1       4.027  15.521   7.853  1.00  0.00     0.040 A 
ATOM     83  F   UNL     1       4.323  15.525   5.526  1.00  0.00    -0.206 F 
ATOM     84  C   UNL     1       3.373  15.991   8.990  1.00  0.00     0.006 A 
ENDBRANCH  56  77
BRANCH  68  85
ATOM     85  C   UNL     1       2.963  23.270   3.655  1.00  0.00     0.057 A 
ATOM     86  C   UNL     1       4.288  23.578   3.988  1.00  0.00     0.134 A 
ATOM     87  C   UNL     1       1.999  24.268   3.849  1.00  0.00     0.134 A 
ATOM     88  F   UNL     1       5.258  22.664   3.837  1.00  0.00    -0.206 F 
ATOM     89  C   UNL     1       4.635  24.819   4.526  1.00  0.00     0.040 A 
ATOM     90  C   UNL     1       2.338  25.523   4.355  1.00  0.00     0.040 A 
ATOM     91  F   UNL     1       0.713  24.044   3.539  1.00  0.00    -0.206 F 
ATOM     92  C   UNL     1       3.659  25.798   4.705  1.00  0.00     0.006 A 
ENDBRANCH  68  85
ENDBRANCH  42  43
ENDBRANCH  34  37
ENDBRANCH  32  33
ENDBRANCH  31  32
ENDBRANCH   1  31
TORSDOF 17
