REMARK SMILES CC(C)C[N@@H+](C[C@@H](C)C(=O)NCCCCNC(=O)c1ccc(-c2c3nc(c(-c4c(F)cccc4F)c4ccc([nH]4)c(-c4c(F)cccc4F)c4nc(c(-c5c(F)cccc5F)c5ccc2[nH]5)C=C4)C=C3)cc1)C1CCCC1
REMARK SMILES IDX 12 1 11 2 9 3 10 4 7 6 8 7 6 8 5 9 4 11 2 12 1 13 3 14 73 15
REMARK SMILES IDX 74 16 77 17 75 18 76 19 13 20 14 21 15 22 16 23 17 24 18 26
REMARK SMILES IDX 19 27 20 28 72 29 21 30 71 31 22 32 23 33 24 34 65 35 25 36
REMARK SMILES IDX 70 37 64 38 66 39 26 40 69 41 63 42 62 43 27 45 53 46 36 47
REMARK SMILES IDX 52 48 37 49 40 50 51 51 67 52 38 53 39 54 50 56 68 57 41 58
REMARK SMILES IDX 28 59 29 60 34 61 30 62 31 63 33 64 35 65 32 66 54 67 55 68
REMARK SMILES IDX 60 69 56 70 57 71 59 72 61 73 58 74 42 75 43 76 48 77 44 78
REMARK SMILES IDX 45 79 47 80 49 81 46 82
REMARK H PARENT 11 5 5 10 16 25 66 44 40 55
REMARK Flexibility Score: inf
ROOT
ATOM      1  C   UNL     1      -5.598  -1.934  -1.295  1.00  0.00     0.116 C 
ENDROOT
BRANCH   1   2
ATOM      2  N   UNL     1      -5.997  -1.119  -0.167  1.00  0.00    -0.356 N 
ATOM      3  C   UNL     1      -5.288  -0.198   0.546  1.00  0.00     0.228 C 
ATOM      4  O   UNL     1      -5.853   0.346   1.498  1.00  0.00    -0.275 OA
ATOM      5  H   UNL     1      -6.926  -1.250   0.133  1.00  0.00     0.163 HD
BRANCH   3   6
ATOM      6  C   UNL     1      -3.857   0.184   0.164  1.00  0.00     0.130 C 
ATOM      7  C   UNL     1      -3.864   0.801  -1.232  1.00  0.00     0.024 C 
BRANCH   6   8
ATOM      8  C   UNL     1      -2.889  -0.989   0.457  1.00  0.00     0.275 C 
BRANCH   8   9
ATOM      9  N   UNL     1      -1.433  -0.841   0.284  1.00  0.00    -0.332 N 
ATOM     10  H   UNL     1      -1.076  -1.734   0.626  1.00  0.00     0.348 HD
BRANCH   9  11
ATOM     11  C   UNL     1      -0.844   0.162   1.185  1.00  0.00     0.265 C 
BRANCH  11  12
ATOM     12  C   UNL     1       0.625  -0.058   1.644  1.00  0.00     0.038 C 
ATOM     13  C   UNL     1       1.691   0.299   0.606  1.00  0.00     0.013 C 
ATOM     14  C   UNL     1       0.890   0.797   2.893  1.00  0.00     0.013 C 
ENDBRANCH  11  12
ENDBRANCH   9  11
BRANCH   9  15
ATOM     15  C   UNL     1      -0.855  -0.986  -1.052  1.00  0.00     0.184 C 
ATOM     16  C   UNL     1      -1.510  -1.973  -2.034  1.00  0.00     0.065 C 
ATOM     17  C   UNL     1      -0.611   0.295  -1.873  1.00  0.00     0.065 C 
ATOM     18  C   UNL     1      -0.984  -1.550  -3.397  1.00  0.00     0.006 C 
ATOM     19  C   UNL     1      -0.964  -0.033  -3.321  1.00  0.00     0.006 C 
ENDBRANCH   9  15
ENDBRANCH   8   9
ENDBRANCH   6   8
ENDBRANCH   3   6
ENDBRANCH   1   2
BRANCH   1  20
ATOM     20  C   UNL     1      -5.657  -3.421  -0.958  1.00  0.00     0.023 C 
BRANCH  20  21
ATOM     21  C   UNL     1      -7.063  -4.010  -1.044  1.00  0.00     0.023 C 
BRANCH  21  22
ATOM     22  C   UNL     1      -7.705  -3.918  -2.424  1.00  0.00     0.116 C 
BRANCH  22  23
ATOM     23  N   UNL     1      -6.945  -4.599  -3.462  1.00  0.00    -0.352 N 
ATOM     24  C   UNL     1      -7.434  -5.313  -4.532  1.00  0.00     0.251 C 
ATOM     25  H   UNL     1      -5.965  -4.543  -3.389  1.00  0.00     0.163 HD
ATOM     26  O   UNL     1      -6.688  -5.930  -5.278  1.00  0.00    -0.269 OA
BRANCH  24  27
ATOM     27  C   UNL     1      -8.895  -5.348  -4.734  1.00  0.00     0.039 A 
ATOM     28  C   UNL     1      -9.541  -6.583  -4.782  1.00  0.00     0.014 A 
ATOM     29  C   UNL     1      -9.622  -4.155  -4.776  1.00  0.00     0.014 A 
ATOM     30  C   UNL     1     -10.935  -6.623  -4.802  1.00  0.00     0.010 A 
ATOM     31  C   UNL     1     -11.009  -4.199  -4.720  1.00  0.00     0.010 A 
ATOM     32  C   UNL     1     -11.679  -5.433  -4.731  1.00  0.00    -0.014 A 
BRANCH  32  33
ATOM     33  C   UNL     1     -13.160  -5.455  -4.670  1.00  0.00     0.031 A 
ATOM     34  C   UNL     1     -13.964  -4.850  -5.785  1.00  0.00     0.074 A 
ATOM     35  C   UNL     1     -13.777  -5.953  -3.581  1.00  0.00     0.049 A 
ATOM     36  N   UNL     1     -15.260  -4.702  -5.885  1.00  0.00    -0.248 NA
ATOM     37  C   UNL     1     -13.208  -4.311  -6.927  1.00  0.00     0.031 C 
ATOM     38  C   UNL     1     -13.106  -6.515  -2.407  1.00  0.00     0.029 A 
ATOM     39  N   UNL     1     -15.112  -6.054  -3.279  1.00  0.00    -0.354 N 
ATOM     40  C   UNL     1     -15.472  -4.044  -7.089  1.00  0.00     0.074 A 
ATOM     41  C   UNL     1     -14.170  -3.768  -7.656  1.00  0.00     0.031 C 
ATOM     42  C   UNL     1     -14.032  -6.921  -1.523  1.00  0.00     0.029 A 
ATOM     43  C   UNL     1     -15.358  -6.619  -2.051  1.00  0.00     0.049 A 
ATOM     44  H   UNL     1     -15.826  -5.752  -3.886  1.00  0.00     0.167 HD
ATOM     45  C   UNL     1     -16.645  -3.723  -7.682  1.00  0.00     0.037 A 
ATOM     46  C   UNL     1     -16.524  -6.860  -1.421  1.00  0.00     0.037 A 
ATOM     47  C   UNL     1     -17.938  -4.023  -7.128  1.00  0.00     0.049 A 
ATOM     48  C   UNL     1     -17.814  -6.502  -2.105  1.00  0.00     0.074 A 
ATOM     49  C   UNL     1     -19.187  -3.790  -7.677  1.00  0.00     0.029 A 
ATOM     50  N   UNL     1     -18.147  -4.624  -5.896  1.00  0.00    -0.354 N 
ATOM     51  N   UNL     1     -18.002  -5.941  -3.275  1.00  0.00    -0.248 NA
ATOM     52  C   UNL     1     -19.056  -6.818  -1.384  1.00  0.00     0.031 C 
ATOM     53  C   UNL     1     -20.153  -4.219  -6.760  1.00  0.00     0.029 A 
ATOM     54  C   UNL     1     -19.505  -4.757  -5.660  1.00  0.00     0.049 A 
ATOM     55  H   UNL     1     -17.435  -4.914  -5.280  1.00  0.00     0.167 HD
ATOM     56  C   UNL     1     -19.378  -5.860  -3.442  1.00  0.00     0.074 A 
ATOM     57  C   UNL     1     -19.978  -6.444  -2.260  1.00  0.00     0.031 C 
ATOM     58  C   UNL     1     -20.083  -5.349  -4.481  1.00  0.00     0.037 A 
BRANCH  45  59
ATOM     59  C   UNL     1     -16.578  -3.020  -9.006  1.00  0.00     0.057 A 
ATOM     60  C   UNL     1     -16.147  -3.677 -10.167  1.00  0.00     0.134 A 
ATOM     61  C   UNL     1     -16.967  -1.681  -9.128  1.00  0.00     0.134 A 
ATOM     62  F   UNL     1     -15.746  -4.956 -10.115  1.00  0.00    -0.206 F 
ATOM     63  C   UNL     1     -16.080  -3.019 -11.396  1.00  0.00     0.040 A 
ATOM     64  C   UNL     1     -16.931  -1.020 -10.357  1.00  0.00     0.040 A 
ATOM     65  F   UNL     1     -17.393  -0.994  -8.057  1.00  0.00    -0.206 F 
ATOM     66  C   UNL     1     -16.480  -1.688 -11.494  1.00  0.00     0.006 A 
ENDBRANCH  45  59
BRANCH  46  67
ATOM     67  C   UNL     1     -16.527  -7.497  -0.080  1.00  0.00     0.057 A 
ATOM     68  C   UNL     1     -16.972  -8.812   0.093  1.00  0.00     0.134 A 
ATOM     69  C   UNL     1     -16.095  -6.806   1.058  1.00  0.00     0.134 A 
ATOM     70  F   UNL     1     -17.414  -9.519  -0.958  1.00  0.00    -0.206 F 
ATOM     71  C   UNL     1     -17.007  -9.413   1.353  1.00  0.00     0.040 A 
ATOM     72  C   UNL     1     -16.102  -7.402   2.320  1.00  0.00     0.040 A 
ATOM     73  F   UNL     1     -15.649  -5.545   0.957  1.00  0.00    -0.206 F 
ATOM     74  C   UNL     1     -16.566  -8.708   2.471  1.00  0.00     0.006 A 
ENDBRANCH  46  67
BRANCH  58  75
ATOM     75  C   UNL     1     -21.578  -5.428  -4.400  1.00  0.00     0.057 A 
ATOM     76  C   UNL     1     -22.316  -4.604  -3.541  1.00  0.00     0.134 A 
ATOM     77  C   UNL     1     -22.290  -6.310  -5.223  1.00  0.00     0.134 A 
ATOM     78  F   UNL     1     -21.692  -3.747  -2.718  1.00  0.00    -0.206 F 
ATOM     79  C   UNL     1     -23.709  -4.669  -3.489  1.00  0.00     0.040 A 
ATOM     80  C   UNL     1     -23.683  -6.366  -5.198  1.00  0.00     0.040 A 
ATOM     81  F   UNL     1     -21.642  -7.120  -6.074  1.00  0.00    -0.206 F 
ATOM     82  C   UNL     1     -24.397  -5.547  -4.325  1.00  0.00     0.006 A 
ENDBRANCH  58  75
ENDBRANCH  32  33
ENDBRANCH  24  27
ENDBRANCH  22  23
ENDBRANCH  21  22
ENDBRANCH  20  21
ENDBRANCH   1  20
TORSDOF 16
