REMARK SMILES CCN(C(=O)C1(C)CCCC1)[C@@H]1COC[C@H]1C(=O)NCCCCNC(=O)c1ccc(-c2c3nc(c(-c4c(F)cccc4F)c4ccc([nH]4)c(-c4c(F)cccc4F)c4nc(c(-c5c(F)cccc5F)c5ccc2[nH]5)C=C4)C=C3)cc1
REMARK SMILES IDX 21 1 20 2 19 3 17 4 18 5 16 7 12 8 13 9 14 10 15 11 3 12
REMARK SMILES IDX 2 13 1 14 4 15 5 16 6 17 7 18 8 19 11 20 9 21 10 22 22 23
REMARK SMILES IDX 23 24 24 25 25 26 26 28 27 29 28 30 80 31 29 32 79 33 30 34
REMARK SMILES IDX 31 35 32 36 73 37 33 38 78 39 72 40 74 41 34 42 77 43 71 44
REMARK SMILES IDX 70 45 35 47 61 48 44 49 60 50 45 51 48 52 59 53 75 54 46 55
REMARK SMILES IDX 47 56 58 58 76 59 49 60 36 61 37 62 42 63 38 64 39 65 41 66
REMARK SMILES IDX 43 67 40 68 62 69 63 70 68 71 64 72 65 73 67 74 69 75 66 76
REMARK SMILES IDX 50 77 51 78 56 79 52 80 53 81 55 82 57 83 54 84
REMARK H PARENT 19 6 24 27 74 46 48 57
REMARK Flexibility Score: inf
ROOT
ATOM      1  C   UNL     1       3.491   3.564  -4.382  1.00  0.00     0.023 C 
ENDROOT
BRANCH   1   2
ATOM      2  C   UNL     1       4.220   3.995  -3.111  1.00  0.00     0.116 C 
BRANCH   2   3
ATOM      3  N   UNL     1       3.457   4.967  -2.349  1.00  0.00    -0.356 N 
ATOM      4  C   UNL     1       2.847   4.875  -1.140  1.00  0.00     0.227 C 
ATOM      5  O   UNL     1       2.270   5.885  -0.724  1.00  0.00    -0.275 OA
ATOM      6  H   UNL     1       3.366   5.845  -2.785  1.00  0.00     0.163 HD
BRANCH   4   7
ATOM      7  C   UNL     1       2.895   3.630  -0.276  1.00  0.00     0.129 C 
ATOM      8  C   UNL     1       2.315   2.364  -0.904  1.00  0.00     0.125 C 
ATOM      9  C   UNL     1       3.257   1.284  -0.376  1.00  0.00     0.186 C 
ATOM     10  O   UNL     1       4.544   1.911  -0.263  1.00  0.00    -0.378 OA
ATOM     11  C   UNL     1       4.313   3.270   0.135  1.00  0.00     0.176 C 
BRANCH   8  12
ATOM     12  N   UNL     1       0.862   2.243  -0.648  1.00  0.00    -0.336 N 
BRANCH  12  13
ATOM     13  C   UNL     1       0.406   1.502   0.529  1.00  0.00     0.116 C 
ATOM     14  C   UNL     1       0.220   0.024   0.202  1.00  0.00     0.027 C 
ENDBRANCH  12  13
BRANCH  12  15
ATOM     15  C   UNL     1       0.016   2.825  -1.599  1.00  0.00     0.228 C 
ATOM     16  O   UNL     1       0.396   2.922  -2.771  1.00  0.00    -0.274 OA
BRANCH  15  17
ATOM     17  C   UNL     1      -1.327   3.481  -1.171  1.00  0.00     0.047 C 
ATOM     18  C   UNL     1      -1.039   4.522  -0.079  1.00  0.00     0.022 C 
ATOM     19  C   UNL     1      -1.967   4.216  -2.378  1.00  0.00     0.016 C 
ATOM     20  C   UNL     1      -2.461   2.516  -0.807  1.00  0.00     0.016 C 
ATOM     21  C   UNL     1      -2.747   3.151  -3.143  1.00  0.00     0.001 C 
ATOM     22  C   UNL     1      -3.041   2.047  -2.138  1.00  0.00     0.001 C 
ENDBRANCH  15  17
ENDBRANCH  12  15
ENDBRANCH   8  12
ENDBRANCH   4   7
ENDBRANCH   2   3
ENDBRANCH   1   2
BRANCH   1  23
ATOM     23  C   UNL     1       3.312   4.669  -5.423  1.00  0.00     0.023 C 
BRANCH  23  24
ATOM     24  C   UNL     1       4.601   5.354  -5.858  1.00  0.00     0.116 C 
BRANCH  24  25
ATOM     25  N   UNL     1       5.594   4.422  -6.374  1.00  0.00    -0.352 N 
ATOM     26  C   UNL     1       6.356   4.513  -7.513  1.00  0.00     0.251 C 
ATOM     27  H   UNL     1       5.739   3.614  -5.831  1.00  0.00     0.163 HD
ATOM     28  O   UNL     1       7.058   3.575  -7.873  1.00  0.00    -0.269 OA
BRANCH  26  29
ATOM     29  C   UNL     1       6.292   5.745  -8.323  1.00  0.00     0.039 A 
ATOM     30  C   UNL     1       6.049   5.637  -9.694  1.00  0.00     0.014 A 
ATOM     31  C   UNL     1       6.420   6.998  -7.719  1.00  0.00     0.014 A 
ATOM     32  C   UNL     1       5.847   6.793 -10.448  1.00  0.00     0.010 A 
ATOM     33  C   UNL     1       6.153   8.145  -8.458  1.00  0.00     0.010 A 
ATOM     34  C   UNL     1       5.850   8.052  -9.825  1.00  0.00    -0.014 A 
BRANCH  34  35
ATOM     35  C   UNL     1       5.500   9.284 -10.572  1.00  0.00     0.031 A 
ATOM     36  C   UNL     1       6.520  10.370 -10.755  1.00  0.00     0.074 A 
ATOM     37  C   UNL     1       4.236   9.462 -11.001  1.00  0.00     0.049 A 
ATOM     38  N   UNL     1       6.373  11.563 -11.271  1.00  0.00    -0.248 NA
ATOM     39  C   UNL     1       7.880  10.086 -10.270  1.00  0.00     0.031 C 
ATOM     40  C   UNL     1       3.144   8.498 -10.844  1.00  0.00     0.029 A 
ATOM     41  N   UNL     1       3.650  10.525 -11.640  1.00  0.00    -0.354 N 
ATOM     42  C   UNL     1       7.614  12.177 -11.160  1.00  0.00     0.074 A 
ATOM     43  C   UNL     1       8.490  11.242 -10.488  1.00  0.00     0.031 C 
ATOM     44  C   UNL     1       2.025   9.010 -11.382  1.00  0.00     0.029 A 
ATOM     45  C   UNL     1       2.308  10.351 -11.881  1.00  0.00     0.049 A 
ATOM     46  H   UNL     1       4.143  11.336 -11.901  1.00  0.00     0.167 HD
ATOM     47  C   UNL     1       7.991  13.401 -11.596  1.00  0.00     0.037 A 
ATOM     48  C   UNL     1       1.404  11.187 -12.425  1.00  0.00     0.037 A 
ATOM     49  C   UNL     1       7.121  14.319 -12.284  1.00  0.00     0.049 A 
ATOM     50  C   UNL     1       1.842  12.552 -12.874  1.00  0.00     0.074 A 
ATOM     51  C   UNL     1       7.429  15.551 -12.832  1.00  0.00     0.029 A 
ATOM     52  N   UNL     1       5.769  14.106 -12.510  1.00  0.00    -0.354 N 
ATOM     53  N   UNL     1       3.034  13.093 -12.827  1.00  0.00    -0.248 NA
ATOM     54  C   UNL     1       0.807  13.425 -13.447  1.00  0.00     0.031 C 
ATOM     55  C   UNL     1       6.253  16.105 -13.350  1.00  0.00     0.029 A 
ATOM     56  C   UNL     1       5.222  15.200 -13.160  1.00  0.00     0.049 A 
ATOM     57  H   UNL     1       5.273  13.298 -12.247  1.00  0.00     0.167 HD
ATOM     58  C   UNL     1       2.898  14.362 -13.375  1.00  0.00     0.074 A 
ATOM     59  C   UNL     1       1.510  14.502 -13.766  1.00  0.00     0.031 C 
ATOM     60  C   UNL     1       3.837  15.326 -13.535  1.00  0.00     0.037 A 
BRANCH  47  61
ATOM     61  C   UNL     1       9.409  13.819 -11.344  1.00  0.00     0.057 A 
ATOM     62  C   UNL     1      10.482  13.242 -12.036  1.00  0.00     0.134 A 
ATOM     63  C   UNL     1       9.703  14.833 -10.424  1.00  0.00     0.134 A 
ATOM     64  F   UNL     1      10.269  12.257 -12.922  1.00  0.00    -0.206 F 
ATOM     65  C   UNL     1      11.799  13.643 -11.806  1.00  0.00     0.040 A 
ATOM     66  C   UNL     1      11.014  15.260 -10.203  1.00  0.00     0.040 A 
ATOM     67  F   UNL     1       8.722  15.430  -9.731  1.00  0.00    -0.206 F 
ATOM     68  C   UNL     1      12.067  14.660 -10.891  1.00  0.00     0.006 A 
ENDBRANCH  47  61
BRANCH  48  69
ATOM     69  C   UNL     1      -0.009  10.757 -12.574  1.00  0.00     0.057 A 
ATOM     70  C   UNL     1      -0.552  10.492 -13.836  1.00  0.00     0.134 A 
ATOM     71  C   UNL     1      -0.850  10.606 -11.465  1.00  0.00     0.134 A 
ATOM     72  F   UNL     1       0.198  10.639 -14.938  1.00  0.00    -0.206 F 
ATOM     73  C   UNL     1      -1.885  10.107 -13.992  1.00  0.00     0.040 A 
ATOM     74  C   UNL     1      -2.177  10.199 -11.604  1.00  0.00     0.040 A 
ATOM     75  F   UNL     1      -0.388  10.841 -10.228  1.00  0.00    -0.206 F 
ATOM     76  C   UNL     1      -2.700   9.954 -12.873  1.00  0.00     0.006 A 
ENDBRANCH  48  69
BRANCH  60  77
ATOM     77  C   UNL     1       3.395  16.613 -14.165  1.00  0.00     0.057 A 
ATOM     78  C   UNL     1       2.615  17.542 -13.466  1.00  0.00     0.134 A 
ATOM     79  C   UNL     1       3.787  16.945 -15.468  1.00  0.00     0.134 A 
ATOM     80  F   UNL     1       2.195  17.276 -12.220  1.00  0.00    -0.206 F 
ATOM     81  C   UNL     1       2.227  18.750 -14.046  1.00  0.00     0.040 A 
ATOM     82  C   UNL     1       3.425  18.160 -16.050  1.00  0.00     0.040 A 
ATOM     83  F   UNL     1       4.540  16.101 -16.189  1.00  0.00    -0.206 F 
ATOM     84  C   UNL     1       2.639  19.065 -15.340  1.00  0.00     0.006 A 
ENDBRANCH  60  77
ENDBRANCH  34  35
ENDBRANCH  26  29
ENDBRANCH  24  25
ENDBRANCH  23  24
ENDBRANCH   1  23
TORSDOF 15
