REMARK SMILES Cc1ccccc1OCC[NH+]1CCC(CC(=O)NCCCCNC(=O)c2ccc(-c3c4nc(c(-c5c(F)cccc5F)c5ccc([nH]5)c(-c5c(F)cccc5F)c5nc(c(-c6c(F)cccc6F)c6ccc3[nH]6)C=C5)C=C4)cc2)CC1
REMARK SMILES IDX 19 1 18 2 16 3 17 4 15 6 14 7 11 8 12 9 81 10 13 12 80 13
REMARK SMILES IDX 10 14 9 15 8 16 7 17 1 18 2 19 3 20 4 21 6 22 5 23 20 24
REMARK SMILES IDX 21 25 22 26 23 27 24 28 25 30 26 31 27 32 79 33 28 34 78 35
REMARK SMILES IDX 29 36 30 37 31 38 72 39 32 40 77 41 71 42 73 43 33 44 76 45
REMARK SMILES IDX 70 46 69 47 34 49 60 50 43 51 59 52 44 53 47 54 58 55 74 56
REMARK SMILES IDX 45 57 46 58 57 60 75 61 48 62 35 63 36 64 41 65 37 66 38 67
REMARK SMILES IDX 40 68 42 69 39 70 61 71 62 72 67 73 63 74 64 75 66 76 68 77
REMARK SMILES IDX 65 78 49 79 50 80 55 81 51 82 52 83 54 84 56 85 53 86
REMARK H PARENT 18 5 11 11 23 29 73 48 47 59
REMARK Flexibility Score: inf
ROOT
ATOM      1  C   UNL     1      -0.974  -2.422  -1.927  1.00  0.00     0.116 C 
ENDROOT
BRANCH   1   2
ATOM      2  N   UNL     1      -0.058  -3.558  -2.067  1.00  0.00    -0.356 N 
ATOM      3  C   UNL     1       0.875  -4.101  -1.224  1.00  0.00     0.220 C 
ATOM      4  O   UNL     1       1.573  -5.021  -1.660  1.00  0.00    -0.275 OA
ATOM      5  H   UNL     1      -0.127  -4.019  -2.934  1.00  0.00     0.163 HD
BRANCH   3   6
ATOM      6  C   UNL     1       1.048  -3.621   0.215  1.00  0.00     0.104 C 
BRANCH   6   7
ATOM      7  C   UNL     1       2.220  -2.602   0.399  1.00  0.00     0.009 C 
ATOM      8  N   UNL     1       3.553   1.021   0.996  1.00  0.00    -0.332 N 
ATOM      9  C   UNL     1       3.088   0.462  -0.732  1.00  0.00     0.262 C 
ATOM     10  C   UNL     1       3.340  -0.145   2.429  1.00  0.00     0.262 C 
ATOM     11  H   UNL     1       4.558   0.986   0.823  1.00  0.00     0.348 HD
ATOM     12  C   UNL     1       2.151  -1.235  -0.998  1.00  0.00     0.066 C 
ATOM     13  C   UNL     1       2.770  -2.019   2.220  1.00  0.00     0.066 C 
BRANCH   8  14
ATOM     14  C   UNL     1       3.253   2.388   1.356  1.00  0.00     0.304 C 
BRANCH  14  15
ATOM     15  C   UNL     1       2.248   2.998   0.418  1.00  0.00     0.290 C 
BRANCH  15  16
ATOM     16  O   UNL     1       1.344   2.050  -0.145  1.00  0.00    -0.487 OA
BRANCH  16  17
ATOM     17  C   UNL     1       0.960   0.958   0.621  1.00  0.00     0.122 A 
ATOM     18  C   UNL     1       3.590  -1.036   0.547  1.00  0.00     0.048 C 
ATOM     19  C   UNL     1       1.694  -0.345   0.968  1.00  0.00    -0.009 A 
ATOM     20  C   UNL     1       0.599  -1.117   1.635  1.00  0.00     0.007 A 
ATOM     21  C   UNL     1      -0.781  -0.822   1.842  1.00  0.00     0.001 A 
ATOM     22  C   UNL     1      -0.444   1.236   0.834  1.00  0.00     0.047 A 
ATOM     23  C   UNL     1      -1.315   0.351   1.414  1.00  0.00     0.004 A 
ENDBRANCH  16  17
ENDBRANCH  15  16
ENDBRANCH  14  15
ENDBRANCH   8  14
ENDBRANCH   6   7
ENDBRANCH   3   6
ENDBRANCH   1   2
BRANCH   1  24
ATOM     24  C   UNL     1      -0.465  -1.169  -2.672  1.00  0.00     0.023 C 
BRANCH  24  25
ATOM     25  C   UNL     1      -1.069  -0.797  -4.008  1.00  0.00     0.023 C 
BRANCH  25  26
ATOM     26  C   UNL     1      -2.477  -0.261  -3.910  1.00  0.00     0.116 C 
BRANCH  26  27
ATOM     27  N   UNL     1      -2.645   1.167  -3.664  1.00  0.00    -0.352 N 
ATOM     28  C   UNL     1      -3.831   1.891  -3.572  1.00  0.00     0.251 C 
ATOM     29  H   UNL     1      -1.815   1.683  -3.547  1.00  0.00     0.163 HD
ATOM     30  O   UNL     1      -3.795   3.111  -3.428  1.00  0.00    -0.269 OA
BRANCH  28  31
ATOM     31  C   UNL     1      -5.140   1.178  -3.468  1.00  0.00     0.039 A 
ATOM     32  C   UNL     1      -6.078   1.662  -2.547  1.00  0.00     0.014 A 
ATOM     33  C   UNL     1      -5.288  -0.105  -3.967  1.00  0.00     0.014 A 
ATOM     34  C   UNL     1      -6.899   0.758  -1.880  1.00  0.00     0.010 A 
ATOM     35  C   UNL     1      -5.913  -1.027  -3.169  1.00  0.00     0.010 A 
ATOM     36  C   UNL     1      -6.671  -0.596  -2.083  1.00  0.00    -0.014 A 
BRANCH  36  37
ATOM     37  C   UNL     1      -7.121  -1.665  -1.209  1.00  0.00     0.031 A 
ATOM     38  C   UNL     1      -8.164  -2.583  -1.700  1.00  0.00     0.074 A 
ATOM     39  C   UNL     1      -6.415  -1.911  -0.084  1.00  0.00     0.049 A 
ATOM     40  N   UNL     1      -8.803  -3.423  -0.967  1.00  0.00    -0.248 NA
ATOM     41  C   UNL     1      -8.617  -2.578  -3.089  1.00  0.00     0.031 C 
ATOM     42  C   UNL     1      -6.428  -3.115   0.742  1.00  0.00     0.029 A 
ATOM     43  N   UNL     1      -5.648  -0.996   0.654  1.00  0.00    -0.354 N 
ATOM     44  C   UNL     1      -9.530  -4.244  -1.802  1.00  0.00     0.074 A 
ATOM     45  C   UNL     1      -9.470  -3.603  -3.089  1.00  0.00     0.031 C 
ATOM     46  C   UNL     1      -5.973  -2.803   1.968  1.00  0.00     0.029 A 
ATOM     47  C   UNL     1      -5.822  -1.357   2.009  1.00  0.00     0.049 A 
ATOM     48  H   UNL     1      -5.103  -0.256   0.301  1.00  0.00     0.167 HD
ATOM     49  C   UNL     1      -9.979  -5.431  -1.307  1.00  0.00     0.037 A 
ATOM     50  C   UNL     1      -6.516  -0.535   2.853  1.00  0.00     0.037 A 
ATOM     51  C   UNL     1      -9.809  -5.452   0.151  1.00  0.00     0.049 A 
ATOM     52  C   UNL     1      -7.797  -1.146   3.383  1.00  0.00     0.074 A 
ATOM     53  C   UNL     1      -8.864  -6.027   0.984  1.00  0.00     0.029 A 
ATOM     54  N   UNL     1     -10.498  -4.520   0.923  1.00  0.00    -0.354 N 
ATOM     55  N   UNL     1      -8.384  -2.188   2.860  1.00  0.00    -0.248 NA
ATOM     56  C   UNL     1      -8.528  -0.615   4.531  1.00  0.00     0.031 C 
ATOM     57  C   UNL     1      -8.909  -5.340   2.229  1.00  0.00     0.029 A 
ATOM     58  C   UNL     1      -9.911  -4.385   2.167  1.00  0.00     0.049 A 
ATOM     59  H   UNL     1     -11.295  -4.025   0.624  1.00  0.00     0.167 HD
ATOM     60  C   UNL     1      -9.557  -2.436   3.521  1.00  0.00     0.074 A 
ATOM     61  C   UNL     1      -9.584  -1.446   4.582  1.00  0.00     0.031 C 
ATOM     62  C   UNL     1     -10.428  -3.411   3.123  1.00  0.00     0.037 A 
BRANCH  49  63
ATOM     63  C   UNL     1     -10.355  -6.659  -2.124  1.00  0.00     0.057 A 
ATOM     64  C   UNL     1     -10.568  -7.894  -1.476  1.00  0.00     0.134 A 
ATOM     65  C   UNL     1     -10.420  -6.748  -3.530  1.00  0.00     0.134 A 
ATOM     66  F   UNL     1     -10.578  -7.992  -0.139  1.00  0.00    -0.206 F 
ATOM     67  C   UNL     1     -10.769  -9.103  -2.162  1.00  0.00     0.040 A 
ATOM     68  C   UNL     1     -10.631  -7.947  -4.228  1.00  0.00     0.040 A 
ATOM     69  F   UNL     1     -10.274  -5.696  -4.334  1.00  0.00    -0.206 F 
ATOM     70  C   UNL     1     -10.792  -9.137  -3.546  1.00  0.00     0.006 A 
ENDBRANCH  49  63
BRANCH  50  71
ATOM     71  C   UNL     1      -6.324   0.908   2.533  1.00  0.00     0.057 A 
ATOM     72  C   UNL     1      -5.040   1.461   2.688  1.00  0.00     0.134 A 
ATOM     73  C   UNL     1      -7.216   1.602   1.710  1.00  0.00     0.134 A 
ATOM     74  F   UNL     1      -4.135   0.850   3.469  1.00  0.00    -0.206 F 
ATOM     75  C   UNL     1      -4.616   2.569   1.947  1.00  0.00     0.040 A 
ATOM     76  C   UNL     1      -6.806   2.723   0.976  1.00  0.00     0.040 A 
ATOM     77  F   UNL     1      -8.452   1.130   1.493  1.00  0.00    -0.206 F 
ATOM     78  C   UNL     1      -5.489   3.176   1.053  1.00  0.00     0.006 A 
ENDBRANCH  50  71
BRANCH  62  79
ATOM     79  C   UNL     1     -11.842  -3.566   3.624  1.00  0.00     0.057 A 
ATOM     80  C   UNL     1     -12.654  -2.498   4.035  1.00  0.00     0.134 A 
ATOM     81  C   UNL     1     -12.492  -4.817   3.545  1.00  0.00     0.134 A 
ATOM     82  F   UNL     1     -12.200  -1.237   4.052  1.00  0.00    -0.206 F 
ATOM     83  C   UNL     1     -13.998  -2.670   4.391  1.00  0.00     0.040 A 
ATOM     84  C   UNL     1     -13.847  -4.989   3.840  1.00  0.00     0.040 A 
ATOM     85  F   UNL     1     -11.842  -5.922   3.147  1.00  0.00    -0.206 F 
ATOM     86  C   UNL     1     -14.603  -3.915   4.280  1.00  0.00     0.006 A 
ENDBRANCH  62  79
ENDBRANCH  36  37
ENDBRANCH  28  31
ENDBRANCH  26  27
ENDBRANCH  25  26
ENDBRANCH  24  25
ENDBRANCH   1  24
TORSDOF 16
