REMARK SMILES CCCCCCNC(=O)Oc1cccc(-c2ccc([C@@H](C)C(=O)NCCCCNC(=O)c3ccc(-c4c5nc(c(-c6c(F)cccc6F)c6ccc([nH]6)c(-c6c(F)cccc6F)c6nc(c(-c7c(F)cccc7F)c7ccc4[nH]7)C=C6)C=C5)cc3)cc2)c1
REMARK SMILES IDX 20 1 21 2 19 3 16 4 17 5 87 6 18 7 86 8 15 9 11 10 12 11
REMARK SMILES IDX 88 12 13 13 14 14 10 15 8 16 7 17 9 19 6 20 5 21 4 22 3 23
REMARK SMILES IDX 2 24 1 25 22 26 23 27 24 28 25 30 26 31 27 32 28 33 29 34
REMARK SMILES IDX 30 35 31 37 32 38 33 39 85 40 34 41 84 42 35 43 36 44 37 45
REMARK SMILES IDX 78 46 38 47 83 48 77 49 79 50 39 51 82 52 76 53 75 54 40 56
REMARK SMILES IDX 66 57 49 58 65 59 50 60 53 61 64 62 80 63 51 64 52 65 63 67
REMARK SMILES IDX 81 68 54 69 41 70 42 71 47 72 43 73 44 74 46 75 48 76 45 77
REMARK SMILES IDX 67 78 68 79 73 80 69 81 70 82 72 83 74 84 71 85 55 86 56 87
REMARK SMILES IDX 61 88 57 89 58 90 60 91 62 92 59 93
REMARK H PARENT 7 18 24 29 29 36 79 55 53 66
REMARK Flexibility Score: inf
ROOT
ATOM      1  C   UNL     1      -4.855  -9.824   9.141  1.00  0.00     0.105 C 
ATOM      2  C   UNL     1      -6.109 -10.392   9.806  1.00  0.00     0.023 C 
ENDROOT
BRANCH   1   3
ATOM      3  C   UNL     1      -5.040  -9.279   7.734  1.00  0.00    -0.036 A 
ATOM      4  C   UNL     1      -5.193  -8.281   5.054  1.00  0.00    -0.018 A 
ATOM      5  C   UNL     1      -5.854  -9.456   5.447  1.00  0.00     0.009 A 
ATOM      6  C   UNL     1      -4.482  -7.598   6.053  1.00  0.00     0.009 A 
ATOM      7  C   UNL     1      -5.814  -9.921   6.766  1.00  0.00     0.005 A 
ATOM      8  C   UNL     1      -4.387  -8.097   7.361  1.00  0.00     0.005 A 
BRANCH   4   9
ATOM      9  C   UNL     1      -5.250  -7.801   3.651  1.00  0.00    -0.015 A 
ATOM     10  C   UNL     1      -4.281  -6.615   1.756  1.00  0.00     0.133 A 
ATOM     11  C   UNL     1      -5.388  -6.895   0.963  1.00  0.00     0.047 A 
ATOM     12  C   UNL     1      -4.201  -7.057   3.079  1.00  0.00     0.056 A 
ATOM     13  C   UNL     1      -6.431  -7.635   1.500  1.00  0.00     0.004 A 
ATOM     14  C   UNL     1      -6.366  -8.069   2.829  1.00  0.00     0.009 A 
BRANCH  10  15
ATOM     15  O   UNL     1      -3.323  -5.743   1.215  1.00  0.00    -0.410 OA
BRANCH  15  16
ATOM     16  C   UNL     1      -1.987  -6.108   1.245  1.00  0.00     0.412 C 
ATOM     17  N   UNL     1      -1.160  -5.119   0.789  1.00  0.00    -0.321 N 
ATOM     18  H   UNL     1      -0.198  -5.325   0.756  1.00  0.00     0.167 HD
ATOM     19  O   UNL     1      -1.541  -7.185   1.620  1.00  0.00    -0.224 OA
BRANCH  17  20
ATOM     20  C   UNL     1      -1.559  -3.796   0.349  1.00  0.00     0.119 C 
BRANCH  20  21
ATOM     21  C   UNL     1      -0.965  -2.698   1.230  1.00  0.00     0.021 C 
BRANCH  21  22
ATOM     22  C   UNL     1       0.565  -2.600   1.188  1.00  0.00     0.002 C 
BRANCH  22  23
ATOM     23  C   UNL     1       1.173  -2.377  -0.202  1.00  0.00    -0.000 C 
BRANCH  23  24
ATOM     24  C   UNL     1       0.681  -1.130  -0.941  1.00  0.00    -0.003 C 
ATOM     25  C   UNL     1       1.033   0.167  -0.231  1.00  0.00     0.004 C 
ENDBRANCH  23  24
ENDBRANCH  22  23
ENDBRANCH  21  22
ENDBRANCH  20  21
ENDBRANCH  17  20
ENDBRANCH  15  16
ENDBRANCH  10  15
ENDBRANCH   4   9
ENDBRANCH   1   3
BRANCH   1  26
ATOM     26  C   UNL     1      -3.611 -10.713   9.302  1.00  0.00     0.227 C 
ATOM     27  O   UNL     1      -2.632 -10.294   9.932  1.00  0.00    -0.274 OA
ATOM     28  N   UNL     1      -3.511 -11.977   8.804  1.00  0.00    -0.356 N 
ATOM     29  H   UNL     1      -2.683 -12.447   9.055  1.00  0.00     0.163 HD
BRANCH  28  30
ATOM     30  C   UNL     1      -4.407 -12.752   7.973  1.00  0.00     0.116 C 
BRANCH  30  31
ATOM     31  C   UNL     1      -4.049 -12.650   6.489  1.00  0.00     0.023 C 
BRANCH  31  32
ATOM     32  C   UNL     1      -3.012 -13.661   6.006  1.00  0.00     0.023 C 
BRANCH  32  33
ATOM     33  C   UNL     1      -3.422 -15.123   6.137  1.00  0.00     0.116 C 
BRANCH  33  34
ATOM     34  N   UNL     1      -4.660 -15.462   5.449  1.00  0.00    -0.352 N 
ATOM     35  C   UNL     1      -5.005 -16.662   4.870  1.00  0.00     0.251 C 
ATOM     36  H   UNL     1      -5.331 -14.745   5.390  1.00  0.00     0.163 HD
ATOM     37  O   UNL     1      -6.061 -16.785   4.258  1.00  0.00    -0.269 OA
BRANCH  35  38
ATOM     38  C   UNL     1      -4.057 -17.791   4.953  1.00  0.00     0.039 A 
ATOM     39  C   UNL     1      -3.676 -18.442   3.778  1.00  0.00     0.014 A 
ATOM     40  C   UNL     1      -3.487 -18.145   6.178  1.00  0.00     0.014 A 
ATOM     41  C   UNL     1      -2.657 -19.396   3.821  1.00  0.00     0.010 A 
ATOM     42  C   UNL     1      -2.419 -19.032   6.206  1.00  0.00     0.010 A 
ATOM     43  C   UNL     1      -1.991 -19.664   5.028  1.00  0.00    -0.014 A 
BRANCH  43  44
ATOM     44  C   UNL     1      -0.836 -20.594   5.083  1.00  0.00     0.031 A 
ATOM     45  C   UNL     1      -0.916 -21.844   5.913  1.00  0.00     0.074 A 
ATOM     46  C   UNL     1       0.315 -20.266   4.465  1.00  0.00     0.049 A 
ATOM     47  N   UNL     1       0.010 -22.737   6.155  1.00  0.00    -0.248 NA
ATOM     48  C   UNL     1      -2.194 -22.104   6.593  1.00  0.00     0.031 C 
ATOM     49  C   UNL     1       0.543 -19.043   3.693  1.00  0.00     0.029 A 
ATOM     50  N   UNL     1       1.516 -20.925   4.405  1.00  0.00    -0.354 N 
ATOM     51  C   UNL     1      -0.565 -23.644   7.035  1.00  0.00     0.074 A 
ATOM     52  C   UNL     1      -1.899 -23.167   7.325  1.00  0.00     0.031 C 
ATOM     53  C   UNL     1       1.801 -19.048   3.224  1.00  0.00     0.029 A 
ATOM     54  C   UNL     1       2.477 -20.256   3.686  1.00  0.00     0.049 A 
ATOM     55  H   UNL     1       1.676 -21.795   4.838  1.00  0.00     0.167 HD
ATOM     56  C   UNL     1      -0.037 -24.786   7.537  1.00  0.00     0.037 A 
ATOM     57  C   UNL     1       3.759 -20.578   3.432  1.00  0.00     0.037 A 
ATOM     58  C   UNL     1       1.276 -25.277   7.213  1.00  0.00     0.049 A 
ATOM     59  C   UNL     1       4.311 -21.871   3.963  1.00  0.00     0.074 A 
ATOM     60  C   UNL     1       1.867 -26.470   7.589  1.00  0.00     0.029 A 
ATOM     61  N   UNL     1       2.204 -24.596   6.439  1.00  0.00    -0.354 N 
ATOM     62  N   UNL     1       3.725 -22.770   4.716  1.00  0.00    -0.248 NA
ATOM     63  C   UNL     1       5.697 -22.198   3.602  1.00  0.00     0.031 C 
ATOM     64  C   UNL     1       3.169 -26.492   7.077  1.00  0.00     0.029 A 
ATOM     65  C   UNL     1       3.373 -25.333   6.345  1.00  0.00     0.049 A 
ATOM     66  H   UNL     1       2.053 -23.719   6.018  1.00  0.00     0.167 HD
ATOM     67  C   UNL     1       4.662 -23.779   4.902  1.00  0.00     0.074 A 
ATOM     68  C   UNL     1       5.849 -23.386   4.171  1.00  0.00     0.031 C 
ATOM     69  C   UNL     1       4.547 -24.927   5.615  1.00  0.00     0.037 A 
BRANCH  56  70
ATOM     70  C   UNL     1      -0.887 -25.576   8.489  1.00  0.00     0.057 A 
ATOM     71  C   UNL     1      -2.040 -26.252   8.067  1.00  0.00     0.134 A 
ATOM     72  C   UNL     1      -0.546 -25.665   9.844  1.00  0.00     0.134 A 
ATOM     73  F   UNL     1      -2.431 -26.197   6.785  1.00  0.00    -0.206 F 
ATOM     74  C   UNL     1      -2.843 -26.957   8.966  1.00  0.00     0.040 A 
ATOM     75  C   UNL     1      -1.325 -26.392  10.746  1.00  0.00     0.040 A 
ATOM     76  F   UNL     1       0.547 -25.047  10.314  1.00  0.00    -0.206 F 
ATOM     77  C   UNL     1      -2.483 -27.032  10.309  1.00  0.00     0.006 A 
ENDBRANCH  56  70
BRANCH  57  78
ATOM     78  C   UNL     1       4.594 -19.671   2.607  1.00  0.00     0.057 A 
ATOM     79  C   UNL     1       4.939 -20.003   1.292  1.00  0.00     0.134 A 
ATOM     80  C   UNL     1       5.044 -18.441   3.102  1.00  0.00     0.134 A 
ATOM     81  F   UNL     1       4.550 -21.175   0.769  1.00  0.00    -0.206 F 
ATOM     82  C   UNL     1       5.711 -19.151   0.501  1.00  0.00     0.040 A 
ATOM     83  C   UNL     1       5.798 -17.569   2.315  1.00  0.00     0.040 A 
ATOM     84  F   UNL     1       4.739 -18.062   4.351  1.00  0.00    -0.206 F 
ATOM     85  C   UNL     1       6.136 -17.925   1.011  1.00  0.00     0.006 A 
ENDBRANCH  57  78
BRANCH  69  86
ATOM     86  C   UNL     1       5.729 -25.851   5.622  1.00  0.00     0.057 A 
ATOM     87  C   UNL     1       6.889 -25.558   6.349  1.00  0.00     0.134 A 
ATOM     88  C   UNL     1       5.685 -27.068   4.931  1.00  0.00     0.134 A 
ATOM     89  F   UNL     1       6.998 -24.402   7.021  1.00  0.00    -0.206 F 
ATOM     90  C   UNL     1       7.973 -26.437   6.373  1.00  0.00     0.040 A 
ATOM     91  C   UNL     1       6.753 -27.966   4.968  1.00  0.00     0.040 A 
ATOM     92  F   UNL     1       4.599 -27.412   4.223  1.00  0.00    -0.206 F 
ATOM     93  C   UNL     1       7.903 -27.648   5.687  1.00  0.00     0.006 A 
ENDBRANCH  69  86
ENDBRANCH  43  44
ENDBRANCH  35  38
ENDBRANCH  33  34
ENDBRANCH  32  33
ENDBRANCH  31  32
ENDBRANCH  30  31
ENDBRANCH  28  30
ENDBRANCH   1  26
TORSDOF 20
