REMARK SMILES Cc1cc(NC(=O)[C@H]2[C@@H](C(=O)NCCCCNC(=O)c3ccc(-c4c5nc(c(-c6c(F)cccc6F)c6ccc([nH]6)c(-c6c(F)cccc6F)c6nc(c(-c7c(F)cccc7F)c7ccc4[nH]7)C=C6)C=C5)cc3)C2(C)C)n(-c2ccc(F)cc2)n1
REMARK SMILES IDX 14 1 13 2 12 3 10 4 11 5 9 7 8 8 74 9 75 10 76 11 6 12 5 13
REMARK SMILES IDX 7 15 4 16 1 17 2 18 3 19 85 20 77 21 78 22 79 23 84 24 80 25
REMARK SMILES IDX 83 26 81 27 82 28 15 29 16 30 17 31 18 32 19 34 20 35 21 36
REMARK SMILES IDX 73 37 22 38 72 39 23 40 24 41 25 42 66 43 26 44 71 45 65 46
REMARK SMILES IDX 67 47 27 48 70 49 64 50 63 51 28 53 54 54 37 55 53 56 38 57
REMARK SMILES IDX 41 58 52 59 68 60 39 61 40 62 51 64 69 65 42 66 29 67 30 68
REMARK SMILES IDX 35 69 31 70 32 71 34 72 36 73 33 74 55 75 56 76 61 77 57 78
REMARK SMILES IDX 58 79 60 80 62 81 59 82 43 83 44 84 49 85 45 86 46 87 48 88
REMARK SMILES IDX 50 89 47 90
REMARK H PARENT 12 6 5 14 17 33 67 52 41 63
REMARK Flexibility Score: inf
ROOT
ATOM      1  C   UNL     1       4.057  -5.420   6.085  1.00  0.00     0.023 C 
ENDROOT
BRANCH   1   2
ATOM      2  C   UNL     1       2.746  -5.945   5.525  1.00  0.00     0.116 C 
BRANCH   2   3
ATOM      3  N   UNL     1       1.782  -6.217   6.540  1.00  0.00    -0.356 N 
ATOM      4  C   UNL     1       0.716  -5.505   6.970  1.00  0.00     0.224 C 
ATOM      5  O   UNL     1       0.006  -6.035   7.824  1.00  0.00    -0.275 OA
ATOM      6  H   UNL     1       1.915  -7.072   7.009  1.00  0.00     0.163 HD
BRANCH   4   7
ATOM      7  C   UNL     1       0.347  -4.141   6.555  1.00  0.00     0.098 C 
ATOM      8  C   UNL     1      -0.257  -3.722   5.245  1.00  0.00     0.098 C 
ATOM      9  C   UNL     1       0.969  -2.954   5.854  1.00  0.00    -0.011 C 
ATOM     10  C   UNL     1       2.200  -2.841   4.988  1.00  0.00     0.013 C 
ATOM     11  C   UNL     1       0.890  -1.725   6.756  1.00  0.00     0.013 C 
BRANCH   8  12
ATOM     12  C   UNL     1      -0.166  -4.556   4.016  1.00  0.00     0.230 C 
ATOM     13  N   UNL     1      -0.012  -3.996   2.709  1.00  0.00    -0.310 N 
ATOM     14  H   UNL     1       0.313  -4.644   2.044  1.00  0.00     0.171 HD
ATOM     15  O   UNL     1      -0.109  -5.758   4.057  1.00  0.00    -0.274 OA
BRANCH  13  16
ATOM     16  C   UNL     1      -0.226  -2.727   2.181  1.00  0.00     0.136 A 
ATOM     17  C   UNL     1       0.681  -0.038  -0.153  1.00  0.00     0.069 C 
ATOM     18  C   UNL     1       0.086  -1.002   0.807  1.00  0.00     0.062 A 
ATOM     19  C   UNL     1       0.520  -2.311   1.094  1.00  0.00     0.072 A 
ATOM     20  N   UNL     1      -0.969  -0.664   1.550  1.00  0.00    -0.171 NA
ATOM     21  N   UNL     1      -1.145  -1.699   2.404  1.00  0.00    -0.217 N 
BRANCH  21  22
ATOM     22  C   UNL     1      -2.103  -1.563   3.420  1.00  0.00     0.067 A 
ATOM     23  C   UNL     1      -1.660  -1.171   4.678  1.00  0.00     0.031 A 
ATOM     24  C   UNL     1      -3.465  -1.741   3.173  1.00  0.00     0.031 A 
ATOM     25  C   UNL     1      -2.534  -1.198   5.762  1.00  0.00     0.041 A 
ATOM     26  C   UNL     1      -4.351  -1.715   4.256  1.00  0.00     0.041 A 
ATOM     27  C   UNL     1      -3.868  -1.504   5.546  1.00  0.00     0.123 A 
ATOM     28  F   UNL     1      -4.695  -1.598   6.594  1.00  0.00    -0.207 F 
ENDBRANCH  21  22
ENDBRANCH  13  16
ENDBRANCH   8  12
ENDBRANCH   4   7
ENDBRANCH   2   3
ENDBRANCH   1   2
BRANCH   1  29
ATOM     29  C   UNL     1       4.927  -6.448   6.810  1.00  0.00     0.023 C 
BRANCH  29  30
ATOM     30  C   UNL     1       5.205  -7.722   6.025  1.00  0.00     0.116 C 
BRANCH  30  31
ATOM     31  N   UNL     1       5.771  -7.473   4.697  1.00  0.00    -0.352 N 
ATOM     32  C   UNL     1       5.908  -8.375   3.655  1.00  0.00     0.251 C 
ATOM     33  H   UNL     1       6.090  -6.558   4.524  1.00  0.00     0.163 HD
ATOM     34  O   UNL     1       6.664  -8.167   2.716  1.00  0.00    -0.269 OA
BRANCH  32  35
ATOM     35  C   UNL     1       5.067  -9.580   3.686  1.00  0.00     0.039 A 
ATOM     36  C   UNL     1       5.580 -10.870   3.570  1.00  0.00     0.014 A 
ATOM     37  C   UNL     1       3.724  -9.363   3.957  1.00  0.00     0.014 A 
ATOM     38  C   UNL     1       4.727 -11.943   3.825  1.00  0.00     0.010 A 
ATOM     39  C   UNL     1       2.957 -10.392   4.418  1.00  0.00     0.010 A 
ATOM     40  C   UNL     1       3.418 -11.690   4.272  1.00  0.00    -0.014 A 
BRANCH  40  41
ATOM     41  C   UNL     1       2.529 -12.759   4.706  1.00  0.00     0.031 A 
ATOM     42  C   UNL     1       3.098 -13.632   5.766  1.00  0.00     0.074 A 
ATOM     43  C   UNL     1       1.221 -12.786   4.362  1.00  0.00     0.049 A 
ATOM     44  N   UNL     1       3.446 -14.872   5.668  1.00  0.00    -0.248 NA
ATOM     45  C   UNL     1       3.479 -13.011   7.047  1.00  0.00     0.031 C 
ATOM     46  C   UNL     1       0.454 -11.786   3.602  1.00  0.00     0.029 A 
ATOM     47  N   UNL     1       0.257 -13.674   4.722  1.00  0.00    -0.354 N 
ATOM     48  C   UNL     1       3.861 -15.252   6.942  1.00  0.00     0.074 A 
ATOM     49  C   UNL     1       4.071 -14.031   7.672  1.00  0.00     0.031 C 
ATOM     50  C   UNL     1      -0.870 -11.997   3.769  1.00  0.00     0.029 A 
ATOM     51  C   UNL     1      -1.044 -13.250   4.474  1.00  0.00     0.049 A 
ATOM     52  H   UNL     1       0.464 -14.548   5.125  1.00  0.00     0.167 HD
ATOM     53  C   UNL     1       3.713 -16.539   7.366  1.00  0.00     0.037 A 
ATOM     54  C   UNL     1      -2.187 -13.884   4.833  1.00  0.00     0.037 A 
ATOM     55  C   UNL     1       3.484 -17.418   6.243  1.00  0.00     0.049 A 
ATOM     56  C   UNL     1      -1.830 -15.291   5.130  1.00  0.00     0.074 A 
ATOM     57  C   UNL     1       4.183 -17.747   5.098  1.00  0.00     0.029 A 
ATOM     58  N   UNL     1       2.191 -17.823   6.017  1.00  0.00    -0.354 N 
ATOM     59  N   UNL     1      -1.414 -16.137   4.229  1.00  0.00    -0.248 NA
ATOM     60  C   UNL     1      -1.482 -15.618   6.503  1.00  0.00     0.031 C 
ATOM     61  C   UNL     1       3.187 -17.879   4.083  1.00  0.00     0.029 A 
ATOM     62  C   UNL     1       1.936 -17.702   4.677  1.00  0.00     0.049 A 
ATOM     63  H   UNL     1       1.558 -18.143   6.700  1.00  0.00     0.167 HD
ATOM     64  C   UNL     1      -0.399 -16.848   4.854  1.00  0.00     0.074 A 
ATOM     65  C   UNL     1      -0.549 -16.547   6.277  1.00  0.00     0.031 C 
ATOM     66  C   UNL     1       0.638 -17.369   4.133  1.00  0.00     0.037 A 
BRANCH  53  67
ATOM     67  C   UNL     1       3.334 -16.941   8.779  1.00  0.00     0.057 A 
ATOM     68  C   UNL     1       3.222 -18.313   9.081  1.00  0.00     0.134 A 
ATOM     69  C   UNL     1       2.779 -16.079   9.747  1.00  0.00     0.134 A 
ATOM     70  F   UNL     1       3.720 -19.244   8.252  1.00  0.00    -0.206 F 
ATOM     71  C   UNL     1       2.511 -18.787  10.190  1.00  0.00     0.040 A 
ATOM     72  C   UNL     1       2.110 -16.542  10.884  1.00  0.00     0.040 A 
ATOM     73  F   UNL     1       2.761 -14.749   9.614  1.00  0.00    -0.206 F 
ATOM     74  C   UNL     1       1.937 -17.900  11.089  1.00  0.00     0.006 A 
ENDBRANCH  53  67
BRANCH  54  75
ATOM     75  C   UNL     1      -3.486 -13.294   5.226  1.00  0.00     0.057 A 
ATOM     76  C   UNL     1      -4.663 -14.054   5.216  1.00  0.00     0.134 A 
ATOM     77  C   UNL     1      -3.553 -12.056   5.889  1.00  0.00     0.134 A 
ATOM     78  F   UNL     1      -4.684 -15.265   4.642  1.00  0.00    -0.206 F 
ATOM     79  C   UNL     1      -5.835 -13.619   5.850  1.00  0.00     0.040 A 
ATOM     80  C   UNL     1      -4.717 -11.609   6.525  1.00  0.00     0.040 A 
ATOM     81  F   UNL     1      -2.466 -11.282   6.017  1.00  0.00    -0.206 F 
ATOM     82  C   UNL     1      -5.860 -12.398   6.519  1.00  0.00     0.006 A 
ENDBRANCH  54  75
BRANCH  66  83
ATOM     83  C   UNL     1       0.509 -17.398   2.633  1.00  0.00     0.057 A 
ATOM     84  C   UNL     1       0.433 -16.258   1.818  1.00  0.00     0.134 A 
ATOM     85  C   UNL     1       0.615 -18.631   1.980  1.00  0.00     0.134 A 
ATOM     86  F   UNL     1       0.422 -15.027   2.342  1.00  0.00    -0.206 F 
ATOM     87  C   UNL     1       0.426 -16.346   0.421  1.00  0.00     0.040 A 
ATOM     88  C   UNL     1       0.643 -18.731   0.588  1.00  0.00     0.040 A 
ATOM     89  F   UNL     1       0.745 -19.761   2.692  1.00  0.00    -0.206 F 
ATOM     90  C   UNL     1       0.538 -17.586  -0.198  1.00  0.00     0.006 A 
ENDBRANCH  66  83
ENDBRANCH  40  41
ENDBRANCH  32  35
ENDBRANCH  30  31
ENDBRANCH  29  30
ENDBRANCH   1  29
TORSDOF 14
