REMARK SMILES C[C@@H]1C[N@H+](C[C@]2(C(=O)NCCCCNC(=O)c3ccc(-c4c5nc(c(-c6c(F)cccc6F)c6ccc([nH]6)c(-c6c(F)cccc6F)c6nc(c(-c7c(F)cccc7F)c7ccc4[nH]7)C=C6)C=C5)cc3)CCOC2)C[C@@H]1C
REMARK SMILES IDX 11 1 10 2 9 3 7 4 8 5 6 7 71 8 74 9 72 10 73 11 5 12 4 13
REMARK SMILES IDX 1 14 2 15 3 16 76 17 75 18 77 19 12 21 13 22 14 23 15 24
REMARK SMILES IDX 16 26 17 27 18 28 70 29 19 30 69 31 20 32 21 33 22 34 63 35
REMARK SMILES IDX 23 36 68 37 62 38 64 39 24 40 67 41 61 42 60 43 25 45 51 46
REMARK SMILES IDX 34 47 50 48 35 49 38 50 49 51 65 52 36 53 37 54 48 56 66 57
REMARK SMILES IDX 39 58 26 59 27 60 32 61 28 62 29 63 31 64 33 65 30 66 52 67
REMARK SMILES IDX 53 68 58 69 54 70 55 71 57 72 59 73 56 74 40 75 41 76 46 77
REMARK SMILES IDX 42 78 43 79 45 80 47 81 44 82
REMARK H PARENT 9 6 4 20 14 25 64 44 38 55
REMARK Flexibility Score: inf
ROOT
ATOM      1  C   UNL     1      -0.630   6.465   4.896  1.00  0.00     0.023 C 
ENDROOT
BRANCH   1   2
ATOM      2  C   UNL     1      -0.993   6.343   3.418  1.00  0.00     0.116 C 
BRANCH   2   3
ATOM      3  N   UNL     1      -0.111   5.426   2.726  1.00  0.00    -0.355 N 
ATOM      4  C   UNL     1      -0.135   4.109   2.422  1.00  0.00     0.234 C 
ATOM      5  O   UNL     1       0.885   3.726   1.829  1.00  0.00    -0.274 OA
ATOM      6  H   UNL     1       0.705   5.870   2.397  1.00  0.00     0.163 HD
BRANCH   4   7
ATOM      7  C   UNL     1      -1.244   3.097   2.772  1.00  0.00     0.123 C 
ATOM      8  C   UNL     1      -1.518   2.245   1.521  1.00  0.00     0.054 C 
ATOM      9  C   UNL     1      -0.611   2.046   3.696  1.00  0.00     0.183 C 
ATOM     10  C   UNL     1      -1.674   0.825   2.024  1.00  0.00     0.161 C 
ATOM     11  O   UNL     1      -1.100   0.747   3.329  1.00  0.00    -0.380 OA
BRANCH   7  12
ATOM     12  C   UNL     1      -2.562   3.666   3.355  1.00  0.00     0.281 C 
BRANCH  12  13
ATOM     13  N   UNL     1      -3.561   2.679   3.670  1.00  0.00    -0.333 N 
ATOM     14  C   UNL     1      -5.025   0.186   5.904  1.00  0.00     0.014 C 
ATOM     15  C   UNL     1      -4.457   0.902   4.696  1.00  0.00     0.049 C 
ATOM     16  C   UNL     1      -3.784   2.228   5.024  1.00  0.00     0.265 C 
ATOM     17  C   UNL     1      -5.426   1.273   3.551  1.00  0.00     0.049 C 
ATOM     18  C   UNL     1      -4.734   2.462   2.852  1.00  0.00     0.265 C 
ATOM     19  C   UNL     1      -6.833   1.645   4.008  1.00  0.00     0.014 C 
ATOM     20  H   UNL     1      -2.840   2.083   3.264  1.00  0.00     0.348 HD
ENDBRANCH  12  13
ENDBRANCH   7  12
ENDBRANCH   4   7
ENDBRANCH   2   3
ENDBRANCH   1   2
BRANCH   1  21
ATOM     21  C   UNL     1       0.569   7.379   5.174  1.00  0.00     0.023 C 
BRANCH  21  22
ATOM     22  C   UNL     1       0.449   8.798   4.622  1.00  0.00     0.116 C 
BRANCH  22  23
ATOM     23  N   UNL     1      -0.773   9.480   5.021  1.00  0.00    -0.352 N 
ATOM     24  C   UNL     1      -0.988  10.832   5.141  1.00  0.00     0.251 C 
ATOM     25  H   UNL     1      -1.541   8.901   5.230  1.00  0.00     0.163 HD
ATOM     26  O   UNL     1      -2.053  11.261   5.574  1.00  0.00    -0.269 OA
BRANCH  24  27
ATOM     27  C   UNL     1       0.101  11.762   4.789  1.00  0.00     0.039 A 
ATOM     28  C   UNL     1       0.504  12.711   5.731  1.00  0.00     0.014 A 
ATOM     29  C   UNL     1       0.758  11.656   3.560  1.00  0.00     0.014 A 
ATOM     30  C   UNL     1       1.620  13.505   5.470  1.00  0.00     0.010 A 
ATOM     31  C   UNL     1       1.909  12.402   3.330  1.00  0.00     0.010 A 
ATOM     32  C   UNL     1       2.355  13.327   4.286  1.00  0.00    -0.014 A 
BRANCH  32  33
ATOM     33  C   UNL     1       3.608  14.083   4.046  1.00  0.00     0.031 A 
ATOM     34  C   UNL     1       3.693  15.071   2.918  1.00  0.00     0.074 A 
ATOM     35  C   UNL     1       4.689  13.829   4.809  1.00  0.00     0.049 A 
ATOM     36  N   UNL     1       4.713  15.793   2.530  1.00  0.00    -0.248 NA
ATOM     37  C   UNL     1       2.483  15.250   2.102  1.00  0.00     0.031 C 
ATOM     38  C   UNL     1       4.747  12.848   5.895  1.00  0.00     0.029 A 
ATOM     39  N   UNL     1       5.949  14.370   4.782  1.00  0.00    -0.354 N 
ATOM     40  C   UNL     1       4.271  16.503   1.421  1.00  0.00     0.074 A 
ATOM     41  C   UNL     1       2.910  16.085   1.165  1.00  0.00     0.031 C 
ATOM     42  C   UNL     1       5.971  12.876   6.447  1.00  0.00     0.029 A 
ATOM     43  C   UNL     1       6.791  13.851   5.736  1.00  0.00     0.049 A 
ATOM     44  H   UNL     1       6.224  15.063   4.140  1.00  0.00     0.167 HD
ATOM     45  C   UNL     1       4.933  17.437   0.697  1.00  0.00     0.037 A 
ATOM     46  C   UNL     1       8.079  14.132   6.005  1.00  0.00     0.037 A 
ATOM     47  C   UNL     1       6.279  17.868   0.969  1.00  0.00     0.049 A 
ATOM     48  C   UNL     1       8.788  15.178   5.192  1.00  0.00     0.074 A 
ATOM     49  C   UNL     1       7.013  18.855   0.335  1.00  0.00     0.029 A 
ATOM     50  N   UNL     1       7.094  17.334   1.956  1.00  0.00    -0.354 N 
ATOM     51  N   UNL     1       8.333  15.899   4.196  1.00  0.00    -0.248 NA
ATOM     52  C   UNL     1      10.187  15.456   5.546  1.00  0.00     0.031 C 
ATOM     53  C   UNL     1       8.287  18.891   0.913  1.00  0.00     0.029 A 
ATOM     54  C   UNL     1       8.331  17.956   1.935  1.00  0.00     0.049 A 
ATOM     55  H   UNL     1       6.832  16.618   2.579  1.00  0.00     0.167 HD
ATOM     56  C   UNL     1       9.379  16.730   3.819  1.00  0.00     0.074 A 
ATOM     57  C   UNL     1      10.486  16.436   4.706  1.00  0.00     0.031 C 
ATOM     58  C   UNL     1       9.421  17.651   2.826  1.00  0.00     0.037 A 
BRANCH  45  59
ATOM     59  C   UNL     1       4.201  18.062  -0.454  1.00  0.00     0.057 A 
ATOM     60  C   UNL     1       3.137  18.951  -0.256  1.00  0.00     0.134 A 
ATOM     61  C   UNL     1       4.581  17.794  -1.775  1.00  0.00     0.134 A 
ATOM     62  F   UNL     1       2.714  19.239   0.984  1.00  0.00    -0.206 F 
ATOM     63  C   UNL     1       2.460  19.532  -1.330  1.00  0.00     0.040 A 
ATOM     64  C   UNL     1       3.929  18.389  -2.857  1.00  0.00     0.040 A 
ATOM     65  F   UNL     1       5.595  16.955  -2.036  1.00  0.00    -0.206 F 
ATOM     66  C   UNL     1       2.861  19.256  -2.635  1.00  0.00     0.006 A 
ENDBRANCH  45  59
BRANCH  46  67
ATOM     67  C   UNL     1       8.776  13.433   7.114  1.00  0.00     0.057 A 
ATOM     68  C   UNL     1       9.110  14.109   8.294  1.00  0.00     0.134 A 
ATOM     69  C   UNL     1       9.128  12.082   7.023  1.00  0.00     0.134 A 
ATOM     70  F   UNL     1       8.814  15.410   8.432  1.00  0.00    -0.206 F 
ATOM     71  C   UNL     1       9.787  13.473   9.335  1.00  0.00     0.040 A 
ATOM     72  C   UNL     1       9.784  11.426   8.065  1.00  0.00     0.040 A 
ATOM     73  F   UNL     1       8.827  11.377   5.922  1.00  0.00    -0.206 F 
ATOM     74  C   UNL     1      10.123  12.124   9.223  1.00  0.00     0.006 A 
ENDBRANCH  46  67
BRANCH  58  75
ATOM     75  C   UNL     1      10.697  18.423   2.666  1.00  0.00     0.057 A 
ATOM     76  C   UNL     1      11.853  17.835   2.137  1.00  0.00     0.134 A 
ATOM     77  C   UNL     1      10.761  19.777   3.018  1.00  0.00     0.134 A 
ATOM     78  F   UNL     1      11.860  16.538   1.793  1.00  0.00    -0.206 F 
ATOM     79  C   UNL     1      13.036  18.561   1.986  1.00  0.00     0.040 A 
ATOM     80  C   UNL     1      11.930  20.520   2.848  1.00  0.00     0.040 A 
ATOM     81  F   UNL     1       9.687  20.402   3.522  1.00  0.00    -0.206 F 
ATOM     82  C   UNL     1      13.074  19.910   2.337  1.00  0.00     0.006 A 
ENDBRANCH  58  75
ENDBRANCH  32  33
ENDBRANCH  24  27
ENDBRANCH  22  23
ENDBRANCH  21  22
ENDBRANCH   1  21
TORSDOF 13
