REMARK SMILES Cc1ccc2cc(C[N@H+]3CC[NH2+][C@H](C(=O)NCCCCNC(=O)c4ccc(-c5c6nc(c(-c7c(F)cccc7F)c7ccc([nH]7)c(-c7c(F)cccc7F)c7nc(c(-c8c(F)cccc8F)c8ccc5[nH]8)C=C7)C=C6)cc4)C3)c(N3CCOCC3)nc2c1
REMARK SMILES IDX 18 1 17 2 16 3 14 4 15 5 13 7 9 8 10 9 78 10 11 12 12 13
REMARK SMILES IDX 8 16 7 17 1 18 2 19 3 20 88 21 4 22 87 23 5 24 86 25 6 26
REMARK SMILES IDX 79 27 80 28 81 29 85 30 82 31 84 32 83 33 19 34 20 35 21 36
REMARK SMILES IDX 22 37 23 39 24 40 25 41 77 42 26 43 76 44 27 45 28 46 29 47
REMARK SMILES IDX 70 48 30 49 75 50 69 51 71 52 31 53 74 54 68 55 67 56 32 58
REMARK SMILES IDX 58 59 41 60 57 61 42 62 45 63 56 64 72 65 43 66 44 67 55 69
REMARK SMILES IDX 73 70 46 71 33 72 34 73 39 74 35 75 36 76 38 77 40 78 37 79
REMARK SMILES IDX 59 80 60 81 65 82 61 83 62 84 64 85 66 86 63 87 47 88 48 89
REMARK SMILES IDX 53 90 49 91 50 92 52 93 54 94 51 95
REMARK H PARENT 16 6 9 11 12 14 12 15 21 38 71 57 45 68
REMARK Flexibility Score: inf
ROOT
ATOM      1  C   UNL     1      -3.136   1.155   1.511  1.00  0.00     0.023 C 
ENDROOT
BRANCH   1   2
ATOM      2  C   UNL     1      -3.713   2.392   2.191  1.00  0.00     0.116 C 
BRANCH   2   3
ATOM      3  N   UNL     1      -3.487   2.439   3.624  1.00  0.00    -0.351 N 
ATOM      4  C   UNL     1      -3.099   3.520   4.374  1.00  0.00     0.284 C 
ATOM      5  O   UNL     1      -3.151   3.421   5.602  1.00  0.00    -0.268 OA
ATOM      6  H   UNL     1      -3.629   1.598   4.115  1.00  0.00     0.163 HD
BRANCH   4   7
ATOM      7  C   UNL     1      -2.520   4.750   3.663  1.00  0.00     0.328 C 
ATOM      8  N   UNL     1      -1.334   6.964   4.079  1.00  0.00    -0.321 N 
ATOM      9  C   UNL     1      -2.091   7.482   2.926  1.00  0.00     0.324 C 
ATOM     10  C   UNL     1      -1.958   5.773   4.681  1.00  0.00     0.339 C 
ATOM     11  H   UNL     1      -1.412   7.688   4.793  1.00  0.00     0.348 HD
ATOM     12  C   UNL     1      -2.787   6.439   2.018  1.00  0.00     0.323 C 
ATOM     13  N   UNL     1      -3.522   5.408   2.779  1.00  0.00    -0.327 N 
ATOM     14  H   UNL     1      -3.933   4.726   2.142  1.00  0.00     0.347 HD
ATOM     15  H   UNL     1      -4.283   5.818   3.320  1.00  0.00     0.347 HD
BRANCH   8  16
ATOM     16  C   UNL     1       0.125   6.891   3.895  1.00  0.00     0.303 C 
BRANCH  16  17
ATOM     17  C   UNL     1       0.660   5.833   2.953  1.00  0.00     0.049 A 
ATOM     18  C   UNL     1       1.153   0.253  -0.301  1.00  0.00     0.044 C 
ATOM     19  C   UNL     1       1.088   1.370   0.699  1.00  0.00    -0.049 A 
ATOM     20  C   UNL     1       0.971   1.089   2.060  1.00  0.00     0.004 A 
ATOM     21  C   UNL     1       1.178   2.711   0.282  1.00  0.00     0.032 A 
ATOM     22  C   UNL     1       0.909   2.132   2.978  1.00  0.00     0.010 A 
ATOM     23  C   UNL     1       1.094   3.774   1.177  1.00  0.00     0.073 A 
ATOM     24  C   UNL     1       0.956   3.465   2.538  1.00  0.00     0.001 A 
ATOM     25  N   UNL     1       1.111   5.047   0.729  1.00  0.00    -0.230 NA
ATOM     26  C   UNL     1       0.790   4.521   3.429  1.00  0.00     0.023 A 
ATOM     27  C   UNL     1       0.913   6.070   1.596  1.00  0.00     0.138 A 
BRANCH  27  28
ATOM     28  N   UNL     1       0.913   7.362   1.095  1.00  0.00    -0.352 N 
ATOM     29  C   UNL     1       2.020   8.245   1.496  1.00  0.00     0.146 C 
ATOM     30  C   UNL     1       0.512   7.568  -0.301  1.00  0.00     0.146 C 
ATOM     31  C   UNL     1       1.567   9.700   1.292  1.00  0.00     0.181 C 
ATOM     32  C   UNL     1       0.127   9.051  -0.476  1.00  0.00     0.181 C 
ATOM     33  O   UNL     1       1.189   9.939  -0.077  1.00  0.00    -0.378 OA
ENDBRANCH  27  28
ENDBRANCH  16  17
ENDBRANCH   8  16
ENDBRANCH   4   7
ENDBRANCH   2   3
ENDBRANCH   1   2
BRANCH   1  34
ATOM     34  C   UNL     1      -3.549  -0.192   2.091  1.00  0.00     0.023 C 
BRANCH  34  35
ATOM     35  C   UNL     1      -5.029  -0.364   2.400  1.00  0.00     0.116 C 
BRANCH  35  36
ATOM     36  N   UNL     1      -5.910  -0.162   1.259  1.00  0.00    -0.352 N 
ATOM     37  C   UNL     1      -7.003  -0.907   0.878  1.00  0.00     0.251 C 
ATOM     38  H   UNL     1      -5.696   0.608   0.685  1.00  0.00     0.163 HD
ATOM     39  O   UNL     1      -7.631  -0.630  -0.139  1.00  0.00    -0.269 OA
BRANCH  37  40
ATOM     40  C   UNL     1      -7.372  -2.094   1.678  1.00  0.00     0.039 A 
ATOM     41  C   UNL     1      -7.492  -2.000   3.066  1.00  0.00     0.014 A 
ATOM     42  C   UNL     1      -7.480  -3.330   1.038  1.00  0.00     0.014 A 
ATOM     43  C   UNL     1      -7.510  -3.163   3.825  1.00  0.00     0.010 A 
ATOM     44  C   UNL     1      -7.592  -4.493   1.803  1.00  0.00     0.010 A 
ATOM     45  C   UNL     1      -7.538  -4.423   3.204  1.00  0.00    -0.014 A 
BRANCH  45  46
ATOM     46  C   UNL     1      -7.467  -5.649   4.039  1.00  0.00     0.031 A 
ATOM     47  C   UNL     1      -6.285  -6.578   3.948  1.00  0.00     0.074 A 
ATOM     48  C   UNL     1      -8.444  -5.892   4.934  1.00  0.00     0.049 A 
ATOM     49  N   UNL     1      -6.052  -7.687   4.605  1.00  0.00    -0.248 NA
ATOM     50  C   UNL     1      -5.226  -6.219   2.991  1.00  0.00     0.031 C 
ATOM     51  C   UNL     1      -9.633  -5.061   5.128  1.00  0.00     0.029 A 
ATOM     52  N   UNL     1      -8.578  -6.891   5.863  1.00  0.00    -0.354 N 
ATOM     53  C   UNL     1      -4.839  -8.168   4.127  1.00  0.00     0.074 A 
ATOM     54  C   UNL     1      -4.395  -7.245   3.105  1.00  0.00     0.031 C 
ATOM     55  C   UNL     1     -10.349  -5.553   6.149  1.00  0.00     0.029 A 
ATOM     56  C   UNL     1      -9.704  -6.767   6.637  1.00  0.00     0.049 A 
ATOM     57  H   UNL     1      -7.930  -7.625   5.964  1.00  0.00     0.167 HD
ATOM     58  C   UNL     1      -4.152  -9.272   4.511  1.00  0.00     0.037 A 
ATOM     59  C   UNL     1     -10.176  -7.553   7.622  1.00  0.00     0.037 A 
ATOM     60  C   UNL     1      -4.582 -10.180   5.543  1.00  0.00     0.049 A 
ATOM     61  C   UNL     1      -9.414  -8.786   8.005  1.00  0.00     0.074 A 
ATOM     62  C   UNL     1      -3.951 -11.318   6.013  1.00  0.00     0.029 A 
ATOM     63  N   UNL     1      -5.757 -10.047   6.268  1.00  0.00    -0.354 N 
ATOM     64  N   UNL     1      -8.274  -9.231   7.536  1.00  0.00    -0.248 NA
ATOM     65  C   UNL     1     -10.011  -9.631   9.047  1.00  0.00     0.031 C 
ATOM     66  C   UNL     1      -4.760 -11.893   7.001  1.00  0.00     0.029 A 
ATOM     67  C   UNL     1      -5.877 -11.092   7.171  1.00  0.00     0.049 A 
ATOM     68  H   UNL     1      -6.409  -9.318   6.158  1.00  0.00     0.167 HD
ATOM     69  C   UNL     1      -8.016 -10.408   8.225  1.00  0.00     0.074 A 
ATOM     70  C   UNL     1      -9.104 -10.590   9.164  1.00  0.00     0.031 C 
ATOM     71  C   UNL     1      -6.975 -11.264   8.087  1.00  0.00     0.037 A 
BRANCH  58  72
ATOM     72  C   UNL     1      -2.866  -9.567   3.793  1.00  0.00     0.057 A 
ATOM     73  C   UNL     1      -2.782 -10.633   2.888  1.00  0.00     0.134 A 
ATOM     74  C   UNL     1      -1.707  -8.809   4.007  1.00  0.00     0.134 A 
ATOM     75  F   UNL     1      -3.853 -11.402   2.639  1.00  0.00    -0.206 F 
ATOM     76  C   UNL     1      -1.593 -10.932   2.220  1.00  0.00     0.040 A 
ATOM     77  C   UNL     1      -0.518  -9.085   3.329  1.00  0.00     0.040 A 
ATOM     78  F   UNL     1      -1.724  -7.766   4.850  1.00  0.00    -0.206 F 
ATOM     79  C   UNL     1      -0.458 -10.153   2.435  1.00  0.00     0.006 A 
ENDBRANCH  58  72
BRANCH  59  80
ATOM     80  C   UNL     1     -11.447  -7.197   8.298  1.00  0.00     0.057 A 
ATOM     81  C   UNL     1     -12.674  -7.288   7.631  1.00  0.00     0.134 A 
ATOM     82  C   UNL     1     -11.459  -6.739   9.619  1.00  0.00     0.134 A 
ATOM     83  F   UNL     1     -12.724  -7.715   6.360  1.00  0.00    -0.206 F 
ATOM     84  C   UNL     1     -13.869  -6.920   8.248  1.00  0.00     0.040 A 
ATOM     85  C   UNL     1     -12.650  -6.390  10.257  1.00  0.00     0.040 A 
ATOM     86  F   UNL     1     -10.315  -6.648  10.313  1.00  0.00    -0.206 F 
ATOM     87  C   UNL     1     -13.859  -6.473   9.568  1.00  0.00     0.006 A 
ENDBRANCH  59  80
BRANCH  71  88
ATOM     88  C   UNL     1      -6.973 -12.469   8.979  1.00  0.00     0.057 A 
ATOM     89  C   UNL     1      -6.098 -12.552  10.069  1.00  0.00     0.134 A 
ATOM     90  C   UNL     1      -7.840 -13.546   8.756  1.00  0.00     0.134 A 
ATOM     91  F   UNL     1      -5.241 -11.555  10.333  1.00  0.00    -0.206 F 
ATOM     92  C   UNL     1      -6.088 -13.666  10.909  1.00  0.00     0.040 A 
ATOM     93  C   UNL     1      -7.854 -14.656   9.603  1.00  0.00     0.040 A 
ATOM     94  F   UNL     1      -8.713 -13.517   7.739  1.00  0.00    -0.206 F 
ATOM     95  C   UNL     1      -6.973 -14.718  10.681  1.00  0.00     0.006 A 
ENDBRANCH  71  88
ENDBRANCH  45  46
ENDBRANCH  37  40
ENDBRANCH  35  36
ENDBRANCH  34  35
ENDBRANCH   1  34
TORSDOF 14
