REMARK SMILES COc1ccc(N2C[C@@H](C)Cn3c2nc2c3c(=O)n(CC(=O)NCCCCNC(=O)c3ccc(-c4c5nc(c(-c6c(F)cccc6F)c6ccc([nH]6)c(-c6c(F)cccc6F)c6nc(c(-c7c(F)cccc7F)c7ccc4[nH]7)C=C6)C=C5)cc3)c(=O)n2C)cc1
REMARK SMILES IDX 25 1 24 2 23 3 21 4 22 5 20 7 19 8 7 9 8 10 13 11 9 12 12 13
REMARK SMILES IDX 14 14 11 15 10 16 16 17 15 18 17 19 87 20 18 21 85 22 88 23
REMARK SMILES IDX 86 24 6 25 3 26 4 27 90 28 5 29 89 30 2 31 1 32 26 33 27 34
REMARK SMILES IDX 28 35 29 36 30 38 31 39 32 40 84 41 33 42 83 43 34 44 35 45
REMARK SMILES IDX 36 46 77 47 37 48 82 49 76 50 78 51 38 52 81 53 75 54 74 55
REMARK SMILES IDX 39 57 65 58 48 59 64 60 49 61 52 62 63 63 79 64 50 65 51 66
REMARK SMILES IDX 62 68 80 69 53 70 40 71 41 72 46 73 42 74 43 75 45 76 47 77
REMARK SMILES IDX 44 78 66 79 67 80 72 81 68 82 69 83 71 84 73 85 70 86 54 87
REMARK SMILES IDX 55 88 60 89 56 90 57 91 59 92 61 93 58 94
REMARK H PARENT 23 6 28 37 78 56 52 67
REMARK Flexibility Score: inf
ROOT
ATOM      1  C   UNL     1       3.964  -8.197  -8.378  1.00  0.00     0.023 C 
ENDROOT
BRANCH   1   2
ATOM      2  C   UNL     1       5.159  -8.208  -9.329  1.00  0.00     0.116 C 
BRANCH   2   3
ATOM      3  N   UNL     1       4.823  -7.659 -10.628  1.00  0.00    -0.355 N 
ATOM      4  C   UNL     1       5.323  -6.573 -11.283  1.00  0.00     0.240 C 
ATOM      5  O   UNL     1       5.057  -6.479 -12.486  1.00  0.00    -0.273 OA
ATOM      6  H   UNL     1       4.121  -8.149 -11.115  1.00  0.00     0.163 HD
BRANCH   4   7
ATOM      7  C   UNL     1       6.275  -5.578 -10.609  1.00  0.00     0.230 C 
BRANCH   7   8
ATOM      8  N   UNL     1       5.714  -4.959  -9.412  1.00  0.00    -0.249 N 
ATOM      9  N   UNL     1       1.959  -1.761  -6.335  1.00  0.00    -0.312 N 
ATOM     10  C   UNL     1       1.202  -0.917  -7.272  1.00  0.00     0.131 C 
ATOM     11  C   UNL     1       2.982  -2.519  -6.820  1.00  0.00     0.212 A 
ATOM     12  C   UNL     1       0.807  -1.753  -8.492  1.00  0.00     0.026 C 
ATOM     13  N   UNL     1       3.037  -2.769  -8.179  1.00  0.00    -0.304 N 
ATOM     14  N   UNL     1       3.961  -3.161  -6.203  1.00  0.00    -0.194 NA
ATOM     15  C   UNL     1       2.080  -2.285  -9.153  1.00  0.00     0.131 C 
ATOM     16  C   UNL     1      -0.033  -0.955  -9.483  1.00  0.00     0.011 C 
ATOM     17  C   UNL     1       4.117  -3.559  -8.418  1.00  0.00     0.154 A 
ATOM     18  C   UNL     1       4.657  -3.791  -7.195  1.00  0.00     0.170 A 
ATOM     19  C   UNL     1       4.641  -4.088  -9.627  1.00  0.00     0.283 A 
ATOM     20  N   UNL     1       5.782  -4.571  -7.050  1.00  0.00    -0.279 N 
ATOM     21  O   UNL     1       4.195  -3.801 -10.725  1.00  0.00    -0.267 OA
ATOM     22  C   UNL     1       6.366  -5.147  -8.181  1.00  0.00     0.332 A 
ATOM     23  C   UNL     1       6.361  -4.779  -5.735  1.00  0.00     0.157 C 
ATOM     24  O   UNL     1       7.412  -5.798  -8.107  1.00  0.00    -0.247 OA
BRANCH   9  25
ATOM     25  C   UNL     1       1.633  -1.615  -4.975  1.00  0.00     0.044 A 
ATOM     26  C   UNL     1       0.899  -1.252  -2.267  1.00  0.00     0.119 A 
ATOM     27  C   UNL     1      -0.053  -1.634  -3.206  1.00  0.00     0.048 A 
ATOM     28  C   UNL     1       2.226  -1.090  -2.665  1.00  0.00     0.048 A 
ATOM     29  C   UNL     1       0.307  -1.801  -4.545  1.00  0.00     0.030 A 
ATOM     30  C   UNL     1       2.588  -1.284  -4.008  1.00  0.00     0.030 A 
BRANCH  26  31
ATOM     31  O   UNL     1       0.442  -1.133  -0.984  1.00  0.00    -0.497 OA
ATOM     32  C   UNL     1       1.039  -0.086  -0.227  1.00  0.00     0.278 C 
ENDBRANCH  26  31
ENDBRANCH   9  25
ENDBRANCH   7   8
ENDBRANCH   4   7
ENDBRANCH   2   3
ENDBRANCH   1   2
BRANCH   1  33
ATOM     33  C   UNL     1       2.843  -9.194  -8.734  1.00  0.00     0.023 C 
BRANCH  33  34
ATOM     34  C   UNL     1       3.210 -10.686  -8.625  1.00  0.00     0.116 C 
BRANCH  34  35
ATOM     35  N   UNL     1       3.551 -11.038  -7.260  1.00  0.00    -0.352 N 
ATOM     36  C   UNL     1       3.259 -12.135  -6.497  1.00  0.00     0.251 C 
ATOM     37  H   UNL     1       4.095 -10.361  -6.795  1.00  0.00     0.163 HD
ATOM     38  O   UNL     1       3.430 -12.047  -5.280  1.00  0.00    -0.269 OA
BRANCH  36  39
ATOM     39  C   UNL     1       2.766 -13.416  -7.052  1.00  0.00     0.039 A 
ATOM     40  C   UNL     1       1.888 -14.159  -6.249  1.00  0.00     0.014 A 
ATOM     41  C   UNL     1       3.267 -13.985  -8.226  1.00  0.00     0.014 A 
ATOM     42  C   UNL     1       1.504 -15.448  -6.616  1.00  0.00     0.010 A 
ATOM     43  C   UNL     1       2.877 -15.282  -8.597  1.00  0.00     0.010 A 
ATOM     44  C   UNL     1       1.991 -16.020  -7.798  1.00  0.00    -0.014 A 
BRANCH  44  45
ATOM     45  C   UNL     1       1.427 -17.328  -8.201  1.00  0.00     0.031 A 
ATOM     46  C   UNL     1       0.967 -17.409  -9.621  1.00  0.00     0.074 A 
ATOM     47  C   UNL     1       1.734 -18.481  -7.565  1.00  0.00     0.049 A 
ATOM     48  N   UNL     1       1.773 -17.649 -10.615  1.00  0.00    -0.248 NA
ATOM     49  C   UNL     1      -0.365 -16.970 -10.037  1.00  0.00     0.031 C 
ATOM     50  C   UNL     1       3.066 -18.777  -7.024  1.00  0.00     0.029 A 
ATOM     51  N   UNL     1       1.062 -19.683  -7.487  1.00  0.00    -0.354 N 
ATOM     52  C   UNL     1       1.090 -17.357 -11.782  1.00  0.00     0.074 A 
ATOM     53  C   UNL     1      -0.236 -16.947 -11.374  1.00  0.00     0.031 C 
ATOM     54  C   UNL     1       3.168 -20.109  -6.835  1.00  0.00     0.029 A 
ATOM     55  C   UNL     1       1.876 -20.746  -7.096  1.00  0.00     0.049 A 
ATOM     56  H   UNL     1       0.103 -19.781  -7.687  1.00  0.00     0.167 HD
ATOM     57  C   UNL     1       1.657 -17.463 -13.013  1.00  0.00     0.037 A 
ATOM     58  C   UNL     1       1.737 -22.031  -7.530  1.00  0.00     0.037 A 
ATOM     59  C   UNL     1       3.008 -17.937 -13.034  1.00  0.00     0.049 A 
ATOM     60  C   UNL     1       2.167 -21.904  -8.967  1.00  0.00     0.074 A 
ATOM     61  C   UNL     1       4.277 -17.405 -13.099  1.00  0.00     0.029 A 
ATOM     62  N   UNL     1       3.207 -19.293 -12.931  1.00  0.00    -0.354 N 
ATOM     63  N   UNL     1       3.397 -21.837  -9.396  1.00  0.00    -0.248 NA
ATOM     64  C   UNL     1       1.156 -21.479  -9.938  1.00  0.00     0.031 C 
ATOM     65  C   UNL     1       5.137 -18.410 -12.552  1.00  0.00     0.029 A 
ATOM     66  C   UNL     1       4.322 -19.469 -12.154  1.00  0.00     0.049 A 
ATOM     67  H   UNL     1       2.656 -20.001 -13.336  1.00  0.00     0.167 HD
ATOM     68  C   UNL     1       3.336 -21.109 -10.586  1.00  0.00     0.074 A 
ATOM     69  C   UNL     1       1.925 -20.952 -10.880  1.00  0.00     0.031 C 
ATOM     70  C   UNL     1       4.421 -20.511 -11.159  1.00  0.00     0.037 A 
BRANCH  57  71
ATOM     71  C   UNL     1       0.957 -17.288 -14.300  1.00  0.00     0.057 A 
ATOM     72  C   UNL     1       0.637 -18.436 -15.038  1.00  0.00     0.134 A 
ATOM     73  C   UNL     1       0.839 -16.051 -14.934  1.00  0.00     0.134 A 
ATOM     74  F   UNL     1       0.747 -19.651 -14.474  1.00  0.00    -0.206 F 
ATOM     75  C   UNL     1       0.267 -18.366 -16.378  1.00  0.00     0.040 A 
ATOM     76  C   UNL     1       0.457 -15.965 -16.277  1.00  0.00     0.040 A 
ATOM     77  F   UNL     1       1.148 -14.918 -14.285  1.00  0.00    -0.206 F 
ATOM     78  C   UNL     1       0.191 -17.126 -17.006  1.00  0.00     0.006 A 
ENDBRANCH  57  71
BRANCH  58  79
ATOM     79  C   UNL     1       0.506 -22.770  -7.104  1.00  0.00     0.057 A 
ATOM     80  C   UNL     1       0.160 -22.773  -5.739  1.00  0.00     0.134 A 
ATOM     81  C   UNL     1      -0.340 -23.512  -7.941  1.00  0.00     0.134 A 
ATOM     82  F   UNL     1       0.971 -22.206  -4.832  1.00  0.00    -0.206 F 
ATOM     83  C   UNL     1      -1.013 -23.364  -5.260  1.00  0.00     0.040 A 
ATOM     84  C   UNL     1      -1.533 -24.085  -7.481  1.00  0.00     0.040 A 
ATOM     85  F   UNL     1      -0.047 -23.711  -9.232  1.00  0.00    -0.206 F 
ATOM     86  C   UNL     1      -1.883 -23.995  -6.139  1.00  0.00     0.006 A 
ENDBRANCH  58  79
BRANCH  70  87
ATOM     87  C   UNL     1       5.728 -20.787 -10.499  1.00  0.00     0.057 A 
ATOM     88  C   UNL     1       6.322 -22.049 -10.586  1.00  0.00     0.134 A 
ATOM     89  C   UNL     1       6.416 -19.795  -9.787  1.00  0.00     0.134 A 
ATOM     90  F   UNL     1       5.719 -23.041 -11.261  1.00  0.00    -0.206 F 
ATOM     91  C   UNL     1       7.561 -22.312 -10.000  1.00  0.00     0.040 A 
ATOM     92  C   UNL     1       7.668 -20.037  -9.220  1.00  0.00     0.040 A 
ATOM     93  F   UNL     1       5.899 -18.564  -9.639  1.00  0.00    -0.206 F 
ATOM     94  C   UNL     1       8.243 -21.301  -9.325  1.00  0.00     0.006 A 
ENDBRANCH  70  87
ENDBRANCH  44  45
ENDBRANCH  36  39
ENDBRANCH  34  35
ENDBRANCH  33  34
ENDBRANCH   1  33
TORSDOF 14
