REMARK SMILES O=C(NCCCCNC(=O)[C@H]1CCCN(C(=O)c2ccc(NC(=O)c3ccccc3)cc2)C1)c1ccc(-c2c3nc(c(-c4c(F)cccc4F)c4ccc([nH]4)c(-c4c(F)cccc4F)c4nc(c(-c5c(F)cccc5F)c5ccc2[nH]5)C=C4)C=C3)cc1
REMARK SMILES IDX 6 1 5 2 4 3 3 4 1 5 2 6 34 8 35 9 87 10 36 11 86 12 37 13
REMARK SMILES IDX 38 14 39 15 80 16 40 17 85 18 79 19 81 20 41 21 84 22 78 23
REMARK SMILES IDX 77 24 42 26 68 27 51 28 67 29 52 30 55 31 66 32 82 33 53 34
REMARK SMILES IDX 54 35 65 37 83 38 56 39 43 40 44 41 49 42 45 43 46 44 48 45
REMARK SMILES IDX 50 46 47 47 69 48 70 49 75 50 71 51 72 52 74 53 76 54 73 55
REMARK SMILES IDX 57 56 58 57 63 58 59 59 60 60 62 61 64 62 61 63 7 64 8 65
REMARK SMILES IDX 9 66 10 68 11 69 12 70 33 71 13 72 15 73 14 74 16 75 17 76
REMARK SMILES IDX 18 77 19 78 32 79 20 80 31 81 21 82 22 83 23 84 24 86 25 87
REMARK SMILES IDX 26 88 30 89 27 90 29 91 28 92
REMARK H PARENT 3 7 81 25 55 36 8 67 22 85
REMARK Flexibility Score: inf
ROOT
ATOM      1  C   UNL     1       7.829   0.432  -7.212  1.00  0.00     0.023 C 
ENDROOT
BRANCH   1   2
ATOM      2  C   UNL     1       8.582   0.321  -8.536  1.00  0.00     0.023 C 
BRANCH   2   3
ATOM      3  C   UNL     1      10.098   0.263  -8.419  1.00  0.00     0.116 C 
BRANCH   3   4
ATOM      4  N   UNL     1      10.580  -0.909  -7.704  1.00  0.00    -0.352 N 
ATOM      5  O   UNL     1      11.822  -2.770  -7.378  1.00  0.00    -0.269 OA
ATOM      6  C   UNL     1      11.610  -1.758  -8.038  1.00  0.00     0.251 C 
ATOM      7  H   UNL     1      10.105  -1.123  -6.868  1.00  0.00     0.163 HD
BRANCH   6   8
ATOM      8  C   UNL     1      12.443  -1.461  -9.224  1.00  0.00     0.039 A 
ATOM      9  C   UNL     1      12.921  -0.170  -9.448  1.00  0.00     0.014 A 
ATOM     10  C   UNL     1      12.726  -2.483 -10.136  1.00  0.00     0.014 A 
ATOM     11  C   UNL     1      13.541   0.134 -10.653  1.00  0.00     0.010 A 
ATOM     12  C   UNL     1      13.433  -2.193 -11.309  1.00  0.00     0.010 A 
ATOM     13  C   UNL     1      13.815  -0.875 -11.593  1.00  0.00    -0.014 A 
BRANCH  13  14
ATOM     14  C   UNL     1      14.554  -0.511 -12.829  1.00  0.00     0.031 A 
ATOM     15  C   UNL     1      13.915  -0.605 -14.187  1.00  0.00     0.074 A 
ATOM     16  C   UNL     1      15.801  -0.018 -12.703  1.00  0.00     0.049 A 
ATOM     17  N   UNL     1      14.398  -0.238 -15.348  1.00  0.00    -0.248 NA
ATOM     18  C   UNL     1      12.568  -1.191 -14.257  1.00  0.00     0.031 C 
ATOM     19  C   UNL     1      16.535   0.096 -11.440  1.00  0.00     0.029 A 
ATOM     20  N   UNL     1      16.657   0.513 -13.633  1.00  0.00    -0.354 N 
ATOM     21  C   UNL     1      13.423  -0.555 -16.286  1.00  0.00     0.074 A 
ATOM     22  C   UNL     1      12.330  -1.171 -15.563  1.00  0.00     0.031 C 
ATOM     23  C   UNL     1      17.700   0.718 -11.662  1.00  0.00     0.029 A 
ATOM     24  C   UNL     1      17.821   0.998 -13.088  1.00  0.00     0.049 A 
ATOM     25  H   UNL     1      16.457   0.543 -14.596  1.00  0.00     0.167 HD
ATOM     26  C   UNL     1      13.435  -0.341 -17.624  1.00  0.00     0.037 A 
ATOM     27  C   UNL     1      18.873   1.602 -13.670  1.00  0.00     0.037 A 
ATOM     28  C   UNL     1      14.520   0.282 -18.340  1.00  0.00     0.049 A 
ATOM     29  C   UNL     1      18.850   1.841 -15.149  1.00  0.00     0.074 A 
ATOM     30  C   UNL     1      14.622   0.545 -19.696  1.00  0.00     0.029 A 
ATOM     31  N   UNL     1      15.691   0.743 -17.756  1.00  0.00    -0.354 N 
ATOM     32  N   UNL     1      17.912   1.549 -16.017  1.00  0.00    -0.248 NA
ATOM     33  C   UNL     1      20.031   2.491 -15.731  1.00  0.00     0.031 C 
ATOM     34  C   UNL     1      15.866   1.141 -19.936  1.00  0.00     0.029 A 
ATOM     35  C   UNL     1      16.523   1.282 -18.725  1.00  0.00     0.049 A 
ATOM     36  H   UNL     1      15.899   0.695 -16.795  1.00  0.00     0.167 HD
ATOM     37  C   UNL     1      18.389   1.978 -17.247  1.00  0.00     0.074 A 
ATOM     38  C   UNL     1      19.683   2.583 -17.007  1.00  0.00     0.031 C 
ATOM     39  C   UNL     1      17.812   1.868 -18.468  1.00  0.00     0.037 A 
BRANCH  26  40
ATOM     40  C   UNL     1      12.237  -0.787 -18.411  1.00  0.00     0.057 A 
ATOM     41  C   UNL     1      11.025  -0.087 -18.365  1.00  0.00     0.134 A 
ATOM     42  C   UNL     1      12.314  -1.891 -19.270  1.00  0.00     0.134 A 
ATOM     43  F   UNL     1      10.883   0.973 -17.555  1.00  0.00    -0.206 F 
ATOM     44  C   UNL     1       9.927  -0.477 -19.136  1.00  0.00     0.040 A 
ATOM     45  C   UNL     1      11.230  -2.279 -20.060  1.00  0.00     0.040 A 
ATOM     46  F   UNL     1      13.448  -2.602 -19.367  1.00  0.00    -0.206 F 
ATOM     47  C   UNL     1      10.031  -1.571 -19.993  1.00  0.00     0.006 A 
ENDBRANCH  26  40
BRANCH  27  48
ATOM     48  C   UNL     1      20.031   2.018 -12.842  1.00  0.00     0.057 A 
ATOM     49  C   UNL     1      20.307   3.368 -12.603  1.00  0.00     0.134 A 
ATOM     50  C   UNL     1      20.880   1.070 -12.258  1.00  0.00     0.134 A 
ATOM     51  F   UNL     1      19.538   4.322 -13.149  1.00  0.00    -0.206 F 
ATOM     52  C   UNL     1      21.394   3.762 -11.822  1.00  0.00     0.040 A 
ATOM     53  C   UNL     1      21.954   1.449 -11.453  1.00  0.00     0.040 A 
ATOM     54  F   UNL     1      20.660  -0.240 -12.443  1.00  0.00    -0.206 F 
ATOM     55  C   UNL     1      22.217   2.800 -11.239  1.00  0.00     0.006 A 
ENDBRANCH  27  48
BRANCH  39  56
ATOM     56  C   UNL     1      18.587   2.418 -19.628  1.00  0.00     0.057 A 
ATOM     57  C   UNL     1      19.719   1.763 -20.129  1.00  0.00     0.134 A 
ATOM     58  C   UNL     1      18.198   3.611 -20.248  1.00  0.00     0.134 A 
ATOM     59  F   UNL     1      20.151   0.625 -19.566  1.00  0.00    -0.206 F 
ATOM     60  C   UNL     1      20.456   2.292 -21.189  1.00  0.00     0.040 A 
ATOM     61  C   UNL     1      18.913   4.138 -21.324  1.00  0.00     0.040 A 
ATOM     62  F   UNL     1      17.119   4.283 -19.819  1.00  0.00    -0.206 F 
ATOM     63  C   UNL     1      20.051   3.481 -21.792  1.00  0.00     0.006 A 
ENDBRANCH  39  56
ENDBRANCH  13  14
ENDBRANCH   6   8
ENDBRANCH   3   4
ENDBRANCH   2   3
ENDBRANCH   1   2
BRANCH   1  64
ATOM     64  C   UNL     1       8.260   1.592  -6.317  1.00  0.00     0.116 C 
BRANCH  64  65
ATOM     65  N   UNL     1       8.114   2.885  -6.970  1.00  0.00    -0.356 N 
ATOM     66  C   UNL     1       7.294   3.930  -6.652  1.00  0.00     0.224 C 
ATOM     67  H   UNL     1       8.690   3.027  -7.755  1.00  0.00     0.163 HD
ATOM     68  O   UNL     1       7.354   4.956  -7.329  1.00  0.00    -0.275 OA
BRANCH  66  69
ATOM     69  C   UNL     1       6.333   3.776  -5.492  1.00  0.00     0.098 C 
ATOM     70  C   UNL     1       5.862   5.122  -4.926  1.00  0.00     0.017 C 
ATOM     71  C   UNL     1       5.109   2.981  -5.939  1.00  0.00     0.133 C 
ATOM     72  C   UNL     1       4.920   4.878  -3.745  1.00  0.00     0.022 C 
ATOM     73  N   UNL     1       4.247   2.724  -4.785  1.00  0.00    -0.338 N 
ATOM     74  C   UNL     1       3.769   3.932  -4.102  1.00  0.00     0.120 C 
BRANCH  73  75
ATOM     75  C   UNL     1       4.086   1.400  -4.377  1.00  0.00     0.253 C 
ATOM     76  O   UNL     1       4.693   0.466  -4.903  1.00  0.00    -0.269 OA
BRANCH  75  77
ATOM     77  C   UNL     1       3.210   1.069  -3.229  1.00  0.00     0.040 A 
ATOM     78  C   UNL     1       3.691   0.158  -2.287  1.00  0.00     0.016 A 
ATOM     79  C   UNL     1       1.924   1.588  -3.084  1.00  0.00     0.016 A 
ATOM     80  C   UNL     1       2.939  -0.137  -1.147  1.00  0.00     0.027 A 
ATOM     81  C   UNL     1       1.194   1.322  -1.920  1.00  0.00     0.027 A 
ATOM     82  C   UNL     1       1.725   0.507  -0.911  1.00  0.00     0.041 A 
BRANCH  82  83
ATOM     83  N   UNL     1       0.977   0.391   0.275  1.00  0.00    -0.322 N 
ATOM     84  C   UNL     1       1.282  -0.100   1.526  1.00  0.00     0.255 C 
ATOM     85  H   UNL     1       0.055   0.726   0.195  1.00  0.00     0.170 HD
ATOM     86  O   UNL     1       0.388  -0.235   2.361  1.00  0.00    -0.269 OA
BRANCH  84  87
ATOM     87  C   UNL     1       2.663  -0.430   1.922  1.00  0.00     0.040 A 
ATOM     88  C   UNL     1       2.927  -1.718   2.398  1.00  0.00     0.014 A 
ATOM     89  C   UNL     1       3.693   0.515   1.827  1.00  0.00     0.014 A 
ATOM     90  C   UNL     1       4.237  -2.085   2.708  1.00  0.00     0.001 A 
ATOM     91  C   UNL     1       5.002   0.139   2.130  1.00  0.00     0.001 A 
ATOM     92  C   UNL     1       5.274  -1.162   2.559  1.00  0.00     0.000 A 
ENDBRANCH  84  87
ENDBRANCH  82  83
ENDBRANCH  75  77
ENDBRANCH  73  75
ENDBRANCH  66  69
ENDBRANCH  64  65
ENDBRANCH   1  64
TORSDOF 15
