REMARK SMILES Cc1[nH]c2ccccc2c1/C=C1/SC(=S)N(c2cccc(C(=O)NCCCCNC(=O)c3ccc(-c4c5nc(c(-c6c(F)cccc6F)c6ccc([nH]6)c(-c6c(F)cccc6F)c6nc(c(-c7c(F)cccc7F)c7ccc4[nH]7)C=C6)C=C5)cc3)c2)C1=O
REMARK SMILES IDX 26 1 25 2 24 3 22 4 23 5 21 7 17 8 18 9 86 10 19 11 20 12
REMARK SMILES IDX 16 13 11 14 12 15 13 16 87 17 14 18 88 19 15 20 10 21 1 22
REMARK SMILES IDX 2 23 3 24 4 25 9 27 5 28 8 29 6 30 7 31 27 32 28 33 29 34
REMARK SMILES IDX 30 35 31 37 32 38 33 39 85 40 34 41 84 42 35 43 36 44 37 45
REMARK SMILES IDX 78 46 38 47 83 48 77 49 79 50 39 51 82 52 76 53 75 54 40 56
REMARK SMILES IDX 66 57 49 58 65 59 50 60 53 61 64 62 80 63 51 64 52 65 63 67
REMARK SMILES IDX 81 68 54 69 41 70 42 71 47 72 43 73 44 74 46 75 48 76 45 77
REMARK SMILES IDX 67 78 68 79 73 80 69 81 70 82 72 83 74 84 71 85 55 86 56 87
REMARK SMILES IDX 61 88 57 89 58 90 60 91 62 92 59 93
REMARK H PARENT 24 6 3 26 29 36 79 55 53 66
REMARK Flexibility Score: inf
ROOT
ATOM      1  C   UNL     1      -8.414  -1.310  -2.422  1.00  0.00     0.023 C 
ENDROOT
BRANCH   1   2
ATOM      2  C   UNL     1      -7.663  -2.208  -3.397  1.00  0.00     0.116 C 
BRANCH   2   3
ATOM      3  N   UNL     1      -7.955  -1.962  -4.799  1.00  0.00    -0.352 N 
ATOM      4  C   UNL     1      -7.126  -1.882  -5.897  1.00  0.00     0.251 C 
ATOM      5  O   UNL     1      -7.624  -1.644  -6.996  1.00  0.00    -0.269 OA
ATOM      6  H   UNL     1      -8.910  -1.829  -4.999  1.00  0.00     0.163 HD
BRANCH   4   7
ATOM      7  C   UNL     1      -5.648  -2.003  -5.780  1.00  0.00     0.041 A 
ATOM      8  C   UNL     1      -3.669  -2.733  -4.573  1.00  0.00     0.051 A 
ATOM      9  C   UNL     1      -2.897  -1.873  -5.369  1.00  0.00     0.027 A 
ATOM     10  C   UNL     1      -5.034  -2.861  -4.861  1.00  0.00     0.040 A 
ATOM     11  C   UNL     1      -3.480  -1.126  -6.393  1.00  0.00     0.003 A 
ATOM     12  C   UNL     1      -4.859  -1.169  -6.580  1.00  0.00     0.014 A 
BRANCH   8  13
ATOM     13  N   UNL     1      -3.137  -3.281  -3.359  1.00  0.00    -0.261 N 
ATOM     14  C   UNL     1      -1.647  -2.530  -0.098  1.00  0.00     0.032 C 
ATOM     15  C   UNL     1      -2.187  -3.088  -1.192  1.00  0.00     0.081 C 
ATOM     16  S   UNL     1      -2.768  -4.707  -1.231  1.00  0.00    -0.054 SA
ATOM     17  C   UNL     1      -2.425  -2.428  -2.509  1.00  0.00     0.270 C 
ATOM     18  C   UNL     1      -3.388  -4.556  -2.875  1.00  0.00     0.152 C 
ATOM     19  O   UNL     1      -2.096  -1.274  -2.752  1.00  0.00    -0.268 OA
ATOM     20  S   UNL     1      -4.084  -5.873  -3.639  1.00  0.00    -0.051 S 
BRANCH  14  21
ATOM     21  C   UNL     1      -1.183  -1.187   0.023  1.00  0.00     0.004 A 
ATOM     22  C   UNL     1      -3.459   0.119   0.141  1.00  0.00     0.065 C 
ATOM     23  C   UNL     1      -1.985  -0.065   0.121  1.00  0.00     0.020 A 
ATOM     24  N   UNL     1      -1.143   1.022   0.154  1.00  0.00    -0.358 N 
ATOM     25  C   UNL     1       0.173   0.624   0.114  1.00  0.00     0.046 A 
ATOM     26  H   UNL     1      -1.442   1.959   0.200  1.00  0.00     0.166 HD
ATOM     27  C   UNL     1       0.179  -0.769   0.052  1.00  0.00     0.007 A 
ATOM     28  C   UNL     1       1.346   1.388   0.116  1.00  0.00     0.027 A 
ATOM     29  C   UNL     1       1.422  -1.435   0.002  1.00  0.00     0.011 A 
ATOM     30  C   UNL     1       2.564   0.705   0.061  1.00  0.00     0.002 A 
ATOM     31  C   UNL     1       2.604  -0.687   0.009  1.00  0.00     0.001 A 
ENDBRANCH  14  21
ENDBRANCH   8  13
ENDBRANCH   4   7
ENDBRANCH   2   3
ENDBRANCH   1   2
BRANCH   1  32
ATOM     32  C   UNL     1      -9.935  -1.397  -2.448  1.00  0.00     0.023 C 
BRANCH  32  33
ATOM     33  C   UNL     1     -10.530  -2.797  -2.367  1.00  0.00     0.116 C 
BRANCH  33  34
ATOM     34  N   UNL     1     -10.119  -3.547  -1.189  1.00  0.00    -0.352 N 
ATOM     35  C   UNL     1     -10.883  -4.202  -0.249  1.00  0.00     0.251 C 
ATOM     36  H   UNL     1      -9.147  -3.593  -1.042  1.00  0.00     0.163 HD
ATOM     37  O   UNL     1     -10.347  -4.719   0.724  1.00  0.00    -0.269 OA
BRANCH  35  38
ATOM     38  C   UNL     1     -12.356  -4.240  -0.385  1.00  0.00     0.039 A 
ATOM     39  C   UNL     1     -13.142  -3.930   0.728  1.00  0.00     0.014 A 
ATOM     40  C   UNL     1     -12.961  -4.545  -1.606  1.00  0.00     0.014 A 
ATOM     41  C   UNL     1     -14.529  -3.830   0.592  1.00  0.00     0.010 A 
ATOM     42  C   UNL     1     -14.333  -4.365  -1.760  1.00  0.00     0.010 A 
ATOM     43  C   UNL     1     -15.130  -3.995  -0.666  1.00  0.00    -0.014 A 
BRANCH  43  44
ATOM     44  C   UNL     1     -16.585  -3.768  -0.865  1.00  0.00     0.031 A 
ATOM     45  C   UNL     1     -17.473  -4.894  -1.315  1.00  0.00     0.074 A 
ATOM     46  C   UNL     1     -17.092  -2.526  -0.724  1.00  0.00     0.049 A 
ATOM     47  N   UNL     1     -18.744  -4.870  -1.630  1.00  0.00    -0.248 NA
ATOM     48  C   UNL     1     -16.843  -6.216  -1.460  1.00  0.00     0.031 C 
ATOM     49  C   UNL     1     -16.328  -1.335  -0.346  1.00  0.00     0.029 A 
ATOM     50  N   UNL     1     -18.370  -2.056  -0.897  1.00  0.00    -0.354 N 
ATOM     51  C   UNL     1     -19.056  -6.162  -2.035  1.00  0.00     0.074 A 
ATOM     52  C   UNL     1     -17.835  -6.934  -1.967  1.00  0.00     0.031 C 
ATOM     53  C   UNL     1     -17.155  -0.278  -0.294  1.00  0.00     0.029 A 
ATOM     54  C   UNL     1     -18.498  -0.707  -0.671  1.00  0.00     0.049 A 
ATOM     55  H   UNL     1     -19.125  -2.632  -1.159  1.00  0.00     0.167 HD
ATOM     56  C   UNL     1     -20.257  -6.664  -2.409  1.00  0.00     0.037 A 
ATOM     57  C   UNL     1     -19.575   0.096  -0.763  1.00  0.00     0.037 A 
ATOM     58  C   UNL     1     -21.480  -5.907  -2.435  1.00  0.00     0.049 A 
ATOM     59  C   UNL     1     -20.899  -0.491  -1.166  1.00  0.00     0.074 A 
ATOM     60  C   UNL     1     -22.761  -6.349  -2.716  1.00  0.00     0.029 A 
ATOM     61  N   UNL     1     -21.573  -4.550  -2.169  1.00  0.00    -0.354 N 
ATOM     62  N   UNL     1     -21.196  -1.732  -1.467  1.00  0.00    -0.248 NA
ATOM     63  C   UNL     1     -22.040   0.434  -1.240  1.00  0.00     0.031 C 
ATOM     64  C   UNL     1     -23.625  -5.250  -2.659  1.00  0.00     0.029 A 
ATOM     65  C   UNL     1     -22.888  -4.133  -2.301  1.00  0.00     0.049 A 
ATOM     66  H   UNL     1     -20.818  -3.968  -1.923  1.00  0.00     0.167 HD
ATOM     67  C   UNL     1     -22.558  -1.743  -1.734  1.00  0.00     0.074 A 
ATOM     68  C   UNL     1     -23.033  -0.388  -1.549  1.00  0.00     0.031 C 
ATOM     69  C   UNL     1     -23.346  -2.783  -2.099  1.00  0.00     0.037 A 
BRANCH  56  70
ATOM     70  C   UNL     1     -20.308  -8.108  -2.815  1.00  0.00     0.057 A 
ATOM     71  C   UNL     1     -20.171  -9.143  -1.882  1.00  0.00     0.134 A 
ATOM     72  C   UNL     1     -20.537  -8.466  -4.150  1.00  0.00     0.134 A 
ATOM     73  F   UNL     1     -19.939  -8.868  -0.590  1.00  0.00    -0.206 F 
ATOM     74  C   UNL     1     -20.236 -10.484  -2.265  1.00  0.00     0.040 A 
ATOM     75  C   UNL     1     -20.629  -9.803  -4.541  1.00  0.00     0.040 A 
ATOM     76  F   UNL     1     -20.683  -7.523  -5.093  1.00  0.00    -0.206 F 
ATOM     77  C   UNL     1     -20.472 -10.816  -3.598  1.00  0.00     0.006 A 
ENDBRANCH  56  70
BRANCH  57  78
ATOM     78  C   UNL     1     -19.460   1.542  -0.444  1.00  0.00     0.057 A 
ATOM     79  C   UNL     1     -20.051   2.072   0.710  1.00  0.00     0.134 A 
ATOM     80  C   UNL     1     -18.784   2.429  -1.288  1.00  0.00     0.134 A 
ATOM     81  F   UNL     1     -20.731   1.274   1.547  1.00  0.00    -0.206 F 
ATOM     82  C   UNL     1     -19.993   3.436   1.001  1.00  0.00     0.040 A 
ATOM     83  C   UNL     1     -18.697   3.792  -0.996  1.00  0.00     0.040 A 
ATOM     84  F   UNL     1     -18.191   1.983  -2.405  1.00  0.00    -0.206 F 
ATOM     85  C   UNL     1     -19.311   4.299   0.147  1.00  0.00     0.006 A 
ENDBRANCH  57  78
BRANCH  69  86
ATOM     86  C   UNL     1     -24.808  -2.505  -2.283  1.00  0.00     0.057 A 
ATOM     87  C   UNL     1     -25.293  -1.802  -3.393  1.00  0.00     0.134 A 
ATOM     88  C   UNL     1     -25.745  -2.981  -1.356  1.00  0.00     0.134 A 
ATOM     89  F   UNL     1     -24.446  -1.308  -4.308  1.00  0.00    -0.206 F 
ATOM     90  C   UNL     1     -26.658  -1.566  -3.564  1.00  0.00     0.040 A 
ATOM     91  C   UNL     1     -27.113  -2.772  -1.530  1.00  0.00     0.040 A 
ATOM     92  F   UNL     1     -25.346  -3.668  -0.275  1.00  0.00    -0.206 F 
ATOM     93  C   UNL     1     -27.573  -2.058  -2.634  1.00  0.00     0.006 A 
ENDBRANCH  69  86
ENDBRANCH  43  44
ENDBRANCH  35  38
ENDBRANCH  33  34
ENDBRANCH  32  33
ENDBRANCH   1  32
TORSDOF 13
