REMARK SMILES NC(=O)[C@@H]1CCCCN1c1cncc(C(=O)NCCCCNC(=O)c2ccc(-c3c4nc(c(-c5c(F)cccc5F)c5ccc([nH]5)c(-c5c(F)cccc5F)c5nc(c(-c6c(F)cccc6F)c6ccc3[nH]6)C=C5)C=C4)cc2)n1
REMARK SMILES IDX 19 1 18 2 17 3 15 4 16 5 14 7 10 8 11 9 79 10 12 11 13 12
REMARK SMILES IDX 9 13 4 14 5 15 6 16 8 17 7 18 2 19 1 20 3 23 20 24 21 25
REMARK SMILES IDX 22 26 23 27 24 29 25 30 26 31 78 32 27 33 77 34 28 35 29 36
REMARK SMILES IDX 30 37 71 38 31 39 76 40 70 41 72 42 32 43 75 44 69 45 68 46
REMARK SMILES IDX 33 48 59 49 42 50 58 51 43 52 46 53 57 54 73 55 44 56 45 57
REMARK SMILES IDX 56 59 74 60 47 61 34 62 35 63 40 64 36 65 37 66 39 67 41 68
REMARK SMILES IDX 38 69 60 70 61 71 66 72 62 73 63 74 65 75 67 76 64 77 48 78
REMARK SMILES IDX 49 79 54 80 50 81 51 82 53 83 55 84 52 85
REMARK H PARENT 17 6 1 21 1 22 22 28 72 47 46 58
REMARK Flexibility Score: inf
ROOT
ATOM      1  C   UNL     1      -3.809  -2.682   2.920  1.00  0.00     0.023 C 
ENDROOT
BRANCH   1   2
ATOM      2  C   UNL     1      -3.247  -1.413   2.285  1.00  0.00     0.116 C 
BRANCH   2   3
ATOM      3  N   UNL     1      -3.559  -0.234   3.071  1.00  0.00    -0.351 N 
ATOM      4  C   UNL     1      -2.758   0.578   3.841  1.00  0.00     0.271 C 
ATOM      5  O   UNL     1      -3.302   1.518   4.428  1.00  0.00    -0.267 OA
ATOM      6  H   UNL     1      -4.508   0.031   3.050  1.00  0.00     0.163 HD
BRANCH   4   7
ATOM      7  C   UNL     1      -1.288   0.371   4.009  1.00  0.00     0.148 A 
ATOM      8  C   UNL     1       0.670  -0.754   3.505  1.00  0.00     0.148 A 
ATOM      9  C   UNL     1       1.320   0.068   4.437  1.00  0.00     0.157 A 
ATOM     10  N   UNL     1      -0.646  -0.590   3.293  1.00  0.00    -0.222 NA
ATOM     11  N   UNL     1       0.714   1.048   5.152  1.00  0.00    -0.258 NA
ATOM     12  C   UNL     1      -0.612   1.179   4.912  1.00  0.00     0.145 A 
BRANCH   8  13
ATOM     13  N   UNL     1       1.367  -1.724   2.804  1.00  0.00    -0.343 N 
ATOM     14  C   UNL     1       1.074  -2.051   1.383  1.00  0.00     0.172 C 
ATOM     15  C   UNL     1       0.320  -3.377   1.249  1.00  0.00     0.035 C 
ATOM     16  C   UNL     1       1.031  -4.491   2.008  1.00  0.00     0.004 C 
ATOM     17  C   UNL     1       1.973  -2.790   3.611  1.00  0.00     0.119 C 
ATOM     18  C   UNL     1       1.189  -4.097   3.472  1.00  0.00     0.022 C 
BRANCH  14  19
ATOM     19  C   UNL     1       0.386  -0.934   0.569  1.00  0.00     0.240 C 
ATOM     20  N   UNL     1       1.134   0.198   0.383  1.00  0.00    -0.368 N 
ATOM     21  H   UNL     1       0.764   0.954  -0.126  1.00  0.00     0.159 HD
ATOM     22  H   UNL     1       2.043   0.255   0.758  1.00  0.00     0.159 HD
ATOM     23  O   UNL     1      -0.714  -1.036   0.032  1.00  0.00    -0.273 OA
ENDBRANCH  14  19
ENDBRANCH   8  13
ENDBRANCH   4   7
ENDBRANCH   2   3
ENDBRANCH   1   2
BRANCH   1  24
ATOM     24  C   UNL     1      -5.327  -2.824   2.799  1.00  0.00     0.023 C 
BRANCH  24  25
ATOM     25  C   UNL     1      -5.877  -2.720   1.379  1.00  0.00     0.116 C 
BRANCH  25  26
ATOM     26  N   UNL     1      -5.269  -3.665   0.453  1.00  0.00    -0.352 N 
ATOM     27  C   UNL     1      -5.869  -4.426  -0.520  1.00  0.00     0.251 C 
ATOM     28  H   UNL     1      -4.294  -3.773   0.536  1.00  0.00     0.163 HD
ATOM     29  O   UNL     1      -5.227  -5.268  -1.140  1.00  0.00    -0.269 OA
BRANCH  27  30
ATOM     30  C   UNL     1      -7.311  -4.250  -0.791  1.00  0.00     0.039 A 
ATOM     31  C   UNL     1      -8.127  -5.380  -0.860  1.00  0.00     0.014 A 
ATOM     32  C   UNL     1      -7.858  -2.973  -0.944  1.00  0.00     0.014 A 
ATOM     33  C   UNL     1      -9.507  -5.226  -1.006  1.00  0.00     0.010 A 
ATOM     34  C   UNL     1      -9.239  -2.818  -1.016  1.00  0.00     0.010 A 
ATOM     35  C   UNL     1     -10.078  -3.943  -1.043  1.00  0.00    -0.014 A 
BRANCH  35  36
ATOM     36  C   UNL     1     -11.549  -3.756  -1.098  1.00  0.00     0.031 A 
ATOM     37  C   UNL     1     -12.183  -3.092  -2.289  1.00  0.00     0.074 A 
ATOM     38  C   UNL     1     -12.307  -4.118  -0.044  1.00  0.00     0.049 A 
ATOM     39  N   UNL     1     -13.437  -2.773  -2.488  1.00  0.00    -0.248 NA
ATOM     40  C   UNL     1     -11.286  -2.713  -3.393  1.00  0.00     0.031 C 
ATOM     41  C   UNL     1     -11.807  -4.726   1.192  1.00  0.00     0.029 A 
ATOM     42  N   UNL     1     -13.660  -4.017   0.163  1.00  0.00    -0.354 N 
ATOM     43  C   UNL     1     -13.475  -2.141  -3.724  1.00  0.00     0.074 A 
ATOM     44  C   UNL     1     -12.114  -2.081  -4.211  1.00  0.00     0.031 C 
ATOM     45  C   UNL     1     -12.841  -4.963   2.015  1.00  0.00     0.029 A 
ATOM     46  C   UNL     1     -14.069  -4.491   1.386  1.00  0.00     0.049 A 
ATOM     47  H   UNL     1     -14.280  -3.639  -0.503  1.00  0.00     0.167 HD
ATOM     48  C   UNL     1     -14.550  -1.672  -4.400  1.00  0.00     0.037 A 
ATOM     49  C   UNL     1     -15.296  -4.532   1.940  1.00  0.00     0.037 A 
ATOM     50  C   UNL     1     -15.907  -1.766  -3.930  1.00  0.00     0.049 A 
ATOM     51  C   UNL     1     -16.471  -4.003   1.164  1.00  0.00     0.074 A 
ATOM     52  C   UNL     1     -17.070  -1.388  -4.579  1.00  0.00     0.029 A 
ATOM     53  N   UNL     1     -16.282  -2.272  -2.696  1.00  0.00    -0.354 N 
ATOM     54  N   UNL     1     -16.502  -3.480  -0.038  1.00  0.00    -0.248 NA
ATOM     55  C   UNL     1     -17.784  -4.075   1.821  1.00  0.00     0.031 C 
ATOM     56  C   UNL     1     -18.146  -1.626  -3.719  1.00  0.00     0.029 A 
ATOM     57  C   UNL     1     -17.658  -2.196  -2.555  1.00  0.00     0.049 A 
ATOM     58  H   UNL     1     -15.663  -2.633  -2.021  1.00  0.00     0.167 HD
ATOM     59  C   UNL     1     -17.836  -3.193  -0.293  1.00  0.00     0.074 A 
ATOM     60  C   UNL     1     -18.586  -3.611   0.873  1.00  0.00     0.031 C 
ATOM     61  C   UNL     1     -18.391  -2.633  -1.395  1.00  0.00     0.037 A 
BRANCH  48  62
ATOM     62  C   UNL     1     -14.307  -1.020  -5.729  1.00  0.00     0.057 A 
ATOM     63  C   UNL     1     -13.935  -1.760  -6.858  1.00  0.00     0.134 A 
ATOM     64  C   UNL     1     -14.504   0.357  -5.895  1.00  0.00     0.134 A 
ATOM     65  F   UNL     1     -13.721  -3.082  -6.764  1.00  0.00    -0.206 F 
ATOM     66  C   UNL     1     -13.751  -1.153  -8.101  1.00  0.00     0.040 A 
ATOM     67  C   UNL     1     -14.347   0.972  -7.138  1.00  0.00     0.040 A 
ATOM     68  F   UNL     1     -14.866   1.124  -4.856  1.00  0.00    -0.206 F 
ATOM     69  C   UNL     1     -13.966   0.216  -8.245  1.00  0.00     0.006 A 
ENDBRANCH  48  62
BRANCH  49  70
ATOM     70  C   UNL     1     -15.490  -5.111   3.294  1.00  0.00     0.057 A 
ATOM     71  C   UNL     1     -16.182  -6.315   3.470  1.00  0.00     0.134 A 
ATOM     72  C   UNL     1     -15.024  -4.461   4.443  1.00  0.00     0.134 A 
ATOM     73  F   UNL     1     -16.670  -6.974   2.409  1.00  0.00    -0.206 F 
ATOM     74  C   UNL     1     -16.428  -6.839   4.740  1.00  0.00     0.040 A 
ATOM     75  C   UNL     1     -15.241  -4.987   5.718  1.00  0.00     0.040 A 
ATOM     76  F   UNL     1     -14.349  -3.307   4.342  1.00  0.00    -0.206 F 
ATOM     77  C   UNL     1     -15.954  -6.175   5.869  1.00  0.00     0.006 A 
ENDBRANCH  49  70
BRANCH  61  78
ATOM     78  C   UNL     1     -19.884  -2.482  -1.413  1.00  0.00     0.057 A 
ATOM     79  C   UNL     1     -20.541  -1.526  -0.629  1.00  0.00     0.134 A 
ATOM     80  C   UNL     1     -20.669  -3.281  -2.255  1.00  0.00     0.134 A 
ATOM     81  F   UNL     1     -19.848  -0.740   0.208  1.00  0.00    -0.206 F 
ATOM     82  C   UNL     1     -21.929  -1.384  -0.666  1.00  0.00     0.040 A 
ATOM     83  C   UNL     1     -22.054  -3.130  -2.320  1.00  0.00     0.040 A 
ATOM     84  F   UNL     1     -20.100  -4.210  -3.038  1.00  0.00    -0.206 F 
ATOM     85  C   UNL     1     -22.688  -2.183  -1.519  1.00  0.00     0.006 A 
ENDBRANCH  61  78
ENDBRANCH  35  36
ENDBRANCH  27  30
ENDBRANCH  25  26
ENDBRANCH  24  25
ENDBRANCH   1  24
TORSDOF 13
