REMARK SMILES O=C(NCCCCNC(=O)[C@@H]1CSCN1C(=O)COc1ccc(Cl)cc1Cl)c1ccc(-c2c3nc(c(-c4c(F)cccc4F)c4ccc([nH]4)c(-c4c(F)cccc4F)c4nc(c(-c5c(F)cccc5F)c5ccc2[nH]5)C=C4)C=C3)cc1
REMARK SMILES IDX 6 1 5 2 4 3 3 4 1 5 2 6 28 8 29 9 81 10 30 11 80 12 31 13
REMARK SMILES IDX 32 14 33 15 74 16 34 17 79 18 73 19 75 20 35 21 78 22 72 23
REMARK SMILES IDX 71 24 36 26 62 27 45 28 61 29 46 30 49 31 60 32 76 33 47 34
REMARK SMILES IDX 48 35 59 37 77 38 50 39 37 40 38 41 43 42 39 43 40 44 42 45
REMARK SMILES IDX 44 46 41 47 63 48 64 49 69 50 65 51 66 52 68 53 70 54 67 55
REMARK SMILES IDX 51 56 52 57 57 58 53 59 54 60 56 61 58 62 55 63 7 64 8 65
REMARK SMILES IDX 9 66 10 68 11 69 12 70 15 71 13 72 14 73 16 74 17 75 18 76
REMARK SMILES IDX 19 77 20 78 21 79 26 80 22 81 25 82 27 83 23 84 24 85
REMARK H PARENT 3 7 75 25 49 36 8 67
REMARK Flexibility Score: inf
ROOT
ATOM      1  C   UNL     1       9.873  -3.441  -7.508  1.00  0.00     0.023 C 
ENDROOT
BRANCH   1   2
ATOM      2  C   UNL     1      10.547  -2.969  -8.799  1.00  0.00     0.023 C 
BRANCH   2   3
ATOM      3  C   UNL     1      11.592  -1.875  -8.619  1.00  0.00     0.116 C 
BRANCH   3   4
ATOM      4  N   UNL     1      12.694  -2.280  -7.761  1.00  0.00    -0.352 N 
ATOM      5  O   UNL     1      14.843  -2.661  -7.191  1.00  0.00    -0.269 OA
ATOM      6  C   UNL     1      14.046  -2.137  -7.963  1.00  0.00     0.251 C 
ATOM      7  H   UNL     1      12.436  -2.717  -6.918  1.00  0.00     0.163 HD
BRANCH   6   8
ATOM      8  C   UNL     1      14.537  -1.377  -9.132  1.00  0.00     0.039 A 
ATOM      9  C   UNL     1      13.969  -0.148  -9.472  1.00  0.00     0.014 A 
ATOM     10  C   UNL     1      15.576  -1.909  -9.902  1.00  0.00     0.014 A 
ATOM     11  C   UNL     1      14.333   0.474 -10.660  1.00  0.00     0.010 A 
ATOM     12  C   UNL     1      16.000  -1.238 -11.052  1.00  0.00     0.010 A 
ATOM     13  C   UNL     1      15.357  -0.060 -11.460  1.00  0.00    -0.014 A 
BRANCH  13  14
ATOM     14  C   UNL     1      15.761   0.661 -12.693  1.00  0.00     0.031 A 
ATOM     15  C   UNL     1      15.551   0.058 -14.053  1.00  0.00     0.074 A 
ATOM     16  C   UNL     1      16.284   1.897 -12.575  1.00  0.00     0.049 A 
ATOM     17  N   UNL     1      15.801   0.575 -15.231  1.00  0.00    -0.248 NA
ATOM     18  C   UNL     1      14.998  -1.304 -14.103  1.00  0.00     0.031 C 
ATOM     19  C   UNL     1      16.544   2.582 -11.307  1.00  0.00     0.029 A 
ATOM     20  N   UNL     1      16.663   2.805 -13.528  1.00  0.00    -0.354 N 
ATOM     21  C   UNL     1      15.456  -0.400 -16.158  1.00  0.00     0.074 A 
ATOM     22  C   UNL     1      15.001  -1.551 -15.406  1.00  0.00     0.031 C 
ATOM     23  C   UNL     1      16.985   3.823 -11.561  1.00  0.00     0.029 A 
ATOM     24  C   UNL     1      17.093   4.000 -13.004  1.00  0.00     0.049 A 
ATOM     25  H   UNL     1      16.631   2.620 -14.495  1.00  0.00     0.167 HD
ATOM     26  C   UNL     1      15.508  -0.338 -17.510  1.00  0.00     0.037 A 
ATOM     27  C   UNL     1      17.532   5.114 -13.616  1.00  0.00     0.037 A 
ATOM     28  C   UNL     1      15.941   0.817 -18.255  1.00  0.00     0.049 A 
ATOM     29  C   UNL     1      17.593   5.149 -15.114  1.00  0.00     0.074 A 
ATOM     30  C   UNL     1      15.988   0.992 -19.627  1.00  0.00     0.029 A 
ATOM     31  N   UNL     1      16.407   1.994 -17.687  1.00  0.00    -0.354 N 
ATOM     32  N   UNL     1      17.230   4.231 -15.977  1.00  0.00    -0.248 NA
ATOM     33  C   UNL     1      18.130   6.373 -15.723  1.00  0.00     0.031 C 
ATOM     34  C   UNL     1      16.521   2.260 -19.891  1.00  0.00     0.029 A 
ATOM     35  C   UNL     1      16.765   2.891 -18.682  1.00  0.00     0.049 A 
ATOM     36  H   UNL     1      16.474   2.167 -16.721  1.00  0.00     0.167 HD
ATOM     37  C   UNL     1      17.478   4.771 -17.231  1.00  0.00     0.074 A 
ATOM     38  C   UNL     1      18.005   6.104 -17.015  1.00  0.00     0.031 C 
ATOM     39  C   UNL     1      17.290   4.212 -18.451  1.00  0.00     0.037 A 
BRANCH  26  40
ATOM     40  C   UNL     1      15.101  -1.563 -18.278  1.00  0.00     0.057 A 
ATOM     41  C   UNL     1      13.763  -1.965 -18.379  1.00  0.00     0.134 A 
ATOM     42  C   UNL     1      16.058  -2.327 -18.959  1.00  0.00     0.134 A 
ATOM     43  F   UNL     1      12.798  -1.285 -17.742  1.00  0.00    -0.206 F 
ATOM     44  C   UNL     1      13.394  -3.096 -19.111  1.00  0.00     0.040 A 
ATOM     45  C   UNL     1      15.699  -3.446 -19.712  1.00  0.00     0.040 A 
ATOM     46  F   UNL     1      17.356  -1.993 -18.910  1.00  0.00    -0.206 F 
ATOM     47  C   UNL     1      14.364  -3.836 -19.786  1.00  0.00     0.006 A 
ENDBRANCH  26  40
BRANCH  27  48
ATOM     48  C   UNL     1      17.937   6.288 -12.806  1.00  0.00     0.057 A 
ATOM     49  C   UNL     1      17.167   7.456 -12.794  1.00  0.00     0.134 A 
ATOM     50  C   UNL     1      19.091   6.266 -12.014  1.00  0.00     0.134 A 
ATOM     51  F   UNL     1      16.059   7.542 -13.545  1.00  0.00    -0.206 F 
ATOM     52  C   UNL     1      17.535   8.565 -12.031  1.00  0.00     0.040 A 
ATOM     53  C   UNL     1      19.457   7.357 -11.226  1.00  0.00     0.040 A 
ATOM     54  F   UNL     1      19.866   5.172 -11.977  1.00  0.00    -0.206 F 
ATOM     55  C   UNL     1      18.680   8.513 -11.238  1.00  0.00     0.006 A 
ENDBRANCH  27  48
BRANCH  39  56
ATOM     56  C   UNL     1      17.633   5.056 -19.641  1.00  0.00     0.057 A 
ATOM     57  C   UNL     1      18.961   5.320 -20.000  1.00  0.00     0.134 A 
ATOM     58  C   UNL     1      16.623   5.601 -20.445  1.00  0.00     0.134 A 
ATOM     59  F   UNL     1      19.973   4.841 -19.260  1.00  0.00    -0.206 F 
ATOM     60  C   UNL     1      19.273   6.119 -21.101  1.00  0.00     0.040 A 
ATOM     61  C   UNL     1      16.923   6.381 -21.562  1.00  0.00     0.040 A 
ATOM     62  F   UNL     1      15.332   5.380 -20.158  1.00  0.00    -0.206 F 
ATOM     63  C   UNL     1      18.251   6.647 -21.888  1.00  0.00     0.006 A 
ENDBRANCH  39  56
ENDBRANCH  13  14
ENDBRANCH   6   8
ENDBRANCH   3   4
ENDBRANCH   2   3
ENDBRANCH   1   2
BRANCH   1  64
ATOM     64  C   UNL     1       9.176  -2.338  -6.712  1.00  0.00     0.116 C 
BRANCH  64  65
ATOM     65  N   UNL     1       8.105  -1.735  -7.480  1.00  0.00    -0.354 N 
ATOM     66  C   UNL     1       6.756  -1.917  -7.373  1.00  0.00     0.243 C 
ATOM     67  H   UNL     1       8.392  -1.105  -8.180  1.00  0.00     0.163 HD
ATOM     68  O   UNL     1       6.047  -1.423  -8.253  1.00  0.00    -0.273 OA
BRANCH  66  69
ATOM     69  C   UNL     1       6.185  -2.759  -6.212  1.00  0.00     0.185 C 
ATOM     70  C   UNL     1       6.344  -4.243  -6.532  1.00  0.00     0.106 C 
ATOM     71  N   UNL     1       4.770  -2.438  -6.014  1.00  0.00    -0.318 N 
ATOM     72  S   UNL     1       4.684  -4.957  -6.632  1.00  0.00    -0.138 SA
ATOM     73  C   UNL     1       3.853  -3.358  -6.642  1.00  0.00     0.190 C 
BRANCH  71  74
ATOM     74  C   UNL     1       4.420  -1.255  -5.399  1.00  0.00     0.261 C 
ATOM     75  O   UNL     1       5.264  -0.549  -4.840  1.00  0.00    -0.271 OA
BRANCH  74  76
ATOM     76  C   UNL     1       2.946  -0.824  -5.428  1.00  0.00     0.329 C 
BRANCH  76  77
ATOM     77  O   UNL     1       2.292  -0.882  -6.690  1.00  0.00    -0.482 OA
BRANCH  77  78
ATOM     78  C   UNL     1       2.456   0.212  -7.500  1.00  0.00     0.138 A 
ATOM     79  C   UNL     1       3.706   0.778  -7.761  1.00  0.00     0.049 A 
ATOM     80  C   UNL     1       1.332   0.712  -8.176  1.00  0.00     0.084 A 
ATOM     81  C   UNL     1       3.834   1.827  -8.675  1.00  0.00     0.024 A 
ATOM     82  C   UNL     1       1.455   1.770  -9.081  1.00  0.00     0.045 A 
ATOM     83  Cl  UNL     1      -0.241   0.051  -7.903  1.00  0.00    -0.080 Cl
ATOM     84  C   UNL     1       2.710   2.318  -9.330  1.00  0.00     0.042 A 
ATOM     85  Cl  UNL     1       2.877   3.601 -10.462  1.00  0.00    -0.084 Cl
ENDBRANCH  77  78
ENDBRANCH  76  77
ENDBRANCH  74  76
ENDBRANCH  71  74
ENDBRANCH  66  69
ENDBRANCH  64  65
ENDBRANCH   1  64
TORSDOF 15
