REMARK SMILES CCCc1cc(OC(F)(F)F)cc2c1O[C@@H](C(F)(F)F)C(C(=O)NCCCCNC(=O)c1ccc(-c3c4nc(c(-c5c(F)cccc5F)c5ccc([nH]5)c(-c5c(F)cccc5F)c5nc(c(-c6c(F)cccc6F)c6ccc3[nH]6)C=C5)C=C4)cc1)=C2
REMARK SMILES IDX 26 1 25 2 24 3 22 4 23 5 21 7 4 8 5 9 14 10 6 11 13 12 15 13
REMARK SMILES IDX 12 14 86 15 16 16 3 17 2 18 1 19 7 20 8 21 9 22 10 23 11 24
REMARK SMILES IDX 17 25 18 26 19 27 20 28 27 29 28 30 29 31 30 32 31 34 32 35
REMARK SMILES IDX 33 36 85 37 34 38 84 39 35 40 36 41 37 42 78 43 38 44 83 45
REMARK SMILES IDX 77 46 79 47 39 48 82 49 76 50 75 51 40 53 66 54 49 55 65 56
REMARK SMILES IDX 50 57 53 58 64 59 80 60 51 61 52 62 63 64 81 65 54 66 41 67
REMARK SMILES IDX 42 68 47 69 43 70 44 71 46 72 48 73 45 74 67 75 68 76 73 77
REMARK SMILES IDX 69 78 70 79 72 80 74 81 71 82 55 83 56 84 61 85 57 86 58 87
REMARK SMILES IDX 60 88 62 89 59 90
REMARK H PARENT 24 6 29 33 79 52 53 63
REMARK Flexibility Score: inf
ROOT
ATOM      1  C   UNL     1      -4.118   4.931   5.830  1.00  0.00     0.023 C 
ENDROOT
BRANCH   1   2
ATOM      2  C   UNL     1      -3.587   3.778   6.691  1.00  0.00     0.116 C 
BRANCH   2   3
ATOM      3  N   UNL     1      -4.346   2.568   6.427  1.00  0.00    -0.352 N 
ATOM      4  C   UNL     1      -4.190   1.570   5.517  1.00  0.00     0.251 C 
ATOM      5  O   UNL     1      -5.089   0.740   5.411  1.00  0.00    -0.270 OA
ATOM      6  H   UNL     1      -5.122   2.448   7.020  1.00  0.00     0.163 HD
BRANCH   4   7
ATOM      7  C   UNL     1      -2.953   1.401   4.706  1.00  0.00     0.067 C 
ATOM      8  C   UNL     1       0.654   0.670   2.667  1.00  0.00    -0.002 A 
ATOM      9  C   UNL     1       1.433   1.771   2.254  1.00  0.00     0.054 A 
ATOM     10  C   UNL     1      -0.571   0.895   3.310  1.00  0.00     0.131 A 
ATOM     11  C   UNL     1       0.986   3.075   2.447  1.00  0.00     0.130 A 
ATOM     12  C   UNL     1      -1.015   2.197   3.513  1.00  0.00     0.021 A 
ATOM     13  O   UNL     1      -1.262  -0.194   3.753  1.00  0.00    -0.475 OA
ATOM     14  C   UNL     1      -0.241   3.280   3.078  1.00  0.00     0.058 A 
ATOM     15  C   UNL     1      -2.251   2.438   4.232  1.00  0.00     0.025 C 
ATOM     16  C   UNL     1      -2.599  -0.029   4.311  1.00  0.00     0.314 C 
BRANCH   8  17
ATOM     17  C   UNL     1       1.135  -0.727   2.345  1.00  0.00     0.039 C 
BRANCH  17  18
ATOM     18  C   UNL     1       0.556  -1.261   1.030  1.00  0.00     0.001 C 
ATOM     19  C   UNL     1       0.999  -0.472  -0.197  1.00  0.00     0.004 C 
ENDBRANCH  17  18
ENDBRANCH   8  17
BRANCH  11  20
ATOM     20  O   UNL     1       1.631   4.221   2.082  1.00  0.00    -0.406 OA
BRANCH  20  21
ATOM     21  C   UNL     1       2.806   4.094   1.298  1.00  0.00     0.573 C 
ATOM     22  F   UNL     1       3.785   3.473   1.990  1.00  0.00    -0.132 F 
ATOM     23  F   UNL     1       2.560   3.418   0.156  1.00  0.00    -0.132 F 
ATOM     24  F   UNL     1       3.241   5.330   0.970  1.00  0.00    -0.132 F 
ENDBRANCH  20  21
ENDBRANCH  11  20
BRANCH  16  25
ATOM     25  C   UNL     1      -2.773  -1.097   5.416  1.00  0.00     0.429 C 
ATOM     26  F   UNL     1      -4.038  -1.566   5.498  1.00  0.00    -0.167 F 
ATOM     27  F   UNL     1      -1.998  -2.187   5.168  1.00  0.00    -0.167 F 
ATOM     28  F   UNL     1      -2.417  -0.635   6.637  1.00  0.00    -0.167 F 
ENDBRANCH  16  25
ENDBRANCH   4   7
ENDBRANCH   2   3
ENDBRANCH   1   2
BRANCH   1  29
ATOM     29  C   UNL     1      -5.405   5.569   6.359  1.00  0.00     0.023 C 
BRANCH  29  30
ATOM     30  C   UNL     1      -5.252   6.300   7.686  1.00  0.00     0.116 C 
BRANCH  30  31
ATOM     31  N   UNL     1      -4.275   7.377   7.636  1.00  0.00    -0.352 N 
ATOM     32  C   UNL     1      -4.259   8.549   8.354  1.00  0.00     0.251 C 
ATOM     33  H   UNL     1      -3.529   7.249   7.007  1.00  0.00     0.163 HD
ATOM     34  O   UNL     1      -3.418   9.407   8.124  1.00  0.00    -0.269 OA
BRANCH  32  35
ATOM     35  C   UNL     1      -5.301   8.780   9.375  1.00  0.00     0.039 A 
ATOM     36  C   UNL     1      -6.007   9.985   9.350  1.00  0.00     0.014 A 
ATOM     37  C   UNL     1      -5.602   7.801  10.325  1.00  0.00     0.014 A 
ATOM     38  C   UNL     1      -7.064  10.182  10.239  1.00  0.00     0.010 A 
ATOM     39  C   UNL     1      -6.696   7.971  11.165  1.00  0.00     0.010 A 
ATOM     40  C   UNL     1      -7.438   9.162  11.129  1.00  0.00    -0.014 A 
BRANCH  40  41
ATOM     41  C   UNL     1      -8.606   9.319  12.027  1.00  0.00     0.031 A 
ATOM     42  C   UNL     1      -8.411   9.361  13.516  1.00  0.00     0.074 A 
ATOM     43  C   UNL     1      -9.846   9.353  11.504  1.00  0.00     0.049 A 
ATOM     44  N   UNL     1      -9.308   9.423  14.465  1.00  0.00    -0.248 NA
ATOM     45  C   UNL     1      -7.023   9.297  14.002  1.00  0.00     0.031 C 
ATOM     46  C   UNL     1     -10.167   9.267  10.078  1.00  0.00     0.029 A 
ATOM     47  N   UNL     1     -11.070   9.457  12.114  1.00  0.00    -0.354 N 
ATOM     48  C   UNL     1      -8.598   9.389  15.658  1.00  0.00     0.074 A 
ATOM     49  C   UNL     1      -7.199   9.251  15.314  1.00  0.00     0.031 C 
ATOM     50  C   UNL     1     -11.499   9.342   9.922  1.00  0.00     0.029 A 
ATOM     51  C   UNL     1     -12.126   9.449  11.235  1.00  0.00     0.049 A 
ATOM     52  H   UNL     1     -11.182   9.530  13.089  1.00  0.00     0.167 HD
ATOM     53  C   UNL     1      -9.067   9.486  16.924  1.00  0.00     0.037 A 
ATOM     54  C   UNL     1     -13.450   9.517  11.465  1.00  0.00     0.037 A 
ATOM     55  C   UNL     1     -10.456   9.652  17.261  1.00  0.00     0.049 A 
ATOM     56  C   UNL     1     -13.945   9.635  12.879  1.00  0.00     0.074 A 
ATOM     57  C   UNL     1     -11.026   9.825  18.510  1.00  0.00     0.029 A 
ATOM     58  N   UNL     1     -11.494   9.668  16.341  1.00  0.00    -0.354 N 
ATOM     59  N   UNL     1     -13.258   9.670  13.995  1.00  0.00    -0.248 NA
ATOM     60  C   UNL     1     -15.400   9.730  13.066  1.00  0.00     0.031 C 
ATOM     61  C   UNL     1     -12.413   9.910  18.349  1.00  0.00     0.029 A 
ATOM     62  C   UNL     1     -12.703   9.831  16.997  1.00  0.00     0.049 A 
ATOM     63  H   UNL     1     -11.387   9.577  15.367  1.00  0.00     0.167 HD
ATOM     64  C   UNL     1     -14.191   9.818  15.012  1.00  0.00     0.074 A 
ATOM     65  C   UNL     1     -15.493   9.878  14.380  1.00  0.00     0.031 C 
ATOM     66  C   UNL     1     -13.988   9.896  16.350  1.00  0.00     0.037 A 
BRANCH  53  67
ATOM     67  C   UNL     1      -8.064   9.422  18.037  1.00  0.00     0.057 A 
ATOM     68  C   UNL     1      -7.169  10.472  18.284  1.00  0.00     0.134 A 
ATOM     69  C   UNL     1      -8.009   8.312  18.889  1.00  0.00     0.134 A 
ATOM     70  F   UNL     1      -7.162  11.557  17.496  1.00  0.00    -0.206 F 
ATOM     71  C   UNL     1      -6.237  10.408  19.321  1.00  0.00     0.040 A 
ATOM     72  C   UNL     1      -7.099   8.248  19.945  1.00  0.00     0.040 A 
ATOM     73  F   UNL     1      -8.840   7.274  18.711  1.00  0.00    -0.206 F 
ATOM     74  C   UNL     1      -6.205   9.296  20.159  1.00  0.00     0.006 A 
ENDBRANCH  53  67
BRANCH  54  75
ATOM     75  C   UNL     1     -14.402   9.504  10.327  1.00  0.00     0.057 A 
ATOM     76  C   UNL     1     -15.104  10.660   9.964  1.00  0.00     0.134 A 
ATOM     77  C   UNL     1     -14.638   8.344   9.581  1.00  0.00     0.134 A 
ATOM     78  F   UNL     1     -14.932  11.797  10.653  1.00  0.00    -0.206 F 
ATOM     79  C   UNL     1     -16.019  10.658   8.911  1.00  0.00     0.040 A 
ATOM     80  C   UNL     1     -15.534   8.334   8.511  1.00  0.00     0.040 A 
ATOM     81  F   UNL     1     -13.990   7.207   9.875  1.00  0.00    -0.206 F 
ATOM     82  C   UNL     1     -16.233   9.492   8.178  1.00  0.00     0.006 A 
ENDBRANCH  54  75
BRANCH  66  83
ATOM     83  C   UNL     1     -15.198  10.088  17.214  1.00  0.00     0.057 A 
ATOM     84  C   UNL     1     -16.104   9.049  17.458  1.00  0.00     0.134 A 
ATOM     85  C   UNL     1     -15.437  11.318  17.841  1.00  0.00     0.134 A 
ATOM     86  F   UNL     1     -15.937   7.852  16.875  1.00  0.00    -0.206 F 
ATOM     87  C   UNL     1     -17.217   9.231  18.279  1.00  0.00     0.040 A 
ATOM     88  C   UNL     1     -16.533  11.505  18.683  1.00  0.00     0.040 A 
ATOM     89  F   UNL     1     -14.602  12.352  17.654  1.00  0.00    -0.206 F 
ATOM     90  C   UNL     1     -17.430  10.461  18.900  1.00  0.00     0.006 A 
ENDBRANCH  66  83
ENDBRANCH  40  41
ENDBRANCH  32  35
ENDBRANCH  30  31
ENDBRANCH  29  30
ENDBRANCH   1  29
TORSDOF 16
