REMARK SMILES C[C@H](Nc1ccc(N(C)C)cc1)[C@@H](C)C(=O)NCCCCNC(=O)c1ccc(-c2c3nc(c(-c4c(F)cccc4F)c4ccc([nH]4)c(-c4c(F)cccc4F)c4nc(c(-c5c(F)cccc5F)c5ccc2[nH]5)C=C4)C=C3)cc1
REMARK SMILES IDX 18 1 17 2 15 3 16 4 13 6 14 7 2 8 1 9 3 10 4 12 5 13 12 14
REMARK SMILES IDX 6 15 11 16 7 17 8 18 9 19 10 20 19 21 20 22 21 23 22 24
REMARK SMILES IDX 23 25 24 27 25 28 26 29 78 30 27 31 77 32 28 33 29 34 30 35
REMARK SMILES IDX 71 36 31 37 76 38 70 39 72 40 32 41 75 42 69 43 68 44 33 46
REMARK SMILES IDX 59 47 42 48 58 49 43 50 46 51 57 52 73 53 44 54 45 55 56 57
REMARK SMILES IDX 74 58 47 59 34 60 35 61 40 62 36 63 37 64 39 65 41 66 38 67
REMARK SMILES IDX 60 68 61 69 66 70 62 71 63 72 65 73 67 74 64 75 48 76 49 77
REMARK SMILES IDX 54 78 50 79 51 80 53 81 55 82 52 83
REMARK H PARENT 17 5 3 11 22 26 72 45 46 56
REMARK Flexibility Score: inf
ROOT
ATOM      1  C   UNL     1      -0.260  -3.673   1.681  1.00  0.00     0.116 C 
ENDROOT
BRANCH   1   2
ATOM      2  N   UNL     1      -1.167  -2.830   2.436  1.00  0.00    -0.356 N 
ATOM      3  C   UNL     1      -1.530  -1.530   2.271  1.00  0.00     0.224 C 
ATOM      4  O   UNL     1      -2.327  -1.061   3.088  1.00  0.00    -0.275 OA
ATOM      5  H   UNL     1      -1.594  -3.277   3.202  1.00  0.00     0.163 HD
BRANCH   3   6
ATOM      6  C   UNL     1      -1.004  -0.669   1.127  1.00  0.00     0.097 C 
ATOM      7  C   UNL     1      -1.578  -1.169  -0.203  1.00  0.00     0.020 C 
BRANCH   6   8
ATOM      8  C   UNL     1       0.531  -0.484   1.188  1.00  0.00     0.088 C 
ATOM      9  C   UNL     1       0.931   0.232   2.492  1.00  0.00     0.031 C 
BRANCH   8  10
ATOM     10  N   UNL     1       0.998   0.293   0.037  1.00  0.00    -0.382 N 
ATOM     11  H   UNL     1       0.327   0.584  -0.622  1.00  0.00     0.160 HD
BRANCH  10  12
ATOM     12  C   UNL     1       2.316   0.645  -0.186  1.00  0.00     0.034 A 
ATOM     13  C   UNL     1       2.587   1.788  -0.934  1.00  0.00     0.028 A 
ATOM     14  C   UNL     1       3.410  -0.036   0.335  1.00  0.00     0.028 A 
ATOM     15  C   UNL     1       3.895   2.274  -1.092  1.00  0.00     0.028 A 
ATOM     16  C   UNL     1       4.720   0.453   0.172  1.00  0.00     0.028 A 
ATOM     17  C   UNL     1       5.007   1.641  -0.523  1.00  0.00     0.036 A 
BRANCH  17  18
ATOM     18  N   UNL     1       6.299   2.133  -0.640  1.00  0.00    -0.378 N 
ATOM     19  C   UNL     1       6.625   3.423  -1.239  1.00  0.00     0.143 C 
ATOM     20  C   UNL     1       7.409   1.465   0.035  1.00  0.00     0.143 C 
ENDBRANCH  17  18
ENDBRANCH  10  12
ENDBRANCH   8  10
ENDBRANCH   6   8
ENDBRANCH   3   6
ENDBRANCH   1   2
BRANCH   1  21
ATOM     21  C   UNL     1       1.029  -3.954   2.450  1.00  0.00     0.023 C 
BRANCH  21  22
ATOM     22  C   UNL     1       0.853  -4.826   3.692  1.00  0.00     0.023 C 
BRANCH  22  23
ATOM     23  C   UNL     1       0.133  -6.146   3.454  1.00  0.00     0.116 C 
BRANCH  23  24
ATOM     24  N   UNL     1       0.762  -6.961   2.427  1.00  0.00    -0.352 N 
ATOM     25  C   UNL     1       0.970  -8.316   2.411  1.00  0.00     0.251 C 
ATOM     26  H   UNL     1       1.081  -6.472   1.634  1.00  0.00     0.163 HD
ATOM     27  O   UNL     1       1.637  -8.826   1.513  1.00  0.00    -0.269 OA
BRANCH  25  28
ATOM     28  C   UNL     1       0.415  -9.158   3.490  1.00  0.00     0.039 A 
ATOM     29  C   UNL     1       1.221 -10.155   4.045  1.00  0.00     0.014 A 
ATOM     30  C   UNL     1      -0.890  -8.969   3.953  1.00  0.00     0.014 A 
ATOM     31  C   UNL     1       0.728 -10.937   5.090  1.00  0.00     0.010 A 
ATOM     32  C   UNL     1      -1.346  -9.687   5.053  1.00  0.00     0.010 A 
ATOM     33  C   UNL     1      -0.551 -10.695   5.617  1.00  0.00    -0.014 A 
BRANCH  33  34
ATOM     34  C   UNL     1      -1.086 -11.524   6.726  1.00  0.00     0.031 A 
ATOM     35  C   UNL     1      -2.299 -12.387   6.503  1.00  0.00     0.074 A 
ATOM     36  C   UNL     1      -0.501 -11.478   7.939  1.00  0.00     0.049 A 
ATOM     37  N   UNL     1      -2.920 -13.175   7.345  1.00  0.00    -0.248 NA
ATOM     38  C   UNL     1      -2.915 -12.337   5.167  1.00  0.00     0.031 C 
ATOM     39  C   UNL     1       0.644 -10.639   8.297  1.00  0.00     0.029 A 
ATOM     40  N   UNL     1      -0.790 -12.156   9.096  1.00  0.00    -0.354 N 
ATOM     41  C   UNL     1      -3.999 -13.700   6.645  1.00  0.00     0.074 A 
ATOM     42  C   UNL     1      -3.990 -13.093   5.333  1.00  0.00     0.031 C 
ATOM     43  C   UNL     1       0.980 -10.876   9.575  1.00  0.00     0.029 A 
ATOM     44  C   UNL     1       0.058 -11.859  10.135  1.00  0.00     0.049 A 
ATOM     45  H   UNL     1      -1.535 -12.795   9.174  1.00  0.00     0.167 HD
ATOM     46  C   UNL     1      -4.901 -14.627   7.046  1.00  0.00     0.037 A 
ATOM     47  C   UNL     1       0.089 -12.331  11.395  1.00  0.00     0.037 A 
ATOM     48  C   UNL     1      -4.891 -15.251   8.343  1.00  0.00     0.049 A 
ATOM     49  C   UNL     1      -0.912 -13.376  11.810  1.00  0.00     0.074 A 
ATOM     50  C   UNL     1      -5.728 -16.239   8.831  1.00  0.00     0.029 A 
ATOM     51  N   UNL     1      -3.997 -14.946   9.358  1.00  0.00    -0.354 N 
ATOM     52  N   UNL     1      -1.882 -13.917  11.114  1.00  0.00    -0.248 NA
ATOM     53  C   UNL     1      -0.799 -13.889  13.182  1.00  0.00     0.031 C 
ATOM     54  C   UNL     1      -5.367 -16.502  10.157  1.00  0.00     0.029 A 
ATOM     55  C   UNL     1      -4.269 -15.718  10.475  1.00  0.00     0.049 A 
ATOM     56  H   UNL     1      -3.276 -14.279   9.294  1.00  0.00     0.167 HD
ATOM     57  C   UNL     1      -2.469 -14.861  11.948  1.00  0.00     0.074 A 
ATOM     58  C   UNL     1      -1.734 -14.827  13.195  1.00  0.00     0.031 C 
ATOM     59  C   UNL     1      -3.519 -15.683  11.704  1.00  0.00     0.037 A 
BRANCH  46  60
ATOM     60  C   UNL     1      -5.967 -15.027   6.067  1.00  0.00     0.057 A 
ATOM     61  C   UNL     1      -5.673 -15.767   4.913  1.00  0.00     0.134 A 
ATOM     62  C   UNL     1      -7.309 -14.699   6.297  1.00  0.00     0.134 A 
ATOM     63  F   UNL     1      -4.406 -16.102   4.625  1.00  0.00    -0.206 F 
ATOM     64  C   UNL     1      -6.670 -16.142   4.011  1.00  0.00     0.040 A 
ATOM     65  C   UNL     1      -8.319 -15.095   5.418  1.00  0.00     0.040 A 
ATOM     66  F   UNL     1      -7.663 -13.997   7.384  1.00  0.00    -0.206 F 
ATOM     67  C   UNL     1      -7.999 -15.813   4.267  1.00  0.00     0.006 A 
ENDBRANCH  46  60
BRANCH  47  68
ATOM     68  C   UNL     1       1.122 -11.852  12.349  1.00  0.00     0.057 A 
ATOM     69  C   UNL     1       2.143 -12.700  12.798  1.00  0.00     0.134 A 
ATOM     70  C   UNL     1       1.099 -10.548  12.856  1.00  0.00     0.134 A 
ATOM     71  F   UNL     1       2.209 -13.967  12.362  1.00  0.00    -0.206 F 
ATOM     72  C   UNL     1       3.083 -12.279  13.740  1.00  0.00     0.040 A 
ATOM     73  C   UNL     1       2.051 -10.105  13.777  1.00  0.00     0.040 A 
ATOM     74  F   UNL     1       0.155  -9.683  12.459  1.00  0.00    -0.206 F 
ATOM     75  C   UNL     1       3.040 -10.976  14.230  1.00  0.00     0.006 A 
ENDBRANCH  47  68
BRANCH  59  76
ATOM     76  C   UNL     1      -3.894 -16.653  12.788  1.00  0.00     0.057 A 
ATOM     77  C   UNL     1      -4.473 -16.238  13.994  1.00  0.00     0.134 A 
ATOM     78  C   UNL     1      -3.682 -18.027  12.612  1.00  0.00     0.134 A 
ATOM     79  F   UNL     1      -4.694 -14.936  14.231  1.00  0.00    -0.206 F 
ATOM     80  C   UNL     1      -4.788 -17.151  15.003  1.00  0.00     0.040 A 
ATOM     81  C   UNL     1      -4.023 -18.951  13.599  1.00  0.00     0.040 A 
ATOM     82  F   UNL     1      -3.143 -18.494  11.475  1.00  0.00    -0.206 F 
ATOM     83  C   UNL     1      -4.567 -18.512  14.804  1.00  0.00     0.006 A 
ENDBRANCH  59  76
ENDBRANCH  33  34
ENDBRANCH  25  28
ENDBRANCH  23  24
ENDBRANCH  22  23
ENDBRANCH  21  22
ENDBRANCH   1  21
TORSDOF 15
