REMARK SMILES O=C(NCCCCNC(=O)c1cccc(N[C@H]2CCCC[C@@H]2O)c1)c1ccc(-c2c3nc(c(-c4c(F)cccc4F)c4ccc([nH]4)c(-c4c(F)cccc4F)c4nc(c(-c5c(F)cccc5F)c5ccc2[nH]5)C=C4)C=C3)cc1
REMARK SMILES IDX 6 1 5 2 4 3 3 4 1 5 2 6 25 8 26 9 78 10 27 11 77 12 28 13
REMARK SMILES IDX 29 14 30 15 71 16 31 17 76 18 70 19 72 20 32 21 75 22 69 23
REMARK SMILES IDX 68 24 33 26 59 27 42 28 58 29 43 30 46 31 57 32 73 33 44 34
REMARK SMILES IDX 45 35 56 37 74 38 47 39 34 40 35 41 40 42 36 43 37 44 39 45
REMARK SMILES IDX 41 46 38 47 60 48 61 49 66 50 62 51 63 52 65 53 67 54 64 55
REMARK SMILES IDX 48 56 49 57 54 58 50 59 51 60 53 61 55 62 52 63 7 64 8 65
REMARK SMILES IDX 9 66 10 68 11 69 12 70 24 71 13 72 15 73 14 74 16 75 17 77
REMARK SMILES IDX 18 78 22 79 19 80 21 81 20 82 23 83
REMARK H PARENT 3 7 72 25 46 36 8 67 16 76 23 84
REMARK Flexibility Score: inf
ROOT
ATOM      1  C   UNL     1       4.401  -3.214  -2.342  1.00  0.00     0.023 C 
ENDROOT
BRANCH   1   2
ATOM      2  C   UNL     1       4.846  -2.547  -1.044  1.00  0.00     0.023 C 
BRANCH   2   3
ATOM      3  C   UNL     1       4.554  -1.057  -0.946  1.00  0.00     0.116 C 
BRANCH   3   4
ATOM      4  N   UNL     1       3.132  -0.744  -0.973  1.00  0.00    -0.352 N 
ATOM      5  O   UNL     1       1.166   0.054  -0.197  1.00  0.00    -0.269 OA
ATOM      6  C   UNL     1       2.384  -0.020  -0.074  1.00  0.00     0.251 C 
ATOM      7  H   UNL     1       2.636  -1.100  -1.745  1.00  0.00     0.163 HD
BRANCH   6   8
ATOM      8  C   UNL     1       3.053   0.637   1.070  1.00  0.00     0.039 A 
ATOM      9  C   UNL     1       4.225   1.371   0.881  1.00  0.00     0.014 A 
ATOM     10  C   UNL     1       2.519   0.483   2.352  1.00  0.00     0.014 A 
ATOM     11  C   UNL     1       4.958   1.788   1.985  1.00  0.00     0.010 A 
ATOM     12  C   UNL     1       3.210   0.990   3.457  1.00  0.00     0.010 A 
ATOM     13  C   UNL     1       4.461   1.603   3.286  1.00  0.00    -0.014 A 
BRANCH  13  14
ATOM     14  C   UNL     1       5.263   2.084   4.440  1.00  0.00     0.031 A 
ATOM     15  C   UNL     1       5.825   1.126   5.456  1.00  0.00     0.074 A 
ATOM     16  C   UNL     1       5.532   3.401   4.537  1.00  0.00     0.049 A 
ATOM     17  N   UNL     1       6.596   1.377   6.485  1.00  0.00    -0.248 NA
ATOM     18  C   UNL     1       5.473  -0.294   5.306  1.00  0.00     0.031 C 
ATOM     19  C   UNL     1       5.035   4.430   3.620  1.00  0.00     0.029 A 
ATOM     20  N   UNL     1       6.312   4.095   5.424  1.00  0.00    -0.354 N 
ATOM     21  C   UNL     1       6.796   0.157   7.120  1.00  0.00     0.074 A 
ATOM     22  C   UNL     1       6.050  -0.833   6.371  1.00  0.00     0.031 C 
ATOM     23  C   UNL     1       5.575   5.611   3.952  1.00  0.00     0.029 A 
ATOM     24  C   UNL     1       6.407   5.434   5.137  1.00  0.00     0.049 A 
ATOM     25  H   UNL     1       6.761   3.674   6.193  1.00  0.00     0.167 HD
ATOM     26  C   UNL     1       7.538  -0.113   8.221  1.00  0.00     0.037 A 
ATOM     27  C   UNL     1       7.086   6.416   5.757  1.00  0.00     0.037 A 
ATOM     28  C   UNL     1       8.307   0.867   8.945  1.00  0.00     0.049 A 
ATOM     29  C   UNL     1       7.902   6.086   6.971  1.00  0.00     0.074 A 
ATOM     30  C   UNL     1       9.131   0.678  10.042  1.00  0.00     0.029 A 
ATOM     31  N   UNL     1       8.348   2.219   8.644  1.00  0.00    -0.354 N 
ATOM     32  N   UNL     1       8.106   4.923   7.538  1.00  0.00    -0.248 NA
ATOM     33  C   UNL     1       8.576   7.209   7.635  1.00  0.00     0.031 C 
ATOM     34  C   UNL     1       9.640   1.924  10.428  1.00  0.00     0.029 A 
ATOM     35  C   UNL     1       9.165   2.881   9.546  1.00  0.00     0.049 A 
ATOM     36  H   UNL     1       7.867   2.647   7.898  1.00  0.00     0.167 HD
ATOM     37  C   UNL     1       8.944   5.169   8.616  1.00  0.00     0.074 A 
ATOM     38  C   UNL     1       9.226   6.590   8.611  1.00  0.00     0.031 C 
ATOM     39  C   UNL     1       9.435   4.296   9.529  1.00  0.00     0.037 A 
BRANCH  26  40
ATOM     40  C   UNL     1       7.542  -1.527   8.727  1.00  0.00     0.057 A 
ATOM     41  C   UNL     1       8.233  -2.551   8.068  1.00  0.00     0.134 A 
ATOM     42  C   UNL     1       6.880  -1.857   9.917  1.00  0.00     0.134 A 
ATOM     43  F   UNL     1       8.879  -2.304   6.919  1.00  0.00    -0.206 F 
ATOM     44  C   UNL     1       8.249  -3.857   8.563  1.00  0.00     0.040 A 
ATOM     45  C   UNL     1       6.907  -3.154  10.434  1.00  0.00     0.040 A 
ATOM     46  F   UNL     1       6.204  -0.922  10.603  1.00  0.00    -0.206 F 
ATOM     47  C   UNL     1       7.589  -4.160   9.753  1.00  0.00     0.006 A 
ENDBRANCH  26  40
BRANCH  27  48
ATOM     48  C   UNL     1       7.030   7.798   5.226  1.00  0.00     0.057 A 
ATOM     49  C   UNL     1       8.144   8.379   4.610  1.00  0.00     0.134 A 
ATOM     50  C   UNL     1       5.861   8.564   5.303  1.00  0.00     0.134 A 
ATOM     51  F   UNL     1       9.297   7.699   4.521  1.00  0.00    -0.206 F 
ATOM     52  C   UNL     1       8.101   9.676   4.098  1.00  0.00     0.040 A 
ATOM     53  C   UNL     1       5.795   9.852   4.774  1.00  0.00     0.040 A 
ATOM     54  F   UNL     1       4.757   8.058   5.875  1.00  0.00    -0.206 F 
ATOM     55  C   UNL     1       6.921  10.414   4.173  1.00  0.00     0.006 A 
ENDBRANCH  27  48
BRANCH  39  56
ATOM     56  C   UNL     1      10.344   4.857  10.580  1.00  0.00     0.057 A 
ATOM     57  C   UNL     1       9.856   5.633  11.638  1.00  0.00     0.134 A 
ATOM     58  C   UNL     1      11.721   4.608  10.539  1.00  0.00     0.134 A 
ATOM     59  F   UNL     1       8.548   5.920  11.724  1.00  0.00    -0.206 F 
ATOM     60  C   UNL     1      10.710   6.164  12.606  1.00  0.00     0.040 A 
ATOM     61  C   UNL     1      12.582   5.114  11.513  1.00  0.00     0.040 A 
ATOM     62  F   UNL     1      12.251   3.867   9.553  1.00  0.00    -0.206 F 
ATOM     63  C   UNL     1      12.077   5.901  12.546  1.00  0.00     0.006 A 
ENDBRANCH  39  56
ENDBRANCH  13  14
ENDBRANCH   6   8
ENDBRANCH   3   4
ENDBRANCH   2   3
ENDBRANCH   1   2
BRANCH   1  64
ATOM     64  C   UNL     1       4.849  -2.513  -3.620  1.00  0.00     0.116 C 
BRANCH  64  65
ATOM     65  N   UNL     1       6.295  -2.369  -3.712  1.00  0.00    -0.352 N 
ATOM     66  C   UNL     1       7.143  -2.808  -4.699  1.00  0.00     0.251 C 
ATOM     67  H   UNL     1       6.724  -1.892  -2.964  1.00  0.00     0.163 HD
ATOM     68  O   UNL     1       8.359  -2.710  -4.569  1.00  0.00    -0.269 OA
BRANCH  66  69
ATOM     69  C   UNL     1       6.573  -3.432  -5.906  1.00  0.00     0.041 A 
ATOM     70  C   UNL     1       6.978  -4.717  -6.252  1.00  0.00     0.014 A 
ATOM     71  C   UNL     1       5.599  -2.758  -6.654  1.00  0.00     0.039 A 
ATOM     72  C   UNL     1       6.352  -5.348  -7.318  1.00  0.00     0.003 A 
ATOM     73  C   UNL     1       4.912  -3.397  -7.690  1.00  0.00     0.035 A 
ATOM     74  C   UNL     1       5.325  -4.696  -8.015  1.00  0.00     0.026 A 
BRANCH  73  75
ATOM     75  N   UNL     1       3.894  -2.706  -8.317  1.00  0.00    -0.380 N 
ATOM     76  H   UNL     1       3.774  -1.771  -8.033  1.00  0.00     0.160 HD
BRANCH  75  77
ATOM     77  C   UNL     1       2.969  -3.180  -9.351  1.00  0.00     0.107 C 
ATOM     78  C   UNL     1       3.709  -3.415 -10.675  1.00  0.00     0.027 C 
ATOM     79  C   UNL     1       2.078  -4.351  -8.857  1.00  0.00     0.136 C 
ATOM     80  C   UNL     1       2.839  -4.091 -11.727  1.00  0.00     0.002 C 
ATOM     81  C   UNL     1       1.283  -4.999  -9.991  1.00  0.00     0.034 C 
ATOM     82  C   UNL     1       2.172  -5.345 -11.176  1.00  0.00     0.003 C 
BRANCH  79  83
ATOM     83  O   UNL     1       1.150  -3.902  -7.857  1.00  0.00    -0.391 OA
ATOM     84  H   UNL     1       0.551  -3.245  -8.243  1.00  0.00     0.211 HD
ENDBRANCH  79  83
ENDBRANCH  75  77
ENDBRANCH  73  75
ENDBRANCH  66  69
ENDBRANCH  64  65
ENDBRANCH   1  64
TORSDOF 14
