REMARK SMILES CC1(C)COCCN1C(=O)N1CCO[C@@H](CC(=O)NCCCCNC(=O)c2ccc(-c3c4nc(c(-c5c(F)cccc5F)c5ccc([nH]5)c(-c5c(F)cccc5F)c5nc(c(-c6c(F)cccc6F)c6ccc3[nH]6)C=C5)C=C4)cc2)C1
REMARK SMILES IDX 21 1 20 2 19 3 17 4 18 5 16 7 15 8 11 9 12 10 81 11 13 12
REMARK SMILES IDX 14 13 9 14 10 15 8 16 1 17 2 18 3 19 4 20 5 21 7 22 6 23
REMARK SMILES IDX 22 24 23 25 24 26 25 27 26 29 27 30 28 31 80 32 29 33 79 34
REMARK SMILES IDX 30 35 31 36 32 37 73 38 33 39 78 40 72 41 74 42 34 43 77 44
REMARK SMILES IDX 71 45 70 46 35 48 61 49 44 50 60 51 45 52 48 53 59 54 75 55
REMARK SMILES IDX 46 56 47 57 58 59 76 60 49 61 36 62 37 63 42 64 38 65 39 66
REMARK SMILES IDX 41 67 43 68 40 69 62 70 63 71 68 72 64 73 65 74 67 75 69 76
REMARK SMILES IDX 66 77 50 78 51 79 56 80 52 81 53 82 55 83 57 84 54 85
REMARK H PARENT 19 6 24 28 74 47 48 58
REMARK Flexibility Score: inf
ROOT
ATOM      1  C   UNL     1      -0.968  -1.148  -5.729  1.00  0.00     0.023 C 
ENDROOT
BRANCH   1   2
ATOM      2  C   UNL     1      -0.633  -0.095  -4.661  1.00  0.00     0.116 C 
BRANCH   2   3
ATOM      3  N   UNL     1      -1.740   0.849  -4.492  1.00  0.00    -0.356 N 
ATOM      4  C   UNL     1      -1.990   1.467  -3.303  1.00  0.00     0.222 C 
ATOM      5  O   UNL     1      -1.435   2.548  -3.085  1.00  0.00    -0.275 OA
ATOM      6  H   UNL     1      -2.322   1.043  -5.262  1.00  0.00     0.163 HD
BRANCH   4   7
ATOM      7  C   UNL     1      -3.068   0.958  -2.352  1.00  0.00     0.133 C 
BRANCH   7   8
ATOM      8  C   UNL     1      -3.653  -0.456  -2.408  1.00  0.00     0.147 C 
ATOM      9  N   UNL     1      -1.815  -1.753  -1.391  1.00  0.00    -0.320 N 
ATOM     10  C   UNL     1      -2.601  -1.998  -0.183  1.00  0.00     0.150 C 
ATOM     11  C   UNL     1      -2.698  -1.633  -2.539  1.00  0.00     0.154 C 
ATOM     12  C   UNL     1      -3.730  -0.956  -0.028  1.00  0.00     0.182 C 
ATOM     13  O   UNL     1      -4.482  -0.707  -1.238  1.00  0.00    -0.374 OA
BRANCH   9  14
ATOM     14  C   UNL     1      -0.641  -2.443  -1.602  1.00  0.00     0.320 C 
ATOM     15  O   UNL     1      -0.638  -3.397  -2.386  1.00  0.00    -0.248 OA
BRANCH  14  16
ATOM     16  N   UNL     1       0.528  -1.975  -1.020  1.00  0.00    -0.315 N 
ATOM     17  C   UNL     1       1.384  -0.880   1.062  1.00  0.00     0.037 C 
ATOM     18  C   UNL     1       0.853  -0.650  -0.369  1.00  0.00     0.062 C 
ATOM     19  C   UNL     1      -0.277   0.369  -0.264  1.00  0.00     0.037 C 
ATOM     20  C   UNL     1       1.960   0.034  -1.229  1.00  0.00     0.188 C 
ATOM     21  O   UNL     1       3.142  -0.773  -1.306  1.00  0.00    -0.377 OA
ATOM     22  C   UNL     1       1.735  -2.800  -1.255  1.00  0.00     0.150 C 
ATOM     23  C   UNL     1       2.858  -2.017  -1.951  1.00  0.00     0.182 C 
ENDBRANCH  14  16
ENDBRANCH   9  14
ENDBRANCH   7   8
ENDBRANCH   4   7
ENDBRANCH   2   3
ENDBRANCH   1   2
BRANCH   1  24
ATOM     24  C   UNL     1       0.254  -1.786  -6.389  1.00  0.00     0.023 C 
BRANCH  24  25
ATOM     25  C   UNL     1       1.202  -2.474  -5.414  1.00  0.00     0.116 C 
BRANCH  25  26
ATOM     26  N   UNL     1       0.973  -3.901  -5.261  1.00  0.00    -0.352 N 
ATOM     27  C   UNL     1       1.702  -4.967  -5.741  1.00  0.00     0.251 C 
ATOM     28  H   UNL     1       0.177  -4.143  -4.734  1.00  0.00     0.163 HD
ATOM     29  O   UNL     1       1.306  -6.121  -5.596  1.00  0.00    -0.269 OA
BRANCH  27  30
ATOM     30  C   UNL     1       2.965  -4.724  -6.473  1.00  0.00     0.039 A 
ATOM     31  C   UNL     1       3.149  -5.317  -7.724  1.00  0.00     0.014 A 
ATOM     32  C   UNL     1       3.955  -3.896  -5.939  1.00  0.00     0.014 A 
ATOM     33  C   UNL     1       4.274  -4.989  -8.487  1.00  0.00     0.010 A 
ATOM     34  C   UNL     1       5.030  -3.504  -6.733  1.00  0.00     0.010 A 
ATOM     35  C   UNL     1       5.194  -4.035  -8.021  1.00  0.00    -0.014 A 
BRANCH  35  36
ATOM     36  C   UNL     1       6.314  -3.562  -8.877  1.00  0.00     0.031 A 
ATOM     37  C   UNL     1       7.740  -3.792  -8.462  1.00  0.00     0.074 A 
ATOM     38  C   UNL     1       6.048  -2.861  -9.997  1.00  0.00     0.049 A 
ATOM     39  N   UNL     1       8.845  -3.403  -9.047  1.00  0.00    -0.248 NA
ATOM     40  C   UNL     1       7.953  -4.535  -7.210  1.00  0.00     0.031 C 
ATOM     41  C   UNL     1       4.710  -2.521 -10.486  1.00  0.00     0.029 A 
ATOM     42  N   UNL     1       6.891  -2.300 -10.925  1.00  0.00    -0.354 N 
ATOM     43  C   UNL     1       9.880  -3.841  -8.230  1.00  0.00     0.074 A 
ATOM     44  C   UNL     1       9.270  -4.474  -7.081  1.00  0.00     0.031 C 
ATOM     45  C   UNL     1       4.822  -1.841 -11.638  1.00  0.00     0.029 A 
ATOM     46  C   UNL     1       6.236  -1.663 -11.951  1.00  0.00     0.049 A 
ATOM     47  H   UNL     1       7.872  -2.350 -10.860  1.00  0.00     0.167 HD
ATOM     48  C   UNL     1      11.216  -3.748  -8.430  1.00  0.00     0.037 A 
ATOM     49  C   UNL     1       6.720  -1.009 -13.024  1.00  0.00     0.037 A 
ATOM     50  C   UNL     1      11.824  -3.138  -9.583  1.00  0.00     0.049 A 
ATOM     51  C   UNL     1       8.207  -0.911 -13.221  1.00  0.00     0.074 A 
ATOM     52  C   UNL     1      13.168  -3.047  -9.903  1.00  0.00     0.029 A 
ATOM     53  N   UNL     1      11.126  -2.514 -10.606  1.00  0.00    -0.354 N 
ATOM     54  N   UNL     1       9.172  -1.390 -12.474  1.00  0.00    -0.248 NA
ATOM     55  C   UNL     1       8.671  -0.185 -14.412  1.00  0.00     0.031 C 
ATOM     56  C   UNL     1      13.285  -2.333 -11.101  1.00  0.00     0.029 A 
ATOM     57  C   UNL     1      12.012  -2.017 -11.548  1.00  0.00     0.049 A 
ATOM     58  H   UNL     1      10.146  -2.435 -10.655  1.00  0.00     0.167 HD
ATOM     59  C   UNL     1      10.354  -1.049 -13.117  1.00  0.00     0.074 A 
ATOM     60  C   UNL     1       9.986  -0.331 -14.320  1.00  0.00     0.031 C 
ATOM     61  C   UNL     1      11.631  -1.311 -12.745  1.00  0.00     0.037 A 
BRANCH  48  62
ATOM     62  C   UNL     1      12.109  -4.328  -7.372  1.00  0.00     0.057 A 
ATOM     63  C   UNL     1      12.211  -5.711  -7.172  1.00  0.00     0.134 A 
ATOM     64  C   UNL     1      12.884  -3.498  -6.553  1.00  0.00     0.134 A 
ATOM     65  F   UNL     1      11.486  -6.561  -7.915  1.00  0.00    -0.206 F 
ATOM     66  C   UNL     1      13.025  -6.247  -6.172  1.00  0.00     0.040 A 
ATOM     67  C   UNL     1      13.723  -4.023  -5.568  1.00  0.00     0.040 A 
ATOM     68  F   UNL     1      12.840  -2.165  -6.696  1.00  0.00    -0.206 F 
ATOM     69  C   UNL     1      13.788  -5.401  -5.370  1.00  0.00     0.006 A 
ENDBRANCH  48  62
BRANCH  49  70
ATOM     70  C   UNL     1       5.786  -0.424 -14.019  1.00  0.00     0.057 A 
ATOM     71  C   UNL     1       5.641  -0.995 -15.289  1.00  0.00     0.134 A 
ATOM     72  C   UNL     1       5.019   0.710 -13.730  1.00  0.00     0.134 A 
ATOM     73  F   UNL     1       6.364  -2.071 -15.631  1.00  0.00    -0.206 F 
ATOM     74  C   UNL     1       4.779  -0.451 -16.242  1.00  0.00     0.040 A 
ATOM     75  C   UNL     1       4.136   1.252 -14.665  1.00  0.00     0.040 A 
ATOM     76  F   UNL     1       5.107   1.299 -12.528  1.00  0.00    -0.206 F 
ATOM     77  C   UNL     1       4.018   0.674 -15.928  1.00  0.00     0.006 A 
ENDBRANCH  49  70
BRANCH  61  78
ATOM     78  C   UNL     1      12.724  -0.851 -13.664  1.00  0.00     0.057 A 
ATOM     79  C   UNL     1      13.082   0.499 -13.767  1.00  0.00     0.134 A 
ATOM     80  C   UNL     1      13.456  -1.776 -14.418  1.00  0.00     0.134 A 
ATOM     81  F   UNL     1      12.410   1.435 -13.081  1.00  0.00    -0.206 F 
ATOM     82  C   UNL     1      14.121   0.914 -14.603  1.00  0.00     0.040 A 
ATOM     83  C   UNL     1      14.511  -1.376 -15.238  1.00  0.00     0.040 A 
ATOM     84  F   UNL     1      13.167  -3.085 -14.359  1.00  0.00    -0.206 F 
ATOM     85  C   UNL     1      14.844  -0.026 -15.335  1.00  0.00     0.006 A 
ENDBRANCH  61  78
ENDBRANCH  35  36
ENDBRANCH  27  30
ENDBRANCH  25  26
ENDBRANCH  24  25
ENDBRANCH   1  24
TORSDOF 14
