REMARK SMILES CC(=O)Nc1ccc(/C(=C\c2ccc(S(C)(=O)=O)cc2)C(=O)NCCCCNC(=O)c2ccc(-c3c4nc(c(-c5c(F)cccc5F)c5ccc([nH]5)c(-c5c(F)cccc5F)c5nc(c(-c6c(F)cccc6F)c6ccc3[nH]6)C=C5)C=C4)cc2)cc1
REMARK SMILES IDX 25 1 24 2 23 3 21 4 22 5 9 7 10 8 8 9 5 10 6 11 86 12 7 13
REMARK SMILES IDX 85 14 4 15 1 16 2 17 3 18 11 20 12 21 20 22 13 23 19 24
REMARK SMILES IDX 14 25 15 26 16 27 17 28 18 29 26 30 27 31 28 32 29 33 30 35
REMARK SMILES IDX 31 36 32 37 84 38 33 39 83 40 34 41 35 42 36 43 77 44 37 45
REMARK SMILES IDX 82 46 76 47 78 48 38 49 81 50 75 51 74 52 39 54 65 55 48 56
REMARK SMILES IDX 64 57 49 58 52 59 63 60 79 61 50 62 51 63 62 65 80 66 53 67
REMARK SMILES IDX 40 68 41 69 46 70 42 71 43 72 45 73 47 74 44 75 66 76 67 77
REMARK SMILES IDX 72 78 68 79 69 80 71 81 73 82 70 83 54 84 55 85 60 86 56 87
REMARK SMILES IDX 57 88 59 89 61 90 58 91
REMARK H PARENT 23 6 4 19 28 34 78 53 52 64
REMARK Flexibility Score: inf
ROOT
ATOM      1  C   UNL     1       5.953  -4.211   7.625  1.00  0.00     0.023 C 
ENDROOT
BRANCH   1   2
ATOM      2  C   UNL     1       6.423  -2.784   7.323  1.00  0.00     0.116 C 
BRANCH   2   3
ATOM      3  N   UNL     1       6.372  -2.526   5.899  1.00  0.00    -0.352 N 
ATOM      4  C   UNL     1       5.496  -1.924   5.052  1.00  0.00     0.251 C 
ATOM      5  O   UNL     1       5.886  -1.917   3.880  1.00  0.00    -0.269 OA
ATOM      6  H   UNL     1       7.167  -2.870   5.430  1.00  0.00     0.163 HD
BRANCH   4   7
ATOM      7  C   UNL     1       4.182  -1.254   5.465  1.00  0.00     0.047 C 
ATOM      8  C   UNL     1       3.595  -1.646   6.622  1.00  0.00     0.022 C 
BRANCH   7   9
ATOM      9  C   UNL     1       3.479  -0.326   4.500  1.00  0.00    -0.013 A 
ATOM     10  C   UNL     1       1.812   1.058   2.626  1.00  0.00     0.041 A 
ATOM     11  C   UNL     1       1.817   1.404   3.978  1.00  0.00     0.027 A 
ATOM     12  C   UNL     1       2.747   0.132   2.196  1.00  0.00     0.027 A 
ATOM     13  C   UNL     1       2.663   0.747   4.892  1.00  0.00     0.011 A 
ATOM     14  C   UNL     1       3.535  -0.568   3.118  1.00  0.00     0.011 A 
BRANCH  10  15
ATOM     15  N   UNL     1       0.866   1.675   1.791  1.00  0.00    -0.326 N 
ATOM     16  C   UNL     1       0.801   0.104  -0.163  1.00  0.00     0.114 C 
ATOM     17  C   UNL     1       0.406   1.376   0.539  1.00  0.00     0.221 C 
ATOM     18  O   UNL     1      -0.383   2.158   0.002  1.00  0.00    -0.275 OA
ATOM     19  H   UNL     1       0.454   2.479   2.183  1.00  0.00     0.169 HD
ENDBRANCH  10  15
ENDBRANCH   7   9
BRANCH   8  20
ATOM     20  C   UNL     1       2.441  -1.095   7.345  1.00  0.00    -0.025 A 
ATOM     21  C   UNL     1       2.698  -0.325   8.493  1.00  0.00     0.009 A 
ATOM     22  C   UNL     1       1.125  -1.284   6.918  1.00  0.00     0.009 A 
ATOM     23  C   UNL     1       1.653   0.288   9.184  1.00  0.00     0.021 A 
ATOM     24  C   UNL     1       0.073  -0.668   7.604  1.00  0.00     0.021 A 
ATOM     25  C   UNL     1       0.344   0.115   8.731  1.00  0.00     0.067 A 
BRANCH  25  26
ATOM     26  S   UNL     1      -0.972   0.986   9.551  1.00  0.00     0.175 S 
ATOM     27  C   UNL     1      -1.243   0.045  11.029  1.00  0.00     0.163 C 
ATOM     28  O   UNL     1      -0.451   2.285   9.927  1.00  0.00    -0.224 OA
ATOM     29  O   UNL     1      -2.157   0.869   8.722  1.00  0.00    -0.224 OA
ENDBRANCH  25  26
ENDBRANCH   8  20
ENDBRANCH   4   7
ENDBRANCH   2   3
ENDBRANCH   1   2
BRANCH   1  30
ATOM     30  C   UNL     1       6.975  -5.298   7.275  1.00  0.00     0.023 C 
BRANCH  30  31
ATOM     31  C   UNL     1       8.323  -5.164   7.973  1.00  0.00     0.116 C 
BRANCH  31  32
ATOM     32  N   UNL     1       8.211  -5.062   9.420  1.00  0.00    -0.352 N 
ATOM     33  C   UNL     1       9.053  -5.565  10.382  1.00  0.00     0.251 C 
ATOM     34  H   UNL     1       7.428  -4.568   9.754  1.00  0.00     0.163 HD
ATOM     35  O   UNL     1       8.755  -5.493  11.569  1.00  0.00    -0.269 OA
BRANCH  33  36
ATOM     36  C   UNL     1      10.300  -6.231   9.963  1.00  0.00     0.039 A 
ATOM     37  C   UNL     1      10.586  -7.501  10.465  1.00  0.00     0.014 A 
ATOM     38  C   UNL     1      11.150  -5.623   9.035  1.00  0.00     0.014 A 
ATOM     39  C   UNL     1      11.691  -8.198   9.977  1.00  0.00     0.010 A 
ATOM     40  C   UNL     1      12.206  -6.348   8.495  1.00  0.00     0.010 A 
ATOM     41  C   UNL     1      12.482  -7.645   8.956  1.00  0.00    -0.014 A 
BRANCH  41  42
ATOM     42  C   UNL     1      13.586  -8.420   8.338  1.00  0.00     0.031 A 
ATOM     43  C   UNL     1      15.005  -7.942   8.452  1.00  0.00     0.074 A 
ATOM     44  C   UNL     1      13.296  -9.515   7.609  1.00  0.00     0.049 A 
ATOM     45  N   UNL     1      16.091  -8.451   7.930  1.00  0.00    -0.248 NA
ATOM     46  C   UNL     1      15.229  -6.714   9.230  1.00  0.00     0.031 C 
ATOM     47  C   UNL     1      11.950 -10.044   7.375  1.00  0.00     0.029 A 
ATOM     48  N   UNL     1      14.114 -10.374   6.919  1.00  0.00    -0.354 N 
ATOM     49  C   UNL     1      17.123  -7.600   8.303  1.00  0.00     0.074 A 
ATOM     50  C   UNL     1      16.526  -6.513   9.048  1.00  0.00     0.031 C 
ATOM     51  C   UNL     1      12.037 -11.146   6.613  1.00  0.00     0.029 A 
ATOM     52  C   UNL     1      13.436 -11.378   6.271  1.00  0.00     0.049 A 
ATOM     53  H   UNL     1      15.093 -10.279   6.890  1.00  0.00     0.167 HD
ATOM     54  C   UNL     1      18.450  -7.725   8.063  1.00  0.00     0.037 A 
ATOM     55  C   UNL     1      13.890 -12.369   5.480  1.00  0.00     0.037 A 
ATOM     56  C   UNL     1      19.038  -8.819   7.336  1.00  0.00     0.049 A 
ATOM     57  C   UNL     1      15.367 -12.484   5.225  1.00  0.00     0.074 A 
ATOM     58  C   UNL     1      20.378  -9.079   7.108  1.00  0.00     0.029 A 
ATOM     59  N   UNL     1      18.322  -9.828   6.709  1.00  0.00    -0.354 N 
ATOM     60  N   UNL     1      16.342 -11.724   5.662  1.00  0.00    -0.248 NA
ATOM     61  C   UNL     1      15.807 -13.597   4.373  1.00  0.00     0.031 C 
ATOM     62  C   UNL     1      20.470 -10.212   6.292  1.00  0.00     0.029 A 
ATOM     63  C   UNL     1      19.190 -10.692   6.062  1.00  0.00     0.049 A 
ATOM     64  H   UNL     1      17.342  -9.916   6.721  1.00  0.00     0.167 HD
ATOM     65  C   UNL     1      17.511 -12.277   5.155  1.00  0.00     0.074 A 
ATOM     66  C   UNL     1      17.124 -13.448   4.396  1.00  0.00     0.031 C 
ATOM     67  C   UNL     1      18.790 -11.851   5.304  1.00  0.00     0.037 A 
BRANCH  54  68
ATOM     68  C   UNL     1      19.354  -6.646   8.587  1.00  0.00     0.057 A 
ATOM     69  C   UNL     1      19.581  -6.467   9.958  1.00  0.00     0.134 A 
ATOM     70  C   UNL     1      20.028  -5.791   7.706  1.00  0.00     0.134 A 
ATOM     71  F   UNL     1      18.958  -7.244  10.858  1.00  0.00    -0.206 F 
ATOM     72  C   UNL     1      20.422  -5.460  10.435  1.00  0.00     0.040 A 
ATOM     73  C   UNL     1      20.895  -4.799   8.169  1.00  0.00     0.040 A 
ATOM     74  F   UNL     1      19.862  -5.909   6.380  1.00  0.00    -0.206 F 
ATOM     75  C   UNL     1      21.087  -4.627   9.539  1.00  0.00     0.006 A 
ENDBRANCH  54  68
BRANCH  55  76
ATOM     76  C   UNL     1      12.934 -13.335   4.882  1.00  0.00     0.057 A 
ATOM     77  C   UNL     1      12.895 -14.670   5.301  1.00  0.00     0.134 A 
ATOM     78  C   UNL     1      12.033 -12.947   3.882  1.00  0.00     0.134 A 
ATOM     79  F   UNL     1      13.745 -15.107   6.242  1.00  0.00    -0.206 F 
ATOM     80  C   UNL     1      12.009 -15.589   4.736  1.00  0.00     0.040 A 
ATOM     81  C   UNL     1      11.123 -13.848   3.328  1.00  0.00     0.040 A 
ATOM     82  F   UNL     1      12.012 -11.680   3.444  1.00  0.00    -0.206 F 
ATOM     83  C   UNL     1      11.114 -15.176   3.750  1.00  0.00     0.006 A 
ENDBRANCH  55  76
BRANCH  67  84
ATOM     84  C   UNL     1      19.867 -12.668   4.650  1.00  0.00     0.057 A 
ATOM     85  C   UNL     1      20.039 -12.686   3.260  1.00  0.00     0.134 A 
ATOM     86  C   UNL     1      20.769 -13.410   5.423  1.00  0.00     0.134 A 
ATOM     87  F   UNL     1      19.201 -12.007   2.462  1.00  0.00    -0.206 F 
ATOM     88  C   UNL     1      21.056 -13.431   2.661  1.00  0.00     0.040 A 
ATOM     89  C   UNL     1      21.808 -14.135   4.838  1.00  0.00     0.040 A 
ATOM     90  F   UNL     1      20.666 -13.429   6.760  1.00  0.00    -0.206 F 
ATOM     91  C   UNL     1      21.950 -14.152   3.452  1.00  0.00     0.006 A 
ENDBRANCH  67  84
ENDBRANCH  41  42
ENDBRANCH  33  36
ENDBRANCH  31  32
ENDBRANCH  30  31
ENDBRANCH   1  30
TORSDOF 15
